MODEL 1
REMARK VINA RESULT:       1.1      0.000      0.000
REMARK  2 active torsions:
REMARK  status: ('A' for Active; 'I' for Inactive)
REMARK    1  A    between atoms: C1_1  and  S11_11 
REMARK    2  A    between atoms: C8_8  and  S11_11 
ROOT
HETATM    1  C2  UNL     1     -31.834   8.454   0.141  1.00 20.00     0.005 C 
HETATM    2  C3  UNL     1     -32.543   9.572   0.918  1.00 20.00     0.006 C 
HETATM    3  C4  UNL     1     -31.153   8.371   2.419  1.00 20.00     0.010 C 
HETATM    4  C5  UNL     1     -32.742   6.736   1.728  1.00 20.00     0.020 C 
HETATM    5  C6  UNL     1     -31.463   7.447   1.243  1.00 20.00    -0.013 C 
HETATM    6  C7  UNL     1     -32.525   9.050   2.368  1.00 20.00     0.000 C 
HETATM    7  C8  UNL     1     -33.506   7.860   2.458  1.00 20.00     0.059 C 
ENDROOT
BRANCH   7   8
HETATM    8  S11 UNL     1     -33.888   7.418   4.184  1.00 20.00    -0.088 SA
BRANCH   8   9
HETATM    9  C1  UNL     1     -35.094   6.164   3.917  1.00 20.00     0.182 C 
HETATM   10  C9  UNL     1     -34.624   4.795   4.321  1.00 20.00     0.104 C 
HETATM   11  O10 UNL     1     -36.205   6.377   3.449  1.00 20.00    -0.286 OA
ENDBRANCH   8   9
ENDBRANCH   7   8
TORSDOF 2
ENDMDL
MODEL 2
REMARK VINA RESULT:       1.4      2.473      4.560
REMARK  2 active torsions:
REMARK  status: ('A' for Active; 'I' for Inactive)
REMARK    1  A    between atoms: C1_1  and  S11_11 
REMARK    2  A    between atoms: C8_8  and  S11_11 
ROOT
HETATM    1  C2  UNL     1     -35.180   6.447   3.942  1.00 20.00     0.005 C 
HETATM    2  C3  UNL     1     -34.132   5.544   3.274  1.00 20.00     0.006 C 
HETATM    3  C4  UNL     1     -33.006   7.284   4.431  1.00 20.00     0.010 C 
HETATM    4  C5  UNL     1     -34.242   8.454   2.764  1.00 20.00     0.020 C 
HETATM    5  C6  UNL     1     -34.423   7.772   4.134  1.00 20.00    -0.013 C 
HETATM    6  C7  UNL     1     -32.913   6.477   3.132  1.00 20.00     0.000 C 
HETATM    7  C8  UNL     1     -33.240   7.526   2.046  1.00 20.00     0.059 C 
ENDROOT
BRANCH   7   8
HETATM    8  S11 UNL     1     -31.754   8.422   1.492  1.00 20.00    -0.088 SA
BRANCH   8   9
HETATM    9  C1  UNL     1     -32.477   9.511   0.313  1.00 20.00     0.182 C 
HETATM   10  C9  UNL     1     -32.619  10.920   0.818  1.00 20.00     0.104 C 
HETATM   11  O10 UNL     1     -32.831   9.164  -0.806  1.00 20.00    -0.286 OA
ENDBRANCH   8   9
ENDBRANCH   7   8
TORSDOF 2
ENDMDL
MODEL 3
REMARK VINA RESULT:       1.7      0.762      1.040
REMARK  2 active torsions:
REMARK  status: ('A' for Active; 'I' for Inactive)
REMARK    1  A    between atoms: C1_1  and  S11_11 
REMARK    2  A    between atoms: C8_8  and  S11_11 
ROOT
HETATM    1  C2  UNL     1     -31.840   8.392   0.250  1.00 20.00     0.005 C 
HETATM    2  C3  UNL     1     -32.625   9.464   1.020  1.00 20.00     0.006 C 
HETATM    3  C4  UNL     1     -31.186   8.343   2.537  1.00 20.00     0.010 C 
HETATM    4  C5  UNL     1     -32.665   6.619   1.821  1.00 20.00     0.020 C 
HETATM    5  C6  UNL     1     -31.425   7.406   1.355  1.00 20.00    -0.013 C 
HETATM    6  C7  UNL     1     -32.594   8.940   2.469  1.00 20.00     0.000 C 
HETATM    7  C8  UNL     1     -33.504   7.693   2.543  1.00 20.00     0.059 C 
ENDROOT
BRANCH   7   8
HETATM    8  S11 UNL     1     -33.882   7.223   4.262  1.00 20.00    -0.088 SA
BRANCH   8   9
HETATM    9  C1  UNL     1     -35.232   6.127   3.989  1.00 20.00     0.182 C 
HETATM   10  C9  UNL     1     -36.290   6.704   3.090  1.00 20.00     0.104 C 
HETATM   11  O10 UNL     1     -35.309   5.007   4.478  1.00 20.00    -0.286 OA
ENDBRANCH   8   9
ENDBRANCH   7   8
TORSDOF 2
ENDMDL
MODEL 4
REMARK VINA RESULT:       1.8      2.669      4.316
REMARK  2 active torsions:
REMARK  status: ('A' for Active; 'I' for Inactive)
REMARK    1  A    between atoms: C1_1  and  S11_11 
REMARK    2  A    between atoms: C8_8  and  S11_11 
ROOT
HETATM    1  C2  UNL     1     -33.552   5.910   3.265  1.00 20.00     0.005 C 
HETATM    2  C3  UNL     1     -33.883   7.410   3.254  1.00 20.00     0.006 C 
HETATM    3  C4  UNL     1     -33.814   6.634   1.013  1.00 20.00     0.010 C 
HETATM    4  C5  UNL     1     -31.578   6.306   1.767  1.00 20.00     0.020 C 
HETATM    5  C6  UNL     1     -32.980   5.672   1.857  1.00 20.00    -0.013 C 
HETATM    6  C7  UNL     1     -33.424   7.855   1.851  1.00 20.00     0.000 C 
HETATM    7  C8  UNL     1     -31.880   7.818   1.822  1.00 20.00     0.059 C 
ENDROOT
BRANCH   7   8
HETATM    8  S11 UNL     1     -31.202   8.702   0.380  1.00 20.00    -0.088 SA
BRANCH   8   9
HETATM    9  C1  UNL     1     -32.497   9.861   0.098  1.00 20.00     0.182 C 
HETATM   10  C9  UNL     1     -32.634  10.875   1.199  1.00 20.00     0.104 C 
HETATM   11  O10 UNL     1     -33.217   9.849  -0.892  1.00 20.00    -0.286 OA
ENDBRANCH   8   9
ENDBRANCH   7   8
TORSDOF 2
ENDMDL
MODEL 5
REMARK VINA RESULT:       1.8      1.384      2.221
REMARK  2 active torsions:
REMARK  status: ('A' for Active; 'I' for Inactive)
REMARK    1  A    between atoms: C1_1  and  S11_11 
REMARK    2  A    between atoms: C8_8  and  S11_11 
ROOT
HETATM    1  C2  UNL     1     -31.040   7.279   1.442  1.00 20.00     0.005 C 
HETATM    2  C3  UNL     1     -31.677   5.882   1.397  1.00 20.00     0.006 C 
HETATM    3  C4  UNL     1     -33.358   7.495   0.951  1.00 20.00     0.010 C 
HETATM    4  C5  UNL     1     -32.696   8.007   3.181  1.00 20.00     0.020 C 
HETATM    5  C6  UNL     1     -32.242   8.198   1.720  1.00 20.00    -0.013 C 
HETATM    6  C7  UNL     1     -33.162   6.169   1.692  1.00 20.00     0.000 C 
HETATM    7  C8  UNL     1     -33.282   6.580   3.176  1.00 20.00     0.059 C 
ENDROOT
BRANCH   7   8
HETATM    8  S11 UNL     1     -35.008   6.547   3.758  1.00 20.00    -0.088 SA
BRANCH   8   9
HETATM    9  C1  UNL     1     -35.052   4.947   4.490  1.00 20.00     0.182 C 
HETATM   10  C9  UNL     1     -33.898   4.076   4.080  1.00 20.00     0.104 C 
HETATM   11  O10 UNL     1     -35.932   4.573   5.256  1.00 20.00    -0.286 OA
ENDBRANCH   8   9
ENDBRANCH   7   8
TORSDOF 2
ENDMDL
MODEL 6
REMARK VINA RESULT:       2.2      2.174      4.494
REMARK  2 active torsions:
REMARK  status: ('A' for Active; 'I' for Inactive)
REMARK    1  A    between atoms: C1_1  and  S11_11 
REMARK    2  A    between atoms: C8_8  and  S11_11 
ROOT
HETATM    1  C2  UNL     1     -35.557   6.019   4.305  1.00 20.00     0.005 C 
HETATM    2  C3  UNL     1     -34.669   4.794   4.043  1.00 20.00     0.006 C 
HETATM    3  C4  UNL     1     -33.272   6.664   4.468  1.00 20.00     0.010 C 
HETATM    4  C5  UNL     1     -34.407   7.281   2.467  1.00 20.00     0.020 C 
HETATM    5  C6  UNL     1     -34.621   7.198   3.991  1.00 20.00    -0.013 C 
HETATM    6  C7  UNL     1     -33.342   5.423   3.573  1.00 20.00     0.000 C 
HETATM    7  C8  UNL     1     -33.570   6.021   2.167  1.00 20.00     0.059 C 
ENDROOT
BRANCH   7   8
HETATM    8  S11 UNL     1     -32.001   6.425   1.333  1.00 20.00    -0.088 SA
BRANCH   8   9
HETATM    9  C1  UNL     1     -31.881   8.137   1.725  1.00 20.00     0.182 C 
HETATM   10  C9  UNL     1     -32.273   9.034   0.584  1.00 20.00     0.104 C 
HETATM   11  O10 UNL     1     -31.514   8.562   2.813  1.00 20.00    -0.286 OA
ENDBRANCH   8   9
ENDBRANCH   7   8
TORSDOF 2
ENDMDL
MODEL 7
REMARK VINA RESULT:       2.2      2.281      3.170
REMARK  2 active torsions:
REMARK  status: ('A' for Active; 'I' for Inactive)
REMARK    1  A    between atoms: C1_1  and  S11_11 
REMARK    2  A    between atoms: C8_8  and  S11_11 
ROOT
HETATM    1  C2  UNL     1     -31.943   7.699   1.782  1.00 20.00     0.005 C 
HETATM    2  C3  UNL     1     -31.645   6.206   1.578  1.00 20.00     0.006 C 
HETATM    3  C4  UNL     1     -33.987   6.540   1.404  1.00 20.00     0.010 C 
HETATM    4  C5  UNL     1     -33.519   7.155   3.657  1.00 20.00     0.020 C 
HETATM    5  C6  UNL     1     -33.418   7.700   2.219  1.00 20.00    -0.013 C 
HETATM    6  C7  UNL     1     -32.977   5.532   1.959  1.00 20.00     0.000 C 
HETATM    7  C8  UNL     1     -33.157   5.665   3.488  1.00 20.00     0.059 C 
ENDROOT
BRANCH   7   8
HETATM    8  S11 UNL     1     -34.467   4.567   4.120  1.00 20.00    -0.088 SA
BRANCH   8   9
HETATM    9  C1  UNL     1     -33.494   3.188   4.620  1.00 20.00     0.182 C 
HETATM   10  C9  UNL     1     -32.532   3.513   5.728  1.00 20.00     0.104 C 
HETATM   11  O10 UNL     1     -33.584   2.074   4.119  1.00 20.00    -0.286 OA
ENDBRANCH   8   9
ENDBRANCH   7   8
TORSDOF 2
ENDMDL
MODEL 8
REMARK VINA RESULT:       2.2      0.920      1.879
REMARK  2 active torsions:
REMARK  status: ('A' for Active; 'I' for Inactive)
REMARK    1  A    between atoms: C1_1  and  S11_11 
REMARK    2  A    between atoms: C8_8  and  S11_11 
ROOT
HETATM    1  C2  UNL     1     -31.062   7.107   1.053  1.00 20.00     0.005 C 
HETATM    2  C3  UNL     1     -31.972   5.915   1.386  1.00 20.00     0.006 C 
HETATM    3  C4  UNL     1     -33.320   7.853   1.146  1.00 20.00     0.010 C 
HETATM    4  C5  UNL     1     -31.955   8.375   3.026  1.00 20.00     0.020 C 
HETATM    5  C6  UNL     1     -31.906   8.318   1.487  1.00 20.00    -0.013 C 
HETATM    6  C7  UNL     1     -33.212   6.589   2.005  1.00 20.00     0.000 C 
HETATM    7  C8  UNL     1     -32.811   7.144   3.390  1.00 20.00     0.059 C 
ENDROOT
BRANCH   7   8
HETATM    8  S11 UNL     1     -34.264   7.595   4.393  1.00 20.00    -0.088 SA
BRANCH   8   9
HETATM    9  C1  UNL     1     -35.367   6.303   3.929  1.00 20.00     0.182 C 
HETATM   10  C9  UNL     1     -34.961   4.959   4.463  1.00 20.00     0.104 C 
HETATM   11  O10 UNL     1     -36.365   6.476   3.240  1.00 20.00    -0.286 OA
ENDBRANCH   8   9
ENDBRANCH   7   8
TORSDOF 2
ENDMDL
MODEL 9
REMARK VINA RESULT:       2.3      2.531      4.551
REMARK  2 active torsions:
REMARK  status: ('A' for Active; 'I' for Inactive)
REMARK    1  A    between atoms: C1_1  and  S11_11 
REMARK    2  A    between atoms: C8_8  and  S11_11 
ROOT
HETATM    1  C2  UNL     1     -35.285   6.494   4.213  1.00 20.00     0.005 C 
HETATM    2  C3  UNL     1     -35.474   6.561   2.691  1.00 20.00     0.006 C 
HETATM    3  C4  UNL     1     -33.350   5.606   3.149  1.00 20.00     0.010 C 
HETATM    4  C5  UNL     1     -33.155   7.808   4.036  1.00 20.00     0.020 C 
HETATM    5  C6  UNL     1     -33.756   6.429   4.370  1.00 20.00    -0.013 C 
HETATM    6  C7  UNL     1     -34.026   6.564   2.163  1.00 20.00     0.000 C 
HETATM    7  C8  UNL     1     -33.394   7.929   2.516  1.00 20.00     0.059 C 
ENDROOT
BRANCH   7   8
HETATM    8  S11 UNL     1     -31.845   8.222   1.602  1.00 20.00    -0.088 SA
BRANCH   8   9
HETATM    9  C1  UNL     1     -32.400   9.419   0.437  1.00 20.00     0.182 C 
HETATM   10  C9  UNL     1     -32.716  10.750   1.061  1.00 20.00     0.104 C 
HETATM   11  O10 UNL     1     -32.520   9.198  -0.761  1.00 20.00    -0.286 OA
ENDBRANCH   8   9
ENDBRANCH   7   8
TORSDOF 2
ENDMDL
