MODEL 1
REMARK VINA RESULT:      -1.1      0.000      0.000
REMARK  1 active torsions:
REMARK  status: ('A' for Active; 'I' for Inactive)
REMARK    1  A    between atoms: C3_3  and  C7_7 
ROOT
HETATM    1  C1  UNL     1     -34.819   5.127   4.382  1.00 20.00    -0.020 C 
HETATM    2  C2  UNL     1     -33.773   4.430   3.905  1.00 20.00    -0.086 C 
HETATM    3  C4  UNL     1     -32.791   5.023   2.925  1.00 20.00     0.045 C 
HETATM    4  C5  UNL     1     -33.917   7.247   3.340  1.00 20.00     0.020 C 
HETATM    5  C6  UNL     1     -35.110   6.562   4.030  1.00 20.00     0.005 C 
HETATM    6  C7  UNL     1     -33.267   6.339   2.297  1.00 20.00     0.051 C 
HETATM    7  C8  UNL     1     -33.511   3.012   4.321  1.00 20.00     0.043 C 
HETATM    8  C9  UNL     1     -36.376   6.641   3.173  1.00 20.00     0.014 C 
ENDROOT
BRANCH   6   9
HETATM    9  C3  UNL     1     -32.101   7.037   1.664  1.00 20.00     0.236 C 
HETATM   10  O10 UNL     1     -31.994   8.257   1.605  1.00 20.00    -0.306 OA
ENDBRANCH   6   9
TORSDOF 1
ENDMDL
MODEL 2
REMARK VINA RESULT:      -0.9      2.191      3.745
REMARK  1 active torsions:
REMARK  status: ('A' for Active; 'I' for Inactive)
REMARK    1  A    between atoms: C3_3  and  C7_7 
ROOT
HETATM    1  C1  UNL     1     -33.186   8.197   2.814  1.00 20.00    -0.020 C 
HETATM    2  C2  UNL     1     -32.614   7.273   2.022  1.00 20.00    -0.086 C 
HETATM    3  C4  UNL     1     -32.828   5.793   2.229  1.00 20.00     0.045 C 
HETATM    4  C5  UNL     1     -34.602   6.416   3.916  1.00 20.00     0.020 C 
HETATM    5  C6  UNL     1     -34.114   7.874   3.957  1.00 20.00     0.005 C 
HETATM    6  C7  UNL     1     -33.470   5.446   3.577  1.00 20.00     0.051 C 
HETATM    7  C8  UNL     1     -31.727   7.655   0.874  1.00 20.00     0.043 C 
HETATM    8  C9  UNL     1     -33.434   8.203   5.288  1.00 20.00     0.014 C 
ENDROOT
BRANCH   6   9
HETATM    9  C3  UNL     1     -33.993   4.043   3.531  1.00 20.00     0.236 C 
HETATM   10  O10 UNL     1     -33.861   3.241   4.450  1.00 20.00    -0.306 OA
ENDBRANCH   6   9
TORSDOF 1
ENDMDL
MODEL 3
REMARK VINA RESULT:      -0.9      2.256      3.749
REMARK  1 active torsions:
REMARK  status: ('A' for Active; 'I' for Inactive)
REMARK    1  A    between atoms: C3_3  and  C7_7 
ROOT
HETATM    1  C1  UNL     1     -32.035   7.099   1.489  1.00 20.00    -0.020 C 
HETATM    2  C2  UNL     1     -32.503   5.838   1.525  1.00 20.00    -0.086 C 
HETATM    3  C4  UNL     1     -33.609   5.418   2.462  1.00 20.00     0.045 C 
HETATM    4  C5  UNL     1     -33.913   7.869   2.997  1.00 20.00     0.020 C 
HETATM    5  C6  UNL     1     -32.569   8.224   2.336  1.00 20.00     0.005 C 
HETATM    6  C7  UNL     1     -33.911   6.447   3.558  1.00 20.00     0.051 C 
HETATM    7  C8  UNL     1     -31.957   4.766   0.629  1.00 20.00     0.043 C 
HETATM    8  C9  UNL     1     -31.523   8.635   3.374  1.00 20.00     0.014 C 
ENDROOT
BRANCH   6   9
HETATM    9  C3  UNL     1     -35.242   6.138   4.174  1.00 20.00     0.236 C 
HETATM   10  O10 UNL     1     -35.566   5.019   4.559  1.00 20.00    -0.306 OA
ENDBRANCH   6   9
TORSDOF 1
ENDMDL
MODEL 4
REMARK VINA RESULT:      -0.7      2.002      3.334
REMARK  1 active torsions:
REMARK  status: ('A' for Active; 'I' for Inactive)
REMARK    1  A    between atoms: C3_3  and  C7_7 
ROOT
HETATM    1  C1  UNL     1     -33.405   7.980   3.008  1.00 20.00    -0.020 C 
HETATM    2  C2  UNL     1     -33.945   6.758   3.166  1.00 20.00    -0.086 C 
HETATM    3  C4  UNL     1     -33.393   5.539   2.469  1.00 20.00     0.045 C 
HETATM    4  C5  UNL     1     -31.441   6.982   1.768  1.00 20.00     0.020 C 
HETATM    5  C6  UNL     1     -32.193   8.265   2.160  1.00 20.00     0.005 C 
HETATM    6  C7  UNL     1     -32.399   5.868   1.348  1.00 20.00     0.051 C 
HETATM    7  C8  UNL     1     -35.132   6.527   4.054  1.00 20.00     0.043 C 
HETATM    8  C9  UNL     1     -32.599   9.079   0.929  1.00 20.00     0.014 C 
ENDROOT
BRANCH   6   9
HETATM    9  C3  UNL     1     -31.626   4.634   0.993  1.00 20.00     0.236 C 
HETATM   10  O10 UNL     1     -31.611   4.146  -0.133  1.00 20.00    -0.306 OA
ENDBRANCH   6   9
TORSDOF 1
ENDMDL
MODEL 5
REMARK VINA RESULT:      -0.6      2.181      4.271
REMARK  1 active torsions:
REMARK  status: ('A' for Active; 'I' for Inactive)
REMARK    1  A    between atoms: C3_3  and  C7_7 
ROOT
HETATM    1  C1  UNL     1     -31.960   6.707   1.306  1.00 20.00    -0.020 C 
HETATM    2  C2  UNL     1     -32.437   7.782   1.958  1.00 20.00    -0.086 C 
HETATM    3  C4  UNL     1     -33.539   7.677   2.984  1.00 20.00     0.045 C 
HETATM    4  C5  UNL     1     -33.273   5.170   2.825  1.00 20.00     0.020 C 
HETATM    5  C6  UNL     1     -32.435   5.297   1.541  1.00 20.00     0.005 C 
HETATM    6  C7  UNL     1     -34.262   6.326   2.974  1.00 20.00     0.051 C 
HETATM    7  C8  UNL     1     -31.899   9.161   1.710  1.00 20.00     0.043 C 
HETATM    8  C9  UNL     1     -33.204   4.797   0.315  1.00 20.00     0.014 C 
ENDROOT
BRANCH   6   9
HETATM    9  C3  UNL     1     -35.043   6.171   4.244  1.00 20.00     0.236 C 
HETATM   10  O10 UNL     1     -35.568   5.119   4.592  1.00 20.00    -0.306 OA
ENDBRANCH   6   9
TORSDOF 1
ENDMDL
MODEL 6
REMARK VINA RESULT:      -0.6      1.632      3.213
REMARK  1 active torsions:
REMARK  status: ('A' for Active; 'I' for Inactive)
REMARK    1  A    between atoms: C3_3  and  C7_7 
ROOT
HETATM    1  C1  UNL     1     -33.582   5.532   2.449  1.00 20.00    -0.020 C 
HETATM    2  C2  UNL     1     -33.868   6.644   3.149  1.00 20.00    -0.086 C 
HETATM    3  C4  UNL     1     -33.276   7.987   2.802  1.00 20.00     0.045 C 
HETATM    4  C5  UNL     1     -32.394   6.910   0.694  1.00 20.00     0.020 C 
HETATM    5  C6  UNL     1     -32.682   5.501   1.242  1.00 20.00     0.005 C 
HETATM    6  C7  UNL     1     -32.105   7.908   1.816  1.00 20.00     0.051 C 
HETATM    7  C8  UNL     1     -34.803   6.620   4.323  1.00 20.00     0.043 C 
HETATM    8  C9  UNL     1     -31.389   4.752   1.575  1.00 20.00     0.014 C 
ENDROOT
BRANCH   6   9
HETATM    9  C3  UNL     1     -31.848   9.267   1.240  1.00 20.00     0.236 C 
HETATM   10  O10 UNL     1     -32.461   9.721   0.279  1.00 20.00    -0.306 OA
ENDBRANCH   6   9
TORSDOF 1
ENDMDL
MODEL 7
REMARK VINA RESULT:      -0.4      1.576      2.453
REMARK  1 active torsions:
REMARK  status: ('A' for Active; 'I' for Inactive)
REMARK    1  A    between atoms: C3_3  and  C7_7 
ROOT
HETATM    1  C1  UNL     1     -33.223   5.509   2.688  1.00 20.00    -0.020 C 
HETATM    2  C2  UNL     1     -32.559   5.671   1.530  1.00 20.00    -0.086 C 
HETATM    3  C4  UNL     1     -32.197   7.035   0.994  1.00 20.00     0.045 C 
HETATM    4  C5  UNL     1     -32.956   7.968   3.216  1.00 20.00     0.020 C 
HETATM    5  C6  UNL     1     -33.647   6.643   3.586  1.00 20.00     0.005 C 
HETATM    6  C7  UNL     1     -32.919   8.186   1.704  1.00 20.00     0.051 C 
HETATM    7  C8  UNL     1     -32.129   4.501   0.695  1.00 20.00     0.043 C 
HETATM    8  C9  UNL     1     -35.171   6.778   3.567  1.00 20.00     0.014 C 
ENDROOT
BRANCH   6   9
HETATM    9  C3  UNL     1     -32.224   9.476   1.389  1.00 20.00     0.236 C 
HETATM   10  O10 UNL     1     -32.435  10.128   0.372  1.00 20.00    -0.306 OA
ENDBRANCH   6   9
TORSDOF 1
ENDMDL
MODEL 8
REMARK VINA RESULT:       0.6      2.319      4.094
REMARK  1 active torsions:
REMARK  status: ('A' for Active; 'I' for Inactive)
REMARK    1  A    between atoms: C3_3  and  C7_7 
ROOT
HETATM    1  C1  UNL     1     -32.239   7.138   2.019  1.00 20.00    -0.020 C 
HETATM    2  C2  UNL     1     -32.571   7.823   3.127  1.00 20.00    -0.086 C 
HETATM    3  C4  UNL     1     -33.744   7.434   3.993  1.00 20.00     0.045 C 
HETATM    4  C5  UNL     1     -33.899   5.325   2.611  1.00 20.00     0.020 C 
HETATM    5  C6  UNL     1     -32.963   5.907   1.537  1.00 20.00     0.005 C 
HETATM    6  C7  UNL     1     -34.685   6.418   3.334  1.00 20.00     0.051 C 
HETATM    7  C8  UNL     1     -31.789   9.022   3.579  1.00 20.00     0.043 C 
HETATM    8  C9  UNL     1     -33.718   6.221   0.243  1.00 20.00     0.014 C 
ENDROOT
BRANCH   6   9
HETATM    9  C3  UNL     1     -35.568   5.808   4.380  1.00 20.00     0.236 C 
HETATM   10  O10 UNL     1     -35.442   4.657   4.784  1.00 20.00    -0.306 OA
ENDBRANCH   6   9
TORSDOF 1
ENDMDL
MODEL 9
REMARK VINA RESULT:       0.6      2.285      4.031
REMARK  1 active torsions:
REMARK  status: ('A' for Active; 'I' for Inactive)
REMARK    1  A    between atoms: C3_3  and  C7_7 
ROOT
HETATM    1  C1  UNL     1     -33.146   7.011   2.280  1.00 20.00    -0.020 C 
HETATM    2  C2  UNL     1     -33.858   7.083   3.418  1.00 20.00    -0.086 C 
HETATM    3  C4  UNL     1     -34.186   5.861   4.240  1.00 20.00     0.045 C 
HETATM    4  C5  UNL     1     -32.602   4.586   2.741  1.00 20.00     0.020 C 
HETATM    5  C6  UNL     1     -32.575   5.735   1.718  1.00 20.00     0.005 C 
HETATM    6  C7  UNL     1     -33.922   4.539   3.509  1.00 20.00     0.051 C 
HETATM    7  C8  UNL     1     -34.370   8.390   3.950  1.00 20.00     0.043 C 
HETATM    8  C9  UNL     1     -33.311   5.359   0.430  1.00 20.00     0.014 C 
ENDROOT
BRANCH   6   9
HETATM    9  C3  UNL     1     -33.897   3.419   4.504  1.00 20.00     0.236 C 
HETATM   10  O10 UNL     1     -32.868   2.857   4.865  1.00 20.00    -0.306 OA
ENDBRANCH   6   9
TORSDOF 1
ENDMDL
