MODEL 1
REMARK VINA RESULT:       2.0      0.000      0.000
REMARK  2 active torsions:
REMARK  status: ('A' for Active; 'I' for Inactive)
REMARK    1  A    between atoms: C1_1  and  S11_11 
REMARK    2  A    between atoms: C8_8  and  S11_11 
ROOT
HETATM    1  C2  UNL     1     -33.365   6.706   4.764  1.00 20.00     0.005 C 
HETATM    2  C3  UNL     1     -33.611   8.144   4.288  1.00 20.00     0.006 C 
HETATM    3  C4  UNL     1     -35.212   6.739   3.263  1.00 20.00     0.010 C 
HETATM    4  C5  UNL     1     -33.142   5.913   2.400  1.00 20.00     0.020 C 
HETATM    5  C6  UNL     1     -34.026   5.861   3.662  1.00 20.00    -0.013 C 
HETATM    6  C7  UNL     1     -34.326   7.947   2.939  1.00 20.00     0.000 C 
HETATM    7  C8  UNL     1     -33.401   7.334   1.861  1.00 20.00     0.059 C 
ENDROOT
BRANCH   7   8
HETATM    8  S11 UNL     1     -31.880   8.258   1.517  1.00 20.00    -0.088 SA
BRANCH   8   9
HETATM    9  C1  UNL     1     -32.488   9.446   0.366  1.00 20.00     0.182 C 
HETATM   10  C9  UNL     1     -32.711  10.804   0.971  1.00 20.00     0.104 C 
HETATM   11  O10 UNL     1     -32.707   9.195  -0.813  1.00 20.00    -0.286 OA
ENDBRANCH   8   9
ENDBRANCH   7   8
TORSDOF 2
ENDMDL
MODEL 2
REMARK VINA RESULT:       2.0      2.971      4.603
REMARK  2 active torsions:
REMARK  status: ('A' for Active; 'I' for Inactive)
REMARK    1  A    between atoms: C1_1  and  S11_11 
REMARK    2  A    between atoms: C8_8  and  S11_11 
ROOT
HETATM    1  C2  UNL     1     -32.662   8.777   0.743  1.00 20.00     0.005 C 
HETATM    2  C3  UNL     1     -32.849   9.232   2.197  1.00 20.00     0.006 C 
HETATM    3  C4  UNL     1     -30.968   7.802   2.103  1.00 20.00     0.010 C 
HETATM    4  C5  UNL     1     -32.764   6.373   1.433  1.00 20.00     0.020 C 
HETATM    5  C6  UNL     1     -31.842   7.483   0.890  1.00 20.00    -0.013 C 
HETATM    6  C7  UNL     1     -32.171   8.109   3.003  1.00 20.00     0.000 C 
HETATM    7  C8  UNL     1     -32.936   6.768   2.913  1.00 20.00     0.059 C 
ENDROOT
BRANCH   7   8
HETATM    8  S11 UNL     1     -34.670   6.819   3.443  1.00 20.00    -0.088 SA
BRANCH   8   9
HETATM    9  C1  UNL     1     -34.828   5.213   4.152  1.00 20.00     0.182 C 
HETATM   10  C9  UNL     1     -33.679   4.301   3.828  1.00 20.00     0.104 C 
HETATM   11  O10 UNL     1     -35.780   4.870   4.843  1.00 20.00    -0.286 OA
ENDBRANCH   8   9
ENDBRANCH   7   8
TORSDOF 2
ENDMDL
MODEL 3
REMARK VINA RESULT:       2.5      2.546      4.282
REMARK  2 active torsions:
REMARK  status: ('A' for Active; 'I' for Inactive)
REMARK    1  A    between atoms: C1_1  and  S11_11 
REMARK    2  A    between atoms: C8_8  and  S11_11 
ROOT
HETATM    1  C2  UNL     1     -31.324   6.221   1.663  1.00 20.00     0.005 C 
HETATM    2  C3  UNL     1     -32.784   5.759   1.759  1.00 20.00     0.006 C 
HETATM    3  C4  UNL     1     -32.733   7.820   0.601  1.00 20.00     0.010 C 
HETATM    4  C5  UNL     1     -31.891   8.397   2.762  1.00 20.00     0.020 C 
HETATM    5  C6  UNL     1     -31.457   7.737   1.438  1.00 20.00    -0.013 C 
HETATM    6  C7  UNL     1     -33.574   7.075   1.645  1.00 20.00     0.000 C 
HETATM    7  C8  UNL     1     -33.376   7.997   2.871  1.00 20.00     0.059 C 
ENDROOT
BRANCH   7   8
HETATM    8  S11 UNL     1     -33.804   7.268   4.476  1.00 20.00    -0.088 SA
BRANCH   8   9
HETATM    9  C1  UNL     1     -35.152   6.237   4.001  1.00 20.00     0.182 C 
HETATM   10  C9  UNL     1     -34.979   4.801   4.407  1.00 20.00     0.104 C 
HETATM   11  O10 UNL     1     -36.138   6.647   3.400  1.00 20.00    -0.286 OA
ENDBRANCH   8   9
ENDBRANCH   7   8
TORSDOF 2
ENDMDL
MODEL 4
REMARK VINA RESULT:       2.6      2.995      4.688
REMARK  2 active torsions:
REMARK  status: ('A' for Active; 'I' for Inactive)
REMARK    1  A    between atoms: C1_1  and  S11_11 
REMARK    2  A    between atoms: C8_8  and  S11_11 
ROOT
HETATM    1  C2  UNL     1     -31.218   8.147   2.750  1.00 20.00     0.005 C 
HETATM    2  C3  UNL     1     -31.479   7.305   1.494  1.00 20.00     0.006 C 
HETATM    3  C4  UNL     1     -33.386   8.642   1.900  1.00 20.00     0.010 C 
HETATM    4  C5  UNL     1     -33.285   7.248   3.839  1.00 20.00     0.020 C 
HETATM    5  C6  UNL     1     -32.637   8.505   3.225  1.00 20.00    -0.013 C 
HETATM    6  C7  UNL     1     -33.015   7.227   1.439  1.00 20.00     0.000 C 
HETATM    7  C8  UNL     1     -33.611   6.393   2.598  1.00 20.00     0.059 C 
ENDROOT
BRANCH   7   8
HETATM    8  S11 UNL     1     -33.005   4.688   2.726  1.00 20.00    -0.088 SA
BRANCH   8   9
HETATM    9  C1  UNL     1     -33.954   4.120   4.097  1.00 20.00     0.182 C 
HETATM   10  C9  UNL     1     -33.303   2.994   4.850  1.00 20.00     0.104 C 
HETATM   11  O10 UNL     1     -35.039   4.594   4.412  1.00 20.00    -0.286 OA
ENDBRANCH   8   9
ENDBRANCH   7   8
TORSDOF 2
ENDMDL
MODEL 5
REMARK VINA RESULT:       2.8      2.103      4.488
REMARK  2 active torsions:
REMARK  status: ('A' for Active; 'I' for Inactive)
REMARK    1  A    between atoms: C1_1  and  S11_11 
REMARK    2  A    between atoms: C8_8  and  S11_11 
ROOT
HETATM    1  C2  UNL     1     -33.134  10.019  -0.136  1.00 20.00     0.005 C 
HETATM    2  C3  UNL     1     -32.443  10.419   1.175  1.00 20.00     0.006 C 
HETATM    3  C4  UNL     1     -31.043   8.892   0.035  1.00 20.00     0.010 C 
HETATM    4  C5  UNL     1     -33.001   7.596   0.481  1.00 20.00     0.020 C 
HETATM    5  C6  UNL     1     -32.466   8.676  -0.480  1.00 20.00    -0.013 C 
HETATM    6  C7  UNL     1     -31.512   9.227   1.456  1.00 20.00     0.000 C 
HETATM    7  C8  UNL     1     -32.288   7.935   1.805  1.00 20.00     0.059 C 
ENDROOT
BRANCH   7   8
HETATM    8  S11 UNL     1     -33.420   8.059   3.216  1.00 20.00    -0.088 SA
BRANCH   8   9
HETATM    9  C1  UNL     1     -33.978   6.391   3.318  1.00 20.00     0.182 C 
HETATM   10  C9  UNL     1     -35.309   6.247   4.002  1.00 20.00     0.104 C 
HETATM   11  O10 UNL     1     -33.348   5.439   2.875  1.00 20.00    -0.286 OA
ENDBRANCH   8   9
ENDBRANCH   7   8
TORSDOF 2
ENDMDL
MODEL 6
REMARK VINA RESULT:       2.8      2.681      4.534
REMARK  2 active torsions:
REMARK  status: ('A' for Active; 'I' for Inactive)
REMARK    1  A    between atoms: C1_1  and  S11_11 
REMARK    2  A    between atoms: C8_8  and  S11_11 
ROOT
HETATM    1  C2  UNL     1     -32.607   8.959   0.484  1.00 20.00     0.005 C 
HETATM    2  C3  UNL     1     -32.807   9.483   1.912  1.00 20.00     0.006 C 
HETATM    3  C4  UNL     1     -30.813   8.213   1.859  1.00 20.00     0.010 C 
HETATM    4  C5  UNL     1     -32.491   6.601   1.315  1.00 20.00     0.020 C 
HETATM    5  C6  UNL     1     -31.678   7.750   0.687  1.00 20.00    -0.013 C 
HETATM    6  C7  UNL     1     -32.022   8.472   2.767  1.00 20.00     0.000 C 
HETATM    7  C8  UNL     1     -32.671   7.068   2.773  1.00 20.00     0.059 C 
ENDROOT
BRANCH   7   8
HETATM    8  S11 UNL     1     -34.393   7.005   3.338  1.00 20.00    -0.088 SA
BRANCH   8   9
HETATM    9  C1  UNL     1     -34.471   5.343   3.919  1.00 20.00     0.182 C 
HETATM   10  C9  UNL     1     -35.634   5.084   4.835  1.00 20.00     0.104 C 
HETATM   11  O10 UNL     1     -33.660   4.479   3.608  1.00 20.00    -0.286 OA
ENDBRANCH   8   9
ENDBRANCH   7   8
TORSDOF 2
ENDMDL
MODEL 7
REMARK VINA RESULT:       3.0      3.603      5.021
REMARK  2 active torsions:
REMARK  status: ('A' for Active; 'I' for Inactive)
REMARK    1  A    between atoms: C1_1  and  S11_11 
REMARK    2  A    between atoms: C8_8  and  S11_11 
ROOT
HETATM    1  C2  UNL     1     -33.939   7.594   4.460  1.00 20.00     0.005 C 
HETATM    2  C3  UNL     1     -33.051   7.287   3.247  1.00 20.00     0.006 C 
HETATM    3  C4  UNL     1     -35.291   6.798   2.669  1.00 20.00     0.010 C 
HETATM    4  C5  UNL     1     -34.847   5.261   4.445  1.00 20.00     0.020 C 
HETATM    5  C6  UNL     1     -35.192   6.743   4.193  1.00 20.00    -0.013 C 
HETATM    6  C7  UNL     1     -33.874   6.247   2.467  1.00 20.00     0.000 C 
HETATM    7  C8  UNL     1     -33.992   4.898   3.215  1.00 20.00     0.059 C 
ENDROOT
BRANCH   7   8
HETATM    8  S11 UNL     1     -32.419   4.103   3.646  1.00 20.00    -0.088 SA
BRANCH   8   9
HETATM    9  C1  UNL     1     -32.984   2.895   4.797  1.00 20.00     0.182 C 
HETATM   10  C9  UNL     1     -32.609   3.203   6.220  1.00 20.00     0.104 C 
HETATM   11  O10 UNL     1     -33.622   1.899   4.475  1.00 20.00    -0.286 OA
ENDBRANCH   8   9
ENDBRANCH   7   8
TORSDOF 2
ENDMDL
MODEL 8
REMARK VINA RESULT:       3.0      1.469      2.058
REMARK  2 active torsions:
REMARK  status: ('A' for Active; 'I' for Inactive)
REMARK    1  A    between atoms: C1_1  and  S11_11 
REMARK    2  A    between atoms: C8_8  and  S11_11 
ROOT
HETATM    1  C2  UNL     1     -33.209   5.292   3.306  1.00 20.00     0.005 C 
HETATM    2  C3  UNL     1     -34.064   6.503   2.908  1.00 20.00     0.006 C 
HETATM    3  C4  UNL     1     -33.685   5.195   0.975  1.00 20.00     0.010 C 
HETATM    4  C5  UNL     1     -31.483   5.889   1.594  1.00 20.00     0.020 C 
HETATM    5  C6  UNL     1     -32.573   4.867   1.971  1.00 20.00    -0.013 C 
HETATM    6  C7  UNL     1     -33.763   6.664   1.407  1.00 20.00     0.000 C 
HETATM    7  C8  UNL     1     -32.306   7.111   1.138  1.00 20.00     0.059 C 
ENDROOT
BRANCH   7   8
HETATM    8  S11 UNL     1     -31.800   8.656   1.942  1.00 20.00    -0.088 SA
BRANCH   8   9
HETATM    9  C1  UNL     1     -32.351   9.827   0.746  1.00 20.00     0.182 C 
HETATM   10  C9  UNL     1     -32.409   9.274  -0.650  1.00 20.00     0.104 C 
HETATM   11  O10 UNL     1     -32.660  10.980   1.021  1.00 20.00    -0.286 OA
ENDBRANCH   8   9
ENDBRANCH   7   8
TORSDOF 2
ENDMDL
MODEL 9
REMARK VINA RESULT:       3.1      0.886      1.818
REMARK  2 active torsions:
REMARK  status: ('A' for Active; 'I' for Inactive)
REMARK    1  A    between atoms: C1_1  and  S11_11 
REMARK    2  A    between atoms: C8_8  and  S11_11 
ROOT
HETATM    1  C2  UNL     1     -34.675   6.263   3.352  1.00 20.00     0.005 C 
HETATM    2  C3  UNL     1     -33.169   5.972   3.321  1.00 20.00     0.006 C 
HETATM    3  C4  UNL     1     -33.553   7.728   4.856  1.00 20.00     0.010 C 
HETATM    4  C5  UNL     1     -34.270   8.665   2.778  1.00 20.00     0.020 C 
HETATM    5  C6  UNL     1     -34.736   7.704   3.889  1.00 20.00    -0.013 C 
HETATM    6  C7  UNL     1     -32.547   7.303   3.780  1.00 20.00     0.000 C 
HETATM    7  C8  UNL     1     -32.745   8.439   2.749  1.00 20.00     0.059 C 
ENDROOT
BRANCH   7   8
HETATM    8  S11 UNL     1     -32.102   8.107   1.086  1.00 20.00    -0.088 SA
BRANCH   8   9
HETATM    9  C1  UNL     1     -32.567   9.596   0.267  1.00 20.00     0.182 C 
HETATM   10  C9  UNL     1     -32.455  10.817   1.137  1.00 20.00     0.104 C 
HETATM   11  O10 UNL     1     -32.945   9.638  -0.897  1.00 20.00    -0.286 OA
ENDBRANCH   8   9
ENDBRANCH   7   8
TORSDOF 2
ENDMDL
