MODEL 1
REMARK VINA RESULT:      -1.3      0.000      0.000
REMARK  0 active torsions:
REMARK  status: ('A' for Active; 'I' for Inactive)
ROOT
HETATM    1  C1  UNL     1     -33.988   5.767   3.326  1.00 20.00     0.000 C 
HETATM    2  C2  UNL     1     -33.486   5.574   1.893  1.00 20.00     0.003 C 
HETATM    3  C3  UNL     1     -34.129   7.251   3.678  1.00 20.00     0.003 C 
HETATM    4  C4  UNL     1     -32.176   6.324   1.651  1.00 20.00     0.040 C 
HETATM    5  C5  UNL     1     -32.821   8.008   3.444  1.00 20.00     0.040 C 
HETATM    6  C6  UNL     1     -32.463   8.834   0.993  1.00 20.00     0.207 A 
HETATM    7  C7  UNL     1     -32.327   7.763   2.049  1.00 20.00     0.082 A 
HETATM    8  O8  UNL     1     -31.221   8.591   1.669  1.00 20.00    -0.375 OA
ENDROOT
TORSDOF 0
ENDMDL
MODEL 2
REMARK VINA RESULT:      -1.2      2.118      3.506
REMARK  0 active torsions:
REMARK  status: ('A' for Active; 'I' for Inactive)
ROOT
HETATM    1  C1  UNL     1     -31.911   7.159   1.807  1.00 20.00     0.000 C 
HETATM    2  C2  UNL     1     -32.690   8.243   2.557  1.00 20.00     0.003 C 
HETATM    3  C3  UNL     1     -32.806   5.969   1.451  1.00 20.00     0.003 C 
HETATM    4  C4  UNL     1     -33.377   7.681   3.800  1.00 20.00     0.040 C 
HETATM    5  C5  UNL     1     -33.494   5.396   2.689  1.00 20.00     0.040 C 
HETATM    6  C6  UNL     1     -35.713   6.601   3.358  1.00 20.00     0.207 A 
HETATM    7  C7  UNL     1     -34.209   6.487   3.431  1.00 20.00     0.082 A 
HETATM    8  O8  UNL     1     -35.053   6.015   4.490  1.00 20.00    -0.375 OA
ENDROOT
TORSDOF 0
ENDMDL
MODEL 3
REMARK VINA RESULT:      -1.0      1.005      2.059
REMARK  0 active torsions:
REMARK  status: ('A' for Active; 'I' for Inactive)
ROOT
HETATM    1  C1  UNL     1     -34.567   5.942   3.746  1.00 20.00     0.000 C 
HETATM    2  C2  UNL     1     -34.220   7.360   4.205  1.00 20.00     0.003 C 
HETATM    3  C3  UNL     1     -33.434   5.324   2.921  1.00 20.00     0.003 C 
HETATM    4  C4  UNL     1     -33.847   8.256   3.024  1.00 20.00     0.040 C 
HETATM    5  C5  UNL     1     -33.058   6.212   1.734  1.00 20.00     0.040 C 
HETATM    6  C6  UNL     1     -31.347   8.105   2.288  1.00 20.00     0.207 A 
HETATM    7  C7  UNL     1     -32.770   7.607   2.206  1.00 20.00     0.082 A 
HETATM    8  O8  UNL     1     -32.211   8.458   1.198  1.00 20.00    -0.375 OA
ENDROOT
TORSDOF 0
ENDMDL
MODEL 4
REMARK VINA RESULT:      -0.9      2.062      3.242
REMARK  0 active torsions:
REMARK  status: ('A' for Active; 'I' for Inactive)
ROOT
HETATM    1  C1  UNL     1     -32.052   7.903   2.129  1.00 20.00     0.000 C 
HETATM    2  C2  UNL     1     -32.445   6.499   1.665  1.00 20.00     0.003 C 
HETATM    3  C3  UNL     1     -32.388   8.122   3.607  1.00 20.00     0.003 C 
HETATM    4  C4  UNL     1     -33.919   6.208   1.943  1.00 20.00     0.040 C 
HETATM    5  C5  UNL     1     -33.862   7.839   3.894  1.00 20.00     0.040 C 
HETATM    6  C6  UNL     1     -34.421   5.328   4.349  1.00 20.00     0.207 A 
HETATM    7  C7  UNL     1     -34.232   6.476   3.386  1.00 20.00     0.082 A 
HETATM    8  O8  UNL     1     -35.536   6.039   3.790  1.00 20.00    -0.375 OA
ENDROOT
TORSDOF 0
ENDMDL
MODEL 5
REMARK VINA RESULT:      -0.8      1.578      2.437
REMARK  0 active torsions:
REMARK  status: ('A' for Active; 'I' for Inactive)
ROOT
HETATM    1  C1  UNL     1     -33.927   7.693   4.013  1.00 20.00     0.000 C 
HETATM    2  C2  UNL     1     -34.551   6.327   3.717  1.00 20.00     0.003 C 
HETATM    3  C3  UNL     1     -33.255   8.286   2.771  1.00 20.00     0.003 C 
HETATM    4  C4  UNL     1     -33.526   5.358   3.131  1.00 20.00     0.040 C 
HETATM    5  C5  UNL     1     -32.223   7.324   2.181  1.00 20.00     0.040 C 
HETATM    6  C6  UNL     1     -33.207   5.540   0.546  1.00 20.00     0.207 A 
HETATM    7  C7  UNL     1     -32.848   5.980   1.946  1.00 20.00     0.082 A 
HETATM    8  O8  UNL     1     -32.020   5.074   1.206  1.00 20.00    -0.375 OA
ENDROOT
TORSDOF 0
ENDMDL
MODEL 6
REMARK VINA RESULT:      -0.5      2.289      3.481
REMARK  0 active torsions:
REMARK  status: ('A' for Active; 'I' for Inactive)
ROOT
HETATM    1  C1  UNL     1     -32.951   7.841   2.378  1.00 20.00     0.000 C 
HETATM    2  C2  UNL     1     -32.436   6.487   1.885  1.00 20.00     0.003 C 
HETATM    3  C3  UNL     1     -33.434   7.765   3.829  1.00 20.00     0.003 C 
HETATM    4  C4  UNL     1     -33.486   5.391   2.057  1.00 20.00     0.040 C 
HETATM    5  C5  UNL     1     -34.489   6.674   4.010  1.00 20.00     0.040 C 
HETATM    6  C6  UNL     1     -33.525   4.282   4.420  1.00 20.00     0.207 A 
HETATM    7  C7  UNL     1     -33.977   5.369   3.475  1.00 20.00     0.082 A 
HETATM    8  O8  UNL     1     -34.811   4.245   3.785  1.00 20.00    -0.375 OA
ENDROOT
TORSDOF 0
ENDMDL
MODEL 7
REMARK VINA RESULT:      -0.4      1.702      2.767
REMARK  0 active torsions:
REMARK  status: ('A' for Active; 'I' for Inactive)
ROOT
HETATM    1  C1  UNL     1     -32.717   5.745   1.437  1.00 20.00     0.000 C 
HETATM    2  C2  UNL     1     -33.338   5.167   2.711  1.00 20.00     0.003 C 
HETATM    3  C3  UNL     1     -32.005   7.073   1.711  1.00 20.00     0.003 C 
HETATM    4  C4  UNL     1     -34.278   6.168   3.381  1.00 20.00     0.040 C 
HETATM    5  C5  UNL     1     -32.940   8.082   2.376  1.00 20.00     0.040 C 
HETATM    6  C6  UNL     1     -33.102   7.869   4.975  1.00 20.00     0.207 A 
HETATM    7  C7  UNL     1     -33.571   7.474   3.594  1.00 20.00     0.082 A 
HETATM    8  O8  UNL     1     -34.302   8.408   4.399  1.00 20.00    -0.375 OA
ENDROOT
TORSDOF 0
ENDMDL
MODEL 8
REMARK VINA RESULT:      -0.3      1.506      2.634
REMARK  0 active torsions:
REMARK  status: ('A' for Active; 'I' for Inactive)
ROOT
HETATM    1  C1  UNL     1     -33.791   7.972   3.952  1.00 20.00     0.000 C 
HETATM    2  C2  UNL     1     -32.460   8.203   3.232  1.00 20.00     0.003 C 
HETATM    3  C3  UNL     1     -34.167   6.488   3.977  1.00 20.00     0.003 C 
HETATM    4  C4  UNL     1     -32.477   7.617   1.821  1.00 20.00     0.040 C 
HETATM    5  C5  UNL     1     -34.191   5.894   2.569  1.00 20.00     0.040 C 
HETATM    6  C6  UNL     1     -31.871   5.080   1.688  1.00 20.00     0.207 A 
HETATM    7  C7  UNL     1     -32.895   6.176   1.868  1.00 20.00     0.082 A 
HETATM    8  O8  UNL     1     -32.743   5.484   0.622  1.00 20.00    -0.375 OA
ENDROOT
TORSDOF 0
ENDMDL
MODEL 9
REMARK VINA RESULT:       1.7      1.697      3.618
REMARK  0 active torsions:
REMARK  status: ('A' for Active; 'I' for Inactive)
ROOT
HETATM    1  C1  UNL     1     -32.541  10.405   0.620  1.00 20.00     0.000 C 
HETATM    2  C2  UNL     1     -33.152   9.808   1.890  1.00 20.00     0.003 C 
HETATM    3  C3  UNL     1     -32.321   9.337  -0.454  1.00 20.00     0.003 C 
HETATM    4  C4  UNL     1     -32.310   8.652   2.428  1.00 20.00     0.040 C 
HETATM    5  C5  UNL     1     -31.475   8.179   0.073  1.00 20.00     0.040 C 
HETATM    6  C6  UNL     1     -32.821   6.334   1.340  1.00 20.00     0.207 A 
HETATM    7  C7  UNL     1     -32.069   7.644   1.343  1.00 20.00     0.082 A 
HETATM    8  O8  UNL     1     -31.465   6.428   1.801  1.00 20.00    -0.375 OA
ENDROOT
TORSDOF 0
ENDMDL
