MODEL 1
REMARK VINA RESULT:      -0.8      0.000      0.000
REMARK  1 active torsions:
REMARK  status: ('A' for Active; 'I' for Inactive)
REMARK    1  A    between atoms: C2_2  and  C3_3 
ROOT
HETATM    1  C3  UNL     1     -34.108   6.442   3.410  1.00 20.00     0.216 C 
HETATM    2 CL5  UNL     1     -33.443   7.613   4.602  1.00 20.00    -0.081 Cl
HETATM    3 CL6  UNL     1     -35.901   6.575   3.438  1.00 20.00    -0.081 Cl
HETATM    4 CL7  UNL     1     -33.663   4.785   3.949  1.00 20.00    -0.081 Cl
ENDROOT
BRANCH   1   5
HETATM    5  C2  UNL     1     -33.579   6.716   2.048  1.00 20.00     0.199 A 
HETATM    6  C1  UNL     1     -32.136   7.074   1.832  1.00 20.00     0.204 A 
HETATM    7  O4  UNL     1     -32.634   5.753   1.573  1.00 20.00    -0.377 OA
ENDBRANCH   1   5
TORSDOF 1
ENDMDL
MODEL 2
REMARK VINA RESULT:      -0.8      0.012      1.905
REMARK  1 active torsions:
REMARK  status: ('A' for Active; 'I' for Inactive)
REMARK    1  A    between atoms: C2_2  and  C3_3 
ROOT
HETATM    1  C3  UNL     1     -34.105   6.435   3.406  1.00 20.00     0.216 C 
HETATM    2 CL5  UNL     1     -35.898   6.574   3.437  1.00 20.00    -0.081 Cl
HETATM    3 CL6  UNL     1     -33.664   4.778   3.948  1.00 20.00    -0.081 Cl
HETATM    4 CL7  UNL     1     -33.434   7.608   4.593  1.00 20.00    -0.081 Cl
ENDROOT
BRANCH   1   5
HETATM    5  C2  UNL     1     -33.578   6.703   2.042  1.00 20.00     0.199 A 
HETATM    6  C1  UNL     1     -32.135   7.062   1.823  1.00 20.00     0.204 A 
HETATM    7  O4  UNL     1     -32.632   5.739   1.571  1.00 20.00    -0.377 OA
ENDBRANCH   1   5
TORSDOF 1
ENDMDL
MODEL 3
REMARK VINA RESULT:      -0.8      0.007      1.906
REMARK  1 active torsions:
REMARK  status: ('A' for Active; 'I' for Inactive)
REMARK    1  A    between atoms: C2_2  and  C3_3 
ROOT
HETATM    1  C3  UNL     1     -34.109   6.438   3.408  1.00 20.00     0.216 C 
HETATM    2 CL5  UNL     1     -33.666   4.781   3.949  1.00 20.00    -0.081 Cl
HETATM    3 CL6  UNL     1     -33.441   7.611   4.597  1.00 20.00    -0.081 Cl
HETATM    4 CL7  UNL     1     -35.902   6.574   3.438  1.00 20.00    -0.081 Cl
ENDROOT
BRANCH   1   5
HETATM    5  C2  UNL     1     -33.580   6.708   2.045  1.00 20.00     0.199 A 
HETATM    6  C1  UNL     1     -32.138   7.065   1.827  1.00 20.00     0.204 A 
HETATM    7  O4  UNL     1     -32.636   5.744   1.571  1.00 20.00    -0.377 OA
ENDBRANCH   1   5
TORSDOF 1
ENDMDL
MODEL 4
REMARK VINA RESULT:      -0.5      2.758      3.402
REMARK  1 active torsions:
REMARK  status: ('A' for Active; 'I' for Inactive)
REMARK    1  A    between atoms: C2_2  and  C3_3 
ROOT
HETATM    1  C3  UNL     1     -32.465   7.866   2.137  1.00 20.00     0.216 C 
HETATM    2 CL5  UNL     1     -32.525   9.051   0.786  1.00 20.00    -0.081 Cl
HETATM    3 CL6  UNL     1     -31.299   8.475   3.363  1.00 20.00    -0.081 Cl
HETATM    4 CL7  UNL     1     -31.833   6.312   1.489  1.00 20.00    -0.081 Cl
ENDROOT
BRANCH   1   5
HETATM    5  C2  UNL     1     -33.813   7.680   2.737  1.00 20.00     0.199 A 
HETATM    6  C1  UNL     1     -34.150   6.444   3.522  1.00 20.00     0.204 A 
HETATM    7  O4  UNL     1     -33.833   7.687   4.167  1.00 20.00    -0.377 OA
ENDBRANCH   1   5
TORSDOF 1
ENDMDL
MODEL 5
REMARK VINA RESULT:      -0.5      2.757      3.486
REMARK  1 active torsions:
REMARK  status: ('A' for Active; 'I' for Inactive)
REMARK    1  A    between atoms: C2_2  and  C3_3 
ROOT
HETATM    1  C3  UNL     1     -32.468   7.862   2.136  1.00 20.00     0.216 C 
HETATM    2 CL5  UNL     1     -31.837   6.308   1.487  1.00 20.00    -0.081 Cl
HETATM    3 CL6  UNL     1     -32.530   9.047   0.785  1.00 20.00    -0.081 Cl
HETATM    4 CL7  UNL     1     -31.298   8.472   3.359  1.00 20.00    -0.081 Cl
ENDROOT
BRANCH   1   5
HETATM    5  C2  UNL     1     -33.814   7.676   2.739  1.00 20.00     0.199 A 
HETATM    6  C1  UNL     1     -34.150   6.442   3.528  1.00 20.00     0.204 A 
HETATM    7  O4  UNL     1     -33.832   7.687   4.169  1.00 20.00    -0.377 OA
ENDBRANCH   1   5
TORSDOF 1
ENDMDL
MODEL 6
REMARK VINA RESULT:      -0.5      2.753      3.455
REMARK  1 active torsions:
REMARK  status: ('A' for Active; 'I' for Inactive)
REMARK    1  A    between atoms: C2_2  and  C3_3 
ROOT
HETATM    1  C3  UNL     1     -32.472   7.855   2.140  1.00 20.00     0.216 C 
HETATM    2 CL5  UNL     1     -31.303   8.466   3.362  1.00 20.00    -0.081 Cl
HETATM    3 CL6  UNL     1     -31.840   6.301   1.492  1.00 20.00    -0.081 Cl
HETATM    4 CL7  UNL     1     -32.536   9.038   0.788  1.00 20.00    -0.081 Cl
ENDROOT
BRANCH   1   5
HETATM    5  C2  UNL     1     -33.817   7.667   2.743  1.00 20.00     0.199 A 
HETATM    6  C1  UNL     1     -34.151   6.434   3.534  1.00 20.00     0.204 A 
HETATM    7  O4  UNL     1     -33.835   7.680   4.174  1.00 20.00    -0.377 OA
ENDBRANCH   1   5
TORSDOF 1
ENDMDL
MODEL 7
REMARK VINA RESULT:      -0.2      2.476      3.175
REMARK  1 active torsions:
REMARK  status: ('A' for Active; 'I' for Inactive)
REMARK    1  A    between atoms: C2_2  and  C3_3 
ROOT
HETATM    1  C3  UNL     1     -32.852   6.393   1.835  1.00 20.00     0.216 C 
HETATM    2 CL5  UNL     1     -32.090   8.011   1.647  1.00 20.00    -0.081 Cl
HETATM    3 CL6  UNL     1     -31.598   5.144   1.516  1.00 20.00    -0.081 Cl
HETATM    4 CL7  UNL     1     -34.132   6.231   0.582  1.00 20.00    -0.081 Cl
ENDROOT
BRANCH   1   5
HETATM    5  C2  UNL     1     -33.423   6.233   3.198  1.00 20.00     0.199 A 
HETATM    6  C1  UNL     1     -34.087   7.382   3.904  1.00 20.00     0.204 A 
HETATM    7  O4  UNL     1     -34.848   6.346   3.263  1.00 20.00    -0.377 OA
ENDBRANCH   1   5
TORSDOF 1
ENDMDL
MODEL 8
REMARK VINA RESULT:      -0.2      2.773      3.448
REMARK  1 active torsions:
REMARK  status: ('A' for Active; 'I' for Inactive)
REMARK    1  A    between atoms: C2_2  and  C3_3 
ROOT
HETATM    1  C3  UNL     1     -32.357   7.797   1.981  1.00 20.00     0.216 C 
HETATM    2 CL5  UNL     1     -33.680   7.686   3.193  1.00 20.00    -0.081 Cl
HETATM    3 CL6  UNL     1     -31.941   6.128   1.454  1.00 20.00    -0.081 Cl
HETATM    4 CL7  UNL     1     -30.915   8.501   2.793  1.00 20.00    -0.081 Cl
ENDROOT
BRANCH   1   5
HETATM    5  C2  UNL     1     -32.770   8.630   0.821  1.00 20.00     0.199 A 
HETATM    6  C1  UNL     1     -32.618  10.124   0.843  1.00 20.00     0.204 A 
HETATM    7  O4  UNL     1     -31.692   9.280   0.142  1.00 20.00    -0.377 OA
ENDBRANCH   1   5
TORSDOF 1
ENDMDL
MODEL 9
REMARK VINA RESULT:      -0.2      2.768      3.598
REMARK  1 active torsions:
REMARK  status: ('A' for Active; 'I' for Inactive)
REMARK    1  A    between atoms: C2_2  and  C3_3 
ROOT
HETATM    1  C3  UNL     1     -32.362   7.796   1.988  1.00 20.00     0.216 C 
HETATM    2 CL5  UNL     1     -31.936   6.134   1.451  1.00 20.00    -0.081 Cl
HETATM    3 CL6  UNL     1     -30.924   8.506   2.803  1.00 20.00    -0.081 Cl
HETATM    4 CL7  UNL     1     -33.684   7.669   3.201  1.00 20.00    -0.081 Cl
ENDROOT
BRANCH   1   5
HETATM    5  C2  UNL     1     -32.782   8.633   0.834  1.00 20.00     0.199 A 
HETATM    6  C1  UNL     1     -32.601  10.125   0.848  1.00 20.00     0.204 A 
HETATM    7  O4  UNL     1     -31.705   9.261   0.131  1.00 20.00    -0.377 OA
ENDBRANCH   1   5
TORSDOF 1
ENDMDL
