MODEL 1
REMARK VINA RESULT:       0.5      0.000      0.000
REMARK  1 active torsions:
REMARK  status: ('A' for Active; 'I' for Inactive)
REMARK    1  A    between atoms: C8_8  and  C9_9 
ROOT
HETATM    1  C1  UNL     1     -34.966   6.251   4.058  1.00 20.00     0.059 C 
HETATM    2  C9  UNL     1     -34.387   7.531   3.667  1.00 20.00     0.129 C 
HETATM    3  N10 UNL     1     -35.449   5.245   4.375  1.00 20.00    -0.197 NA
ENDROOT
BRANCH   2   4
HETATM    4  C8  UNL     1     -32.997   7.183   3.164  1.00 20.00     0.003 C 
HETATM    5  C5  UNL     1     -33.000   6.390   1.840  1.00 20.00     0.010 C 
HETATM    6  C6  UNL     1     -32.025   7.191   0.957  1.00 20.00    -0.014 C 
HETATM    7  C2  UNL     1     -32.714   8.495   0.520  1.00 20.00     0.005 C 
HETATM    8  C4  UNL     1     -31.007   7.701   1.978  1.00 20.00     0.009 C 
HETATM    9  C3  UNL     1     -32.720   9.330   1.809  1.00 20.00     0.005 C 
HETATM   10  C7  UNL     1     -32.077   8.384   2.837  1.00 20.00    -0.009 C 
ENDBRANCH   2   4
TORSDOF 1
ENDMDL
MODEL 2
REMARK VINA RESULT:       0.8      2.423      3.968
REMARK  1 active torsions:
REMARK  status: ('A' for Active; 'I' for Inactive)
REMARK    1  A    between atoms: C8_8  and  C9_9 
ROOT
HETATM    1  C1  UNL     1     -32.222   9.026   0.888  1.00 20.00     0.059 C 
HETATM    2  C9  UNL     1     -31.952   7.894   1.767  1.00 20.00     0.129 C 
HETATM    3  N10 UNL     1     -32.411   9.933   0.189  1.00 20.00    -0.197 NA
ENDROOT
BRANCH   2   4
HETATM    4  C8  UNL     1     -33.303   7.219   1.944  1.00 20.00     0.003 C 
HETATM    5  C5  UNL     1     -33.207   5.783   2.499  1.00 20.00     0.010 C 
HETATM    6  C6  UNL     1     -34.190   5.806   3.685  1.00 20.00    -0.014 C 
HETATM    7  C2  UNL     1     -33.555   6.609   4.834  1.00 20.00     0.005 C 
HETATM    8  C4  UNL     1     -35.271   6.768   3.191  1.00 20.00     0.009 C 
HETATM    9  C3  UNL     1     -33.643   8.057   4.332  1.00 20.00     0.005 C 
HETATM   10  C7  UNL     1     -34.272   7.903   2.937  1.00 20.00    -0.009 C 
ENDBRANCH   2   4
TORSDOF 1
ENDMDL
MODEL 3
REMARK VINA RESULT:       1.5      2.299      3.708
REMARK  1 active torsions:
REMARK  status: ('A' for Active; 'I' for Inactive)
REMARK    1  A    between atoms: C8_8  and  C9_9 
ROOT
HETATM    1  C1  UNL     1     -33.159   2.883   4.404  1.00 20.00     0.059 C 
HETATM    2  C9  UNL     1     -32.721   4.202   3.965  1.00 20.00     0.129 C 
HETATM    3  N10 UNL     1     -33.483   1.827   4.763  1.00 20.00    -0.197 NA
ENDROOT
BRANCH   2   4
HETATM    4  C8  UNL     1     -33.971   4.845   3.387  1.00 20.00     0.003 C 
HETATM    5  C5  UNL     1     -35.019   5.226   4.454  1.00 20.00     0.010 C 
HETATM    6  C6  UNL     1     -35.327   6.699   4.124  1.00 20.00    -0.014 C 
HETATM    7  C2  UNL     1     -34.131   7.562   4.564  1.00 20.00     0.005 C 
HETATM    8  C4  UNL     1     -35.188   6.725   2.601  1.00 20.00     0.009 C 
HETATM    9  C3  UNL     1     -33.060   7.227   3.516  1.00 20.00     0.005 C 
HETATM   10  C7  UNL     1     -33.756   6.178   2.632  1.00 20.00    -0.009 C 
ENDBRANCH   2   4
TORSDOF 1
ENDMDL
MODEL 4
REMARK VINA RESULT:       1.6      2.569      3.927
REMARK  1 active torsions:
REMARK  status: ('A' for Active; 'I' for Inactive)
REMARK    1  A    between atoms: C8_8  and  C9_9 
ROOT
HETATM    1  C1  UNL     1     -32.155   9.337   0.956  1.00 20.00     0.059 C 
HETATM    2  C9  UNL     1     -31.692   8.262   1.826  1.00 20.00     0.129 C 
HETATM    3  N10 UNL     1     -32.512  10.210   0.280  1.00 20.00    -0.197 NA
ENDROOT
BRANCH   2   4
HETATM    4  C8  UNL     1     -32.190   6.991   1.158  1.00 20.00     0.003 C 
HETATM    5  C5  UNL     1     -31.496   5.712   1.671  1.00 20.00     0.010 C 
HETATM    6  C6  UNL     1     -32.683   4.794   2.023  1.00 20.00    -0.014 C 
HETATM    7  C2  UNL     1     -33.338   5.312   3.315  1.00 20.00     0.005 C 
HETATM    8  C4  UNL     1     -33.718   5.185   0.968  1.00 20.00     0.009 C 
HETATM    9  C3  UNL     1     -34.060   6.584   2.849  1.00 20.00     0.005 C 
HETATM   10  C7  UNL     1     -33.690   6.667   1.359  1.00 20.00    -0.009 C 
ENDBRANCH   2   4
TORSDOF 1
ENDMDL
MODEL 5
REMARK VINA RESULT:       1.6      0.900      1.994
REMARK  1 active torsions:
REMARK  status: ('A' for Active; 'I' for Inactive)
REMARK    1  A    between atoms: C8_8  and  C9_9 
ROOT
HETATM    1  C1  UNL     1     -34.799   6.669   4.080  1.00 20.00     0.059 C 
HETATM    2  C9  UNL     1     -33.538   7.347   4.354  1.00 20.00     0.129 C 
HETATM    3  N10 UNL     1     -35.804   6.119   3.887  1.00 20.00    -0.197 NA
ENDROOT
BRANCH   2   4
HETATM    4  C8  UNL     1     -33.199   8.059   3.055  1.00 20.00     0.003 C 
HETATM    5  C5  UNL     1     -31.692   8.349   2.886  1.00 20.00     0.010 C 
HETATM    6  C6  UNL     1     -31.388   7.784   1.485  1.00 20.00    -0.014 C 
HETATM    7  C2  UNL     1     -31.384   6.247   1.565  1.00 20.00     0.005 C 
HETATM    8  C4  UNL     1     -32.693   8.056   0.736  1.00 20.00     0.009 C 
HETATM    9  C3  UNL     1     -32.874   5.907   1.718  1.00 20.00     0.005 C 
HETATM   10  C7  UNL     1     -33.544   7.291   1.756  1.00 20.00    -0.009 C 
ENDBRANCH   2   4
TORSDOF 1
ENDMDL
MODEL 6
REMARK VINA RESULT:       1.7      2.481      4.072
REMARK  1 active torsions:
REMARK  status: ('A' for Active; 'I' for Inactive)
REMARK    1  A    between atoms: C8_8  and  C9_9 
ROOT
HETATM    1  C1  UNL     1     -32.357   9.168   0.637  1.00 20.00     0.059 C 
HETATM    2  C9  UNL     1     -32.256   7.910   1.367  1.00 20.00     0.129 C 
HETATM    3  N10 UNL     1     -32.431  10.156   0.032  1.00 20.00    -0.197 NA
ENDROOT
BRANCH   2   4
HETATM    4  C8  UNL     1     -32.678   8.259   2.785  1.00 20.00     0.003 C 
HETATM    5  C5  UNL     1     -34.133   8.763   2.890  1.00 20.00     0.010 C 
HETATM    6  C6  UNL     1     -34.723   7.879   4.005  1.00 20.00    -0.014 C 
HETATM    7  C2  UNL     1     -34.942   6.462   3.446  1.00 20.00     0.005 C 
HETATM    8  C4  UNL     1     -33.519   7.671   4.924  1.00 20.00     0.009 C 
HETATM    9  C3  UNL     1     -33.513   5.910   3.339  1.00 20.00     0.005 C 
HETATM   10  C7  UNL     1     -32.648   7.094   3.803  1.00 20.00    -0.009 C 
ENDBRANCH   2   4
TORSDOF 1
ENDMDL
MODEL 7
REMARK VINA RESULT:       1.8      1.148      1.664
REMARK  1 active torsions:
REMARK  status: ('A' for Active; 'I' for Inactive)
REMARK    1  A    between atoms: C8_8  and  C9_9 
ROOT
HETATM    1  C1  UNL     1     -35.195   5.980   4.142  1.00 20.00     0.059 C 
HETATM    2  C9  UNL     1     -34.663   7.212   3.572  1.00 20.00     0.129 C 
HETATM    3  N10 UNL     1     -35.642   5.010   4.599  1.00 20.00    -0.197 NA
ENDROOT
BRANCH   2   4
HETATM    4  C8  UNL     1     -33.228   6.873   3.206  1.00 20.00     0.003 C 
HETATM    5  C5  UNL     1     -32.975   5.360   3.035  1.00 20.00     0.010 C 
HETATM    6  C6  UNL     1     -32.286   5.279   1.660  1.00 20.00    -0.014 C 
HETATM    7  C2  UNL     1     -33.340   5.526   0.566  1.00 20.00     0.005 C 
HETATM    8  C4  UNL     1     -31.484   6.581   1.622  1.00 20.00     0.009 C 
HETATM    9  C3  UNL     1     -33.613   7.032   0.686  1.00 20.00     0.005 C 
HETATM   10  C7  UNL     1     -32.720   7.455   1.864  1.00 20.00    -0.009 C 
ENDBRANCH   2   4
TORSDOF 1
ENDMDL
MODEL 8
REMARK VINA RESULT:       2.0      0.988      2.155
REMARK  1 active torsions:
REMARK  status: ('A' for Active; 'I' for Inactive)
REMARK    1  A    between atoms: C8_8  and  C9_9 
ROOT
HETATM    1  C1  UNL     1     -34.752   4.988   4.210  1.00 20.00     0.059 C 
HETATM    2  C9  UNL     1     -33.575   5.134   3.362  1.00 20.00     0.129 C 
HETATM    3  N10 UNL     1     -35.679   4.847   4.894  1.00 20.00    -0.197 NA
ENDROOT
BRANCH   2   4
HETATM    4  C8  UNL     1     -33.752   6.489   2.697  1.00 20.00     0.003 C 
HETATM    5  C5  UNL     1     -33.096   7.649   3.476  1.00 20.00     0.010 C 
HETATM    6  C6  UNL     1     -32.251   8.353   2.398  1.00 20.00    -0.014 C 
HETATM    7  C2  UNL     1     -31.024   7.479   2.085  1.00 20.00     0.005 C 
HETATM    8  C4  UNL     1     -33.101   8.160   1.142  1.00 20.00     0.009 C 
HETATM    9  C3  UNL     1     -31.627   6.311   1.291  1.00 20.00     0.005 C 
HETATM   10  C7  UNL     1     -33.130   6.635   1.287  1.00 20.00    -0.009 C 
ENDBRANCH   2   4
TORSDOF 1
ENDMDL
MODEL 9
REMARK VINA RESULT:       2.0      2.237      3.394
REMARK  1 active torsions:
REMARK  status: ('A' for Active; 'I' for Inactive)
REMARK    1  A    between atoms: C8_8  and  C9_9 
ROOT
HETATM    1  C1  UNL     1     -33.260   3.170   4.666  1.00 20.00     0.059 C 
HETATM    2  C9  UNL     1     -33.814   3.804   3.476  1.00 20.00     0.129 C 
HETATM    3  N10 UNL     1     -32.830   2.643   5.607  1.00 20.00    -0.197 NA
ENDROOT
BRANCH   2   4
HETATM    4  C8  UNL     1     -33.306   5.235   3.535  1.00 20.00     0.003 C 
HETATM    5  C5  UNL     1     -33.394   5.978   2.185  1.00 20.00     0.010 C 
HETATM    6  C6  UNL     1     -34.122   7.283   2.558  1.00 20.00    -0.014 C 
HETATM    7  C2  UNL     1     -35.605   6.964   2.815  1.00 20.00     0.005 C 
HETATM    8  C4  UNL     1     -33.608   7.547   3.974  1.00 20.00     0.009 C 
HETATM    9  C3  UNL     1     -35.571   6.234   4.165  1.00 20.00     0.005 C 
HETATM   10  C7  UNL     1     -34.069   6.181   4.493  1.00 20.00    -0.009 C 
ENDBRANCH   2   4
TORSDOF 1
ENDMDL
