MODEL 1
REMARK VINA RESULT:       1.0      0.000      0.000
REMARK  0 active torsions:
REMARK  status: ('A' for Active; 'I' for Inactive)
ROOT
HETATM    1  C1  UNL     1     -32.304   8.960   0.998  1.00 20.00     0.086 C 
HETATM    2  C2  UNL     1     -33.100   5.222   3.016  1.00 20.00     0.005 C 
HETATM    3  C3  UNL     1     -33.916   6.449   3.448  1.00 20.00     0.008 C 
HETATM    4  C4  UNL     1     -33.901   6.364   1.088  1.00 20.00     0.012 C 
HETATM    5  C5  UNL     1     -31.585   6.652   1.620  1.00 20.00     0.046 C 
HETATM    6  C6  UNL     1     -32.688   5.571   1.576  1.00 20.00    -0.011 C 
HETATM    7  C7  UNL     1     -33.804   7.388   2.230  1.00 20.00     0.024 C 
HETATM    8  C8  UNL     1     -32.358   7.922   2.040  1.00 20.00     0.129 C 
HETATM    9  N9  UNL     1     -32.262   9.779   0.176  1.00 20.00    -0.195 NA
HETATM   10 CL10 UNL     1     -31.674   8.665   3.508  1.00 20.00    -0.102 Cl
ENDROOT
TORSDOF 0
ENDMDL
MODEL 2
REMARK VINA RESULT:       1.8      1.909      2.831
REMARK  0 active torsions:
REMARK  status: ('A' for Active; 'I' for Inactive)
ROOT
HETATM    1  C1  UNL     1     -32.486   7.623   1.901  1.00 20.00     0.086 C 
HETATM    2  C2  UNL     1     -35.392   5.349   4.152  1.00 20.00     0.005 C 
HETATM    3  C3  UNL     1     -33.929   4.890   4.216  1.00 20.00     0.008 C 
HETATM    4  C4  UNL     1     -33.984   7.230   4.529  1.00 20.00     0.012 C 
HETATM    5  C5  UNL     1     -34.861   6.973   2.316  1.00 20.00     0.046 C 
HETATM    6  C6  UNL     1     -35.271   6.841   3.800  1.00 20.00    -0.011 C 
HETATM    7  C7  UNL     1     -33.148   6.158   3.813  1.00 20.00     0.024 C 
HETATM    8  C8  UNL     1     -33.380   6.531   2.324  1.00 20.00     0.129 C 
HETATM    9  N9  UNL     1     -31.782   8.483   1.569  1.00 20.00    -0.195 NA
HETATM   10 CL10 UNL     1     -33.077   5.186   1.196  1.00 20.00    -0.102 Cl
ENDROOT
TORSDOF 0
ENDMDL
MODEL 3
REMARK VINA RESULT:       2.2      2.661      3.642
REMARK  0 active torsions:
REMARK  status: ('A' for Active; 'I' for Inactive)
ROOT
HETATM    1  C1  UNL     1     -33.898   4.915   3.693  1.00 20.00     0.086 C 
HETATM    2  C2  UNL     1     -32.579   7.943   0.904  1.00 20.00     0.005 C 
HETATM    3  C3  UNL     1     -31.958   7.953   2.308  1.00 20.00     0.008 C 
HETATM    4  C4  UNL     1     -31.936   5.732   1.505  1.00 20.00     0.012 C 
HETATM    5  C5  UNL     1     -34.275   6.234   1.606  1.00 20.00     0.046 C 
HETATM    6  C6  UNL     1     -33.024   6.480   0.734  1.00 20.00    -0.011 C 
HETATM    7  C7  UNL     1     -32.195   6.512   2.804  1.00 20.00     0.024 C 
HETATM    8  C8  UNL     1     -33.702   6.221   3.041  1.00 20.00     0.129 C 
HETATM    9  N9  UNL     1     -34.052   3.886   4.206  1.00 20.00    -0.195 NA
HETATM   10 CL10 UNL     1     -34.502   7.418   4.091  1.00 20.00    -0.102 Cl
ENDROOT
TORSDOF 0
ENDMDL
MODEL 4
REMARK VINA RESULT:       2.9      2.357      3.041
REMARK  0 active torsions:
REMARK  status: ('A' for Active; 'I' for Inactive)
ROOT
HETATM    1  C1  UNL     1     -33.465   7.595   4.302  1.00 20.00     0.086 C 
HETATM    2  C2  UNL     1     -33.169   5.188   0.724  1.00 20.00     0.005 C 
HETATM    3  C3  UNL     1     -33.921   6.522   0.620  1.00 20.00     0.008 C 
HETATM    4  C4  UNL     1     -31.898   6.901   1.779  1.00 20.00     0.012 C 
HETATM    5  C5  UNL     1     -33.056   5.381   3.222  1.00 20.00     0.046 C 
HETATM    6  C6  UNL     1     -32.227   5.414   1.918  1.00 20.00    -0.011 C 
HETATM    7  C7  UNL     1     -33.375   7.324   1.820  1.00 20.00     0.024 C 
HETATM    8  C8  UNL     1     -33.829   6.718   3.176  1.00 20.00     0.129 C 
HETATM    9  N9  UNL     1     -33.178   8.286   5.188  1.00 20.00    -0.195 NA
HETATM   10 CL10 UNL     1     -35.591   6.475   3.294  1.00 20.00    -0.102 Cl
ENDROOT
TORSDOF 0
ENDMDL
MODEL 5
REMARK VINA RESULT:       2.9      2.620      3.657
REMARK  0 active torsions:
REMARK  status: ('A' for Active; 'I' for Inactive)
ROOT
HETATM    1  C1  UNL     1     -33.604   5.559   2.777  1.00 20.00     0.086 C 
HETATM    2  C2  UNL     1     -31.449   8.629   0.628  1.00 20.00     0.005 C 
HETATM    3  C3  UNL     1     -32.968   8.797   0.772  1.00 20.00     0.008 C 
HETATM    4  C4  UNL     1     -32.087   8.202   2.881  1.00 20.00     0.012 C 
HETATM    5  C5  UNL     1     -31.567   6.293   1.534  1.00 20.00     0.046 C 
HETATM    6  C6  UNL     1     -31.087   7.732   1.825  1.00 20.00    -0.011 C 
HETATM    7  C7  UNL     1     -33.304   7.910   1.989  1.00 20.00     0.024 C 
HETATM    8  C8  UNL     1     -33.102   6.402   1.679  1.00 20.00     0.129 C 
HETATM    9  N9  UNL     1     -34.001   4.895   3.642  1.00 20.00    -0.195 NA
HETATM   10 CL10 UNL     1     -33.952   5.855   0.212  1.00 20.00    -0.102 Cl
ENDROOT
TORSDOF 0
ENDMDL
MODEL 6
REMARK VINA RESULT:       3.0      2.530      3.434
REMARK  0 active torsions:
REMARK  status: ('A' for Active; 'I' for Inactive)
ROOT
HETATM    1  C1  UNL     1     -35.070   6.382   3.454  1.00 20.00     0.086 C 
HETATM    2  C2  UNL     1     -31.136   7.045   1.789  1.00 20.00     0.005 C 
HETATM    3  C3  UNL     1     -31.962   5.884   1.217  1.00 20.00     0.008 C 
HETATM    4  C4  UNL     1     -33.357   7.785   1.357  1.00 20.00     0.012 C 
HETATM    5  C5  UNL     1     -32.789   7.378   3.647  1.00 20.00     0.046 C 
HETATM    6  C6  UNL     1     -32.213   7.990   2.350  1.00 20.00    -0.011 C 
HETATM    7  C7  UNL     1     -33.409   6.267   1.592  1.00 20.00     0.024 C 
HETATM    8  C8  UNL     1     -33.645   6.202   3.125  1.00 20.00     0.129 C 
HETATM    9  N9  UNL     1     -36.192   6.523   3.712  1.00 20.00    -0.195 NA
HETATM   10 CL10 UNL     1     -33.166   4.650   3.856  1.00 20.00    -0.102 Cl
ENDROOT
TORSDOF 0
ENDMDL
MODEL 7
REMARK VINA RESULT:       3.2      2.346      3.367
REMARK  0 active torsions:
REMARK  status: ('A' for Active; 'I' for Inactive)
ROOT
HETATM    1  C1  UNL     1     -34.610   6.638   3.841  1.00 20.00     0.086 C 
HETATM    2  C2  UNL     1     -31.676   8.597   1.344  1.00 20.00     0.005 C 
HETATM    3  C3  UNL     1     -31.183   7.478   2.272  1.00 20.00     0.008 C 
HETATM    4  C4  UNL     1     -33.134   6.723   1.174  1.00 20.00     0.012 C 
HETATM    5  C5  UNL     1     -33.931   8.591   2.442  1.00 20.00     0.046 C 
HETATM    6  C6  UNL     1     -33.162   8.252   1.146  1.00 20.00    -0.011 C 
HETATM    7  C7  UNL     1     -32.467   6.671   2.558  1.00 20.00     0.024 C 
HETATM    8  C8  UNL     1     -33.479   7.479   3.415  1.00 20.00     0.129 C 
HETATM    9  N9  UNL     1     -35.501   5.974   4.176  1.00 20.00    -0.195 NA
HETATM   10 CL10 UNL     1     -32.774   8.145   4.910  1.00 20.00    -0.102 Cl
ENDROOT
TORSDOF 0
ENDMDL
MODEL 8
REMARK VINA RESULT:       3.7      2.475      3.269
REMARK  0 active torsions:
REMARK  status: ('A' for Active; 'I' for Inactive)
ROOT
HETATM    1  C1  UNL     1     -32.087   5.331   1.468  1.00 20.00     0.086 C 
HETATM    2  C2  UNL     1     -34.806   7.765   3.784  1.00 20.00     0.005 C 
HETATM    3  C3  UNL     1     -35.260   6.345   3.420  1.00 20.00     0.008 C 
HETATM    4  C4  UNL     1     -33.042   6.229   4.222  1.00 20.00     0.012 C 
HETATM    5  C5  UNL     1     -32.823   7.582   2.259  1.00 20.00     0.046 C 
HETATM    6  C6  UNL     1     -33.272   7.660   3.735  1.00 20.00    -0.011 C 
HETATM    7  C7  UNL     1     -33.931   5.618   3.127  1.00 20.00     0.024 C 
HETATM    8  C8  UNL     1     -33.248   6.156   1.841  1.00 20.00     0.129 C 
HETATM    9  N9  UNL     1     -31.171   4.681   1.175  1.00 20.00    -0.195 NA
HETATM   10 CL10 UNL     1     -34.318   6.168   0.417  1.00 20.00    -0.102 Cl
ENDROOT
TORSDOF 0
ENDMDL
MODEL 9
REMARK VINA RESULT:       3.8      2.222      2.898
REMARK  0 active torsions:
REMARK  status: ('A' for Active; 'I' for Inactive)
ROOT
HETATM    1  C1  UNL     1     -33.500   5.544   0.945  1.00 20.00     0.086 C 
HETATM    2  C2  UNL     1     -33.915   7.379   4.837  1.00 20.00     0.005 C 
HETATM    3  C3  UNL     1     -33.903   8.307   3.613  1.00 20.00     0.008 C 
HETATM    4  C4  UNL     1     -35.362   6.505   3.162  1.00 20.00     0.012 C 
HETATM    5  C5  UNL     1     -33.246   5.417   3.426  1.00 20.00     0.046 C 
HETATM    6  C6  UNL     1     -34.394   6.040   4.250  1.00 20.00    -0.011 C 
HETATM    7  C7  UNL     1     -34.300   7.364   2.458  1.00 20.00     0.024 C 
HETATM    8  C8  UNL     1     -33.197   6.310   2.166  1.00 20.00     0.129 C 
HETATM    9  N9  UNL     1     -33.739   4.941  -0.017  1.00 20.00    -0.195 NA
HETATM   10 CL10 UNL     1     -31.583   7.020   1.911  1.00 20.00    -0.102 Cl
ENDROOT
TORSDOF 0
ENDMDL
