MODEL 1
REMARK VINA RESULT:      -0.2      0.000      0.000
REMARK  1 active torsions:
REMARK  status: ('A' for Active; 'I' for Inactive)
REMARK    1  A    between atoms: C8_8  and  C9_9 
ROOT
HETATM    1  C1  UNL     1     -32.193   9.073   0.826  1.00 20.00     0.059 C 
HETATM    2  C9  UNL     1     -31.877   7.944   1.691  1.00 20.00     0.129 C 
HETATM    3  N10 UNL     1     -32.414   9.978   0.134  1.00 20.00    -0.197 NA
ENDROOT
BRANCH   2   4
HETATM    4  C8  UNL     1     -33.238   7.373   2.077  1.00 20.00     0.003 C 
HETATM    5  C5  UNL     1     -33.175   5.858   2.372  1.00 20.00     0.010 C 
HETATM    6  C6  UNL     1     -33.753   5.758   3.795  1.00 20.00    -0.014 C 
HETATM    7  C2  UNL     1     -35.255   6.085   3.755  1.00 20.00     0.005 C 
HETATM    8  C4  UNL     1     -33.176   7.009   4.454  1.00 20.00     0.009 C 
HETATM    9  C3  UNL     1     -35.273   7.602   3.516  1.00 20.00     0.005 C 
HETATM   10  C7  UNL     1     -33.776   7.950   3.408  1.00 20.00    -0.009 C 
ENDBRANCH   2   4
TORSDOF 1
ENDMDL
MODEL 2
REMARK VINA RESULT:       0.3      3.009      4.340
REMARK  1 active torsions:
REMARK  status: ('A' for Active; 'I' for Inactive)
REMARK    1  A    between atoms: C8_8  and  C9_9 
ROOT
HETATM    1  C1  UNL     1     -33.683   3.468   4.474  1.00 20.00     0.059 C 
HETATM    2  C9  UNL     1     -34.452   4.623   4.033  1.00 20.00     0.129 C 
HETATM    3  N10 UNL     1     -33.096   2.531   4.830  1.00 20.00    -0.197 NA
ENDROOT
BRANCH   2   4
HETATM    4  C8  UNL     1     -33.397   5.672   3.696  1.00 20.00     0.003 C 
HETATM    5  C5  UNL     1     -32.987   5.633   2.208  1.00 20.00     0.010 C 
HETATM    6  C6  UNL     1     -33.249   7.075   1.737  1.00 20.00    -0.014 C 
HETATM    7  C2  UNL     1     -32.229   8.016   2.398  1.00 20.00     0.005 C 
HETATM    8  C4  UNL     1     -34.530   7.420   2.494  1.00 20.00     0.009 C 
HETATM    9  C3  UNL     1     -32.702   8.070   3.858  1.00 20.00     0.005 C 
HETATM   10  C7  UNL     1     -33.915   7.121   3.861  1.00 20.00    -0.009 C 
ENDBRANCH   2   4
TORSDOF 1
ENDMDL
MODEL 3
REMARK VINA RESULT:       0.5      2.607      4.085
REMARK  1 active torsions:
REMARK  status: ('A' for Active; 'I' for Inactive)
REMARK    1  A    between atoms: C8_8  and  C9_9 
ROOT
HETATM    1  C1  UNL     1     -35.236   5.749   4.347  1.00 20.00     0.059 C 
HETATM    2  C9  UNL     1     -34.855   7.073   3.874  1.00 20.00     0.129 C 
HETATM    3  N10 UNL     1     -35.567   4.706   4.733  1.00 20.00    -0.197 NA
ENDROOT
BRANCH   2   4
HETATM    4  C8  UNL     1     -33.439   6.888   3.338  1.00 20.00     0.003 C 
HETATM    5  C5  UNL     1     -33.169   5.437   2.885  1.00 20.00     0.010 C 
HETATM    6  C6  UNL     1     -32.716   5.607   1.424  1.00 20.00    -0.014 C 
HETATM    7  C2  UNL     1     -31.336   6.286   1.399  1.00 20.00     0.005 C 
HETATM    8  C4  UNL     1     -33.629   6.734   0.945  1.00 20.00     0.009 C 
HETATM    9  C3  UNL     1     -31.655   7.734   1.800  1.00 20.00     0.005 C 
HETATM   10  C7  UNL     1     -33.176   7.696   2.044  1.00 20.00    -0.009 C 
ENDBRANCH   2   4
TORSDOF 1
ENDMDL
MODEL 4
REMARK VINA RESULT:       0.6      1.276      2.212
REMARK  1 active torsions:
REMARK  status: ('A' for Active; 'I' for Inactive)
REMARK    1  A    between atoms: C8_8  and  C9_9 
ROOT
HETATM    1  C1  UNL     1     -31.948   8.042   1.775  1.00 20.00     0.059 C 
HETATM    2  C9  UNL     1     -32.699   8.500   2.937  1.00 20.00     0.129 C 
HETATM    3  N10 UNL     1     -31.345   7.707   0.841  1.00 20.00    -0.197 NA
ENDROOT
BRANCH   2   4
HETATM    4  C8  UNL     1     -33.120   7.216   3.642  1.00 20.00     0.003 C 
HETATM    5  C5  UNL     1     -34.258   7.453   4.660  1.00 20.00     0.010 C 
HETATM    6  C6  UNL     1     -35.350   6.472   4.196  1.00 20.00    -0.014 C 
HETATM    7  C2  UNL     1     -34.882   5.032   4.463  1.00 20.00     0.005 C 
HETATM    8  C4  UNL     1     -35.226   6.566   2.677  1.00 20.00     0.009 C 
HETATM    9  C3  UNL     1     -33.795   4.818   3.399  1.00 20.00     0.005 C 
HETATM   10  C7  UNL     1     -33.747   6.179   2.679  1.00 20.00    -0.009 C 
ENDBRANCH   2   4
TORSDOF 1
ENDMDL
MODEL 5
REMARK VINA RESULT:       1.1      2.858      4.321
REMARK  1 active torsions:
REMARK  status: ('A' for Active; 'I' for Inactive)
REMARK    1  A    between atoms: C8_8  and  C9_9 
ROOT
HETATM    1  C1  UNL     1     -33.875   3.695   4.544  1.00 20.00     0.059 C 
HETATM    2  C9  UNL     1     -34.886   4.743   4.554  1.00 20.00     0.129 C 
HETATM    3  N10 UNL     1     -33.083   2.846   4.561  1.00 20.00    -0.197 NA
ENDROOT
BRANCH   2   4
HETATM    4  C8  UNL     1     -34.498   5.651   3.392  1.00 20.00     0.003 C 
HETATM    5  C5  UNL     1     -35.212   7.020   3.455  1.00 20.00     0.010 C 
HETATM    6  C6  UNL     1     -34.043   8.022   3.429  1.00 20.00    -0.014 C 
HETATM    7  C2  UNL     1     -33.381   7.991   2.041  1.00 20.00     0.005 C 
HETATM    8  C4  UNL     1     -33.003   7.308   4.289  1.00 20.00     0.009 C 
HETATM    9  C3  UNL     1     -32.641   6.645   2.041  1.00 20.00     0.005 C 
HETATM   10  C7  UNL     1     -33.004   6.053   3.416  1.00 20.00    -0.009 C 
ENDBRANCH   2   4
TORSDOF 1
ENDMDL
MODEL 6
REMARK VINA RESULT:       1.3      1.165      1.828
REMARK  1 active torsions:
REMARK  status: ('A' for Active; 'I' for Inactive)
REMARK    1  A    between atoms: C8_8  and  C9_9 
ROOT
HETATM    1  C1  UNL     1     -32.517   9.883  -0.276  1.00 20.00     0.059 C 
HETATM    2  C9  UNL     1     -31.741   8.960   0.543  1.00 20.00     0.129 C 
HETATM    3  N10 UNL     1     -33.108  10.628  -0.941  1.00 20.00    -0.197 NA
ENDROOT
BRANCH   2   4
HETATM    4  C8  UNL     1     -32.783   8.253   1.403  1.00 20.00     0.003 C 
HETATM    5  C5  UNL     1     -33.375   7.010   0.702  1.00 20.00     0.010 C 
HETATM    6  C6  UNL     1     -33.110   5.881   1.715  1.00 20.00    -0.014 C 
HETATM    7  C2  UNL     1     -33.999   6.093   2.952  1.00 20.00     0.005 C 
HETATM    8  C4  UNL     1     -31.731   6.263   2.251  1.00 20.00     0.009 C 
HETATM    9  C3  UNL     1     -33.347   7.297   3.646  1.00 20.00     0.005 C 
HETATM   10  C7  UNL     1     -32.185   7.653   2.698  1.00 20.00    -0.009 C 
ENDBRANCH   2   4
TORSDOF 1
ENDMDL
MODEL 7
REMARK VINA RESULT:       1.5      2.421      4.086
REMARK  1 active torsions:
REMARK  status: ('A' for Active; 'I' for Inactive)
REMARK    1  A    between atoms: C8_8  and  C9_9 
ROOT
HETATM    1  C1  UNL     1     -34.595   5.568   3.721  1.00 20.00     0.059 C 
HETATM    2  C9  UNL     1     -33.458   5.497   2.812  1.00 20.00     0.129 C 
HETATM    3  N10 UNL     1     -35.494   5.595   4.454  1.00 20.00    -0.197 NA
ENDROOT
BRANCH   2   4
HETATM    4  C8  UNL     1     -33.421   6.870   2.149  1.00 20.00     0.003 C 
HETATM    5  C5  UNL     1     -33.052   7.991   3.145  1.00 20.00     0.010 C 
HETATM    6  C6  UNL     1     -31.829   8.654   2.484  1.00 20.00    -0.014 C 
HETATM    7  C2  UNL     1     -32.279   9.393   1.214  1.00 20.00     0.005 C 
HETATM    8  C4  UNL     1     -31.098   7.446   1.902  1.00 20.00     0.009 C 
HETATM    9  C3  UNL     1     -32.583   8.249   0.236  1.00 20.00     0.005 C 
HETATM   10  C7  UNL     1     -32.306   6.991   1.082  1.00 20.00    -0.009 C 
ENDBRANCH   2   4
TORSDOF 1
ENDMDL
MODEL 8
REMARK VINA RESULT:       1.6      0.968      1.988
REMARK  1 active torsions:
REMARK  status: ('A' for Active; 'I' for Inactive)
REMARK    1  A    between atoms: C8_8  and  C9_9 
ROOT
HETATM    1  C1  UNL     1     -32.410   9.380   0.607  1.00 20.00     0.059 C 
HETATM    2  C9  UNL     1     -32.434   9.381   2.064  1.00 20.00     0.129 C 
HETATM    3  N10 UNL     1     -32.393   9.410  -0.553  1.00 20.00    -0.197 NA
ENDROOT
BRANCH   2   4
HETATM    4  C8  UNL     1     -32.360   7.906   2.443  1.00 20.00     0.003 C 
HETATM    5  C5  UNL     1     -32.876   7.642   3.875  1.00 20.00     0.010 C 
HETATM    6  C6  UNL     1     -33.976   6.587   3.658  1.00 20.00    -0.014 C 
HETATM    7  C2  UNL     1     -33.326   5.261   3.228  1.00 20.00     0.005 C 
HETATM    8  C4  UNL     1     -34.611   7.063   2.354  1.00 20.00     0.009 C 
HETATM    9  C3  UNL     1     -32.877   5.547   1.787  1.00 20.00     0.005 C 
HETATM   10  C7  UNL     1     -33.291   7.017   1.584  1.00 20.00    -0.009 C 
ENDBRANCH   2   4
TORSDOF 1
ENDMDL
MODEL 9
REMARK VINA RESULT:       1.8      2.173      3.940
REMARK  1 active torsions:
REMARK  status: ('A' for Active; 'I' for Inactive)
REMARK    1  A    between atoms: C8_8  and  C9_9 
ROOT
HETATM    1  C1  UNL     1     -34.748   6.708   3.980  1.00 20.00     0.059 C 
HETATM    2  C9  UNL     1     -33.495   7.370   4.315  1.00 20.00     0.129 C 
HETATM    3  N10 UNL     1     -35.748   6.169   3.741  1.00 20.00    -0.197 NA
ENDROOT
BRANCH   2   4
HETATM    4  C8  UNL     1     -33.121   8.133   3.049  1.00 20.00     0.003 C 
HETATM    5  C5  UNL     1     -31.652   8.610   3.064  1.00 20.00     0.010 C 
HETATM    6  C6  UNL     1     -31.078   8.006   1.770  1.00 20.00    -0.014 C 
HETATM    7  C2  UNL     1     -31.705   8.716   0.558  1.00 20.00     0.005 C 
HETATM    8  C4  UNL     1     -31.769   6.645   1.728  1.00 20.00     0.009 C 
HETATM    9  C3  UNL     1     -33.142   8.175   0.547  1.00 20.00     0.005 C 
HETATM   10  C7  UNL     1     -33.172   7.250   1.779  1.00 20.00    -0.009 C 
ENDBRANCH   2   4
TORSDOF 1
ENDMDL
