MODEL 1
REMARK VINA RESULT:       5.1      0.000      0.000
REMARK  0 active torsions:
REMARK  status: ('A' for Active; 'I' for Inactive)
ROOT
HETATM    1  C1  UNL     1     -31.782   5.239   1.583  1.00 20.00     0.018 C 
HETATM    2  C2  UNL     1     -34.089   7.305   3.566  1.00 20.00     0.018 C 
HETATM    3  C3  UNL     1     -32.290   4.654   2.904  1.00 20.00     0.022 C 
HETATM    4  C4  UNL     1     -32.619   7.729   3.496  1.00 20.00     0.022 C 
HETATM    5  C5  UNL     1     -32.363   6.595   1.154  1.00 20.00     0.066 C 
HETATM    6  C6  UNL     1     -34.487   6.067   2.747  1.00 20.00     0.066 C 
HETATM    7  C7  UNL     1     -33.808   4.732   3.101  1.00 20.00     0.096 C 
HETATM    8  C8  UNL     1     -32.003   7.764   2.092  1.00 20.00     0.096 C 
HETATM    9  S9  UNL     1     -34.166   6.414   0.992  1.00 20.00    -0.156 SA
HETATM   10 CL10 UNL     1     -34.204   4.256   4.787  1.00 20.00    -0.124 Cl
HETATM   11 CL11 UNL     1     -32.438   9.330   1.302  1.00 20.00    -0.124 Cl
ENDROOT
TORSDOF 0
ENDMDL
MODEL 2
REMARK VINA RESULT:       5.5      1.348      3.829
REMARK  0 active torsions:
REMARK  status: ('A' for Active; 'I' for Inactive)
ROOT
HETATM    1  C1  UNL     1     -33.552   6.111   0.252  1.00 20.00     0.018 C 
HETATM    2  C2  UNL     1     -32.722   7.879   3.368  1.00 20.00     0.018 C 
HETATM    3  C3  UNL     1     -33.467   7.639   0.192  1.00 20.00     0.022 C 
HETATM    4  C4  UNL     1     -34.108   7.240   3.249  1.00 20.00     0.022 C 
HETATM    5  C5  UNL     1     -33.181   5.447   1.587  1.00 20.00     0.066 C 
HETATM    6  C6  UNL     1     -31.767   7.677   2.181  1.00 20.00     0.066 C 
HETATM    7  C7  UNL     1     -32.202   8.239   0.816  1.00 20.00     0.096 C 
HETATM    8  C8  UNL     1     -34.131   5.789   2.751  1.00 20.00     0.096 C 
HETATM    9  S9  UNL     1     -31.464   5.896   1.987  1.00 20.00    -0.156 SA
HETATM   10 CL10 UNL     1     -32.382  10.024   0.901  1.00 20.00    -0.124 Cl
HETATM   11 CL11 UNL     1     -33.802   4.688   4.146  1.00 20.00    -0.124 Cl
ENDROOT
TORSDOF 0
ENDMDL
MODEL 3
REMARK VINA RESULT:       6.1      1.168      3.964
REMARK  0 active torsions:
REMARK  status: ('A' for Active; 'I' for Inactive)
ROOT
HETATM    1  C1  UNL     1     -33.098   7.830   4.254  1.00 20.00     0.018 C 
HETATM    2  C2  UNL     1     -32.882   5.639   1.308  1.00 20.00     0.018 C 
HETATM    3  C3  UNL     1     -32.150   8.256   3.128  1.00 20.00     0.022 C 
HETATM    4  C4  UNL     1     -32.256   5.151   2.617  1.00 20.00     0.022 C 
HETATM    5  C5  UNL     1     -33.952   6.577   4.005  1.00 20.00     0.066 C 
HETATM    6  C6  UNL     1     -33.602   6.995   1.353  1.00 20.00     0.066 C 
HETATM    7  C7  UNL     1     -32.765   8.232   1.724  1.00 20.00     0.096 C 
HETATM    8  C8  UNL     1     -33.140   5.274   3.864  1.00 20.00     0.096 C 
HETATM    9  S9  UNL     1     -34.979   6.873   2.533  1.00 20.00    -0.156 SA
HETATM   10 CL10 UNL     1     -31.466   8.496   0.512  1.00 20.00    -0.124 Cl
HETATM   11 CL11 UNL     1     -34.256   3.855   3.931  1.00 20.00    -0.124 Cl
ENDROOT
TORSDOF 0
ENDMDL
MODEL 4
REMARK VINA RESULT:       6.8      1.826      2.646
REMARK  0 active torsions:
REMARK  status: ('A' for Active; 'I' for Inactive)
ROOT
HETATM    1  C1  UNL     1     -31.978   8.377   3.649  1.00 20.00     0.018 C 
HETATM    2  C2  UNL     1     -33.794   6.933   0.796  1.00 20.00     0.018 C 
HETATM    3  C3  UNL     1     -33.428   7.945   3.885  1.00 20.00     0.022 C 
HETATM    4  C4  UNL     1     -33.495   8.434   0.775  1.00 20.00     0.022 C 
HETATM    5  C5  UNL     1     -31.379   8.072   2.267  1.00 20.00     0.066 C 
HETATM    6  C6  UNL     1     -33.255   6.141   1.997  1.00 20.00     0.066 C 
HETATM    7  C7  UNL     1     -33.768   6.533   3.395  1.00 20.00     0.096 C 
HETATM    8  C8  UNL     1     -32.050   8.830   1.104  1.00 20.00     0.096 C 
HETATM    9  S9  UNL     1     -31.443   6.274   2.004  1.00 20.00    -0.156 SA
HETATM   10 CL10 UNL     1     -35.544   6.288   3.503  1.00 20.00    -0.124 Cl
HETATM   11 CL11 UNL     1     -31.045   8.662  -0.388  1.00 20.00    -0.124 Cl
ENDROOT
TORSDOF 0
ENDMDL
MODEL 5
REMARK VINA RESULT:       7.1      2.407      3.446
REMARK  0 active torsions:
REMARK  status: ('A' for Active; 'I' for Inactive)
ROOT
HETATM    1  C1  UNL     1     -33.790   7.696   2.864  1.00 20.00     0.018 C 
HETATM    2  C2  UNL     1     -31.316   8.130   0.177  1.00 20.00     0.018 C 
HETATM    3  C3  UNL     1     -33.489   6.480   1.982  1.00 20.00     0.022 C 
HETATM    4  C4  UNL     1     -32.681   8.804   0.016  1.00 20.00     0.022 C 
HETATM    5  C5  UNL     1     -32.953   8.960   2.612  1.00 20.00     0.066 C 
HETATM    6  C6  UNL     1     -31.076   7.365   1.488  1.00 20.00     0.066 C 
HETATM    7  C7  UNL     1     -31.999   6.173   1.795  1.00 20.00     0.096 C 
HETATM    8  C8  UNL     1     -33.176   9.602   1.228  1.00 20.00     0.096 C 
HETATM    9  S9  UNL     1     -31.201   8.542   2.867  1.00 20.00    -0.156 SA
HETATM   10 CL10 UNL     1     -31.818   4.901   0.538  1.00 20.00    -0.124 Cl
HETATM   11 CL11 UNL     1     -32.420  11.244   1.193  1.00 20.00    -0.124 Cl
ENDROOT
TORSDOF 0
ENDMDL
MODEL 6
REMARK VINA RESULT:       7.5      1.568      2.653
REMARK  0 active torsions:
REMARK  status: ('A' for Active; 'I' for Inactive)
ROOT
HETATM    1  C1  UNL     1     -33.633   8.114   3.563  1.00 20.00     0.018 C 
HETATM    2  C2  UNL     1     -32.710   5.750   0.901  1.00 20.00     0.018 C 
HETATM    3  C3  UNL     1     -34.210   6.698   3.649  1.00 20.00     0.022 C 
HETATM    4  C4  UNL     1     -33.671   6.889   0.553  1.00 20.00     0.022 C 
HETATM    5  C5  UNL     1     -32.635   8.389   2.427  1.00 20.00     0.066 C 
HETATM    6  C6  UNL     1     -32.165   5.724   2.338  1.00 20.00     0.066 C 
HETATM    7  C7  UNL     1     -33.184   5.572   3.482  1.00 20.00     0.096 C 
HETATM    8  C8  UNL     1     -33.241   8.287   1.013  1.00 20.00     0.096 C 
HETATM    9  S9  UNL     1     -31.226   7.254   2.621  1.00 20.00    -0.156 SA
HETATM   10 CL10 UNL     1     -34.052   4.005   3.343  1.00 20.00    -0.124 Cl
HETATM   11 CL11 UNL     1     -32.080   8.968  -0.194  1.00 20.00    -0.124 Cl
ENDROOT
TORSDOF 0
ENDMDL
