MODEL 1
REMARK VINA RESULT:       3.2      0.000      0.000
REMARK  1 active torsions:
REMARK  status: ('A' for Active; 'I' for Inactive)
REMARK    1  A    between atoms: C8_8  and  O10_10 
ROOT
HETATM    1  C1  UNL     1     -33.276   5.360   0.768  1.00 20.00     0.005 C 
HETATM    2  C2  UNL     1     -31.338   6.615   1.741  1.00 20.00     0.005 C 
HETATM    3  C3  UNL     1     -34.111   6.647   0.805  1.00 20.00     0.008 C 
HETATM    4  C4  UNL     1     -32.195   7.887   1.780  1.00 20.00     0.008 C 
HETATM    5  C5  UNL     1     -32.958   5.442   3.252  1.00 20.00     0.042 C 
HETATM    6  C6  UNL     1     -32.227   5.369   1.895  1.00 20.00    -0.012 C 
HETATM    7  C7  UNL     1     -33.680   7.519   1.998  1.00 20.00     0.019 C 
HETATM    8  C8  UNL     1     -33.818   6.725   3.327  1.00 20.00     0.058 C 
HETATM    9  C9  UNL     1     -35.273   6.395   3.672  1.00 20.00     0.046 C 
ENDROOT
BRANCH   8  10
HETATM   10  O10 UNL     1     -33.317   7.529   4.403  1.00 20.00    -0.390 OA
HETATM   11  H26 UNL     1     -32.699   6.968   4.892  1.00 20.00     0.210 HD
ENDBRANCH   8  10
TORSDOF 1
ENDMDL
MODEL 2
REMARK VINA RESULT:       3.7      1.472      3.226
REMARK  1 active torsions:
REMARK  status: ('A' for Active; 'I' for Inactive)
REMARK    1  A    between atoms: C8_8  and  O10_10 
ROOT
HETATM    1  C1  UNL     1     -35.238   5.437   3.980  1.00 20.00     0.005 C 
HETATM    2  C2  UNL     1     -34.531   7.814   4.331  1.00 20.00     0.005 C 
HETATM    3  C3  UNL     1     -33.779   4.992   4.141  1.00 20.00     0.008 C 
HETATM    4  C4  UNL     1     -33.076   7.348   4.478  1.00 20.00     0.008 C 
HETATM    5  C5  UNL     1     -34.632   6.866   2.014  1.00 20.00     0.042 C 
HETATM    6  C6  UNL     1     -35.304   6.862   3.402  1.00 20.00    -0.012 C 
HETATM    7  C7  UNL     1     -32.835   6.088   3.616  1.00 20.00     0.019 C 
HETATM    8  C8  UNL     1     -33.157   6.416   2.132  1.00 20.00     0.058 C 
HETATM    9  C9  UNL     1     -32.860   5.248   1.187  1.00 20.00     0.046 C 
ENDROOT
BRANCH   8  10
HETATM   10  O10 UNL     1     -32.329   7.506   1.705  1.00 20.00    -0.390 OA
HETATM   11  H26 UNL     1     -32.409   7.543   0.742  1.00 20.00     0.210 HD
ENDBRANCH   8  10
TORSDOF 1
ENDMDL
MODEL 3
REMARK VINA RESULT:       3.8      1.349      2.569
REMARK  1 active torsions:
REMARK  status: ('A' for Active; 'I' for Inactive)
REMARK    1  A    between atoms: C8_8  and  O10_10 
ROOT
HETATM    1  C1  UNL     1     -32.901   5.008   2.983  1.00 20.00     0.005 C 
HETATM    2  C2  UNL     1     -33.178   5.372   0.521  1.00 20.00     0.005 C 
HETATM    3  C3  UNL     1     -33.897   6.145   3.250  1.00 20.00     0.008 C 
HETATM    4  C4  UNL     1     -34.162   6.512   0.810  1.00 20.00     0.008 C 
HETATM    5  C5  UNL     1     -31.369   6.575   1.770  1.00 20.00     0.042 C 
HETATM    6  C6  UNL     1     -32.152   5.251   1.661  1.00 20.00    -0.012 C 
HETATM    7  C7  UNL     1     -33.792   7.206   2.140  1.00 20.00     0.019 C 
HETATM    8  C8  UNL     1     -32.339   7.748   2.046  1.00 20.00     0.058 C 
HETATM    9  C9  UNL     1     -31.916   8.533   3.290  1.00 20.00     0.046 C 
ENDROOT
BRANCH   8  10
HETATM   10  O10 UNL     1     -32.253   8.659   0.942  1.00 20.00    -0.390 OA
HETATM   11  H26 UNL     1     -31.748   9.419   1.260  1.00 20.00     0.210 HD
ENDBRANCH   8  10
TORSDOF 1
ENDMDL
MODEL 4
REMARK VINA RESULT:       3.8      1.204      2.219
REMARK  1 active torsions:
REMARK  status: ('A' for Active; 'I' for Inactive)
REMARK    1  A    between atoms: C8_8  and  O10_10 
ROOT
HETATM    1  C1  UNL     1     -31.148   6.786   1.999  1.00 20.00     0.005 C 
HETATM    2  C2  UNL     1     -32.926   8.324   1.136  1.00 20.00     0.005 C 
HETATM    3  C3  UNL     1     -31.955   5.586   1.486  1.00 20.00     0.008 C 
HETATM    4  C4  UNL     1     -33.723   7.110   0.641  1.00 20.00     0.008 C 
HETATM    5  C5  UNL     1     -33.038   7.476   3.491  1.00 20.00     0.042 C 
HETATM    6  C6  UNL     1     -32.089   7.946   2.370  1.00 20.00    -0.012 C 
HETATM    7  C7  UNL     1     -33.461   5.895   1.561  1.00 20.00     0.019 C 
HETATM    8  C8  UNL     1     -33.867   6.260   3.015  1.00 20.00     0.058 C 
HETATM    9  C9  UNL     1     -33.727   5.083   3.984  1.00 20.00     0.046 C 
ENDROOT
BRANCH   8  10
HETATM   10  O10 UNL     1     -35.250   6.637   3.031  1.00 20.00    -0.390 OA
HETATM   11  H26 UNL     1     -35.334   7.375   2.411  1.00 20.00     0.210 HD
ENDBRANCH   8  10
TORSDOF 1
ENDMDL
MODEL 5
REMARK VINA RESULT:       4.0      1.387      2.733
REMARK  1 active torsions:
REMARK  status: ('A' for Active; 'I' for Inactive)
REMARK    1  A    between atoms: C8_8  and  O10_10 
ROOT
HETATM    1  C1  UNL     1     -34.916   6.528   2.272  1.00 20.00     0.005 C 
HETATM    2  C2  UNL     1     -33.033   5.308   3.386  1.00 20.00     0.005 C 
HETATM    3  C3  UNL     1     -34.196   6.382   0.925  1.00 20.00     0.008 C 
HETATM    4  C4  UNL     1     -32.325   5.184   2.031  1.00 20.00     0.008 C 
HETATM    5  C5  UNL     1     -32.982   7.808   3.218  1.00 20.00     0.042 C 
HETATM    6  C6  UNL     1     -33.895   6.582   3.423  1.00 20.00    -0.012 C 
HETATM    7  C7  UNL     1     -32.672   6.398   1.140  1.00 20.00     0.019 C 
HETATM    8  C8  UNL     1     -32.241   7.703   1.865  1.00 20.00     0.058 C 
HETATM    9  C9  UNL     1     -32.464   8.956   1.015  1.00 20.00     0.046 C 
ENDROOT
BRANCH   8  10
HETATM   10  O10 UNL     1     -30.834   7.641   2.137  1.00 20.00    -0.390 OA
HETATM   11  H26 UNL     1     -30.475   8.504   1.892  1.00 20.00     0.210 HD
ENDBRANCH   8  10
TORSDOF 1
ENDMDL
MODEL 6
REMARK VINA RESULT:       4.1      1.770      3.328
REMARK  1 active torsions:
REMARK  status: ('A' for Active; 'I' for Inactive)
REMARK    1  A    between atoms: C8_8  and  O10_10 
ROOT
HETATM    1  C1  UNL     1     -31.985   5.896   1.509  1.00 20.00     0.005 C 
HETATM    2  C2  UNL     1     -33.716   7.070   2.886  1.00 20.00     0.005 C 
HETATM    3  C3  UNL     1     -30.943   6.927   1.962  1.00 20.00     0.008 C 
HETATM    4  C4  UNL     1     -32.661   8.097   3.318  1.00 20.00     0.008 C 
HETATM    5  C5  UNL     1     -33.389   7.699   0.483  1.00 20.00     0.042 C 
HETATM    6  C6  UNL     1     -33.389   6.526   1.485  1.00 20.00    -0.012 C 
HETATM    7  C7  UNL     1     -31.620   8.290   2.192  1.00 20.00     0.019 C 
HETATM    8  C8  UNL     1     -32.345   8.760   0.902  1.00 20.00     0.058 C 
HETATM    9  C9  UNL     1     -31.378   9.065  -0.246  1.00 20.00     0.046 C 
ENDROOT
BRANCH   8  10
HETATM   10  O10 UNL     1     -33.045   9.980   1.179  1.00 20.00    -0.390 OA
HETATM   11  H26 UNL     1     -33.629   9.791   1.926  1.00 20.00     0.210 HD
ENDBRANCH   8  10
TORSDOF 1
ENDMDL
MODEL 7
REMARK VINA RESULT:       4.1      1.766      3.209
REMARK  1 active torsions:
REMARK  status: ('A' for Active; 'I' for Inactive)
REMARK    1  A    between atoms: C8_8  and  O10_10 
ROOT
HETATM    1  C1  UNL     1     -32.391   7.989   4.197  1.00 20.00     0.005 C 
HETATM    2  C2  UNL     1     -34.223   8.767   2.676  1.00 20.00     0.005 C 
HETATM    3  C3  UNL     1     -31.393   8.113   3.038  1.00 20.00     0.008 C 
HETATM    4  C4  UNL     1     -33.211   8.873   1.528  1.00 20.00     0.008 C 
HETATM    5  C5  UNL     1     -33.746   6.319   2.912  1.00 20.00     0.042 C 
HETATM    6  C6  UNL     1     -33.798   7.666   3.662  1.00 20.00    -0.012 C 
HETATM    7  C7  UNL     1     -32.100   7.813   1.703  1.00 20.00     0.019 C 
HETATM    8  C8  UNL     1     -32.743   6.400   1.736  1.00 20.00     0.058 C 
HETATM    9  C9  UNL     1     -31.707   5.276   1.818  1.00 20.00     0.046 C 
ENDROOT
BRANCH   8  10
HETATM   10  O10 UNL     1     -33.474   6.192   0.521  1.00 20.00    -0.390 OA
HETATM   11  H26 UNL     1     -32.821   6.213  -0.192  1.00 20.00     0.210 HD
ENDBRANCH   8  10
TORSDOF 1
ENDMDL
MODEL 8
REMARK VINA RESULT:       4.2      1.634      3.347
REMARK  1 active torsions:
REMARK  status: ('A' for Active; 'I' for Inactive)
REMARK    1  A    between atoms: C8_8  and  O10_10 
ROOT
HETATM    1  C1  UNL     1     -33.556   7.130   4.958  1.00 20.00     0.005 C 
HETATM    2  C2  UNL     1     -35.484   5.923   3.909  1.00 20.00     0.005 C 
HETATM    3  C3  UNL     1     -33.685   8.232   3.898  1.00 20.00     0.008 C 
HETATM    4  C4  UNL     1     -35.588   7.030   2.851  1.00 20.00     0.008 C 
HETATM    5  C5  UNL     1     -33.140   5.410   3.185  1.00 20.00     0.042 C 
HETATM    6  C6  UNL     1     -34.030   5.780   4.390  1.00 20.00    -0.012 C 
HETATM    7  C7  UNL     1     -34.191   7.630   2.575  1.00 20.00     0.019 C 
HETATM    8  C8  UNL     1     -33.237   6.502   2.094  1.00 20.00     0.058 C 
HETATM    9  C9  UNL     1     -31.850   7.021   1.708  1.00 20.00     0.046 C 
ENDROOT
BRANCH   8  10
HETATM   10  O10 UNL     1     -33.788   5.898   0.916  1.00 20.00    -0.390 OA
HETATM   11  H26 UNL     1     -34.521   6.465   0.641  1.00 20.00     0.210 HD
ENDBRANCH   8  10
TORSDOF 1
ENDMDL
MODEL 9
REMARK VINA RESULT:       4.3      1.501      2.587
REMARK  1 active torsions:
REMARK  status: ('A' for Active; 'I' for Inactive)
REMARK    1  A    between atoms: C8_8  and  O10_10 
ROOT
HETATM    1  C1  UNL     1     -31.980   8.777   1.014  1.00 20.00     0.005 C 
HETATM    2  C2  UNL     1     -31.837   8.265   3.462  1.00 20.00     0.005 C 
HETATM    3  C3  UNL     1     -33.482   8.461   1.049  1.00 20.00     0.008 C 
HETATM    4  C4  UNL     1     -33.337   7.944   3.472  1.00 20.00     0.008 C 
HETATM    5  C5  UNL     1     -31.429   6.455   1.778  1.00 20.00     0.042 C 
HETATM    6  C6  UNL     1     -31.235   7.955   2.081  1.00 20.00    -0.012 C 
HETATM    7  C7  UNL     1     -33.765   7.374   2.101  1.00 20.00     0.019 C 
HETATM    8  C8  UNL     1     -32.934   6.097   1.797  1.00 20.00     0.058 C 
HETATM    9  C9  UNL     1     -33.354   5.410   0.495  1.00 20.00     0.046 C 
ENDROOT
BRANCH   8  10
HETATM   10  O10 UNL     1     -33.146   5.143   2.847  1.00 20.00    -0.390 OA
HETATM   11  H26 UNL     1     -33.145   4.274   2.424  1.00 20.00     0.210 HD
ENDBRANCH   8  10
TORSDOF 1
ENDMDL
