MODEL 1
REMARK VINA RESULT:      -0.7      0.000      0.000
REMARK  0 active torsions:
REMARK  status: ('A' for Active; 'I' for Inactive)
ROOT
HETATM    1  C1  UNL     1     -32.309   6.217   1.777  1.00 20.00     0.066 C 
HETATM    2  C2  UNL     1     -32.944   7.931   3.519  1.00 20.00     0.066 C 
HETATM    3  C3  UNL     1     -33.645   5.540   2.067  1.00 20.00     0.170 C 
HETATM    4  C4  UNL     1     -34.242   7.150   3.703  1.00 20.00     0.170 C 
HETATM    5  C5  UNL     1     -32.442   8.735   1.081  1.00 20.00     0.207 A 
HETATM    6  C6  UNL     1     -32.405   7.666   2.146  1.00 20.00     0.086 A 
HETATM    7  O7  UNL     1     -34.032   5.760   3.429  1.00 20.00    -0.391 OA
HETATM    8  O8  UNL     1     -31.243   8.436   1.812  1.00 20.00    -0.375 OA
ENDROOT
TORSDOF 0
ENDMDL
MODEL 2
REMARK VINA RESULT:      -0.7      1.040      3.371
REMARK  0 active torsions:
REMARK  status: ('A' for Active; 'I' for Inactive)
ROOT
HETATM    1  C1  UNL     1     -33.226   7.702   3.613  1.00 20.00     0.066 C 
HETATM    2  C2  UNL     1     -33.470   5.373   2.667  1.00 20.00     0.066 C 
HETATM    3  C3  UNL     1     -32.529   8.075   2.308  1.00 20.00     0.170 C 
HETATM    4  C4  UNL     1     -32.759   5.889   1.420  1.00 20.00     0.170 C 
HETATM    5  C5  UNL     1     -35.623   6.684   3.366  1.00 20.00     0.207 A 
HETATM    6  C6  UNL     1     -34.122   6.526   3.369  1.00 20.00     0.086 A 
HETATM    7  O7  UNL     1     -31.847   6.939   1.762  1.00 20.00    -0.391 OA
HETATM    8  O8  UNL     1     -34.921   6.151   4.499  1.00 20.00    -0.375 OA
ENDROOT
TORSDOF 0
ENDMDL
MODEL 3
REMARK VINA RESULT:      -0.4      0.957      1.968
REMARK  0 active torsions:
REMARK  status: ('A' for Active; 'I' for Inactive)
ROOT
HETATM    1  C1  UNL     1     -33.832   8.211   3.064  1.00 20.00     0.066 C 
HETATM    2  C2  UNL     1     -33.034   6.199   1.763  1.00 20.00     0.066 C 
HETATM    3  C3  UNL     1     -34.188   7.246   4.190  1.00 20.00     0.170 C 
HETATM    4  C4  UNL     1     -33.439   5.356   2.969  1.00 20.00     0.170 C 
HETATM    5  C5  UNL     1     -31.346   8.136   2.252  1.00 20.00     0.207 A 
HETATM    6  C6  UNL     1     -32.757   7.599   2.218  1.00 20.00     0.086 A 
HETATM    7  O7  UNL     1     -34.539   5.962   3.657  1.00 20.00    -0.391 OA
HETATM    8  O8  UNL     1     -32.255   8.463   1.190  1.00 20.00    -0.375 OA
ENDROOT
TORSDOF 0
ENDMDL
MODEL 4
REMARK VINA RESULT:      -0.3      1.199      3.210
REMARK  0 active torsions:
REMARK  status: ('A' for Active; 'I' for Inactive)
ROOT
HETATM    1  C1  UNL     1     -33.883   6.330   2.024  1.00 20.00     0.066 C 
HETATM    2  C2  UNL     1     -33.918   7.831   4.054  1.00 20.00     0.066 C 
HETATM    3  C3  UNL     1     -32.415   6.711   1.862  1.00 20.00     0.170 C 
HETATM    4  C4  UNL     1     -32.447   8.120   3.769  1.00 20.00     0.170 C 
HETATM    5  C5  UNL     1     -34.539   5.306   4.340  1.00 20.00     0.207 A 
HETATM    6  C6  UNL     1     -34.278   6.504   3.459  1.00 20.00     0.086 A 
HETATM    7  O7  UNL     1     -32.183   8.033   2.364  1.00 20.00    -0.391 OA
HETATM    8  O8  UNL     1     -35.609   6.066   3.759  1.00 20.00    -0.375 OA
ENDROOT
TORSDOF 0
ENDMDL
MODEL 5
REMARK VINA RESULT:      -0.1      1.636      2.277
REMARK  0 active torsions:
REMARK  status: ('A' for Active; 'I' for Inactive)
ROOT
HETATM    1  C1  UNL     1     -33.649   5.374   3.211  1.00 20.00     0.066 C 
HETATM    2  C2  UNL     1     -32.418   7.422   2.391  1.00 20.00     0.066 C 
HETATM    3  C3  UNL     1     -34.696   6.327   3.780  1.00 20.00     0.170 C 
HETATM    4  C4  UNL     1     -33.541   8.249   3.010  1.00 20.00     0.170 C 
HETATM    5  C5  UNL     1     -33.169   5.619   0.651  1.00 20.00     0.207 A 
HETATM    6  C6  UNL     1     -32.937   6.051   2.079  1.00 20.00     0.086 A 
HETATM    7  O7  UNL     1     -34.092   7.573   4.147  1.00 20.00    -0.391 OA
HETATM    8  O8  UNL     1     -32.005   5.212   1.385  1.00 20.00    -0.375 OA
ENDROOT
TORSDOF 0
ENDMDL
MODEL 6
REMARK VINA RESULT:       0.1      1.607      2.687
REMARK  0 active torsions:
REMARK  status: ('A' for Active; 'I' for Inactive)
ROOT
HETATM    1  C1  UNL     1     -34.280   6.103   3.387  1.00 20.00     0.066 C 
HETATM    2  C2  UNL     1     -32.905   7.934   2.320  1.00 20.00     0.066 C 
HETATM    3  C3  UNL     1     -33.321   5.110   2.737  1.00 20.00     0.170 C 
HETATM    4  C4  UNL     1     -32.030   6.829   1.735  1.00 20.00     0.170 C 
HETATM    5  C5  UNL     1     -33.171   7.908   4.922  1.00 20.00     0.207 A 
HETATM    6  C6  UNL     1     -33.581   7.418   3.554  1.00 20.00     0.086 A 
HETATM    7  O7  UNL     1     -32.802   5.644   1.512  1.00 20.00    -0.391 OA
HETATM    8  O8  UNL     1     -34.345   8.404   4.261  1.00 20.00    -0.375 OA
ENDROOT
TORSDOF 0
ENDMDL
MODEL 7
REMARK VINA RESULT:       0.1      1.533      3.380
REMARK  0 active torsions:
REMARK  status: ('A' for Active; 'I' for Inactive)
ROOT
HETATM    1  C1  UNL     1     -33.264   5.449   2.066  1.00 20.00     0.066 C 
HETATM    2  C2  UNL     1     -34.575   6.485   3.960  1.00 20.00     0.066 C 
HETATM    3  C3  UNL     1     -32.424   6.723   2.053  1.00 20.00     0.170 C 
HETATM    4  C4  UNL     1     -33.655   7.695   3.832  1.00 20.00     0.170 C 
HETATM    5  C5  UNL     1     -33.381   4.192   4.357  1.00 20.00     0.207 A 
HETATM    6  C6  UNL     1     -33.868   5.276   3.426  1.00 20.00     0.086 A 
HETATM    7  O7  UNL     1     -33.208   7.845   2.479  1.00 20.00    -0.391 OA
HETATM    8  O8  UNL     1     -34.590   4.050   3.597  1.00 20.00    -0.375 OA
ENDROOT
TORSDOF 0
ENDMDL
MODEL 8
REMARK VINA RESULT:       0.4      1.551      2.596
REMARK  0 active torsions:
REMARK  status: ('A' for Active; 'I' for Inactive)
ROOT
HETATM    1  C1  UNL     1     -32.377   7.583   1.677  1.00 20.00     0.066 C 
HETATM    2  C2  UNL     1     -34.109   6.001   2.611  1.00 20.00     0.066 C 
HETATM    3  C3  UNL     1     -32.344   8.237   3.056  1.00 20.00     0.170 C 
HETATM    4  C4  UNL     1     -33.970   6.751   3.932  1.00 20.00     0.170 C 
HETATM    5  C5  UNL     1     -31.894   5.012   1.632  1.00 20.00     0.207 A 
HETATM    6  C6  UNL     1     -32.848   6.168   1.820  1.00 20.00     0.086 A 
HETATM    7  O7  UNL     1     -33.620   8.120   3.696  1.00 20.00    -0.391 OA
HETATM    8  O8  UNL     1     -32.812   5.411   0.603  1.00 20.00    -0.375 OA
ENDROOT
TORSDOF 0
ENDMDL
MODEL 9
REMARK VINA RESULT:       0.5      1.593      2.558
REMARK  0 active torsions:
REMARK  status: ('A' for Active; 'I' for Inactive)
ROOT
HETATM    1  C1  UNL     1     -34.991   6.817   3.238  1.00 20.00     0.066 C 
HETATM    2  C2  UNL     1     -33.264   5.038   2.758  1.00 20.00     0.066 C 
HETATM    3  C3  UNL     1     -35.345   6.025   4.493  1.00 20.00     0.170 C 
HETATM    4  C4  UNL     1     -33.724   4.355   4.043  1.00 20.00     0.170 C 
HETATM    5  C5  UNL     1     -32.481   7.521   3.013  1.00 20.00     0.207 A 
HETATM    6  C6  UNL     1     -33.581   6.500   2.842  1.00 20.00     0.086 A 
HETATM    7  O7  UNL     1     -35.109   4.627   4.287  1.00 20.00    -0.391 OA
HETATM    8  O8  UNL     1     -33.093   7.273   1.738  1.00 20.00    -0.375 OA
ENDROOT
TORSDOF 0
ENDMDL
