MODEL 1
REMARK VINA RESULT:      -3.0      0.000      0.000
REMARK  0 active torsions:
REMARK  status: ('A' for Active; 'I' for Inactive)
ROOT
HETATM    1  C1  UNL     1     -33.452   7.371   2.493  1.00 20.00     0.374 C 
HETATM    2  C2  UNL     1     -32.108   7.922   2.007  1.00 20.00     0.398 C 
HETATM    3  C3  UNL     1     -32.997   6.079   1.809  1.00 20.00     0.398 C 
HETATM    4  O4  UNL     1     -31.644   6.586   1.691  1.00 20.00    -0.252 OA
HETATM    5  F5  UNL     1     -33.610   7.303   3.833  1.00 20.00    -0.231 F 
HETATM    6  F6  UNL     1     -31.342   8.535   2.936  1.00 20.00    -0.172 F 
HETATM    7  F7  UNL     1     -32.150   8.727   0.923  1.00 20.00    -0.172 F 
HETATM    8  F8  UNL     1     -33.556   5.809   0.608  1.00 20.00    -0.172 F 
HETATM    9  F9  UNL     1     -33.069   4.952   2.549  1.00 20.00    -0.172 F 
ENDROOT
TORSDOF 0
ENDMDL
MODEL 2
REMARK VINA RESULT:      -2.8      1.264      2.687
REMARK  0 active torsions:
REMARK  status: ('A' for Active; 'I' for Inactive)
ROOT
HETATM    1  C1  UNL     1     -32.863   7.625   2.145  1.00 20.00     0.374 C 
HETATM    2  C2  UNL     1     -32.851   6.141   1.768  1.00 20.00     0.398 C 
HETATM    3  C3  UNL     1     -33.684   7.157   3.349  1.00 20.00     0.398 C 
HETATM    4  O4  UNL     1     -33.335   5.775   3.084  1.00 20.00    -0.252 OA
HETATM    5  F5  UNL     1     -31.659   8.169   2.430  1.00 20.00    -0.231 F 
HETATM    6  F6  UNL     1     -31.644   5.604   1.487  1.00 20.00    -0.172 F 
HETATM    7  F7  UNL     1     -33.697   5.769   0.782  1.00 20.00    -0.172 F 
HETATM    8  F8  UNL     1     -35.016   7.376   3.286  1.00 20.00    -0.172 F 
HETATM    9  F9  UNL     1     -33.264   7.578   4.562  1.00 20.00    -0.172 F 
ENDROOT
TORSDOF 0
ENDMDL
MODEL 3
REMARK VINA RESULT:      -2.8      1.373      3.034
REMARK  0 active torsions:
REMARK  status: ('A' for Active; 'I' for Inactive)
ROOT
HETATM    1  C1  UNL     1     -33.151   6.411   1.694  1.00 20.00     0.374 C 
HETATM    2  C2  UNL     1     -33.831   6.503   3.064  1.00 20.00     0.398 C 
HETATM    3  C3  UNL     1     -32.442   7.697   2.129  1.00 20.00     0.398 C 
HETATM    4  O4  UNL     1     -32.881   7.509   3.497  1.00 20.00    -0.252 OA
HETATM    5  F5  UNL     1     -32.355   5.336   1.504  1.00 20.00    -0.231 F 
HETATM    6  F6  UNL     1     -33.797   5.389   3.825  1.00 20.00    -0.172 F 
HETATM    7  F7  UNL     1     -35.104   6.956   3.068  1.00 20.00    -0.172 F 
HETATM    8  F8  UNL     1     -32.906   8.846   1.590  1.00 20.00    -0.172 F 
HETATM    9  F9  UNL     1     -31.098   7.710   2.009  1.00 20.00    -0.172 F 
ENDROOT
TORSDOF 0
ENDMDL
MODEL 4
REMARK VINA RESULT:      -2.3      1.751      3.002
REMARK  0 active torsions:
REMARK  status: ('A' for Active; 'I' for Inactive)
ROOT
HETATM    1  C1  UNL     1     -33.345   5.602   3.575  1.00 20.00     0.374 C 
HETATM    2  C2  UNL     1     -33.135   6.229   2.193  1.00 20.00     0.398 C 
HETATM    3  C3  UNL     1     -34.487   6.615   3.694  1.00 20.00     0.398 C 
HETATM    4  O4  UNL     1     -34.416   6.902   2.275  1.00 20.00    -0.252 OA
HETATM    5  F5  UNL     1     -33.710   4.301   3.581  1.00 20.00    -0.231 F 
HETATM    6  F6  UNL     1     -33.060   5.372   1.153  1.00 20.00    -0.172 F 
HETATM    7  F7  UNL     1     -32.102   7.092   2.081  1.00 20.00    -0.172 F 
HETATM    8  F8  UNL     1     -34.242   7.705   4.455  1.00 20.00    -0.172 F 
HETATM    9  F9  UNL     1     -35.687   6.124   4.068  1.00 20.00    -0.172 F 
ENDROOT
TORSDOF 0
ENDMDL
MODEL 5
REMARK VINA RESULT:      -2.0      2.189      2.475
REMARK  0 active torsions:
REMARK  status: ('A' for Active; 'I' for Inactive)
ROOT
HETATM    1  C1  UNL     1     -35.065   6.404   3.628  1.00 20.00     0.374 C 
HETATM    2  C2  UNL     1     -34.190   7.605   4.001  1.00 20.00     0.398 C 
HETATM    3  C3  UNL     1     -33.766   5.829   3.056  1.00 20.00     0.398 C 
HETATM    4  O4  UNL     1     -32.986   6.845   3.734  1.00 20.00    -0.252 OA
HETATM    5  F5  UNL     1     -35.603   5.724   4.665  1.00 20.00    -0.231 F 
HETATM    6  F6  UNL     1     -34.269   8.029   5.280  1.00 20.00    -0.172 F 
HETATM    7  F7  UNL     1     -34.303   8.693   3.208  1.00 20.00    -0.172 F 
HETATM    8  F8  UNL     1     -33.630   5.882   1.713  1.00 20.00    -0.172 F 
HETATM    9  F9  UNL     1     -33.443   4.577   3.445  1.00 20.00    -0.172 F 
ENDROOT
TORSDOF 0
ENDMDL
MODEL 6
REMARK VINA RESULT:      -2.0      1.572      3.063
REMARK  0 active torsions:
REMARK  status: ('A' for Active; 'I' for Inactive)
ROOT
HETATM    1  C1  UNL     1     -33.137   7.315   3.730  1.00 20.00     0.374 C 
HETATM    2  C2  UNL     1     -34.054   6.183   3.255  1.00 20.00     0.398 C 
HETATM    3  C3  UNL     1     -32.688   7.361   2.267  1.00 20.00     0.398 C 
HETATM    4  O4  UNL     1     -33.806   6.528   1.869  1.00 20.00    -0.252 OA
HETATM    5  F5  UNL     1     -33.761   8.423   4.188  1.00 20.00    -0.231 F 
HETATM    6  F6  UNL     1     -35.356   6.285   3.594  1.00 20.00    -0.172 F 
HETATM    7  F7  UNL     1     -33.655   4.927   3.555  1.00 20.00    -0.172 F 
HETATM    8  F8  UNL     1     -31.495   6.790   1.990  1.00 20.00    -0.172 F 
HETATM    9  F9  UNL     1     -32.703   8.573   1.672  1.00 20.00    -0.172 F 
ENDROOT
TORSDOF 0
ENDMDL
MODEL 7
REMARK VINA RESULT:      -2.0      1.512      2.719
REMARK  0 active torsions:
REMARK  status: ('A' for Active; 'I' for Inactive)
ROOT
HETATM    1  C1  UNL     1     -33.033   6.427   3.169  1.00 20.00     0.374 C 
HETATM    2  C2  UNL     1     -32.616   7.733   2.487  1.00 20.00     0.398 C 
HETATM    3  C3  UNL     1     -34.191   7.262   3.721  1.00 20.00     0.398 C 
HETATM    4  O4  UNL     1     -33.901   8.331   2.787  1.00 20.00    -0.252 OA
HETATM    5  F5  UNL     1     -33.380   5.416   2.341  1.00 20.00    -0.231 F 
HETATM    6  F6  UNL     1     -32.368   7.664   1.162  1.00 20.00    -0.172 F 
HETATM    7  F7  UNL     1     -31.588   8.401   3.056  1.00 20.00    -0.172 F 
HETATM    8  F8  UNL     1     -34.082   7.656   5.009  1.00 20.00    -0.172 F 
HETATM    9  F9  UNL     1     -35.430   6.750   3.561  1.00 20.00    -0.172 F 
ENDROOT
TORSDOF 0
ENDMDL
MODEL 8
REMARK VINA RESULT:      -1.9      2.082      3.410
REMARK  0 active torsions:
REMARK  status: ('A' for Active; 'I' for Inactive)
ROOT
HETATM    1  C1  UNL     1     -31.116   9.039   0.599  1.00 20.00     0.374 C 
HETATM    2  C2  UNL     1     -32.493   9.692   0.444  1.00 20.00     0.398 C 
HETATM    3  C3  UNL     1     -31.821   8.151   1.628  1.00 20.00     0.398 C 
HETATM    4  O4  UNL     1     -33.119   8.606   1.170  1.00 20.00    -0.252 OA
HETATM    5  F5  UNL     1     -30.638   8.406  -0.495  1.00 20.00    -0.231 F 
HETATM    6  F6  UNL     1     -32.957   9.815  -0.818  1.00 20.00    -0.172 F 
HETATM    7  F7  UNL     1     -32.658  10.887   1.053  1.00 20.00    -0.172 F 
HETATM    8  F8  UNL     1     -31.597   8.448   2.927  1.00 20.00    -0.172 F 
HETATM    9  F9  UNL     1     -31.655   6.819   1.484  1.00 20.00    -0.172 F 
ENDROOT
TORSDOF 0
ENDMDL
MODEL 9
REMARK VINA RESULT:      -1.9      1.382      2.983
REMARK  0 active torsions:
REMARK  status: ('A' for Active; 'I' for Inactive)
ROOT
HETATM    1  C1  UNL     1     -31.756   7.859   2.338  1.00 20.00     0.374 C 
HETATM    2  C2  UNL     1     -32.486   6.670   1.704  1.00 20.00     0.398 C 
HETATM    3  C3  UNL     1     -32.035   8.548   0.999  1.00 20.00     0.398 C 
HETATM    4  O4  UNL     1     -32.976   7.509   0.629  1.00 20.00    -0.252 OA
HETATM    5  F5  UNL     1     -32.355   8.408   3.418  1.00 20.00    -0.231 F 
HETATM    6  F6  UNL     1     -33.480   6.121   2.433  1.00 20.00    -0.172 F 
HETATM    7  F7  UNL     1     -31.706   5.660   1.260  1.00 20.00    -0.172 F 
HETATM    8  F8  UNL     1     -30.993   8.632   0.142  1.00 20.00    -0.172 F 
HETATM    9  F9  UNL     1     -32.605   9.770   1.061  1.00 20.00    -0.172 F 
ENDROOT
TORSDOF 0
ENDMDL
