MODEL 1
REMARK VINA RESULT:      -1.3      0.000      0.000
REMARK  0 active torsions:
REMARK  status: ('A' for Active; 'I' for Inactive)
ROOT
HETATM    1  C1  UNL     1     -34.887   5.915   3.854  1.00 20.00     0.064 C 
HETATM    2  C2  UNL     1     -33.039   5.643   2.234  1.00 20.00     0.022 C 
HETATM    3  C3  UNL     1     -32.227   6.326   1.133  1.00 20.00     0.036 C 
HETATM    4  C4  UNL     1     -33.233   7.735   3.631  1.00 20.00     0.053 C 
HETATM    5  C5  UNL     1     -34.010   6.625   2.907  1.00 20.00     0.095 C 
HETATM    6  C6  UNL     1     -31.624   7.616   1.587  1.00 20.00     0.151 A 
HETATM    7  C7  UNL     1     -32.145   8.336   2.801  1.00 20.00     0.152 A 
HETATM    8  N8  UNL     1     -35.577   5.356   4.601  1.00 20.00    -0.197 NA
HETATM    9  O9  UNL     1     -32.523   8.738   1.484  1.00 20.00    -0.375 OA
ENDROOT
TORSDOF 0
ENDMDL
MODEL 2
REMARK VINA RESULT:      -0.4      0.964      1.957
REMARK  0 active torsions:
REMARK  status: ('A' for Active; 'I' for Inactive)
ROOT
HETATM    1  C1  UNL     1     -34.610   5.327   4.108  1.00 20.00     0.064 C 
HETATM    2  C2  UNL     1     -33.815   7.614   3.610  1.00 20.00     0.022 C 
HETATM    3  C3  UNL     1     -32.645   8.448   3.086  1.00 20.00     0.036 C 
HETATM    4  C4  UNL     1     -33.432   5.731   1.976  1.00 20.00     0.053 C 
HETATM    5  C5  UNL     1     -33.543   6.110   3.460  1.00 20.00     0.095 C 
HETATM    6  C6  UNL     1     -32.194   8.009   1.730  1.00 20.00     0.151 A 
HETATM    7  C7  UNL     1     -32.549   6.649   1.194  1.00 20.00     0.152 A 
HETATM    8  N8  UNL     1     -35.450   4.711   4.618  1.00 20.00    -0.197 NA
HETATM    9  O9  UNL     1     -31.265   6.907   1.763  1.00 20.00    -0.375 OA
ENDROOT
TORSDOF 0
ENDMDL
MODEL 3
REMARK VINA RESULT:      -0.2      1.397      2.222
REMARK  0 active torsions:
REMARK  status: ('A' for Active; 'I' for Inactive)
ROOT
HETATM    1  C1  UNL     1     -33.651   4.294   3.886  1.00 20.00     0.064 C 
HETATM    2  C2  UNL     1     -34.183   6.699   3.678  1.00 20.00     0.022 C 
HETATM    3  C3  UNL     1     -33.620   8.084   3.354  1.00 20.00     0.036 C 
HETATM    4  C4  UNL     1     -32.787   5.531   1.932  1.00 20.00     0.053 C 
HETATM    5  C5  UNL     1     -33.143   5.598   3.425  1.00 20.00     0.095 C 
HETATM    6  C6  UNL     1     -32.949   8.128   2.019  1.00 20.00     0.151 A 
HETATM    7  C7  UNL     1     -32.501   6.869   1.330  1.00 20.00     0.152 A 
HETATM    8  N8  UNL     1     -34.051   3.267   4.249  1.00 20.00    -0.197 NA
HETATM    9  O9  UNL     1     -31.578   7.686   2.050  1.00 20.00    -0.375 OA
ENDROOT
TORSDOF 0
ENDMDL
MODEL 4
REMARK VINA RESULT:      -0.0      2.613      3.697
REMARK  0 active torsions:
REMARK  status: ('A' for Active; 'I' for Inactive)
ROOT
HETATM    1  C1  UNL     1     -32.264   5.330   1.175  1.00 20.00     0.064 C 
HETATM    2  C2  UNL     1     -32.708   7.252   2.664  1.00 20.00     0.022 C 
HETATM    3  C3  UNL     1     -33.787   8.026   3.423  1.00 20.00     0.036 C 
HETATM    4  C4  UNL     1     -33.760   5.003   3.111  1.00 20.00     0.053 C 
HETATM    5  C5  UNL     1     -33.278   5.977   2.025  1.00 20.00     0.095 C 
HETATM    6  C6  UNL     1     -34.580   7.149   4.338  1.00 20.00     0.151 A 
HETATM    7  C7  UNL     1     -34.600   5.655   4.162  1.00 20.00     0.152 A 
HETATM    8  N8  UNL     1     -31.465   4.820   0.505  1.00 20.00    -0.197 NA
HETATM    9  O9  UNL     1     -35.669   6.471   3.681  1.00 20.00    -0.375 OA
ENDROOT
TORSDOF 0
ENDMDL
MODEL 5
REMARK VINA RESULT:       0.2      2.771      4.015
REMARK  0 active torsions:
REMARK  status: ('A' for Active; 'I' for Inactive)
ROOT
HETATM    1  C1  UNL     1     -32.009   8.104   1.449  1.00 20.00     0.064 C 
HETATM    2  C2  UNL     1     -32.808   8.126   3.787  1.00 20.00     0.022 C 
HETATM    3  C3  UNL     1     -34.005   7.874   4.705  1.00 20.00     0.036 C 
HETATM    4  C4  UNL     1     -33.354   6.198   2.256  1.00 20.00     0.053 C 
HETATM    5  C5  UNL     1     -33.114   7.712   2.340  1.00 20.00     0.095 C 
HETATM    6  C6  UNL     1     -34.574   6.502   4.536  1.00 20.00     0.151 A 
HETATM    7  C7  UNL     1     -34.285   5.685   3.306  1.00 20.00     0.152 A 
HETATM    8  N8  UNL     1     -31.138   8.412   0.746  1.00 20.00    -0.197 NA
HETATM    9  O9  UNL     1     -35.513   6.400   3.447  1.00 20.00    -0.375 OA
ENDROOT
TORSDOF 0
ENDMDL
MODEL 6
REMARK VINA RESULT:       0.6      2.320      3.186
REMARK  0 active torsions:
REMARK  status: ('A' for Active; 'I' for Inactive)
ROOT
HETATM    1  C1  UNL     1     -32.191   5.158   1.153  1.00 20.00     0.064 C 
HETATM    2  C2  UNL     1     -34.105   5.701   2.620  1.00 20.00     0.022 C 
HETATM    3  C3  UNL     1     -34.534   6.383   3.919  1.00 20.00     0.036 C 
HETATM    4  C4  UNL     1     -32.361   7.441   2.078  1.00 20.00     0.053 C 
HETATM    5  C5  UNL     1     -32.619   5.946   2.322  1.00 20.00     0.095 C 
HETATM    6  C6  UNL     1     -34.093   7.810   3.987  1.00 20.00     0.151 A 
HETATM    7  C7  UNL     1     -32.990   8.327   3.104  1.00 20.00     0.152 A 
HETATM    8  N8  UNL     1     -31.854   4.537   0.233  1.00 20.00    -0.197 NA
HETATM    9  O9  UNL     1     -32.742   7.970   4.464  1.00 20.00    -0.375 OA
ENDROOT
TORSDOF 0
ENDMDL
MODEL 7
REMARK VINA RESULT:       0.7      2.802      3.625
REMARK  0 active torsions:
REMARK  status: ('A' for Active; 'I' for Inactive)
ROOT
HETATM    1  C1  UNL     1     -32.289   8.571   1.340  1.00 20.00     0.064 C 
HETATM    2  C2  UNL     1     -32.862   6.173   1.514  1.00 20.00     0.022 C 
HETATM    3  C3  UNL     1     -33.141   5.018   2.477  1.00 20.00     0.036 C 
HETATM    4  C4  UNL     1     -34.025   7.885   2.956  1.00 20.00     0.053 C 
HETATM    5  C5  UNL     1     -32.707   7.503   2.265  1.00 20.00     0.095 C 
HETATM    6  C6  UNL     1     -34.229   5.337   3.450  1.00 20.00     0.151 A 
HETATM    7  C7  UNL     1     -34.643   6.758   3.719  1.00 20.00     0.152 A 
HETATM    8  N8  UNL     1     -31.960   9.412   0.611  1.00 20.00    -0.197 NA
HETATM    9  O9  UNL     1     -33.770   6.061   4.609  1.00 20.00    -0.375 OA
ENDROOT
TORSDOF 0
ENDMDL
MODEL 8
REMARK VINA RESULT:       0.9      2.930      3.932
REMARK  0 active torsions:
REMARK  status: ('A' for Active; 'I' for Inactive)
ROOT
HETATM    1  C1  UNL     1     -32.520   9.464   0.872  1.00 20.00     0.064 C 
HETATM    2  C2  UNL     1     -33.303   8.157   2.818  1.00 20.00     0.022 C 
HETATM    3  C3  UNL     1     -33.878   6.816   3.278  1.00 20.00     0.036 C 
HETATM    4  C4  UNL     1     -31.794   7.114   1.087  1.00 20.00     0.053 C 
HETATM    5  C5  UNL     1     -32.926   8.124   1.330  1.00 20.00     0.095 C 
HETATM    6  C6  UNL     1     -33.032   5.658   2.856  1.00 20.00     0.151 A 
HETATM    7  C7  UNL     1     -32.026   5.792   1.745  1.00 20.00     0.152 A 
HETATM    8  N8  UNL     1     -32.200  10.520   0.512  1.00 20.00    -0.197 NA
HETATM    9  O9  UNL     1     -33.308   5.205   1.516  1.00 20.00    -0.375 OA
ENDROOT
TORSDOF 0
ENDMDL
MODEL 9
REMARK VINA RESULT:       1.2      2.439      3.240
REMARK  0 active torsions:
REMARK  status: ('A' for Active; 'I' for Inactive)
ROOT
HETATM    1  C1  UNL     1     -33.545   3.085   4.257  1.00 20.00     0.064 C 
HETATM    2  C2  UNL     1     -32.937   5.253   3.237  1.00 20.00     0.022 C 
HETATM    3  C3  UNL     1     -33.471   6.493   2.520  1.00 20.00     0.036 C 
HETATM    4  C4  UNL     1     -34.937   5.060   4.763  1.00 20.00     0.053 C 
HETATM    5  C5  UNL     1     -34.081   4.342   3.709  1.00 20.00     0.095 C 
HETATM    6  C6  UNL     1     -34.558   7.173   3.289  1.00 20.00     0.151 A 
HETATM    7  C7  UNL     1     -35.312   6.454   4.374  1.00 20.00     0.152 A 
HETATM    8  N8  UNL     1     -33.122   2.094   4.690  1.00 20.00    -0.197 NA
HETATM    9  O9  UNL     1     -35.863   6.604   3.065  1.00 20.00    -0.375 OA
ENDROOT
TORSDOF 0
ENDMDL
