MODEL 1
REMARK VINA RESULT:       0.8      0.000      0.000
REMARK  3 active torsions:
REMARK  status: ('A' for Active; 'I' for Inactive)
REMARK    1  A    between atoms: C1_1  and  C7_7 
REMARK    2  A    between atoms: C8_8  and  C10_10 
REMARK    3  A    between atoms: C9_9  and  C11_11 
ROOT
HETATM    1  C2  UNL     1     -35.318   5.266   4.522  1.00 20.00     0.012 C 
HETATM    2  C3  UNL     1     -35.664   6.591   3.760  1.00 20.00     0.006 C 
HETATM    3  C7  UNL     1     -33.804   4.965   4.236  1.00 20.00     0.052 C 
HETATM    4  C10 UNL     1     -34.277   7.133   3.553  1.00 20.00    -0.005 C 
HETATM    5  C11 UNL     1     -33.569   5.870   3.050  1.00 20.00     0.004 C 
ENDROOT
BRANCH   3   6
HETATM    6  C1  UNL     1     -33.597   3.525   3.900  1.00 20.00     0.236 C 
HETATM    7  O12 UNL     1     -33.177   2.698   4.703  1.00 20.00    -0.306 OA
ENDBRANCH   3   6
BRANCH   5   8
HETATM    8  C9  UNL     1     -32.277   6.453   2.453  1.00 20.00    -0.009 C 
HETATM    9  C5  UNL     1     -31.626   5.262   1.701  1.00 20.00     0.005 C 
HETATM   10  C4  UNL     1     -32.681   4.943   0.609  1.00 20.00     0.005 C 
HETATM   11  C8  UNL     1     -33.661   6.130   0.692  1.00 20.00    -0.010 C 
HETATM   12  C6  UNL     1     -32.725   7.251   1.214  1.00 20.00     0.010 C 
ENDBRANCH   5   8
TORSDOF 3
ENDMDL
MODEL 2
REMARK VINA RESULT:       2.1      2.185      3.120
REMARK  3 active torsions:
REMARK  status: ('A' for Active; 'I' for Inactive)
REMARK    1  A    between atoms: C1_1  and  C7_7 
REMARK    2  A    between atoms: C8_8  and  C10_10 
REMARK    3  A    between atoms: C9_9  and  C11_11 
ROOT
HETATM    1  C2  UNL     1     -34.067   6.134   3.098  1.00 20.00     0.012 C 
HETATM    2  C3  UNL     1     -34.224   7.536   3.780  1.00 20.00     0.006 C 
HETATM    3  C7  UNL     1     -32.809   6.226   2.164  1.00 20.00     0.052 C 
HETATM    4  C10 UNL     1     -32.839   8.079   3.562  1.00 20.00    -0.005 C 
HETATM    5  C11 UNL     1     -32.642   7.725   2.084  1.00 20.00     0.004 C 
ENDROOT
BRANCH   3   6
HETATM    6  C1  UNL     1     -33.084   5.614   0.830  1.00 20.00     0.236 C 
HETATM    7  O12 UNL     1     -32.460   4.657   0.384  1.00 20.00    -0.306 OA
ENDBRANCH   3   6
BRANCH   5   8
HETATM    8  C9  UNL     1     -31.431   8.597   1.712  1.00 20.00    -0.009 C 
HETATM    9  C5  UNL     1     -31.286   8.425   0.177  1.00 20.00     0.005 C 
HETATM   10  C4  UNL     1     -32.617   9.020  -0.351  1.00 20.00     0.005 C 
HETATM   11  C8  UNL     1     -33.235   9.691   0.892  1.00 20.00    -0.010 C 
HETATM   12  C6  UNL     1     -31.960  10.044   1.702  1.00 20.00     0.010 C 
ENDBRANCH   5   8
TORSDOF 3
ENDMDL
MODEL 3
REMARK VINA RESULT:       2.1      2.471      4.388
REMARK  3 active torsions:
REMARK  status: ('A' for Active; 'I' for Inactive)
REMARK    1  A    between atoms: C1_1  and  C7_7 
REMARK    2  A    between atoms: C8_8  and  C10_10 
REMARK    3  A    between atoms: C9_9  and  C11_11 
ROOT
HETATM    1  C2  UNL     1     -32.093   6.312   0.594  1.00 20.00     0.012 C 
HETATM    2  C3  UNL     1     -33.046   5.082   0.772  1.00 20.00     0.006 C 
HETATM    3  C7  UNL     1     -32.040   7.044   1.982  1.00 20.00     0.052 C 
HETATM    4  C10 UNL     1     -33.033   4.966   2.270  1.00 20.00    -0.005 C 
HETATM    5  C11 UNL     1     -33.246   6.434   2.654  1.00 20.00     0.004 C 
ENDROOT
BRANCH   3   6
HETATM    6  C1  UNL     1     -32.171   8.522   1.814  1.00 20.00     0.236 C 
HETATM    7  O12 UNL     1     -32.268   9.073   0.722  1.00 20.00    -0.306 OA
ENDBRANCH   3   6
BRANCH   5   8
HETATM    8  C9  UNL     1     -33.636   6.317   4.138  1.00 20.00    -0.009 C 
HETATM    9  C5  UNL     1     -33.835   7.784   4.603  1.00 20.00     0.005 C 
HETATM   10  C4  UNL     1     -35.023   8.252   3.724  1.00 20.00     0.005 C 
HETATM   11  C8  UNL     1     -35.527   6.951   3.068  1.00 20.00    -0.010 C 
HETATM   12  C6  UNL     1     -35.120   5.904   4.137  1.00 20.00     0.010 C 
ENDBRANCH   5   8
TORSDOF 3
ENDMDL
MODEL 4
REMARK VINA RESULT:       2.3      1.707      2.867
REMARK  3 active torsions:
REMARK  status: ('A' for Active; 'I' for Inactive)
REMARK    1  A    between atoms: C1_1  and  C7_7 
REMARK    2  A    between atoms: C8_8  and  C10_10 
REMARK    3  A    between atoms: C9_9  and  C11_11 
ROOT
HETATM    1  C2  UNL     1     -34.622   5.063   4.730  1.00 20.00     0.012 C 
HETATM    2  C3  UNL     1     -33.736   3.920   4.127  1.00 20.00     0.006 C 
HETATM    3  C7  UNL     1     -34.790   6.144   3.605  1.00 20.00     0.052 C 
HETATM    4  C10 UNL     1     -33.906   4.215   2.663  1.00 20.00    -0.005 C 
HETATM    5  C11 UNL     1     -33.681   5.731   2.667  1.00 20.00     0.004 C 
ENDROOT
BRANCH   3   6
HETATM    6  C1  UNL     1     -34.591   7.520   4.148  1.00 20.00     0.236 C 
HETATM    7  O12 UNL     1     -33.567   7.879   4.722  1.00 20.00    -0.306 OA
ENDBRANCH   3   6
BRANCH   5   8
HETATM    8  C9  UNL     1     -33.449   6.018   1.173  1.00 20.00    -0.009 C 
HETATM    9  C5  UNL     1     -32.979   7.496   1.131  1.00 20.00     0.005 C 
HETATM   10  C4  UNL     1     -31.649   7.443   1.927  1.00 20.00     0.005 C 
HETATM   11  C8  UNL     1     -31.385   5.934   2.097  1.00 20.00    -0.010 C 
HETATM   12  C6  UNL     1     -32.093   5.366   0.840  1.00 20.00     0.010 C 
ENDBRANCH   5   8
TORSDOF 3
ENDMDL
MODEL 5
REMARK VINA RESULT:       3.2      1.261      3.166
REMARK  3 active torsions:
REMARK  status: ('A' for Active; 'I' for Inactive)
REMARK    1  A    between atoms: C1_1  and  C7_7 
REMARK    2  A    between atoms: C8_8  and  C10_10 
REMARK    3  A    between atoms: C9_9  and  C11_11 
ROOT
HETATM    1  C2  UNL     1     -32.485   4.188   2.191  1.00 20.00     0.012 C 
HETATM    2  C3  UNL     1     -31.896   5.455   1.482  1.00 20.00     0.006 C 
HETATM    3  C7  UNL     1     -33.759   4.664   2.977  1.00 20.00     0.052 C 
HETATM    4  C10 UNL     1     -33.101   6.353   1.527  1.00 20.00    -0.005 C 
HETATM    5  C11 UNL     1     -33.529   6.156   2.985  1.00 20.00     0.004 C 
ENDROOT
BRANCH   3   6
HETATM    6  C1  UNL     1     -33.787   4.086   4.353  1.00 20.00     0.236 C 
HETATM    7  O12 UNL     1     -33.235   3.032   4.655  1.00 20.00    -0.306 OA
ENDBRANCH   3   6
BRANCH   5   8
HETATM    8  C9  UNL     1     -34.494   7.335   3.191  1.00 20.00    -0.009 C 
HETATM    9  C5  UNL     1     -34.475   7.589   4.722  1.00 20.00     0.005 C 
HETATM   10  C4  UNL     1     -32.999   7.994   4.972  1.00 20.00     0.005 C 
HETATM   11  C8  UNL     1     -32.427   8.181   3.552  1.00 20.00    -0.010 C 
HETATM   12  C6  UNL     1     -33.703   8.588   2.770  1.00 20.00     0.010 C 
ENDBRANCH   5   8
TORSDOF 3
ENDMDL
MODEL 6
REMARK VINA RESULT:       3.4      1.130      1.324
REMARK  3 active torsions:
REMARK  status: ('A' for Active; 'I' for Inactive)
REMARK    1  A    between atoms: C1_1  and  C7_7 
REMARK    2  A    between atoms: C8_8  and  C10_10 
REMARK    3  A    between atoms: C9_9  and  C11_11 
ROOT
HETATM    1  C2  UNL     1     -34.673   6.962   4.456  1.00 20.00     0.012 C 
HETATM    2  C3  UNL     1     -34.464   8.262   3.608  1.00 20.00     0.006 C 
HETATM    3  C7  UNL     1     -33.563   5.947   4.005  1.00 20.00     0.052 C 
HETATM    4  C10 UNL     1     -33.046   8.046   3.159  1.00 20.00    -0.005 C 
HETATM    5  C11 UNL     1     -33.127   6.584   2.708  1.00 20.00     0.004 C 
ENDROOT
BRANCH   3   6
HETATM    6  C1  UNL     1     -34.133   4.582   3.805  1.00 20.00     0.236 C 
HETATM    7  O12 UNL     1     -34.950   4.072   4.565  1.00 20.00    -0.306 OA
ENDBRANCH   3   6
BRANCH   5   8
HETATM    8  C9  UNL     1     -31.837   6.438   1.883  1.00 20.00    -0.009 C 
HETATM    9  C5  UNL     1     -31.956   5.040   1.221  1.00 20.00     0.005 C 
HETATM   10  C4  UNL     1     -33.207   5.206   0.320  1.00 20.00     0.005 C 
HETATM   11  C8  UNL     1     -33.492   6.720   0.365  1.00 20.00    -0.010 C 
HETATM   12  C6  UNL     1     -32.067   7.281   0.614  1.00 20.00     0.010 C 
ENDBRANCH   5   8
TORSDOF 3
ENDMDL
MODEL 7
REMARK VINA RESULT:       3.6      2.129      3.689
REMARK  3 active torsions:
REMARK  status: ('A' for Active; 'I' for Inactive)
REMARK    1  A    between atoms: C1_1  and  C7_7 
REMARK    2  A    between atoms: C8_8  and  C10_10 
REMARK    3  A    between atoms: C9_9  and  C11_11 
ROOT
HETATM    1  C2  UNL     1     -32.726   9.593   1.710  1.00 20.00     0.012 C 
HETATM    2  C3  UNL     1     -32.179   9.158   0.308  1.00 20.00     0.006 C 
HETATM    3  C7  UNL     1     -32.539   8.364   2.668  1.00 20.00     0.052 C 
HETATM    4  C10 UNL     1     -31.335   7.984   0.719  1.00 20.00    -0.005 C 
HETATM    5  C11 UNL     1     -32.313   7.266   1.656  1.00 20.00     0.004 C 
ENDROOT
BRANCH   3   6
HETATM    6  C1  UNL     1     -33.763   8.133   3.491  1.00 20.00     0.236 C 
HETATM    7  O12 UNL     1     -33.730   7.813   4.675  1.00 20.00    -0.306 OA
ENDBRANCH   3   6
BRANCH   5   8
HETATM    8  C9  UNL     1     -31.661   5.879   1.785  1.00 20.00    -0.009 C 
HETATM    9  C5  UNL     1     -32.540   5.133   2.824  1.00 20.00     0.005 C 
HETATM   10  C4  UNL     1     -33.914   5.067   2.109  1.00 20.00     0.005 C 
HETATM   11  C8  UNL     1     -33.601   5.531   0.672  1.00 20.00    -0.010 C 
HETATM   12  C6  UNL     1     -32.118   5.097   0.539  1.00 20.00     0.010 C 
ENDBRANCH   5   8
TORSDOF 3
ENDMDL
MODEL 8
REMARK VINA RESULT:       3.6      2.596      3.748
REMARK  3 active torsions:
REMARK  status: ('A' for Active; 'I' for Inactive)
REMARK    1  A    between atoms: C1_1  and  C7_7 
REMARK    2  A    between atoms: C8_8  and  C10_10 
REMARK    3  A    between atoms: C9_9  and  C11_11 
ROOT
HETATM    1  C2  UNL     1     -32.164   8.935   3.948  1.00 20.00     0.012 C 
HETATM    2  C3  UNL     1     -32.901   8.145   5.082  1.00 20.00     0.006 C 
HETATM    3  C7  UNL     1     -32.641   8.316   2.586  1.00 20.00     0.052 C 
HETATM    4  C10 UNL     1     -34.023   7.542   4.283  1.00 20.00    -0.005 C 
HETATM    5  C11 UNL     1     -33.240   7.019   3.074  1.00 20.00     0.004 C 
ENDROOT
BRANCH   3   6
HETATM    6  C1  UNL     1     -31.488   8.098   1.663  1.00 20.00     0.236 C 
HETATM    7  O12 UNL     1     -31.445   8.539   0.519  1.00 20.00    -0.306 OA
ENDBRANCH   3   6
BRANCH   5   8
HETATM    8  C9  UNL     1     -34.257   6.061   2.433  1.00 20.00    -0.009 C 
HETATM    9  C5  UNL     1     -33.598   5.634   1.095  1.00 20.00     0.005 C 
HETATM   10  C4  UNL     1     -32.323   4.894   1.575  1.00 20.00     0.005 C 
HETATM   11  C8  UNL     1     -32.534   4.752   3.096  1.00 20.00    -0.010 C 
HETATM   12  C6  UNL     1     -34.083   4.723   3.177  1.00 20.00     0.010 C 
ENDBRANCH   5   8
TORSDOF 3
ENDMDL
