MODEL 1
REMARK VINA RESULT:      -3.1      0.000      0.000
REMARK  2 active torsions:
REMARK  status: ('A' for Active; 'I' for Inactive)
REMARK    1  A    between atoms: C1_1  and  C2_2 
REMARK    2  A    between atoms: C2_2  and  C3_3 
ROOT
HETATM    1  C2  UNL     1     -32.841   6.544   1.878  1.00 20.00     0.428 C 
HETATM    2  F6  UNL     1     -33.646   6.451   0.788  1.00 20.00    -0.184 F 
HETATM    3  F7  UNL     1     -31.955   5.519   1.794  1.00 20.00    -0.184 F 
ENDROOT
BRANCH   1   4
HETATM    4  C1  UNL     1     -33.647   6.457   3.137  1.00 20.00     0.379 C 
HETATM    5  O4  UNL     1     -34.130   7.411   3.731  1.00 20.00    -0.253 OA
HETATM    6  F5  UNL     1     -33.891   5.237   3.634  1.00 20.00    -0.157 F 
ENDBRANCH   1   4
BRANCH   1   7
HETATM    7  C3  UNL     1     -32.090   7.849   1.815  1.00 20.00     0.465 C 
HETATM    8  F8  UNL     1     -31.012   7.737   1.008  1.00 20.00    -0.165 F 
HETATM    9  F9  UNL     1     -31.650   8.224   3.036  1.00 20.00    -0.165 F 
HETATM   10  F10 UNL     1     -32.866   8.841   1.329  1.00 20.00    -0.165 F 
ENDBRANCH   1   7
TORSDOF 2
ENDMDL
MODEL 2
REMARK VINA RESULT:      -3.0      1.972      3.653
REMARK  2 active torsions:
REMARK  status: ('A' for Active; 'I' for Inactive)
REMARK    1  A    between atoms: C1_1  and  C2_2 
REMARK    2  A    between atoms: C2_2  and  C3_3 
ROOT
HETATM    1  C2  UNL     1     -33.898   7.581   3.705  1.00 20.00     0.428 C 
HETATM    2  F6  UNL     1     -34.616   8.716   3.495  1.00 20.00    -0.184 F 
HETATM    3  F7  UNL     1     -33.187   7.778   4.844  1.00 20.00    -0.184 F 
ENDROOT
BRANCH   1   4
HETATM    4  C1  UNL     1     -32.994   7.307   2.544  1.00 20.00     0.379 C 
HETATM    5  O4  UNL     1     -32.070   8.024   2.187  1.00 20.00    -0.253 OA
HETATM    6  F5  UNL     1     -33.186   6.169   1.863  1.00 20.00    -0.157 F 
ENDBRANCH   1   4
BRANCH   1   7
HETATM    7  C3  UNL     1     -34.855   6.436   3.917  1.00 20.00     0.465 C 
HETATM    8  F8  UNL     1     -35.838   6.460   2.989  1.00 20.00    -0.165 F 
HETATM    9  F9  UNL     1     -35.439   6.501   5.133  1.00 20.00    -0.165 F 
HETATM   10  F10 UNL     1     -34.228   5.245   3.818  1.00 20.00    -0.165 F 
ENDBRANCH   1   7
TORSDOF 2
ENDMDL
MODEL 3
REMARK VINA RESULT:      -3.0      1.971      3.652
REMARK  2 active torsions:
REMARK  status: ('A' for Active; 'I' for Inactive)
REMARK    1  A    between atoms: C1_1  and  C2_2 
REMARK    2  A    between atoms: C2_2  and  C3_3 
ROOT
HETATM    1  C2  UNL     1     -33.896   7.580   3.701  1.00 20.00     0.428 C 
HETATM    2  F6  UNL     1     -34.610   8.717   3.493  1.00 20.00    -0.184 F 
HETATM    3  F7  UNL     1     -33.183   7.773   4.840  1.00 20.00    -0.184 F 
ENDROOT
BRANCH   1   4
HETATM    4  C1  UNL     1     -32.993   7.305   2.539  1.00 20.00     0.379 C 
HETATM    5  O4  UNL     1     -32.063   8.015   2.187  1.00 20.00    -0.253 OA
HETATM    6  F5  UNL     1     -33.196   6.173   1.851  1.00 20.00    -0.157 F 
ENDBRANCH   1   4
BRANCH   1   7
HETATM    7  C3  UNL     1     -34.857   6.438   3.912  1.00 20.00     0.465 C 
HETATM    8  F8  UNL     1     -35.424   6.514   5.136  1.00 20.00    -0.165 F 
HETATM    9  F9  UNL     1     -34.230   5.245   3.824  1.00 20.00    -0.165 F 
HETATM   10  F10 UNL     1     -35.850   6.455   2.998  1.00 20.00    -0.165 F 
ENDBRANCH   1   7
TORSDOF 2
ENDMDL
MODEL 4
REMARK VINA RESULT:      -2.9      0.959      2.643
REMARK  2 active torsions:
REMARK  status: ('A' for Active; 'I' for Inactive)
REMARK    1  A    between atoms: C1_1  and  C2_2 
REMARK    2  A    between atoms: C2_2  and  C3_3 
ROOT
HETATM    1  C2  UNL     1     -32.561   7.454   2.252  1.00 20.00     0.428 C 
HETATM    2  F6  UNL     1     -31.240   7.724   2.419  1.00 20.00    -0.184 F 
HETATM    3  F7  UNL     1     -33.023   8.337   1.329  1.00 20.00    -0.184 F 
ENDROOT
BRANCH   1   4
HETATM    4  C1  UNL     1     -33.296   7.595   3.548  1.00 20.00     0.379 C 
HETATM    5  O4  UNL     1     -34.464   7.285   3.733  1.00 20.00    -0.253 OA
HETATM    6  F5  UNL     1     -32.611   8.063   4.601  1.00 20.00    -0.157 F 
ENDBRANCH   1   4
BRANCH   1   7
HETATM    7  C3  UNL     1     -32.704   6.056   1.707  1.00 20.00     0.465 C 
HETATM    8  F8  UNL     1     -33.571   6.036   0.671  1.00 20.00    -0.165 F 
HETATM    9  F9  UNL     1     -33.169   5.206   2.647  1.00 20.00    -0.165 F 
HETATM   10  F10 UNL     1     -31.522   5.579   1.261  1.00 20.00    -0.165 F 
ENDBRANCH   1   7
TORSDOF 2
ENDMDL
MODEL 5
REMARK VINA RESULT:      -2.9      1.455      3.063
REMARK  2 active torsions:
REMARK  status: ('A' for Active; 'I' for Inactive)
REMARK    1  A    between atoms: C1_1  and  C2_2 
REMARK    2  A    between atoms: C2_2  and  C3_3 
ROOT
HETATM    1  C2  UNL     1     -32.960   6.513   1.871  1.00 20.00     0.428 C 
HETATM    2  F6  UNL     1     -32.119   5.446   1.899  1.00 20.00    -0.184 F 
HETATM    3  F7  UNL     1     -33.770   6.339   0.796  1.00 20.00    -0.184 F 
ENDROOT
BRANCH   1   4
HETATM    4  C1  UNL     1     -32.187   7.791   1.763  1.00 20.00     0.379 C 
HETATM    5  O4  UNL     1     -32.520   8.761   1.098  1.00 20.00    -0.253 OA
HETATM    6  F5  UNL     1     -31.058   7.895   2.478  1.00 20.00    -0.157 F 
ENDBRANCH   1   4
BRANCH   1   7
HETATM    7  C3  UNL     1     -33.797   6.501   3.124  1.00 20.00     0.465 C 
HETATM    8  F8  UNL     1     -33.728   5.295   3.730  1.00 20.00    -0.165 F 
HETATM    9  F9  UNL     1     -35.096   6.749   2.851  1.00 20.00    -0.165 F 
HETATM   10  F10 UNL     1     -33.373   7.429   4.008  1.00 20.00    -0.165 F 
ENDBRANCH   1   7
TORSDOF 2
ENDMDL
MODEL 6
REMARK VINA RESULT:      -2.8      1.358      2.481
REMARK  2 active torsions:
REMARK  status: ('A' for Active; 'I' for Inactive)
REMARK    1  A    between atoms: C1_1  and  C2_2 
REMARK    2  A    between atoms: C2_2  and  C3_3 
ROOT
HETATM    1  C2  UNL     1     -33.540   7.665   3.502  1.00 20.00     0.428 C 
HETATM    2  F6  UNL     1     -32.755   7.870   4.592  1.00 20.00    -0.184 F 
HETATM    3  F7  UNL     1     -34.389   8.723   3.432  1.00 20.00    -0.184 F 
ENDROOT
BRANCH   1   4
HETATM    4  C1  UNL     1     -34.292   6.377   3.628  1.00 20.00     0.379 C 
HETATM    5  O4  UNL     1     -35.493   6.281   3.838  1.00 20.00    -0.253 OA
HETATM    6  F5  UNL     1     -33.604   5.239   3.464  1.00 20.00    -0.157 F 
ENDBRANCH   1   4
BRANCH   1   7
HETATM    7  C3  UNL     1     -32.667   7.655   2.273  1.00 20.00     0.465 C 
HETATM    8  F8  UNL     1     -32.973   8.694   1.465  1.00 20.00    -0.165 F 
HETATM    9  F9  UNL     1     -32.833   6.520   1.561  1.00 20.00    -0.165 F 
HETATM   10  F10 UNL     1     -31.361   7.757   2.597  1.00 20.00    -0.165 F 
ENDBRANCH   1   7
TORSDOF 2
ENDMDL
MODEL 7
REMARK VINA RESULT:      -2.8      1.351      2.395
REMARK  2 active torsions:
REMARK  status: ('A' for Active; 'I' for Inactive)
REMARK    1  A    between atoms: C1_1  and  C2_2 
REMARK    2  A    between atoms: C2_2  and  C3_3 
ROOT
HETATM    1  C2  UNL     1     -33.531   7.674   3.487  1.00 20.00     0.428 C 
HETATM    2  F6  UNL     1     -32.747   7.881   4.577  1.00 20.00    -0.184 F 
HETATM    3  F7  UNL     1     -34.388   8.725   3.421  1.00 20.00    -0.184 F 
ENDROOT
BRANCH   1   4
HETATM    4  C1  UNL     1     -34.274   6.380   3.611  1.00 20.00     0.379 C 
HETATM    5  O4  UNL     1     -35.469   6.274   3.844  1.00 20.00    -0.253 OA
HETATM    6  F5  UNL     1     -33.584   5.248   3.417  1.00 20.00    -0.157 F 
ENDBRANCH   1   4
BRANCH   1   7
HETATM    7  C3  UNL     1     -32.660   7.673   2.258  1.00 20.00     0.465 C 
HETATM    8  F8  UNL     1     -31.357   7.780   2.599  1.00 20.00    -0.165 F 
HETATM    9  F9  UNL     1     -32.956   8.707   1.443  1.00 20.00    -0.165 F 
HETATM   10  F10 UNL     1     -32.806   6.531   1.552  1.00 20.00    -0.165 F 
ENDBRANCH   1   7
TORSDOF 2
ENDMDL
MODEL 8
REMARK VINA RESULT:      -2.7      2.237      3.284
REMARK  2 active torsions:
REMARK  status: ('A' for Active; 'I' for Inactive)
REMARK    1  A    between atoms: C1_1  and  C2_2 
REMARK    2  A    between atoms: C2_2  and  C3_3 
ROOT
HETATM    1  C2  UNL     1     -34.891   6.387   3.840  1.00 20.00     0.428 C 
HETATM    2  F6  UNL     1     -35.497   6.213   5.043  1.00 20.00    -0.184 F 
HETATM    3  F7  UNL     1     -35.882   6.574   2.931  1.00 20.00    -0.184 F 
ENDROOT
BRANCH   1   4
HETATM    4  C1  UNL     1     -34.058   5.193   3.492  1.00 20.00     0.379 C 
HETATM    5  O4  UNL     1     -34.025   4.149   4.126  1.00 20.00    -0.253 OA
HETATM    6  F5  UNL     1     -33.316   5.258   2.377  1.00 20.00    -0.157 F 
ENDBRANCH   1   4
BRANCH   1   7
HETATM    7  C3  UNL     1     -34.042   7.630   3.902  1.00 20.00     0.465 C 
HETATM    8  F8  UNL     1     -33.448   7.740   5.111  1.00 20.00    -0.165 F 
HETATM    9  F9  UNL     1     -34.782   8.742   3.706  1.00 20.00    -0.165 F 
HETATM   10  F10 UNL     1     -33.068   7.608   2.967  1.00 20.00    -0.165 F 
ENDBRANCH   1   7
TORSDOF 2
ENDMDL
MODEL 9
REMARK VINA RESULT:      -2.6      1.724      2.823
REMARK  2 active torsions:
REMARK  status: ('A' for Active; 'I' for Inactive)
REMARK    1  A    between atoms: C1_1  and  C2_2 
REMARK    2  A    between atoms: C2_2  and  C3_3 
ROOT
HETATM    1  C2  UNL     1     -32.595   7.611   2.298  1.00 20.00     0.428 C 
HETATM    2  F6  UNL     1     -33.049   8.623   1.513  1.00 20.00    -0.184 F 
HETATM    3  F7  UNL     1     -31.355   7.973   2.716  1.00 20.00    -0.184 F 
ENDROOT
BRANCH   1   4
HETATM    4  C1  UNL     1     -32.552   6.327   1.531  1.00 20.00     0.379 C 
HETATM    5  O4  UNL     1     -31.623   5.532   1.540  1.00 20.00    -0.253 OA
HETATM    6  F5  UNL     1     -33.631   6.002   0.805  1.00 20.00    -0.157 F 
ENDBRANCH   1   4
BRANCH   1   7
HETATM    7  C3  UNL     1     -33.500   7.487   3.497  1.00 20.00     0.465 C 
HETATM    8  F8  UNL     1     -32.858   7.881   4.619  1.00 20.00    -0.165 F 
HETATM    9  F9  UNL     1     -33.900   6.211   3.681  1.00 20.00    -0.165 F 
HETATM   10  F10 UNL     1     -34.602   8.255   3.364  1.00 20.00    -0.165 F 
ENDBRANCH   1   7
TORSDOF 2
ENDMDL
