MODEL 1
REMARK VINA RESULT:      -1.7      0.000      0.000
REMARK  2 active torsions:
REMARK  status: ('A' for Active; 'I' for Inactive)
REMARK    1  A    between atoms: C2_2  and  C6_6 
REMARK    2  A    between atoms: C6_6  and  O7_7 
ROOT
HETATM    1  C4  UNL     1     -31.854   6.545   1.412  1.00 20.00     0.050 C 
HETATM    2  C5  UNL     1     -32.547   8.927   0.990  1.00 20.00     0.050 C 
HETATM    3  C6  UNL     1     -32.271   7.868   2.060  1.00 20.00     0.068 C 
ENDROOT
BRANCH   3   4
HETATM    4  C2  UNL     1     -33.508   7.656   2.904  1.00 20.00     0.005 C 
HETATM    5  C1  UNL     1     -34.029   6.476   3.274  1.00 20.00    -0.032 C 
HETATM    6  C3  UNL     1     -35.258   6.339   4.110  1.00 20.00     0.036 C 
ENDBRANCH   3   4
BRANCH   3   7
HETATM    7  O7  UNL     1     -31.183   8.326   2.864  1.00 20.00    -0.387 OA
HETATM    8  H19 UNL     1     -30.372   8.028   2.422  1.00 20.00     0.211 HD
ENDBRANCH   3   7
TORSDOF 2
ENDMDL
MODEL 2
REMARK VINA RESULT:      -1.4      2.825      3.664
REMARK  2 active torsions:
REMARK  status: ('A' for Active; 'I' for Inactive)
REMARK    1  A    between atoms: C2_2  and  C6_6 
REMARK    2  A    between atoms: C6_6  and  O7_7 
ROOT
HETATM    1  C4  UNL     1     -34.045   7.521   4.489  1.00 20.00     0.050 C 
HETATM    2  C5  UNL     1     -33.734   6.321   2.299  1.00 20.00     0.050 C 
HETATM    3  C6  UNL     1     -34.491   6.336   3.630  1.00 20.00     0.068 C 
ENDROOT
BRANCH   3   4
HETATM    4  C2  UNL     1     -34.244   5.042   4.374  1.00 20.00     0.005 C 
HETATM    5  C1  UNL     1     -33.558   3.981   3.923  1.00 20.00    -0.032 C 
HETATM    6  C3  UNL     1     -33.352   2.731   4.713  1.00 20.00     0.036 C 
ENDBRANCH   3   4
BRANCH   3   7
HETATM    7  O7  UNL     1     -35.881   6.497   3.344  1.00 20.00    -0.387 OA
HETATM    8  H19 UNL     1     -36.040   7.453   3.291  1.00 20.00     0.211 HD
ENDBRANCH   3   7
TORSDOF 2
ENDMDL
MODEL 3
REMARK VINA RESULT:      -1.2      1.065      1.607
REMARK  2 active torsions:
REMARK  status: ('A' for Active; 'I' for Inactive)
REMARK    1  A    between atoms: C2_2  and  C6_6 
REMARK    2  A    between atoms: C6_6  and  O7_7 
ROOT
HETATM    1  C4  UNL     1     -31.173   8.416   2.917  1.00 20.00     0.050 C 
HETATM    2  C5  UNL     1     -31.899   6.545   1.399  1.00 20.00     0.050 C 
HETATM    3  C6  UNL     1     -32.316   7.858   2.066  1.00 20.00     0.068 C 
ENDROOT
BRANCH   3   4
HETATM    4  C2  UNL     1     -33.535   7.629   2.932  1.00 20.00     0.005 C 
HETATM    5  C1  UNL     1     -34.056   6.441   3.278  1.00 20.00    -0.032 C 
HETATM    6  C3  UNL     1     -35.266   6.286   4.138  1.00 20.00     0.036 C 
ENDBRANCH   3   4
BRANCH   3   7
HETATM    7  O7  UNL     1     -32.600   8.805   1.035  1.00 20.00    -0.387 OA
HETATM    8  H19 UNL     1     -32.816   9.638   1.482  1.00 20.00     0.211 HD
ENDBRANCH   3   7
TORSDOF 2
ENDMDL
MODEL 4
REMARK VINA RESULT:      -1.2      2.164      3.711
REMARK  2 active torsions:
REMARK  status: ('A' for Active; 'I' for Inactive)
REMARK    1  A    between atoms: C2_2  and  C6_6 
REMARK    2  A    between atoms: C6_6  and  O7_7 
ROOT
HETATM    1  C4  UNL     1     -34.242   5.055   4.098  1.00 20.00     0.050 C 
HETATM    2  C5  UNL     1     -34.104   7.476   4.768  1.00 20.00     0.050 C 
HETATM    3  C6  UNL     1     -34.440   6.501   3.637  1.00 20.00     0.068 C 
ENDROOT
BRANCH   3   4
HETATM    4  C2  UNL     1     -33.559   6.782   2.439  1.00 20.00     0.005 C 
HETATM    5  C1  UNL     1     -32.585   7.703   2.364  1.00 20.00    -0.032 C 
HETATM    6  C3  UNL     1     -31.752   7.929   1.147  1.00 20.00     0.036 C 
ENDBRANCH   3   4
BRANCH   3   7
HETATM    7  O7  UNL     1     -35.818   6.671   3.302  1.00 20.00    -0.387 OA
HETATM    8  H19 UNL     1     -36.324   6.198   3.981  1.00 20.00     0.211 HD
ENDBRANCH   3   7
TORSDOF 2
ENDMDL
MODEL 5
REMARK VINA RESULT:      -1.0      2.462      3.430
REMARK  2 active torsions:
REMARK  status: ('A' for Active; 'I' for Inactive)
REMARK    1  A    between atoms: C2_2  and  C6_6 
REMARK    2  A    between atoms: C6_6  and  O7_7 
ROOT
HETATM    1  C4  UNL     1     -35.649   6.312   3.630  1.00 20.00     0.050 C 
HETATM    2  C5  UNL     1     -33.642   7.697   4.252  1.00 20.00     0.050 C 
HETATM    3  C6  UNL     1     -34.126   6.435   3.533  1.00 20.00     0.068 C 
ENDROOT
BRANCH   3   4
HETATM    4  C2  UNL     1     -33.474   5.214   4.143  1.00 20.00     0.005 C 
HETATM    5  C1  UNL     1     -33.941   3.957   4.102  1.00 20.00    -0.032 C 
HETATM    6  C3  UNL     1     -33.244   2.794   4.729  1.00 20.00     0.036 C 
ENDBRANCH   3   4
BRANCH   3   7
HETATM    7  O7  UNL     1     -33.782   6.556   2.152  1.00 20.00    -0.387 OA
HETATM    8  H19 UNL     1     -34.612   6.717   1.677  1.00 20.00     0.211 HD
ENDBRANCH   3   7
TORSDOF 2
ENDMDL
MODEL 6
REMARK VINA RESULT:      -1.0      2.322      3.278
REMARK  2 active torsions:
REMARK  status: ('A' for Active; 'I' for Inactive)
REMARK    1  A    between atoms: C2_2  and  C6_6 
REMARK    2  A    between atoms: C6_6  and  O7_7 
ROOT
HETATM    1  C4  UNL     1     -33.522   6.462   2.240  1.00 20.00     0.050 C 
HETATM    2  C5  UNL     1     -35.757   6.480   3.397  1.00 20.00     0.050 C 
HETATM    3  C6  UNL     1     -34.239   6.447   3.592  1.00 20.00     0.068 C 
ENDROOT
BRANCH   3   4
HETATM    4  C2  UNL     1     -33.848   5.206   4.365  1.00 20.00     0.005 C 
HETATM    5  C1  UNL     1     -33.739   3.962   3.873  1.00 20.00    -0.032 C 
HETATM    6  C3  UNL     1     -33.348   2.778   4.695  1.00 20.00     0.036 C 
ENDBRANCH   3   4
BRANCH   3   7
HETATM    7  O7  UNL     1     -33.860   7.626   4.304  1.00 20.00    -0.387 OA
HETATM    8  H19 UNL     1     -33.713   8.313   3.636  1.00 20.00     0.211 HD
ENDBRANCH   3   7
TORSDOF 2
ENDMDL
MODEL 7
REMARK VINA RESULT:      -0.9      1.895      3.678
REMARK  2 active torsions:
REMARK  status: ('A' for Active; 'I' for Inactive)
REMARK    1  A    between atoms: C2_2  and  C6_6 
REMARK    2  A    between atoms: C6_6  and  O7_7 
ROOT
HETATM    1  C4  UNL     1     -33.890   7.553   4.734  1.00 20.00     0.050 C 
HETATM    2  C5  UNL     1     -35.759   6.671   3.299  1.00 20.00     0.050 C 
HETATM    3  C6  UNL     1     -34.260   6.595   3.599  1.00 20.00     0.068 C 
ENDROOT
BRANCH   3   4
HETATM    4  C2  UNL     1     -33.469   6.942   2.357  1.00 20.00     0.005 C 
HETATM    5  C1  UNL     1     -32.477   7.842   2.269  1.00 20.00    -0.032 C 
HETATM    6  C3  UNL     1     -31.737   8.138   1.007  1.00 20.00     0.036 C 
ENDBRANCH   3   4
BRANCH   3   7
HETATM    7  O7  UNL     1     -33.964   5.266   4.032  1.00 20.00    -0.387 OA
HETATM    8  H19 UNL     1     -34.772   4.929   4.450  1.00 20.00     0.211 HD
ENDBRANCH   3   7
TORSDOF 2
ENDMDL
MODEL 8
REMARK VINA RESULT:      -0.9      2.411      3.872
REMARK  2 active torsions:
REMARK  status: ('A' for Active; 'I' for Inactive)
REMARK    1  A    between atoms: C2_2  and  C6_6 
REMARK    2  A    between atoms: C6_6  and  O7_7 
ROOT
HETATM    1  C4  UNL     1     -35.281   5.269   4.734  1.00 20.00     0.050 C 
HETATM    2  C5  UNL     1     -34.145   7.495   4.439  1.00 20.00     0.050 C 
HETATM    3  C6  UNL     1     -34.809   6.317   3.722  1.00 20.00     0.068 C 
ENDROOT
BRANCH   3   4
HETATM    4  C2  UNL     1     -33.831   5.689   2.754  1.00 20.00     0.005 C 
HETATM    5  C1  UNL     1     -32.953   6.338   1.973  1.00 20.00    -0.032 C 
HETATM    6  C3  UNL     1     -32.014   5.654   1.036  1.00 20.00     0.036 C 
ENDBRANCH   3   4
BRANCH   3   7
HETATM    7  O7  UNL     1     -35.958   6.811   3.032  1.00 20.00    -0.387 OA
HETATM    8  H19 UNL     1     -36.401   7.422   3.641  1.00 20.00     0.211 HD
ENDBRANCH   3   7
TORSDOF 2
ENDMDL
MODEL 9
REMARK VINA RESULT:      -0.9      1.083      3.494
REMARK  2 active torsions:
REMARK  status: ('A' for Active; 'I' for Inactive)
REMARK    1  A    between atoms: C2_2  and  C6_6 
REMARK    2  A    between atoms: C6_6  and  O7_7 
ROOT
HETATM    1  C4  UNL     1     -33.410   7.630   3.246  1.00 20.00     0.050 C 
HETATM    2  C5  UNL     1     -32.037   6.234   1.666  1.00 20.00     0.050 C 
HETATM    3  C6  UNL     1     -32.340   7.653   2.152  1.00 20.00     0.068 C 
ENDROOT
BRANCH   3   4
HETATM    4  C2  UNL     1     -32.811   8.503   0.993  1.00 20.00     0.005 C 
HETATM    5  C1  UNL     1     -32.258   9.649   0.568  1.00 20.00    -0.032 C 
HETATM    6  C3  UNL     1     -32.777  10.441  -0.587  1.00 20.00     0.036 C 
ENDBRANCH   3   4
BRANCH   3   7
HETATM    7  O7  UNL     1     -31.144   8.190   2.719  1.00 20.00    -0.387 OA
HETATM    8  H19 UNL     1     -30.673   7.444   3.121  1.00 20.00     0.211 HD
ENDBRANCH   3   7
TORSDOF 2
ENDMDL
