MODEL 1
REMARK VINA RESULT:      -1.7      0.000      0.000
REMARK  1 active torsions:
REMARK  status: ('A' for Active; 'I' for Inactive)
REMARK    1  A    between atoms: N5_5  and  N6_6 
ROOT
HETATM    1  C1  UNL     1     -34.125   6.253   3.328  1.00 20.00     0.101 C 
HETATM    2  C2  UNL     1     -35.355   6.255   4.180  1.00 20.00     0.058 C 
HETATM    3  N5  UNL     1     -33.510   7.358   3.060  1.00 20.00    -0.217 NA
ENDROOT
BRANCH   3   4
HETATM    4  N6  UNL     1     -32.420   7.171   2.271  1.00 20.00    -0.217 NA
HETATM    5  C3  UNL     1     -32.079   8.342   1.459  1.00 20.00     0.138 C 
HETATM    6  C4  UNL     1     -32.480   5.990   1.399  1.00 20.00     0.138 C 
ENDBRANCH   3   4
TORSDOF 1
ENDMDL
MODEL 2
REMARK VINA RESULT:      -1.4      2.201      3.077
REMARK  1 active torsions:
REMARK  status: ('A' for Active; 'I' for Inactive)
REMARK    1  A    between atoms: N5_5  and  N6_6 
ROOT
HETATM    1  C1  UNL     1     -33.980   4.130   4.300  1.00 20.00     0.101 C 
HETATM    2  C2  UNL     1     -33.269   2.848   4.603  1.00 20.00     0.058 C 
HETATM    3  N5  UNL     1     -33.469   4.986   3.478  1.00 20.00    -0.217 NA
ENDROOT
BRANCH   3   4
HETATM    4  N6  UNL     1     -34.243   6.092   3.328  1.00 20.00    -0.217 NA
HETATM    5  C3  UNL     1     -33.515   7.347   3.531  1.00 20.00     0.138 C 
HETATM    6  C4  UNL     1     -35.463   6.113   4.146  1.00 20.00     0.138 C 
ENDBRANCH   3   4
TORSDOF 1
ENDMDL
MODEL 3
REMARK VINA RESULT:      -1.4      0.417      1.430
REMARK  1 active torsions:
REMARK  status: ('A' for Active; 'I' for Inactive)
REMARK    1  A    between atoms: N5_5  and  N6_6 
ROOT
HETATM    1  C1  UNL     1     -34.342   6.155   3.174  1.00 20.00     0.101 C 
HETATM    2  C2  UNL     1     -35.239   6.059   4.368  1.00 20.00     0.058 C 
HETATM    3  N5  UNL     1     -33.582   7.187   3.004  1.00 20.00    -0.217 NA
ENDROOT
BRANCH   3   4
HETATM    4  N6  UNL     1     -32.842   7.109   1.867  1.00 20.00    -0.217 NA
HETATM    5  C3  UNL     1     -32.409   5.747   1.545  1.00 20.00     0.138 C 
HETATM    6  C4  UNL     1     -31.677   8.002   1.822  1.00 20.00     0.138 C 
ENDBRANCH   3   4
TORSDOF 1
ENDMDL
MODEL 4
REMARK VINA RESULT:      -1.3      1.441      3.491
REMARK  1 active torsions:
REMARK  status: ('A' for Active; 'I' for Inactive)
REMARK    1  A    between atoms: N5_5  and  N6_6 
ROOT
HETATM    1  C1  UNL     1     -32.699   8.942   1.042  1.00 20.00     0.101 C 
HETATM    2  C2  UNL     1     -32.358  10.093   0.148  1.00 20.00     0.058 C 
HETATM    3  N5  UNL     1     -31.790   8.093   1.395  1.00 20.00    -0.217 NA
ENDROOT
BRANCH   3   4
HETATM    4  N6  UNL     1     -32.277   7.112   2.200  1.00 20.00    -0.217 NA
HETATM    5  C3  UNL     1     -32.728   5.926   1.468  1.00 20.00     0.138 C 
HETATM    6  C4  UNL     1     -33.340   7.535   3.121  1.00 20.00     0.138 C 
ENDBRANCH   3   4
TORSDOF 1
ENDMDL
MODEL 5
REMARK VINA RESULT:      -1.2      1.381      3.471
REMARK  1 active torsions:
REMARK  status: ('A' for Active; 'I' for Inactive)
REMARK    1  A    between atoms: N5_5  and  N6_6 
ROOT
HETATM    1  C1  UNL     1     -32.795   7.383   2.738  1.00 20.00     0.101 C 
HETATM    2  C2  UNL     1     -32.052   8.007   1.599  1.00 20.00     0.058 C 
HETATM    3  N5  UNL     1     -33.428   6.268   2.577  1.00 20.00    -0.217 NA
ENDROOT
BRANCH   3   4
HETATM    4  N6  UNL     1     -34.050   5.852   3.711  1.00 20.00    -0.217 NA
HETATM    5  C3  UNL     1     -34.081   4.395   3.860  1.00 20.00     0.138 C 
HETATM    6  C4  UNL     1     -35.408   6.378   3.905  1.00 20.00     0.138 C 
ENDBRANCH   3   4
TORSDOF 1
ENDMDL
MODEL 6
REMARK VINA RESULT:      -1.2      1.342      3.178
REMARK  1 active torsions:
REMARK  status: ('A' for Active; 'I' for Inactive)
REMARK    1  A    between atoms: N5_5  and  N6_6 
ROOT
HETATM    1  C1  UNL     1     -32.871   7.475   2.429  1.00 20.00     0.101 C 
HETATM    2  C2  UNL     1     -31.751   7.924   1.543  1.00 20.00     0.058 C 
HETATM    3  N5  UNL     1     -33.281   6.250   2.398  1.00 20.00    -0.217 NA
ENDROOT
BRANCH   3   4
HETATM    4  N6  UNL     1     -34.306   6.021   3.260  1.00 20.00    -0.217 NA
HETATM    5  C3  UNL     1     -34.523   7.113   4.212  1.00 20.00     0.138 C 
HETATM    6  C4  UNL     1     -34.225   4.755   4.000  1.00 20.00     0.138 C 
ENDBRANCH   3   4
TORSDOF 1
ENDMDL
MODEL 7
REMARK VINA RESULT:      -1.1      1.211      3.288
REMARK  1 active torsions:
REMARK  status: ('A' for Active; 'I' for Inactive)
REMARK    1  A    between atoms: N5_5  and  N6_6 
ROOT
HETATM    1  C1  UNL     1     -32.680   7.812   2.390  1.00 20.00     0.101 C 
HETATM    2  C2  UNL     1     -31.577   7.628   1.395  1.00 20.00     0.058 C 
HETATM    3  N5  UNL     1     -33.412   6.809   2.752  1.00 20.00    -0.217 NA
ENDROOT
BRANCH   3   4
HETATM    4  N6  UNL     1     -34.367   7.159   3.653  1.00 20.00    -0.217 NA
HETATM    5  C3  UNL     1     -33.838   7.878   4.814  1.00 20.00     0.138 C 
HETATM    6  C4  UNL     1     -35.212   6.053   4.123  1.00 20.00     0.138 C 
ENDBRANCH   3   4
TORSDOF 1
ENDMDL
MODEL 8
REMARK VINA RESULT:      -1.1      1.276      2.986
REMARK  1 active torsions:
REMARK  status: ('A' for Active; 'I' for Inactive)
REMARK    1  A    between atoms: N5_5  and  N6_6 
ROOT
HETATM    1  C1  UNL     1     -33.223   6.052   2.245  1.00 20.00     0.101 C 
HETATM    2  C2  UNL     1     -32.244   5.590   1.212  1.00 20.00     0.058 C 
HETATM    3  N5  UNL     1     -33.142   7.243   2.740  1.00 20.00    -0.217 NA
ENDROOT
BRANCH   3   4
HETATM    4  N6  UNL     1     -34.104   7.489   3.667  1.00 20.00    -0.217 NA
HETATM    5  C3  UNL     1     -33.577   8.009   4.932  1.00 20.00     0.138 C 
HETATM    6  C4  UNL     1     -34.995   6.357   3.953  1.00 20.00     0.138 C 
ENDBRANCH   3   4
TORSDOF 1
ENDMDL
MODEL 9
REMARK VINA RESULT:      -0.9      1.319      1.576
REMARK  1 active torsions:
REMARK  status: ('A' for Active; 'I' for Inactive)
REMARK    1  A    between atoms: N5_5  and  N6_6 
ROOT
HETATM    1  C1  UNL     1     -33.698   7.308   3.386  1.00 20.00     0.101 C 
HETATM    2  C2  UNL     1     -34.857   6.488   3.860  1.00 20.00     0.058 C 
HETATM    3  N5  UNL     1     -33.112   7.032   2.267  1.00 20.00    -0.217 NA
ENDROOT
BRANCH   3   4
HETATM    4  N6  UNL     1     -32.079   7.873   1.998  1.00 20.00    -0.217 NA
HETATM    5  C3  UNL     1     -31.591   8.594   3.176  1.00 20.00     0.138 C 
HETATM    6  C4  UNL     1     -32.327   8.838   0.919  1.00 20.00     0.138 C 
ENDBRANCH   3   4
TORSDOF 1
ENDMDL
