MODEL 1
REMARK VINA RESULT:      -0.7      0.000      0.000
REMARK  0 active torsions:
REMARK  status: ('A' for Active; 'I' for Inactive)
ROOT
HETATM    1  C1  UNL     1     -32.692   8.236   2.590  1.00 20.00     0.029 C 
HETATM    2  C2  UNL     1     -33.408   7.685   3.821  1.00 20.00     0.044 C 
HETATM    3  C3  UNL     1     -31.971   7.116   1.843  1.00 20.00     0.167 C 
HETATM    4  C4  UNL     1     -33.498   5.463   2.609  1.00 20.00     0.207 C 
HETATM    5  C5  UNL     1     -35.728   6.562   3.404  1.00 20.00     0.209 A 
HETATM    6  C6  UNL     1     -34.220   6.491   3.423  1.00 20.00     0.103 A 
HETATM    7  O7  UNL     1     -32.891   6.085   1.470  1.00 20.00    -0.388 OA
HETATM    8  O8  UNL     1     -35.013   5.944   4.483  1.00 20.00    -0.373 OA
ENDROOT
TORSDOF 0
ENDMDL
MODEL 2
REMARK VINA RESULT:      -0.6      1.364      3.054
REMARK  0 active torsions:
REMARK  status: ('A' for Active; 'I' for Inactive)
ROOT
HETATM    1  C1  UNL     1     -34.215   7.267   4.191  1.00 20.00     0.029 C 
HETATM    2  C2  UNL     1     -33.819   8.236   3.078  1.00 20.00     0.044 C 
HETATM    3  C3  UNL     1     -34.522   5.886   3.615  1.00 20.00     0.167 C 
HETATM    4  C4  UNL     1     -33.067   6.207   1.763  1.00 20.00     0.207 C 
HETATM    5  C5  UNL     1     -31.344   8.103   2.257  1.00 20.00     0.209 A 
HETATM    6  C6  UNL     1     -32.767   7.597   2.224  1.00 20.00     0.103 A 
HETATM    7  O7  UNL     1     -33.397   5.383   2.887  1.00 20.00    -0.388 OA
HETATM    8  O8  UNL     1     -32.248   8.454   1.199  1.00 20.00    -0.373 OA
ENDROOT
TORSDOF 0
ENDMDL
MODEL 3
REMARK VINA RESULT:      -0.6      1.328      1.975
REMARK  0 active torsions:
REMARK  status: ('A' for Active; 'I' for Inactive)
ROOT
HETATM    1  C1  UNL     1     -32.427   6.512   1.704  1.00 20.00     0.029 C 
HETATM    2  C2  UNL     1     -33.894   6.171   1.956  1.00 20.00     0.044 C 
HETATM    3  C3  UNL     1     -32.106   7.912   2.222  1.00 20.00     0.167 C 
HETATM    4  C4  UNL     1     -33.807   7.816   3.880  1.00 20.00     0.207 C 
HETATM    5  C5  UNL     1     -34.492   5.344   4.359  1.00 20.00     0.209 A 
HETATM    6  C6  UNL     1     -34.227   6.468   3.386  1.00 20.00     0.103 A 
HETATM    7  O7  UNL     1     -32.413   8.016   3.617  1.00 20.00    -0.388 OA
HETATM    8  O8  UNL     1     -35.559   6.096   3.765  1.00 20.00    -0.373 OA
ENDROOT
TORSDOF 0
ENDMDL
MODEL 4
REMARK VINA RESULT:      -0.5      1.449      3.469
REMARK  0 active torsions:
REMARK  status: ('A' for Active; 'I' for Inactive)
ROOT
HETATM    1  C1  UNL     1     -33.877   5.677   2.183  1.00 20.00     0.029 C 
HETATM    2  C2  UNL     1     -32.496   6.205   1.803  1.00 20.00     0.044 C 
HETATM    3  C3  UNL     1     -34.223   6.064   3.619  1.00 20.00     0.167 C 
HETATM    4  C4  UNL     1     -32.852   8.004   3.549  1.00 20.00     0.207 C 
HETATM    5  C5  UNL     1     -32.375   8.712   1.083  1.00 20.00     0.209 A 
HETATM    6  C6  UNL     1     -32.411   7.657   2.163  1.00 20.00     0.103 A 
HETATM    7  O7  UNL     1     -34.166   7.485   3.785  1.00 20.00    -0.388 OA
HETATM    8  O8  UNL     1     -31.187   8.287   1.764  1.00 20.00    -0.373 OA
ENDROOT
TORSDOF 0
ENDMDL
MODEL 5
REMARK VINA RESULT:      -0.5      1.390      3.065
REMARK  0 active torsions:
REMARK  status: ('A' for Active; 'I' for Inactive)
ROOT
HETATM    1  C1  UNL     1     -34.672   6.270   3.798  1.00 20.00     0.029 C 
HETATM    2  C2  UNL     1     -33.628   5.334   3.194  1.00 20.00     0.044 C 
HETATM    3  C3  UNL     1     -34.056   7.633   4.106  1.00 20.00     0.167 C 
HETATM    4  C4  UNL     1     -32.424   7.413   2.392  1.00 20.00     0.207 C 
HETATM    5  C5  UNL     1     -33.156   5.622   0.642  1.00 20.00     0.209 A 
HETATM    6  C6  UNL     1     -32.926   6.041   2.074  1.00 20.00     0.103 A 
HETATM    7  O7  UNL     1     -33.490   8.209   2.925  1.00 20.00    -0.388 OA
HETATM    8  O8  UNL     1     -31.985   5.223   1.367  1.00 20.00    -0.373 OA
ENDROOT
TORSDOF 0
ENDMDL
MODEL 6
REMARK VINA RESULT:      -0.0      0.993      1.166
REMARK  0 active torsions:
REMARK  status: ('A' for Active; 'I' for Inactive)
ROOT
HETATM    1  C1  UNL     1     -32.099   7.748   1.523  1.00 20.00     0.029 C 
HETATM    2  C2  UNL     1     -32.477   8.046   2.972  1.00 20.00     0.044 C 
HETATM    3  C3  UNL     1     -31.916   6.246   1.315  1.00 20.00     0.167 C 
HETATM    4  C4  UNL     1     -33.428   5.701   3.065  1.00 20.00     0.207 C 
HETATM    5  C5  UNL     1     -34.990   7.722   3.601  1.00 20.00     0.209 A 
HETATM    6  C6  UNL     1     -33.610   7.153   3.376  1.00 20.00     0.103 A 
HETATM    7  O7  UNL     1     -33.105   5.538   1.679  1.00 20.00    -0.388 OA
HETATM    8  O8  UNL     1     -34.114   7.410   4.693  1.00 20.00    -0.373 OA
ENDROOT
TORSDOF 0
ENDMDL
MODEL 7
REMARK VINA RESULT:       0.1      1.281      2.323
REMARK  0 active torsions:
REMARK  status: ('A' for Active; 'I' for Inactive)
ROOT
HETATM    1  C1  UNL     1     -33.301   5.129   2.679  1.00 20.00     0.029 C 
HETATM    2  C2  UNL     1     -34.245   6.123   3.353  1.00 20.00     0.044 C 
HETATM    3  C3  UNL     1     -32.668   5.750   1.436  1.00 20.00     0.167 C 
HETATM    4  C4  UNL     1     -32.848   7.956   2.302  1.00 20.00     0.207 C 
HETATM    5  C5  UNL     1     -33.132   7.911   4.896  1.00 20.00     0.209 A 
HETATM    6  C6  UNL     1     -33.537   7.433   3.523  1.00 20.00     0.103 A 
HETATM    7  O7  UNL     1     -31.971   6.954   1.773  1.00 20.00    -0.388 OA
HETATM    8  O8  UNL     1     -34.297   8.419   4.233  1.00 20.00    -0.373 OA
ENDROOT
TORSDOF 0
ENDMDL
MODEL 8
REMARK VINA RESULT:       0.2      1.096      2.880
REMARK  0 active torsions:
REMARK  status: ('A' for Active; 'I' for Inactive)
ROOT
HETATM    1  C1  UNL     1     -32.471   8.195   3.167  1.00 20.00     0.029 C 
HETATM    2  C2  UNL     1     -32.490   7.591   1.765  1.00 20.00     0.044 C 
HETATM    3  C3  UNL     1     -33.765   7.868   3.909  1.00 20.00     0.167 C 
HETATM    4  C4  UNL     1     -34.104   5.864   2.676  1.00 20.00     0.207 C 
HETATM    5  C5  UNL     1     -31.872   5.060   1.587  1.00 20.00     0.209 A 
HETATM    6  C6  UNL     1     -32.884   6.148   1.858  1.00 20.00     0.103 A 
HETATM    7  O7  UNL     1     -33.965   6.452   3.975  1.00 20.00    -0.388 OA
HETATM    8  O8  UNL     1     -32.844   5.450   0.607  1.00 20.00    -0.373 OA
ENDROOT
TORSDOF 0
ENDMDL
MODEL 9
REMARK VINA RESULT:       0.5      1.354      3.390
REMARK  0 active torsions:
REMARK  status: ('A' for Active; 'I' for Inactive)
ROOT
HETATM    1  C1  UNL     1     -34.253   4.247   3.826  1.00 20.00     0.029 C 
HETATM    2  C2  UNL     1     -32.996   5.019   3.432  1.00 20.00     0.044 C 
HETATM    3  C3  UNL     1     -35.199   5.137   4.629  1.00 20.00     0.167 C 
HETATM    4  C4  UNL     1     -34.400   7.121   3.592  1.00 20.00     0.207 C 
HETATM    5  C5  UNL     1     -33.201   6.570   1.341  1.00 20.00     0.209 A 
HETATM    6  C6  UNL     1     -33.397   6.326   2.818  1.00 20.00     0.103 A 
HETATM    7  O7  UNL     1     -35.543   6.309   3.882  1.00 20.00    -0.388 OA
HETATM    8  O8  UNL     1     -32.297   7.099   2.321  1.00 20.00    -0.373 OA
ENDROOT
TORSDOF 0
ENDMDL
