MODEL 1
REMARK VINA RESULT:      -2.8      0.000      0.000
REMARK  2 active torsions:
REMARK  status: ('A' for Active; 'I' for Inactive)
REMARK    1  A    between atoms: C2_2  and  C5_5 
REMARK    2  A    between atoms: C3_3  and  C5_5 
ROOT
HETATM    1  C5  UNL     1     -35.206   6.191   3.793  1.00 20.00     0.123 C 
ENDROOT
BRANCH   1   2
HETATM    2  C2  UNL     1     -34.787   4.914   4.455  1.00 20.00    -0.022 C 
HETATM    3  C1  UNL     1     -33.786   4.140   4.013  1.00 20.00    -0.034 C 
HETATM    4  C4  UNL     1     -33.370   2.866   4.670  1.00 20.00     0.036 C 
ENDBRANCH   1   2
BRANCH   1   5
HETATM    5  C3  UNL     1     -34.077   7.210   3.812  1.00 20.00     0.222 C 
HETATM    6  O6  UNL     1     -33.873   7.975   4.750  1.00 20.00    -0.280 OA
HETATM    7 CL7  UNL     1     -33.117   7.118   2.360  1.00 20.00    -0.043 Cl
ENDBRANCH   1   5
TORSDOF 2
ENDMDL
MODEL 2
REMARK VINA RESULT:      -2.6      1.419      1.419
REMARK  2 active torsions:
REMARK  status: ('A' for Active; 'I' for Inactive)
REMARK    1  A    between atoms: C2_2  and  C5_5 
REMARK    2  A    between atoms: C3_3  and  C5_5 
ROOT
HETATM    1  C5  UNL     1     -35.182   6.183   3.820  1.00 20.00     0.123 C 
ENDROOT
BRANCH   1   2
HETATM    2  C2  UNL     1     -34.784   4.890   4.463  1.00 20.00    -0.022 C 
HETATM    3  C1  UNL     1     -33.775   4.122   4.029  1.00 20.00    -0.034 C 
HETATM    4  C4  UNL     1     -33.379   2.832   4.667  1.00 20.00     0.036 C 
ENDBRANCH   1   2
BRANCH   1   5
HETATM    5  C3  UNL     1     -33.971   7.072   3.588  1.00 20.00     0.222 C 
HETATM    6  O6  UNL     1     -33.329   7.080   2.542  1.00 20.00    -0.280 OA
HETATM    7 CL7  UNL     1     -33.647   8.077   4.975  1.00 20.00    -0.043 Cl
ENDBRANCH   1   5
TORSDOF 2
ENDMDL
MODEL 3
REMARK VINA RESULT:      -2.6      3.601      5.263
REMARK  2 active torsions:
REMARK  status: ('A' for Active; 'I' for Inactive)
REMARK    1  A    between atoms: C2_2  and  C5_5 
REMARK    2  A    between atoms: C3_3  and  C5_5 
ROOT
HETATM    1  C5  UNL     1     -31.993   7.798   2.391  1.00 20.00     0.123 C 
ENDROOT
BRANCH   1   2
HETATM    2  C2  UNL     1     -31.914   8.490   1.065  1.00 20.00    -0.022 C 
HETATM    3  C1  UNL     1     -32.660   9.553   0.733  1.00 20.00    -0.034 C 
HETATM    4  C4  UNL     1     -32.585  10.241  -0.589  1.00 20.00     0.036 C 
ENDBRANCH   1   2
BRANCH   1   5
HETATM    5  C3  UNL     1     -33.005   6.664   2.354  1.00 20.00     0.222 C 
HETATM    6  O6  UNL     1     -32.948   5.733   1.556  1.00 20.00    -0.280 OA
HETATM    7 CL7  UNL     1     -34.213   6.853   3.596  1.00 20.00    -0.043 Cl
ENDBRANCH   1   5
TORSDOF 2
ENDMDL
MODEL 4
REMARK VINA RESULT:      -2.4      2.438      3.180
REMARK  2 active torsions:
REMARK  status: ('A' for Active; 'I' for Inactive)
REMARK    1  A    between atoms: C2_2  and  C5_5 
REMARK    2  A    between atoms: C3_3  and  C5_5 
ROOT
HETATM    1  C5  UNL     1     -32.251   6.661   1.542  1.00 20.00     0.123 C 
ENDROOT
BRANCH   1   2
HETATM    2  C2  UNL     1     -33.471   6.156   2.250  1.00 20.00    -0.022 C 
HETATM    3  C1  UNL     1     -34.021   6.761   3.312  1.00 20.00    -0.034 C 
HETATM    4  C4  UNL     1     -35.235   6.257   4.019  1.00 20.00     0.036 C 
ENDBRANCH   1   2
BRANCH   1   5
HETATM    5  C3  UNL     1     -31.974   8.111   1.904  1.00 20.00     0.222 C 
HETATM    6  O6  UNL     1     -31.494   8.461   2.978  1.00 20.00    -0.280 OA
HETATM    7 CL7  UNL     1     -32.395   9.182   0.593  1.00 20.00    -0.043 Cl
ENDBRANCH   1   5
TORSDOF 2
ENDMDL
MODEL 5
REMARK VINA RESULT:      -2.3      3.305      5.087
REMARK  2 active torsions:
REMARK  status: ('A' for Active; 'I' for Inactive)
REMARK    1  A    between atoms: C2_2  and  C5_5 
REMARK    2  A    between atoms: C3_3  and  C5_5 
ROOT
HETATM    1  C5  UNL     1     -31.958   8.042   2.479  1.00 20.00     0.123 C 
ENDROOT
BRANCH   1   2
HETATM    2  C2  UNL     1     -32.004   8.556   1.073  1.00 20.00    -0.022 C 
HETATM    3  C1  UNL     1     -32.612   9.696   0.715  1.00 20.00    -0.034 C 
HETATM    4  C4  UNL     1     -32.661  10.207  -0.686  1.00 20.00     0.036 C 
ENDBRANCH   1   2
BRANCH   1   5
HETATM    5  C3  UNL     1     -33.073   7.039   2.729  1.00 20.00     0.222 C 
HETATM    6  O6  UNL     1     -33.926   7.180   3.601  1.00 20.00    -0.280 OA
HETATM    7 CL7  UNL     1     -32.991   5.708   1.606  1.00 20.00    -0.043 Cl
ENDBRANCH   1   5
TORSDOF 2
ENDMDL
MODEL 6
REMARK VINA RESULT:      -2.3      2.372      3.011
REMARK  2 active torsions:
REMARK  status: ('A' for Active; 'I' for Inactive)
REMARK    1  A    between atoms: C2_2  and  C5_5 
REMARK    2  A    between atoms: C3_3  and  C5_5 
ROOT
HETATM    1  C5  UNL     1     -32.995   8.021   2.965  1.00 20.00     0.123 C 
ENDROOT
BRANCH   1   2
HETATM    2  C2  UNL     1     -33.586   6.790   3.583  1.00 20.00    -0.022 C 
HETATM    3  C1  UNL     1     -34.895   6.630   3.818  1.00 20.00    -0.034 C 
HETATM    4  C4  UNL     1     -35.485   5.406   4.436  1.00 20.00     0.036 C 
ENDBRANCH   1   2
BRANCH   1   5
HETATM    5  C3  UNL     1     -32.201   7.674   1.715  1.00 20.00     0.222 C 
HETATM    6  O6  UNL     1     -31.611   8.509   1.036  1.00 20.00    -0.280 OA
HETATM    7 CL7  UNL     1     -32.222   5.958   1.407  1.00 20.00    -0.043 Cl
ENDBRANCH   1   5
TORSDOF 2
ENDMDL
MODEL 7
REMARK VINA RESULT:      -2.3      2.619      3.929
REMARK  2 active torsions:
REMARK  status: ('A' for Active; 'I' for Inactive)
REMARK    1  A    between atoms: C2_2  and  C5_5 
REMARK    2  A    between atoms: C3_3  and  C5_5 
ROOT
HETATM    1  C5  UNL     1     -33.422   6.017   2.851  1.00 20.00     0.123 C 
ENDROOT
BRANCH   1   2
HETATM    2  C2  UNL     1     -33.129   7.023   1.780  1.00 20.00    -0.022 C 
HETATM    3  C1  UNL     1     -32.068   7.842   1.796  1.00 20.00    -0.034 C 
HETATM    4  C4  UNL     1     -31.776   8.846   0.731  1.00 20.00     0.036 C 
ENDBRANCH   1   2
BRANCH   1   5
HETATM    5  C3  UNL     1     -34.449   6.555   3.836  1.00 20.00     0.222 C 
HETATM    6  O6  UNL     1     -35.538   6.025   4.032  1.00 20.00    -0.280 OA
HETATM    7 CL7  UNL     1     -33.859   7.979   4.651  1.00 20.00    -0.043 Cl
ENDBRANCH   1   5
TORSDOF 2
ENDMDL
MODEL 8
REMARK VINA RESULT:      -2.2      2.625      3.962
REMARK  2 active torsions:
REMARK  status: ('A' for Active; 'I' for Inactive)
REMARK    1  A    between atoms: C2_2  and  C5_5 
REMARK    2  A    between atoms: C3_3  and  C5_5 
ROOT
HETATM    1  C5  UNL     1     -33.342   5.995   2.779  1.00 20.00     0.123 C 
ENDROOT
BRANCH   1   2
HETATM    2  C2  UNL     1     -33.048   6.988   1.696  1.00 20.00    -0.022 C 
HETATM    3  C1  UNL     1     -32.107   7.938   1.791  1.00 20.00    -0.034 C 
HETATM    4  C4  UNL     1     -31.815   8.929   0.714  1.00 20.00     0.036 C 
ENDBRANCH   1   2
BRANCH   1   5
HETATM    5  C3  UNL     1     -34.304   6.577   3.803  1.00 20.00     0.222 C 
HETATM    6  O6  UNL     1     -34.274   7.748   4.170  1.00 20.00    -0.280 OA
HETATM    7 CL7  UNL     1     -35.449   5.380   4.347  1.00 20.00    -0.043 Cl
ENDBRANCH   1   5
TORSDOF 2
ENDMDL
MODEL 9
REMARK VINA RESULT:      -2.2      2.790      4.473
REMARK  2 active torsions:
REMARK  status: ('A' for Active; 'I' for Inactive)
REMARK    1  A    between atoms: C2_2  and  C5_5 
REMARK    2  A    between atoms: C3_3  and  C5_5 
ROOT
HETATM    1  C5  UNL     1     -32.964   6.829   2.492  1.00 20.00     0.123 C 
ENDROOT
BRANCH   1   2
HETATM    2  C2  UNL     1     -32.276   8.021   1.899  1.00 20.00    -0.022 C 
HETATM    3  C1  UNL     1     -32.793   8.765   0.912  1.00 20.00    -0.034 C 
HETATM    4  C4  UNL     1     -32.108   9.951   0.318  1.00 20.00     0.036 C 
ENDBRANCH   1   2
BRANCH   1   5
HETATM    5  C3  UNL     1     -33.772   7.222   3.719  1.00 20.00     0.222 C 
HETATM    6  O6  UNL     1     -33.412   8.080   4.519  1.00 20.00    -0.280 OA
HETATM    7 CL7  UNL     1     -35.264   6.324   3.808  1.00 20.00    -0.043 Cl
ENDBRANCH   1   5
TORSDOF 2
ENDMDL
