MODEL 1
REMARK VINA RESULT:       0.3      0.000      0.000
REMARK  1 active torsions:
REMARK  status: ('A' for Active; 'I' for Inactive)
REMARK    1  A    between atoms: C9_9  and  O11_11 
ROOT
HETATM    1  C1  UNL     1     -32.473   8.912   1.249  1.00 20.00    -0.025 C 
HETATM    2  C2  UNL     1     -32.650   7.862   0.424  1.00 20.00    -0.025 C 
HETATM    3  C3  UNL     1     -34.262   7.706   4.142  1.00 20.00    -0.022 C 
HETATM    4  C4  UNL     1     -34.922   6.526   4.077  1.00 20.00     0.001 C 
HETATM    5  C5  UNL     1     -31.205   7.151   2.010  1.00 20.00     0.018 C 
HETATM    6  C6  UNL     1     -31.987   8.378   2.577  1.00 20.00     0.017 C 
HETATM    7  C7  UNL     1     -32.412   6.592   1.240  1.00 20.00     0.016 C 
HETATM    8  C8  UNL     1     -33.012   7.545   3.361  1.00 20.00     0.023 C 
HETATM    9  C9  UNL     1     -34.289   5.568   3.061  1.00 20.00     0.146 C 
HETATM   10  C10 UNL     1     -33.583   6.627   2.243  1.00 20.00     0.034 C 
ENDROOT
BRANCH   9  11
HETATM   11  O11 UNL     1     -33.417   4.657   3.693  1.00 20.00    -0.391 OA
HETATM   12  H23 UNL     1     -32.867   4.251   2.999  1.00 20.00     0.210 HD
ENDBRANCH   9  11
TORSDOF 1
ENDMDL
MODEL 2
REMARK VINA RESULT:       0.8      1.459      2.443
REMARK  1 active torsions:
REMARK  status: ('A' for Active; 'I' for Inactive)
REMARK    1  A    between atoms: C9_9  and  O11_11 
ROOT
HETATM    1  C1  UNL     1     -31.509   6.473   1.804  1.00 20.00    -0.025 C 
HETATM    2  C2  UNL     1     -31.950   7.678   2.211  1.00 20.00    -0.025 C 
HETATM    3  C3  UNL     1     -33.764   4.354   3.663  1.00 20.00    -0.022 C 
HETATM    4  C4  UNL     1     -34.638   4.909   4.534  1.00 20.00     0.001 C 
HETATM    5  C5  UNL     1     -33.567   6.863   0.858  1.00 20.00     0.018 C 
HETATM    6  C6  UNL     1     -32.710   5.664   1.371  1.00 20.00     0.017 C 
HETATM    7  C7  UNL     1     -33.478   7.641   2.180  1.00 20.00     0.016 C 
HETATM    8  C8  UNL     1     -33.675   5.269   2.500  1.00 20.00     0.023 C 
HETATM    9  C9  UNL     1     -35.017   6.341   4.136  1.00 20.00     0.146 C 
HETATM   10  C10 UNL     1     -33.800   6.609   3.280  1.00 20.00     0.034 C 
ENDROOT
BRANCH   9  11
HETATM   11  O11 UNL     1     -36.234   6.367   3.425  1.00 20.00    -0.391 OA
HETATM   12  H23 UNL     1     -36.177   5.691   2.725  1.00 20.00     0.210 HD
ENDBRANCH   9  11
TORSDOF 1
ENDMDL
MODEL 3
REMARK VINA RESULT:       1.5      1.635      3.658
REMARK  1 active torsions:
REMARK  status: ('A' for Active; 'I' for Inactive)
REMARK    1  A    between atoms: C9_9  and  O11_11 
ROOT
HETATM    1  C1  UNL     1     -35.503   6.025   3.662  1.00 20.00    -0.025 C 
HETATM    2  C2  UNL     1     -35.621   7.358   3.510  1.00 20.00    -0.025 C 
HETATM    3  C3  UNL     1     -32.566   5.451   1.644  1.00 20.00    -0.022 C 
HETATM    4  C4  UNL     1     -32.017   6.478   0.955  1.00 20.00     0.001 C 
HETATM    5  C5  UNL     1     -33.805   7.054   4.822  1.00 20.00     0.018 C 
HETATM    6  C6  UNL     1     -34.070   5.729   4.040  1.00 20.00     0.017 C 
HETATM    7  C7  UNL     1     -34.224   7.961   3.654  1.00 20.00     0.016 C 
HETATM    8  C8  UNL     1     -33.034   6.002   2.939  1.00 20.00     0.023 C 
HETATM    9  C9  UNL     1     -32.284   7.830   1.628  1.00 20.00     0.146 C 
HETATM   10  C10 UNL     1     -33.496   7.393   2.419  1.00 20.00     0.034 C 
ENDROOT
BRANCH   9  11
HETATM   11  O11 UNL     1     -31.192   8.228   2.426  1.00 20.00    -0.391 OA
HETATM   12  H23 UNL     1     -31.001   7.498   3.043  1.00 20.00     0.210 HD
ENDBRANCH   9  11
TORSDOF 1
ENDMDL
MODEL 4
REMARK VINA RESULT:       1.8      1.820      3.515
REMARK  1 active torsions:
REMARK  status: ('A' for Active; 'I' for Inactive)
REMARK    1  A    between atoms: C9_9  and  O11_11 
ROOT
HETATM    1  C1  UNL     1     -34.513   5.271   4.419  1.00 20.00    -0.025 C 
HETATM    2  C2  UNL     1     -33.944   4.744   3.318  1.00 20.00    -0.025 C 
HETATM    3  C3  UNL     1     -32.765   8.426   4.544  1.00 20.00    -0.022 C 
HETATM    4  C4  UNL     1     -31.781   8.681   3.651  1.00 20.00     0.001 C 
HETATM    5  C5  UNL     1     -35.273   6.416   2.576  1.00 20.00     0.018 C 
HETATM    6  C6  UNL     1     -34.956   6.676   4.083  1.00 20.00     0.017 C 
HETATM    7  C7  UNL     1     -33.879   5.849   2.264  1.00 20.00     0.016 C 
HETATM    8  C8  UNL     1     -33.819   7.676   3.821  1.00 20.00     0.023 C 
HETATM    9  C9  UNL     1     -31.988   7.924   2.334  1.00 20.00     0.146 C 
HETATM   10  C10 UNL     1     -32.885   6.844   2.896  1.00 20.00     0.034 C 
ENDROOT
BRANCH   9  11
HETATM   11  O11 UNL     1     -32.611   8.741   1.368  1.00 20.00    -0.391 OA
HETATM   12  H23 UNL     1     -33.251   9.309   1.836  1.00 20.00     0.210 HD
ENDBRANCH   9  11
TORSDOF 1
ENDMDL
MODEL 5
REMARK VINA RESULT:       1.8      1.407      3.376
REMARK  1 active torsions:
REMARK  status: ('A' for Active; 'I' for Inactive)
REMARK    1  A    between atoms: C9_9  and  O11_11 
ROOT
HETATM    1  C1  UNL     1     -34.016   7.664   4.835  1.00 20.00    -0.025 C 
HETATM    2  C2  UNL     1     -34.205   6.332   4.885  1.00 20.00    -0.025 C 
HETATM    3  C3  UNL     1     -31.985   7.868   1.858  1.00 20.00    -0.022 C 
HETATM    4  C4  UNL     1     -31.593   6.731   1.237  1.00 20.00     0.001 C 
HETATM    5  C5  UNL     1     -35.437   7.055   3.134  1.00 20.00     0.018 C 
HETATM    6  C6  UNL     1     -34.338   8.123   3.432  1.00 20.00     0.017 C 
HETATM    7  C7  UNL     1     -34.529   5.861   3.468  1.00 20.00     0.016 C 
HETATM    8  C8  UNL     1     -33.366   7.638   2.345  1.00 20.00     0.023 C 
HETATM    9  C9  UNL     1     -32.580   5.581   1.465  1.00 20.00     0.146 C 
HETATM   10  C10 UNL     1     -33.206   6.138   2.724  1.00 20.00     0.034 C 
ENDROOT
BRANCH   9  11
HETATM   11  O11 UNL     1     -33.478   5.457   0.384  1.00 20.00    -0.391 OA
HETATM   12  H23 UNL     1     -34.137   6.171   0.471  1.00 20.00     0.210 HD
ENDBRANCH   9  11
TORSDOF 1
ENDMDL
MODEL 6
REMARK VINA RESULT:       1.8      0.912      1.052
REMARK  1 active torsions:
REMARK  status: ('A' for Active; 'I' for Inactive)
REMARK    1  A    between atoms: C9_9  and  O11_11 
ROOT
HETATM    1  C1  UNL     1     -32.656   9.877   1.724  1.00 20.00    -0.025 C 
HETATM    2  C2  UNL     1     -32.501   9.151   0.601  1.00 20.00    -0.025 C 
HETATM    3  C3  UNL     1     -34.145   7.373   3.854  1.00 20.00    -0.022 C 
HETATM    4  C4  UNL     1     -34.446   6.155   3.346  1.00 20.00     0.001 C 
HETATM    5  C5  UNL     1     -30.976   8.344   2.061  1.00 20.00     0.018 C 
HETATM    6  C6  UNL     1     -32.091   9.075   2.874  1.00 20.00     0.017 C 
HETATM    7  C7  UNL     1     -31.948   7.786   1.010  1.00 20.00     0.016 C 
HETATM    8  C8  UNL     1     -32.872   7.800   3.227  1.00 20.00     0.023 C 
HETATM    9  C9  UNL     1     -33.531   5.780   2.174  1.00 20.00     0.146 C 
HETATM   10  C10 UNL     1     -33.119   7.190   1.818  1.00 20.00     0.034 C 
ENDROOT
BRANCH   9  11
HETATM   11  O11 UNL     1     -32.465   4.962   2.601  1.00 20.00    -0.391 OA
HETATM   12  H23 UNL     1     -31.678   5.530   2.685  1.00 20.00     0.210 HD
ENDBRANCH   9  11
TORSDOF 1
ENDMDL
MODEL 7
REMARK VINA RESULT:       2.3      2.502      4.182
REMARK  1 active torsions:
REMARK  status: ('A' for Active; 'I' for Inactive)
REMARK    1  A    between atoms: C9_9  and  O11_11 
ROOT
HETATM    1  C1  UNL     1     -32.411   6.410   1.653  1.00 20.00    -0.025 C 
HETATM    2  C2  UNL     1     -33.362   6.966   2.429  1.00 20.00    -0.025 C 
HETATM    3  C3  UNL     1     -31.933   9.091  -0.715  1.00 20.00    -0.022 C 
HETATM    4  C4  UNL     1     -32.720  10.190  -0.650  1.00 20.00     0.001 C 
HETATM    5  C5  UNL     1     -31.462   8.100   2.890  1.00 20.00     0.018 C 
HETATM    6  C6  UNL     1     -31.298   7.420   1.494  1.00 20.00     0.017 C 
HETATM    7  C7  UNL     1     -32.952   8.415   2.689  1.00 20.00     0.016 C 
HETATM    8  C8  UNL     1     -31.661   8.672   0.680  1.00 20.00     0.023 C 
HETATM    9  C9  UNL     1     -33.228  10.450   0.774  1.00 20.00     0.146 C 
HETATM   10  C10 UNL     1     -33.049   9.037   1.281  1.00 20.00     0.034 C 
ENDROOT
BRANCH   9  11
HETATM   11  O11 UNL     1     -32.426  11.403   1.435  1.00 20.00    -0.391 OA
HETATM   12  H23 UNL     1     -31.994  10.950   2.183  1.00 20.00     0.210 HD
ENDBRANCH   9  11
TORSDOF 1
ENDMDL
MODEL 8
REMARK VINA RESULT:       2.6      1.493      2.506
REMARK  1 active torsions:
REMARK  status: ('A' for Active; 'I' for Inactive)
REMARK    1  A    between atoms: C9_9  and  O11_11 
ROOT
HETATM    1  C1  UNL     1     -31.635   5.664   1.441  1.00 20.00    -0.025 C 
HETATM    2  C2  UNL     1     -31.095   6.844   1.803  1.00 20.00    -0.025 C 
HETATM    3  C3  UNL     1     -34.494   5.616   3.644  1.00 20.00    -0.022 C 
HETATM    4  C4  UNL     1     -34.654   6.605   4.553  1.00 20.00     0.001 C 
HETATM    5  C5  UNL     1     -32.979   7.362   0.667  1.00 20.00     0.018 C 
HETATM    6  C6  UNL     1     -33.106   5.892   1.179  1.00 20.00     0.017 C 
HETATM    7  C7  UNL     1     -32.236   7.854   1.918  1.00 20.00     0.016 C 
HETATM    8  C8  UNL     1     -33.945   6.243   2.418  1.00 20.00     0.023 C 
HETATM    9  C9  UNL     1     -34.009   7.919   4.095  1.00 20.00     0.146 C 
HETATM   10  C10 UNL     1     -33.040   7.301   3.112  1.00 20.00     0.034 C 
ENDROOT
BRANCH   9  11
HETATM   11  O11 UNL     1     -34.960   8.774   3.501  1.00 20.00    -0.391 OA
HETATM   12  H23 UNL     1     -34.913   8.638   2.537  1.00 20.00     0.210 HD
ENDBRANCH   9  11
TORSDOF 1
ENDMDL
