MODEL 1
REMARK VINA RESULT:       0.1      0.000      0.000
REMARK  0 active torsions:
REMARK  status: ('A' for Active; 'I' for Inactive)
ROOT
HETATM    1  C1  UNL     1     -33.927   4.527   3.914  1.00 20.00     0.127 C 
HETATM    2  C2  UNL     1     -33.321   5.044   2.623  1.00 20.00     0.082 C 
HETATM    3  C3  UNL     1     -35.207   5.179   4.404  1.00 20.00     0.082 C 
HETATM    4  C4  UNL     1     -32.976   7.366   3.587  1.00 20.00     0.005 C 
HETATM    5  C5  UNL     1     -34.089   7.444   4.640  1.00 20.00     0.005 C 
HETATM    6  C6  UNL     1     -35.060   6.843   2.540  1.00 20.00     0.010 C 
HETATM    7  C7  UNL     1     -33.567   6.546   2.430  1.00 20.00    -0.007 C 
HETATM    8  C8  UNL     1     -35.271   6.667   4.041  1.00 20.00    -0.007 C 
HETATM    9  O9  UNL     1     -33.457   3.543   4.486  1.00 20.00    -0.298 OA
ENDROOT
TORSDOF 0
ENDMDL
MODEL 2
REMARK VINA RESULT:       1.0      1.045      1.194
REMARK  0 active torsions:
REMARK  status: ('A' for Active; 'I' for Inactive)
ROOT
HETATM    1  C1  UNL     1     -33.844   5.437   3.441  1.00 20.00     0.127 C 
HETATM    2  C2  UNL     1     -33.107   6.012   2.245  1.00 20.00     0.082 C 
HETATM    3  C3  UNL     1     -34.881   6.314   4.118  1.00 20.00     0.082 C 
HETATM    4  C4  UNL     1     -32.106   7.890   3.627  1.00 20.00     0.005 C 
HETATM    5  C5  UNL     1     -33.154   8.067   4.734  1.00 20.00     0.005 C 
HETATM    6  C6  UNL     1     -34.246   8.210   2.612  1.00 20.00     0.010 C 
HETATM    7  C7  UNL     1     -32.904   7.527   2.365  1.00 20.00    -0.007 C 
HETATM    8  C8  UNL     1     -34.508   7.800   4.059  1.00 20.00    -0.007 C 
HETATM    9  O9  UNL     1     -33.683   4.265   3.781  1.00 20.00    -0.298 OA
ENDROOT
TORSDOF 0
ENDMDL
MODEL 3
REMARK VINA RESULT:       1.0      2.037      3.226
REMARK  0 active torsions:
REMARK  status: ('A' for Active; 'I' for Inactive)
ROOT
HETATM    1  C1  UNL     1     -33.848   7.036   3.492  1.00 20.00     0.127 C 
HETATM    2  C2  UNL     1     -32.674   7.991   3.389  1.00 20.00     0.082 C 
HETATM    3  C3  UNL     1     -33.725   5.690   2.802  1.00 20.00     0.082 C 
HETATM    4  C4  UNL     1     -32.859   8.121   0.862  1.00 20.00     0.005 C 
HETATM    5  C5  UNL     1     -33.482   6.762   0.516  1.00 20.00     0.005 C 
HETATM    6  C6  UNL     1     -31.525   6.396   1.839  1.00 20.00     0.010 C 
HETATM    7  C7  UNL     1     -31.930   7.851   2.055  1.00 20.00    -0.007 C 
HETATM    8  C8  UNL     1     -32.882   5.771   1.524  1.00 20.00    -0.007 C 
HETATM    9  O9  UNL     1     -34.821   7.301   4.198  1.00 20.00    -0.298 OA
ENDROOT
TORSDOF 0
ENDMDL
MODEL 4
REMARK VINA RESULT:       1.5      1.619      2.705
REMARK  0 active torsions:
REMARK  status: ('A' for Active; 'I' for Inactive)
ROOT
HETATM    1  C1  UNL     1     -33.038   5.971   2.059  1.00 20.00     0.127 C 
HETATM    2  C2  UNL     1     -33.436   5.081   3.223  1.00 20.00     0.082 C 
HETATM    3  C3  UNL     1     -32.778   7.437   2.350  1.00 20.00     0.082 C 
HETATM    4  C4  UNL     1     -35.545   6.420   3.668  1.00 20.00     0.005 C 
HETATM    5  C5  UNL     1     -35.156   7.812   3.150  1.00 20.00     0.005 C 
HETATM    6  C6  UNL     1     -33.504   7.087   4.719  1.00 20.00     0.010 C 
HETATM    7  C7  UNL     1     -34.259   5.837   4.273  1.00 20.00    -0.007 C 
HETATM    8  C8  UNL     1     -33.665   7.967   3.483  1.00 20.00    -0.007 C 
HETATM    9  O9  UNL     1     -32.830   5.498   0.942  1.00 20.00    -0.298 OA
ENDROOT
TORSDOF 0
ENDMDL
MODEL 5
REMARK VINA RESULT:       1.5      2.144      3.495
REMARK  0 active torsions:
REMARK  status: ('A' for Active; 'I' for Inactive)
ROOT
HETATM    1  C1  UNL     1     -32.439   8.007   3.178  1.00 20.00     0.127 C 
HETATM    2  C2  UNL     1     -33.764   7.628   3.812  1.00 20.00     0.082 C 
HETATM    3  C3  UNL     1     -32.212   7.617   1.729  1.00 20.00     0.082 C 
HETATM    4  C4  UNL     1     -33.338   5.149   3.480  1.00 20.00     0.005 C 
HETATM    5  C5  UNL     1     -32.420   5.143   2.251  1.00 20.00     0.005 C 
HETATM    6  C6  UNL     1     -34.393   6.388   1.730  1.00 20.00     0.010 C 
HETATM    7  C7  UNL     1     -34.317   6.311   3.252  1.00 20.00    -0.007 C 
HETATM    8  C8  UNL     1     -32.913   6.301   1.370  1.00 20.00    -0.007 C 
HETATM    9  O9  UNL     1     -31.621   8.700   3.785  1.00 20.00    -0.298 OA
ENDROOT
TORSDOF 0
ENDMDL
MODEL 6
REMARK VINA RESULT:       1.6      2.005      3.394
REMARK  0 active torsions:
REMARK  status: ('A' for Active; 'I' for Inactive)
ROOT
HETATM    1  C1  UNL     1     -32.987   7.746   3.703  1.00 20.00     0.127 C 
HETATM    2  C2  UNL     1     -34.204   6.846   3.587  1.00 20.00     0.082 C 
HETATM    3  C3  UNL     1     -32.262   8.120   2.423  1.00 20.00     0.082 C 
HETATM    4  C4  UNL     1     -32.842   4.948   2.596  1.00 20.00     0.005 C 
HETATM    5  C5  UNL     1     -31.694   5.701   1.910  1.00 20.00     0.005 C 
HETATM    6  C6  UNL     1     -33.772   6.595   1.134  1.00 20.00     0.010 C 
HETATM    7  C7  UNL     1     -34.076   5.848   2.429  1.00 20.00    -0.007 C 
HETATM    8  C8  UNL     1     -32.321   6.999   1.378  1.00 20.00    -0.007 C 
HETATM    9  O9  UNL     1     -32.664   8.241   4.783  1.00 20.00    -0.298 OA
ENDROOT
TORSDOF 0
ENDMDL
MODEL 7
REMARK VINA RESULT:       1.6      2.357      3.241
REMARK  0 active torsions:
REMARK  status: ('A' for Active; 'I' for Inactive)
ROOT
HETATM    1  C1  UNL     1     -32.466   7.762   1.966  1.00 20.00     0.127 C 
HETATM    2  C2  UNL     1     -32.933   6.345   1.690  1.00 20.00     0.082 C 
HETATM    3  C3  UNL     1     -32.289   8.176   3.416  1.00 20.00     0.082 C 
HETATM    4  C4  UNL     1     -35.123   6.710   2.919  1.00 20.00     0.005 C 
HETATM    5  C5  UNL     1     -34.742   7.793   3.937  1.00 20.00     0.005 C 
HETATM    6  C6  UNL     1     -33.212   5.969   4.149  1.00 20.00     0.010 C 
HETATM    7  C7  UNL     1     -33.875   5.824   2.782  1.00 20.00    -0.007 C 
HETATM    8  C8  UNL     1     -33.294   7.480   4.342  1.00 20.00    -0.007 C 
HETATM    9  O9  UNL     1     -32.140   8.513   1.047  1.00 20.00    -0.298 OA
ENDROOT
TORSDOF 0
ENDMDL
MODEL 8
REMARK VINA RESULT:       1.8      3.705      4.843
REMARK  0 active torsions:
REMARK  status: ('A' for Active; 'I' for Inactive)
ROOT
HETATM    1  C1  UNL     1     -32.488   9.396   0.255  1.00 20.00     0.127 C 
HETATM    2  C2  UNL     1     -31.308   8.447   0.152  1.00 20.00     0.082 C 
HETATM    3  C3  UNL     1     -32.919   9.837   1.641  1.00 20.00     0.082 C 
HETATM    4  C4  UNL     1     -32.508   6.640   1.470  1.00 20.00     0.005 C 
HETATM    5  C5  UNL     1     -33.460   7.462   2.348  1.00 20.00     0.005 C 
HETATM    6  C6  UNL     1     -31.236   8.283   2.649  1.00 20.00     0.010 C 
HETATM    7  C7  UNL     1     -31.233   7.488   1.347  1.00 20.00    -0.007 C 
HETATM    8  C8  UNL     1     -32.689   8.745   2.692  1.00 20.00    -0.007 C 
HETATM    9  O9  UNL     1     -33.007   9.874  -0.754  1.00 20.00    -0.298 OA
ENDROOT
TORSDOF 0
ENDMDL
MODEL 9
REMARK VINA RESULT:       2.3      2.134      3.405
REMARK  0 active torsions:
REMARK  status: ('A' for Active; 'I' for Inactive)
ROOT
HETATM    1  C1  UNL     1     -32.911   6.045   1.705  1.00 20.00     0.127 C 
HETATM    2  C2  UNL     1     -33.613   6.376   3.008  1.00 20.00     0.082 C 
HETATM    3  C3  UNL     1     -31.607   6.761   1.405  1.00 20.00     0.082 C 
HETATM    4  C4  UNL     1     -33.915   8.810   2.355  1.00 20.00     0.005 C 
HETATM    5  C5  UNL     1     -32.730   9.036   1.406  1.00 20.00     0.005 C 
HETATM    6  C6  UNL     1     -31.905   8.148   3.467  1.00 20.00     0.010 C 
HETATM    7  C7  UNL     1     -33.398   7.836   3.426  1.00 20.00    -0.007 C 
HETATM    8  C8  UNL     1     -31.585   8.184   1.975  1.00 20.00    -0.007 C 
HETATM    9  O9  UNL     1     -33.328   5.150   0.969  1.00 20.00    -0.298 OA
ENDROOT
TORSDOF 0
ENDMDL
