MODEL 1
REMARK VINA RESULT:      -1.9      0.000      0.000
REMARK  1 active torsions:
REMARK  status: ('A' for Active; 'I' for Inactive)
REMARK    1  A    between atoms: C1_1  and  C3_3 
ROOT
HETATM    1  C1  UNL     1     -33.250   7.240   1.993  1.00 20.00     0.181 A 
HETATM    2  C2  UNL     1     -33.539   6.581   3.311  1.00 20.00     0.247 A 
HETATM    3  O4  UNL     1     -33.121   5.824   2.168  1.00 20.00    -0.358 OA
HETATM    4 CL5  UNL     1     -35.183   6.432   3.866  1.00 20.00    -0.092 Cl
ENDROOT
BRANCH   1   5
HETATM    5  C3  UNL     1     -31.967   7.951   1.756  1.00 20.00     0.150 C 
HETATM    6 CL6  UNL     1     -32.185   9.338   0.652  1.00 20.00    -0.128 Cl
ENDBRANCH   1   5
TORSDOF 1
ENDMDL
MODEL 2
REMARK VINA RESULT:      -1.8      1.368      3.592
REMARK  1 active torsions:
REMARK  status: ('A' for Active; 'I' for Inactive)
REMARK    1  A    between atoms: C1_1  and  C3_3 
ROOT
HETATM    1  C1  UNL     1     -32.598   7.982   2.328  1.00 20.00     0.181 A 
HETATM    2  C2  UNL     1     -32.445   8.423   0.902  1.00 20.00     0.247 A 
HETATM    3  O4  UNL     1     -31.354   7.848   1.631  1.00 20.00    -0.358 OA
HETATM    4 CL5  UNL     1     -32.401  10.122   0.519  1.00 20.00    -0.092 Cl
ENDROOT
BRANCH   1   5
HETATM    5  C3  UNL     1     -33.256   6.693   2.665  1.00 20.00     0.150 C 
HETATM    6 CL6  UNL     1     -34.561   6.922   3.864  1.00 20.00    -0.128 Cl
ENDBRANCH   1   5
TORSDOF 1
ENDMDL
MODEL 3
REMARK VINA RESULT:      -1.7      2.278      3.953
REMARK  1 active torsions:
REMARK  status: ('A' for Active; 'I' for Inactive)
REMARK    1  A    between atoms: C1_1  and  C3_3 
ROOT
HETATM    1  C1  UNL     1     -34.550   6.390   3.433  1.00 20.00     0.181 A 
HETATM    2  C2  UNL     1     -33.272   7.153   3.623  1.00 20.00     0.247 A 
HETATM    3  O4  UNL     1     -34.536   7.694   4.025  1.00 20.00    -0.358 OA
HETATM    4 CL5  UNL     1     -32.459   7.843   2.245  1.00 20.00    -0.092 Cl
ENDROOT
BRANCH   1   5
HETATM    5  C3  UNL     1     -34.936   5.296   4.362  1.00 20.00     0.150 C 
HETATM    6 CL6  UNL     1     -33.905   3.855   4.134  1.00 20.00    -0.128 Cl
ENDBRANCH   1   5
TORSDOF 1
ENDMDL
MODEL 4
REMARK VINA RESULT:      -1.7      2.130      2.360
REMARK  1 active torsions:
REMARK  status: ('A' for Active; 'I' for Inactive)
REMARK    1  A    between atoms: C1_1  and  C3_3 
ROOT
HETATM    1  C1  UNL     1     -31.893   8.359   1.238  1.00 20.00     0.181 A 
HETATM    2  C2  UNL     1     -32.797   7.339   1.866  1.00 20.00     0.247 A 
HETATM    3  O4  UNL     1     -31.805   8.035   2.631  1.00 20.00    -0.358 OA
HETATM    4 CL5  UNL     1     -32.564   5.646   1.526  1.00 20.00    -0.092 Cl
ENDROOT
BRANCH   1   5
HETATM    5  C3  UNL     1     -32.372   9.737   0.955  1.00 20.00     0.150 C 
HETATM    6 CL6  UNL     1     -32.833   9.927  -0.760  1.00 20.00    -0.128 Cl
ENDBRANCH   1   5
TORSDOF 1
ENDMDL
MODEL 5
REMARK VINA RESULT:      -1.7      1.529      1.695
REMARK  1 active torsions:
REMARK  status: ('A' for Active; 'I' for Inactive)
REMARK    1  A    between atoms: C1_1  and  C3_3 
ROOT
HETATM    1  C1  UNL     1     -33.391   6.242   3.090  1.00 20.00     0.181 A 
HETATM    2  C2  UNL     1     -34.844   6.364   3.450  1.00 20.00     0.247 A 
HETATM    3  O4  UNL     1     -33.886   7.352   3.849  1.00 20.00    -0.358 OA
HETATM    4 CL5  UNL     1     -35.529   5.316   4.661  1.00 20.00    -0.092 Cl
ENDROOT
BRANCH   1   5
HETATM    5  C3  UNL     1     -32.906   6.593   1.730  1.00 20.00     0.150 C 
HETATM    6 CL6  UNL     1     -31.956   8.106   1.749  1.00 20.00    -0.128 Cl
ENDBRANCH   1   5
TORSDOF 1
ENDMDL
MODEL 6
REMARK VINA RESULT:      -1.5      1.142      3.697
REMARK  1 active torsions:
REMARK  status: ('A' for Active; 'I' for Inactive)
REMARK    1  A    between atoms: C1_1  and  C3_3 
ROOT
HETATM    1  C1  UNL     1     -33.503   6.690   3.342  1.00 20.00     0.181 A 
HETATM    2  C2  UNL     1     -33.165   7.213   1.975  1.00 20.00     0.247 A 
HETATM    3  O4  UNL     1     -33.218   5.808   2.250  1.00 20.00    -0.358 OA
HETATM    4 CL5  UNL     1     -31.617   7.958   1.689  1.00 20.00    -0.092 Cl
ENDROOT
BRANCH   1   5
HETATM    5  C3  UNL     1     -34.909   6.645   3.820  1.00 20.00     0.150 C 
HETATM    6 CL6  UNL     1     -35.310   5.049   4.513  1.00 20.00    -0.128 Cl
ENDBRANCH   1   5
TORSDOF 1
ENDMDL
MODEL 7
REMARK VINA RESULT:      -1.4      2.754      3.307
REMARK  1 active torsions:
REMARK  status: ('A' for Active; 'I' for Inactive)
REMARK    1  A    between atoms: C1_1  and  C3_3 
ROOT
HETATM    1  C1  UNL     1     -34.297   5.587   4.410  1.00 20.00     0.181 A 
HETATM    2  C2  UNL     1     -34.162   4.169   3.935  1.00 20.00     0.247 A 
HETATM    3  O4  UNL     1     -35.362   4.640   4.561  1.00 20.00    -0.358 OA
HETATM    4 CL5  UNL     1     -33.139   3.057   4.803  1.00 20.00    -0.092 Cl
ENDROOT
BRANCH   1   5
HETATM    5  C3  UNL     1     -34.586   6.690   3.457  1.00 20.00     0.150 C 
HETATM    6 CL6  UNL     1     -33.087   7.515   2.944  1.00 20.00    -0.128 Cl
ENDBRANCH   1   5
TORSDOF 1
ENDMDL
MODEL 8
REMARK VINA RESULT:      -1.3      2.620      4.079
REMARK  1 active torsions:
REMARK  status: ('A' for Active; 'I' for Inactive)
REMARK    1  A    between atoms: C1_1  and  C3_3 
ROOT
HETATM    1  C1  UNL     1     -33.573   5.304   3.891  1.00 20.00     0.181 A 
HETATM    2  C2  UNL     1     -34.484   6.478   3.679  1.00 20.00     0.247 A 
HETATM    3  O4  UNL     1     -33.727   5.912   2.603  1.00 20.00    -0.358 OA
HETATM    4 CL5  UNL     1     -34.037   8.047   4.291  1.00 20.00    -0.092 Cl
ENDROOT
BRANCH   1   5
HETATM    5  C3  UNL     1     -34.113   3.923   3.989  1.00 20.00     0.150 C 
HETATM    6 CL6  UNL     1     -33.019   2.861   4.920  1.00 20.00    -0.128 Cl
ENDBRANCH   1   5
TORSDOF 1
ENDMDL
MODEL 9
REMARK VINA RESULT:      -1.3      2.144      3.351
REMARK  1 active torsions:
REMARK  status: ('A' for Active; 'I' for Inactive)
REMARK    1  A    between atoms: C1_1  and  C3_3 
ROOT
HETATM    1  C1  UNL     1     -33.483   6.845   2.187  1.00 20.00     0.181 A 
HETATM    2  C2  UNL     1     -32.365   5.881   1.916  1.00 20.00     0.247 A 
HETATM    3  O4  UNL     1     -32.183   7.296   1.789  1.00 20.00    -0.358 OA
HETATM    4 CL5  UNL     1     -32.392   4.902   0.476  1.00 20.00    -0.092 Cl
ENDROOT
BRANCH   1   5
HETATM    5  C3  UNL     1     -33.863   7.209   3.577  1.00 20.00     0.150 C 
HETATM    6 CL6  UNL     1     -35.292   6.286   4.123  1.00 20.00    -0.128 Cl
ENDBRANCH   1   5
TORSDOF 1
ENDMDL
