MODEL 1
REMARK VINA RESULT:      -1.6      0.000      0.000
REMARK  0 active torsions:
REMARK  status: ('A' for Active; 'I' for Inactive)
ROOT
HETATM    1  C1  UNL     1     -33.716   6.261   2.801  1.00 20.00    -0.025 A 
HETATM    2  C2  UNL     1     -32.856   6.071   1.785  1.00 20.00     0.003 A 
HETATM    3  C3  UNL     1     -33.445   7.596   3.454  1.00 20.00     0.061 A 
HETATM    4  C4  UNL     1     -31.934   7.199   1.590  1.00 20.00     0.173 A 
HETATM    5  C5  UNL     1     -32.239   8.150   2.731  1.00 20.00     0.158 A 
HETATM    6  O6  UNL     1     -32.402   8.539   1.369  1.00 20.00    -0.371 OA
ENDROOT
TORSDOF 0
ENDMDL
MODEL 2
REMARK VINA RESULT:      -1.5      1.517      2.642
REMARK  0 active torsions:
REMARK  status: ('A' for Active; 'I' for Inactive)
ROOT
HETATM    1  C1  UNL     1     -32.379   7.279   1.720  1.00 20.00    -0.025 A 
HETATM    2  C2  UNL     1     -32.682   8.038   2.787  1.00 20.00     0.003 A 
HETATM    3  C3  UNL     1     -33.032   5.924   1.858  1.00 20.00     0.061 A 
HETATM    4  C4  UNL     1     -33.560   7.357   3.750  1.00 20.00     0.173 A 
HETATM    5  C5  UNL     1     -33.710   5.949   3.207  1.00 20.00     0.158 A 
HETATM    6  O6  UNL     1     -34.834   6.812   3.370  1.00 20.00    -0.371 OA
ENDROOT
TORSDOF 0
ENDMDL
MODEL 3
REMARK VINA RESULT:      -1.3      1.175      1.999
REMARK  0 active torsions:
REMARK  status: ('A' for Active; 'I' for Inactive)
ROOT
HETATM    1  C1  UNL     1     -33.428   7.432   3.606  1.00 20.00    -0.025 A 
HETATM    2  C2  UNL     1     -32.553   8.009   2.764  1.00 20.00     0.003 A 
HETATM    3  C3  UNL     1     -33.866   6.098   3.048  1.00 20.00     0.061 A 
HETATM    4  C4  UNL     1     -32.263   7.188   1.579  1.00 20.00     0.173 A 
HETATM    5  C5  UNL     1     -33.186   5.992   1.703  1.00 20.00     0.158 A 
HETATM    6  O6  UNL     1     -31.768   5.843   1.685  1.00 20.00    -0.371 OA
ENDROOT
TORSDOF 0
ENDMDL
MODEL 4
REMARK VINA RESULT:      -1.2      0.724      1.762
REMARK  0 active torsions:
REMARK  status: ('A' for Active; 'I' for Inactive)
ROOT
HETATM    1  C1  UNL     1     -33.735   6.104   3.099  1.00 20.00    -0.025 A 
HETATM    2  C2  UNL     1     -33.635   7.386   3.491  1.00 20.00     0.003 A 
HETATM    3  C3  UNL     1     -32.942   5.898   1.830  1.00 20.00     0.061 A 
HETATM    4  C4  UNL     1     -32.786   8.197   2.607  1.00 20.00     0.173 A 
HETATM    5  C5  UNL     1     -32.413   7.267   1.469  1.00 20.00     0.158 A 
HETATM    6  O6  UNL     1     -31.424   7.842   2.320  1.00 20.00    -0.371 OA
ENDROOT
TORSDOF 0
ENDMDL
MODEL 5
REMARK VINA RESULT:      -1.2      1.846      2.454
REMARK  0 active torsions:
REMARK  status: ('A' for Active; 'I' for Inactive)
ROOT
HETATM    1  C1  UNL     1     -32.614   7.804   2.734  1.00 20.00    -0.025 A 
HETATM    2  C2  UNL     1     -32.603   6.745   1.908  1.00 20.00     0.003 A 
HETATM    3  C3  UNL     1     -33.682   7.618   3.786  1.00 20.00     0.061 A 
HETATM    4  C4  UNL     1     -33.595   5.721   2.267  1.00 20.00     0.173 A 
HETATM    5  C5  UNL     1     -34.370   6.323   3.423  1.00 20.00     0.158 A 
HETATM    6  O6  UNL     1     -33.629   5.114   3.569  1.00 20.00    -0.371 OA
ENDROOT
TORSDOF 0
ENDMDL
MODEL 6
REMARK VINA RESULT:      -1.2      1.184      1.592
REMARK  0 active torsions:
REMARK  status: ('A' for Active; 'I' for Inactive)
ROOT
HETATM    1  C1  UNL     1     -34.868   6.532   4.016  1.00 20.00    -0.025 A 
HETATM    2  C2  UNL     1     -34.290   5.570   3.277  1.00 20.00     0.003 A 
HETATM    3  C3  UNL     1     -34.045   7.796   3.941  1.00 20.00     0.061 A 
HETATM    4  C4  UNL     1     -33.062   6.019   2.603  1.00 20.00     0.173 A 
HETATM    5  C5  UNL     1     -32.839   7.431   3.108  1.00 20.00     0.158 A 
HETATM    6  O6  UNL     1     -33.044   7.155   1.725  1.00 20.00    -0.371 OA
ENDROOT
TORSDOF 0
ENDMDL
MODEL 7
REMARK VINA RESULT:      -1.2      1.271      2.009
REMARK  0 active torsions:
REMARK  status: ('A' for Active; 'I' for Inactive)
ROOT
HETATM    1  C1  UNL     1     -33.744   7.633   3.510  1.00 20.00    -0.025 A 
HETATM    2  C2  UNL     1     -34.084   6.334   3.449  1.00 20.00     0.003 A 
HETATM    3  C3  UNL     1     -32.634   7.915   2.526  1.00 20.00     0.061 A 
HETATM    4  C4  UNL     1     -33.312   5.581   2.450  1.00 20.00     0.173 A 
HETATM    5  C5  UNL     1     -32.298   6.574   1.916  1.00 20.00     0.158 A 
HETATM    6  O6  UNL     1     -33.270   5.968   1.067  1.00 20.00    -0.371 OA
ENDROOT
TORSDOF 0
ENDMDL
MODEL 8
REMARK VINA RESULT:      -1.1      1.620      2.469
REMARK  0 active torsions:
REMARK  status: ('A' for Active; 'I' for Inactive)
ROOT
HETATM    1  C1  UNL     1     -34.282   5.484   3.261  1.00 20.00    -0.025 A 
HETATM    2  C2  UNL     1     -34.904   6.347   4.083  1.00 20.00     0.003 A 
HETATM    3  C3  UNL     1     -33.148   6.184   2.551  1.00 20.00     0.061 A 
HETATM    4  C4  UNL     1     -34.302   7.689   4.073  1.00 20.00     0.173 A 
HETATM    5  C5  UNL     1     -33.226   7.622   3.007  1.00 20.00     0.158 A 
HETATM    6  O6  UNL     1     -32.913   7.906   4.369  1.00 20.00    -0.371 OA
ENDROOT
TORSDOF 0
ENDMDL
MODEL 9
REMARK VINA RESULT:      -1.1      1.357      2.034
REMARK  0 active torsions:
REMARK  status: ('A' for Active; 'I' for Inactive)
ROOT
HETATM    1  C1  UNL     1     -32.066   6.253   1.452  1.00 20.00    -0.025 A 
HETATM    2  C2  UNL     1     -33.132   5.736   2.087  1.00 20.00     0.003 A 
HETATM    3  C3  UNL     1     -31.937   7.720   1.787  1.00 20.00     0.061 A 
HETATM    4  C4  UNL     1     -33.839   6.717   2.923  1.00 20.00     0.173 A 
HETATM    5  C5  UNL     1     -33.132   8.032   2.656  1.00 20.00     0.158 A 
HETATM    6  O6  UNL     1     -33.174   7.457   3.960  1.00 20.00    -0.371 OA
ENDROOT
TORSDOF 0
ENDMDL
