MODEL 1
REMARK VINA RESULT:      -1.7      0.000      0.000
REMARK  1 active torsions:
REMARK  status: ('A' for Active; 'I' for Inactive)
REMARK    1  A    between atoms: C1_1  and  C3_3 
ROOT
HETATM    1  C1  UNL     1     -34.220   7.074   2.896  1.00 20.00     0.181 A 
HETATM    2  C2  UNL     1     -35.022   6.359   3.948  1.00 20.00     0.247 A 
HETATM    3  O4  UNL     1     -34.059   7.364   4.291  1.00 20.00    -0.358 OA
HETATM    4 CL5  UNL     1     -34.710   4.702   4.378  1.00 20.00    -0.092 Cl
ENDROOT
BRANCH   1   5
HETATM    5  C3  UNL     1     -33.013   6.497   2.249  1.00 20.00     0.150 C 
HETATM    6 CL6  UNL     1     -31.881   7.777   1.725  1.00 20.00    -0.128 Cl
ENDBRANCH   1   5
TORSDOF 1
ENDMDL
MODEL 2
REMARK VINA RESULT:      -1.6      1.815      3.202
REMARK  1 active torsions:
REMARK  status: ('A' for Active; 'I' for Inactive)
REMARK    1  A    between atoms: C1_1  and  C3_3 
ROOT
HETATM    1  C1  UNL     1     -34.762   5.538   4.380  1.00 20.00     0.181 A 
HETATM    2  C2  UNL     1     -34.487   6.991   4.107  1.00 20.00     0.247 A 
HETATM    3  O4  UNL     1     -35.652   6.336   3.590  1.00 20.00    -0.358 OA
HETATM    4 CL5  UNL     1     -33.241   7.503   3.006  1.00 20.00    -0.092 Cl
ENDROOT
BRANCH   1   5
HETATM    5  C3  UNL     1     -34.115   4.425   3.635  1.00 20.00     0.150 C 
HETATM    6 CL6  UNL     1     -33.445   3.200   4.750  1.00 20.00    -0.128 Cl
ENDBRANCH   1   5
TORSDOF 1
ENDMDL
MODEL 3
REMARK VINA RESULT:      -1.5      2.181      2.426
REMARK  1 active torsions:
REMARK  status: ('A' for Active; 'I' for Inactive)
REMARK    1  A    between atoms: C1_1  and  C3_3 
ROOT
HETATM    1  C1  UNL     1     -32.127   6.789   1.822  1.00 20.00     0.181 A 
HETATM    2  C2  UNL     1     -33.197   5.929   2.434  1.00 20.00     0.247 A 
HETATM    3  O4  UNL     1     -33.268   6.361   1.069  1.00 20.00    -0.358 OA
HETATM    4 CL5  UNL     1     -34.340   6.559   3.586  1.00 20.00    -0.092 Cl
ENDROOT
BRANCH   1   5
HETATM    5  C3  UNL     1     -32.042   8.261   2.019  1.00 20.00     0.150 C 
HETATM    6 CL6  UNL     1     -32.268   9.136   0.477  1.00 20.00    -0.128 Cl
ENDBRANCH   1   5
TORSDOF 1
ENDMDL
MODEL 4
REMARK VINA RESULT:      -1.5      2.262      4.020
REMARK  1 active torsions:
REMARK  status: ('A' for Active; 'I' for Inactive)
REMARK    1  A    between atoms: C1_1  and  C3_3 
ROOT
HETATM    1  C1  UNL     1     -32.558   7.403   2.159  1.00 20.00     0.181 A 
HETATM    2  C2  UNL     1     -32.069   8.268   1.031  1.00 20.00     0.247 A 
HETATM    3  O4  UNL     1     -31.253   7.993   2.176  1.00 20.00    -0.358 OA
HETATM    4 CL5  UNL     1     -32.667   9.883   0.781  1.00 20.00    -0.092 Cl
ENDROOT
BRANCH   1   5
HETATM    5  C3  UNL     1     -33.462   7.888   3.235  1.00 20.00     0.150 C 
HETATM    6 CL6  UNL     1     -34.618   6.619   3.734  1.00 20.00    -0.128 Cl
ENDBRANCH   1   5
TORSDOF 1
ENDMDL
MODEL 5
REMARK VINA RESULT:      -1.5      1.995      3.070
REMARK  1 active torsions:
REMARK  status: ('A' for Active; 'I' for Inactive)
REMARK    1  A    between atoms: C1_1  and  C3_3 
ROOT
HETATM    1  C1  UNL     1     -34.930   6.241   3.510  1.00 20.00     0.181 A 
HETATM    2  C2  UNL     1     -34.119   7.496   3.675  1.00 20.00     0.247 A 
HETATM    3  O4  UNL     1     -33.625   6.373   2.934  1.00 20.00    -0.358 OA
HETATM    4 CL5  UNL     1     -33.365   7.916   5.186  1.00 20.00    -0.092 Cl
ENDROOT
BRANCH   1   5
HETATM    5  C3  UNL     1     -35.033   5.186   4.553  1.00 20.00     0.150 C 
HETATM    6 CL6  UNL     1     -33.903   3.839   4.229  1.00 20.00    -0.128 Cl
ENDBRANCH   1   5
TORSDOF 1
ENDMDL
MODEL 6
REMARK VINA RESULT:      -1.4      2.069      3.538
REMARK  1 active torsions:
REMARK  status: ('A' for Active; 'I' for Inactive)
REMARK    1  A    between atoms: C1_1  and  C3_3 
ROOT
HETATM    1  C1  UNL     1     -33.340   5.845   1.887  1.00 20.00     0.181 A 
HETATM    2  C2  UNL     1     -32.438   6.931   1.370  1.00 20.00     0.247 A 
HETATM    3  O4  UNL     1     -31.979   5.582   1.524  1.00 20.00    -0.358 OA
HETATM    4 CL5  UNL     1     -31.797   8.171   2.409  1.00 20.00    -0.092 Cl
ENDROOT
BRANCH   1   5
HETATM    5  C3  UNL     1     -33.638   5.641   3.330  1.00 20.00     0.150 C 
HETATM    6 CL6  UNL     1     -35.099   6.544   3.826  1.00 20.00    -0.128 Cl
ENDBRANCH   1   5
TORSDOF 1
ENDMDL
MODEL 7
REMARK VINA RESULT:      -1.2      2.656      3.238
REMARK  1 active torsions:
REMARK  status: ('A' for Active; 'I' for Inactive)
REMARK    1  A    between atoms: C1_1  and  C3_3 
ROOT
HETATM    1  C1  UNL     1     -32.456   8.648   1.679  1.00 20.00     0.181 A 
HETATM    2  C2  UNL     1     -32.715   7.295   2.281  1.00 20.00     0.247 A 
HETATM    3  O4  UNL     1     -31.529   8.039   2.586  1.00 20.00    -0.358 OA
HETATM    4 CL5  UNL     1     -32.585   5.830   1.351  1.00 20.00    -0.092 Cl
ENDROOT
BRANCH   1   5
HETATM    5  C3  UNL     1     -31.924   8.848   0.305  1.00 20.00     0.150 C 
HETATM    6 CL6  UNL     1     -32.817  10.134  -0.557  1.00 20.00    -0.128 Cl
ENDBRANCH   1   5
TORSDOF 1
ENDMDL
MODEL 8
REMARK VINA RESULT:      -1.2      1.170      3.015
REMARK  1 active torsions:
REMARK  status: ('A' for Active; 'I' for Inactive)
REMARK    1  A    between atoms: C1_1  and  C3_3 
ROOT
HETATM    1  C1  UNL     1     -34.189   7.105   4.173  1.00 20.00     0.181 A 
HETATM    2  C2  UNL     1     -33.173   7.375   3.098  1.00 20.00     0.247 A 
HETATM    3  O4  UNL     1     -34.354   8.176   3.235  1.00 20.00    -0.358 OA
HETATM    4 CL5  UNL     1     -33.004   6.342   1.708  1.00 20.00    -0.092 Cl
ENDROOT
BRANCH   1   5
HETATM    5  C3  UNL     1     -35.226   6.044   4.076  1.00 20.00     0.150 C 
HETATM    6 CL6  UNL     1     -34.512   4.418   4.275  1.00 20.00    -0.128 Cl
ENDBRANCH   1   5
TORSDOF 1
ENDMDL
MODEL 9
REMARK VINA RESULT:      -1.1      1.929      3.189
REMARK  1 active torsions:
REMARK  status: ('A' for Active; 'I' for Inactive)
REMARK    1  A    between atoms: C1_1  and  C3_3 
ROOT
HETATM    1  C1  UNL     1     -32.651   7.633   3.004  1.00 20.00     0.181 A 
HETATM    2  C2  UNL     1     -32.026   6.855   1.879  1.00 20.00     0.247 A 
HETATM    3  O4  UNL     1     -32.384   8.235   1.730  1.00 20.00    -0.358 OA
HETATM    4 CL5  UNL     1     -32.909   5.647   0.991  1.00 20.00    -0.092 Cl
ENDROOT
BRANCH   1   5
HETATM    5  C3  UNL     1     -34.094   7.558   3.353  1.00 20.00     0.150 C 
HETATM    6 CL6  UNL     1     -34.523   5.948   4.001  1.00 20.00    -0.128 Cl
ENDBRANCH   1   5
TORSDOF 1
ENDMDL
