MODEL 1
REMARK VINA RESULT:      -2.4      0.000      0.000
REMARK  3 active torsions:
REMARK  status: ('A' for Active; 'I' for Inactive)
REMARK    1  A    between atoms: C1_1  and  C2_2 
REMARK    2  A    between atoms: C1_1  and  C3_3 
REMARK    3  A    between atoms: C2_2  and  S8_8 
ROOT
HETATM    1  C1  UNL     1     -33.080   6.997   2.475  1.00 20.00     0.241 C 
HETATM    2  O4  UNL     1     -33.192   5.932   1.869  1.00 20.00    -0.287 OA
ENDROOT
BRANCH   1   3
HETATM    3  C2  UNL     1     -33.946   7.394   3.653  1.00 20.00     0.158 C 
BRANCH   3   4
HETATM    4  S8  UNL     1     -35.193   6.140   4.026  1.00 20.00    -0.174 SA
HETATM    5  H11 UNL     1     -34.386   5.078   3.886  1.00 20.00     0.102 HD
ENDBRANCH   3   4
ENDBRANCH   1   3
BRANCH   1   6
HETATM    6  C3  UNL     1     -32.041   8.002   2.062  1.00 20.00     0.451 C 
HETATM    7  F5  UNL     1     -31.433   8.567   3.136  1.00 20.00    -0.163 F 
HETATM    8  F6  UNL     1     -31.066   7.437   1.307  1.00 20.00    -0.163 F 
HETATM    9  F7  UNL     1     -32.569   9.015   1.331  1.00 20.00    -0.163 F 
ENDBRANCH   1   6
TORSDOF 3
ENDMDL
MODEL 2
REMARK VINA RESULT:      -2.4      0.013      1.337
REMARK  3 active torsions:
REMARK  status: ('A' for Active; 'I' for Inactive)
REMARK    1  A    between atoms: C1_1  and  C2_2 
REMARK    2  A    between atoms: C1_1  and  C3_3 
REMARK    3  A    between atoms: C2_2  and  S8_8 
ROOT
HETATM    1  C1  UNL     1     -33.071   6.994   2.472  1.00 20.00     0.241 C 
HETATM    2  O4  UNL     1     -33.184   5.931   1.862  1.00 20.00    -0.287 OA
ENDROOT
BRANCH   1   3
HETATM    3  C2  UNL     1     -33.933   7.384   3.655  1.00 20.00     0.158 C 
BRANCH   3   4
HETATM    4  S8  UNL     1     -35.183   6.132   4.022  1.00 20.00    -0.174 SA
HETATM    5  H11 UNL     1     -35.437   6.536   5.275  1.00 20.00     0.102 HD
ENDBRANCH   3   4
ENDBRANCH   1   3
BRANCH   1   6
HETATM    6  C3  UNL     1     -32.033   8.001   2.061  1.00 20.00     0.451 C 
HETATM    7  F5  UNL     1     -32.571   9.005   1.324  1.00 20.00    -0.163 F 
HETATM    8  F6  UNL     1     -31.434   8.573   3.135  1.00 20.00    -0.163 F 
HETATM    9  F7  UNL     1     -31.049   7.445   1.310  1.00 20.00    -0.163 F 
ENDBRANCH   1   6
TORSDOF 3
ENDMDL
MODEL 3
REMARK VINA RESULT:      -2.3      3.372      3.792
REMARK  3 active torsions:
REMARK  status: ('A' for Active; 'I' for Inactive)
REMARK    1  A    between atoms: C1_1  and  C2_2 
REMARK    2  A    between atoms: C1_1  and  C3_3 
REMARK    3  A    between atoms: C2_2  and  S8_8 
ROOT
HETATM    1  C1  UNL     1     -33.744   6.453   2.990  1.00 20.00     0.241 C 
HETATM    2  O4  UNL     1     -33.435   5.527   2.242  1.00 20.00    -0.287 OA
ENDROOT
BRANCH   1   3
HETATM    3  C2  UNL     1     -32.976   7.756   3.083  1.00 20.00     0.158 C 
BRANCH   3   4
HETATM    4  S8  UNL     1     -31.911   8.016   1.647  1.00 20.00    -0.174 SA
HETATM    5  H11 UNL     1     -31.219   9.045   2.157  1.00 20.00     0.102 HD
ENDBRANCH   3   4
ENDBRANCH   1   3
BRANCH   1   6
HETATM    6  C3  UNL     1     -34.946   6.339   3.888  1.00 20.00     0.451 C 
HETATM    7  F5  UNL     1     -34.868   7.189   4.942  1.00 20.00    -0.163 F 
HETATM    8  F6  UNL     1     -36.095   6.628   3.229  1.00 20.00    -0.163 F 
HETATM    9  F7  UNL     1     -35.087   5.090   4.398  1.00 20.00    -0.163 F 
ENDBRANCH   1   6
TORSDOF 3
ENDMDL
MODEL 4
REMARK VINA RESULT:      -2.3      3.368      3.765
REMARK  3 active torsions:
REMARK  status: ('A' for Active; 'I' for Inactive)
REMARK    1  A    between atoms: C1_1  and  C2_2 
REMARK    2  A    between atoms: C1_1  and  C3_3 
REMARK    3  A    between atoms: C2_2  and  S8_8 
ROOT
HETATM    1  C1  UNL     1     -33.735   6.460   2.985  1.00 20.00     0.241 C 
HETATM    2  O4  UNL     1     -33.426   5.534   2.235  1.00 20.00    -0.287 OA
ENDROOT
BRANCH   1   3
HETATM    3  C2  UNL     1     -32.966   7.761   3.080  1.00 20.00     0.158 C 
BRANCH   3   4
HETATM    4  S8  UNL     1     -31.910   8.029   1.637  1.00 20.00    -0.174 SA
HETATM    5  H11 UNL     1     -30.778   8.254   2.320  1.00 20.00     0.102 HD
ENDBRANCH   3   4
ENDBRANCH   1   3
BRANCH   1   6
HETATM    6  C3  UNL     1     -34.936   6.345   3.882  1.00 20.00     0.451 C 
HETATM    7  F5  UNL     1     -35.067   5.094   4.390  1.00 20.00    -0.163 F 
HETATM    8  F6  UNL     1     -34.860   7.196   4.935  1.00 20.00    -0.163 F 
HETATM    9  F7  UNL     1     -36.091   6.628   3.229  1.00 20.00    -0.163 F 
ENDBRANCH   1   6
TORSDOF 3
ENDMDL
MODEL 5
REMARK VINA RESULT:      -2.3      3.382      3.809
REMARK  3 active torsions:
REMARK  status: ('A' for Active; 'I' for Inactive)
REMARK    1  A    between atoms: C1_1  and  C2_2 
REMARK    2  A    between atoms: C1_1  and  C3_3 
REMARK    3  A    between atoms: C2_2  and  S8_8 
ROOT
HETATM    1  C1  UNL     1     -33.752   6.444   2.998  1.00 20.00     0.241 C 
HETATM    2  O4  UNL     1     -33.429   5.508   2.268  1.00 20.00    -0.287 OA
ENDROOT
BRANCH   1   3
HETATM    3  C2  UNL     1     -33.001   7.757   3.070  1.00 20.00     0.158 C 
BRANCH   3   4
HETATM    4  S8  UNL     1     -31.913   7.992   1.646  1.00 20.00    -0.174 SA
HETATM    5  H11 UNL     1     -31.554   9.251   1.938  1.00 20.00     0.102 HD
ENDBRANCH   3   4
ENDBRANCH   1   3
BRANCH   1   6
HETATM    6  C3  UNL     1     -34.956   6.331   3.892  1.00 20.00     0.451 C 
HETATM    7  F5  UNL     1     -36.103   6.627   3.231  1.00 20.00    -0.163 F 
HETATM    8  F6  UNL     1     -35.097   5.078   4.391  1.00 20.00    -0.163 F 
HETATM    9  F7  UNL     1     -34.886   7.172   4.954  1.00 20.00    -0.163 F 
ENDBRANCH   1   6
TORSDOF 3
ENDMDL
MODEL 6
REMARK VINA RESULT:      -2.2      2.952      3.335
REMARK  3 active torsions:
REMARK  status: ('A' for Active; 'I' for Inactive)
REMARK    1  A    between atoms: C1_1  and  C2_2 
REMARK    2  A    between atoms: C1_1  and  C3_3 
REMARK    3  A    between atoms: C2_2  and  S8_8 
ROOT
HETATM    1  C1  UNL     1     -32.660   7.317   2.205  1.00 20.00     0.241 C 
HETATM    2  O4  UNL     1     -33.353   7.686   3.152  1.00 20.00    -0.287 OA
ENDROOT
BRANCH   1   3
HETATM    3  C2  UNL     1     -31.651   8.200   1.501  1.00 20.00     0.158 C 
BRANCH   3   4
HETATM    4  S8  UNL     1     -32.452   9.486   0.514  1.00 20.00    -0.174 SA
HETATM    5  H11 UNL     1     -33.714   9.123   0.791  1.00 20.00     0.102 HD
ENDBRANCH   3   4
ENDBRANCH   1   3
BRANCH   1   6
HETATM    6  C3  UNL     1     -32.782   5.915   1.674  1.00 20.00     0.451 C 
HETATM    7  F5  UNL     1     -31.579   5.410   1.304  1.00 20.00    -0.163 F 
HETATM    8  F6  UNL     1     -33.300   5.069   2.599  1.00 20.00    -0.163 F 
HETATM    9  F7  UNL     1     -33.588   5.849   0.584  1.00 20.00    -0.163 F 
ENDBRANCH   1   6
TORSDOF 3
ENDMDL
MODEL 7
REMARK VINA RESULT:      -1.9      3.686      4.111
REMARK  3 active torsions:
REMARK  status: ('A' for Active; 'I' for Inactive)
REMARK    1  A    between atoms: C1_1  and  C2_2 
REMARK    2  A    between atoms: C1_1  and  C3_3 
REMARK    3  A    between atoms: C2_2  and  S8_8 
ROOT
HETATM    1  C1  UNL     1     -33.922   7.019   3.603  1.00 20.00     0.241 C 
HETATM    2  O4  UNL     1     -33.548   7.954   4.309  1.00 20.00    -0.287 OA
ENDROOT
BRANCH   1   3
HETATM    3  C2  UNL     1     -33.233   6.600   2.321  1.00 20.00     0.158 C 
BRANCH   3   4
HETATM    4  S8  UNL     1     -32.020   7.825   1.776  1.00 20.00    -0.174 SA
HETATM    5  H11 UNL     1     -32.879   8.850   1.670  1.00 20.00     0.102 HD
ENDBRANCH   3   4
ENDBRANCH   1   3
BRANCH   1   6
HETATM    6  C3  UNL     1     -35.130   6.210   3.987  1.00 20.00     0.451 C 
HETATM    7  F5  UNL     1     -34.880   4.878   3.940  1.00 20.00    -0.163 F 
HETATM    8  F6  UNL     1     -35.544   6.492   5.248  1.00 20.00    -0.163 F 
HETATM    9  F7  UNL     1     -36.185   6.443   3.166  1.00 20.00    -0.163 F 
ENDBRANCH   1   6
TORSDOF 3
ENDMDL
MODEL 8
REMARK VINA RESULT:      -1.9      3.685      4.107
REMARK  3 active torsions:
REMARK  status: ('A' for Active; 'I' for Inactive)
REMARK    1  A    between atoms: C1_1  and  C2_2 
REMARK    2  A    between atoms: C1_1  and  C3_3 
REMARK    3  A    between atoms: C2_2  and  S8_8 
ROOT
HETATM    1  C1  UNL     1     -33.919   7.020   3.598  1.00 20.00     0.241 C 
HETATM    2  O4  UNL     1     -33.536   7.948   4.308  1.00 20.00    -0.287 OA
ENDROOT
BRANCH   1   3
HETATM    3  C2  UNL     1     -33.244   6.610   2.306  1.00 20.00     0.158 C 
BRANCH   3   4
HETATM    4  S8  UNL     1     -32.013   7.823   1.773  1.00 20.00    -0.174 SA
HETATM    5  H11 UNL     1     -31.606   8.172   3.002  1.00 20.00     0.102 HD
ENDBRANCH   3   4
ENDBRANCH   1   3
BRANCH   1   6
HETATM    6  C3  UNL     1     -35.125   6.211   3.988  1.00 20.00     0.451 C 
HETATM    7  F5  UNL     1     -35.537   6.497   5.248  1.00 20.00    -0.163 F 
HETATM    8  F6  UNL     1     -36.177   6.446   3.164  1.00 20.00    -0.163 F 
HETATM    9  F7  UNL     1     -34.883   4.877   3.946  1.00 20.00    -0.163 F 
ENDBRANCH   1   6
TORSDOF 3
ENDMDL
MODEL 9
REMARK VINA RESULT:      -1.8      3.318      3.798
REMARK  3 active torsions:
REMARK  status: ('A' for Active; 'I' for Inactive)
REMARK    1  A    between atoms: C1_1  and  C2_2 
REMARK    2  A    between atoms: C1_1  and  C3_3 
REMARK    3  A    between atoms: C2_2  and  S8_8 
ROOT
HETATM    1  C1  UNL     1     -34.690   5.114   4.153  1.00 20.00     0.241 C 
HETATM    2  O4  UNL     1     -35.594   4.680   4.867  1.00 20.00    -0.287 OA
ENDROOT
BRANCH   1   3
HETATM    3  C2  UNL     1     -33.522   4.280   3.669  1.00 20.00     0.158 C 
BRANCH   3   4
HETATM    4  S8  UNL     1     -33.189   2.883   4.766  1.00 20.00    -0.174 SA
HETATM    5  H11 UNL     1     -31.859   2.874   4.598  1.00 20.00     0.102 HD
ENDBRANCH   3   4
ENDBRANCH   1   3
BRANCH   1   6
HETATM    6  C3  UNL     1     -34.695   6.550   3.707  1.00 20.00     0.451 C 
HETATM    7  F5  UNL     1     -33.732   6.794   2.783  1.00 20.00    -0.163 F 
HETATM    8  F6  UNL     1     -35.880   6.899   3.147  1.00 20.00    -0.163 F 
HETATM    9  F7  UNL     1     -34.479   7.407   4.737  1.00 20.00    -0.163 F 
ENDBRANCH   1   6
TORSDOF 3
ENDMDL
