MODEL 1
REMARK VINA RESULT:      -2.0      0.000      0.000
REMARK  1 active torsions:
REMARK  status: ('A' for Active; 'I' for Inactive)
REMARK    1  A    between atoms: C2_2  and  C4_4 
ROOT
HETATM    1  C3  UNL     1     -34.959   6.558   3.625  1.00 20.00     0.205 A 
HETATM    2  C4  UNL     1     -33.476   6.618   3.559  1.00 20.00     0.173 A 
HETATM    3  O6  UNL     1     -34.222   7.696   4.086  1.00 20.00    -0.377 OA
ENDROOT
BRANCH   2   4
HETATM    4  C2  UNL     1     -32.856   6.705   2.196  1.00 20.00    -0.062 C 
HETATM    5  C1  UNL     1     -32.872   5.670   1.342  1.00 20.00     0.016 C 
HETATM    6  C5  UNL     1     -32.218   8.015   1.841  1.00 20.00     0.045 C 
ENDBRANCH   2   4
TORSDOF 1
ENDMDL
MODEL 2
REMARK VINA RESULT:      -1.9      1.510      2.728
REMARK  1 active torsions:
REMARK  status: ('A' for Active; 'I' for Inactive)
REMARK    1  A    between atoms: C2_2  and  C4_4 
ROOT
HETATM    1  C3  UNL     1     -32.663   5.913   1.849  1.00 20.00     0.205 A 
HETATM    2  C4  UNL     1     -33.622   6.994   2.195  1.00 20.00     0.173 A 
HETATM    3  O6  UNL     1     -32.261   7.284   1.951  1.00 20.00    -0.377 OA
ENDROOT
BRANCH   2   4
HETATM    4  C2  UNL     1     -34.171   6.998   3.592  1.00 20.00    -0.062 C 
HETATM    5  C1  UNL     1     -35.161   6.176   3.967  1.00 20.00     0.016 C 
HETATM    6  C5  UNL     1     -33.547   7.975   4.544  1.00 20.00     0.045 C 
ENDBRANCH   2   4
TORSDOF 1
ENDMDL
MODEL 3
REMARK VINA RESULT:      -1.9      1.521      3.054
REMARK  1 active torsions:
REMARK  status: ('A' for Active; 'I' for Inactive)
REMARK    1  A    between atoms: C2_2  and  C4_4 
ROOT
HETATM    1  C3  UNL     1     -32.715   5.904   1.837  1.00 20.00     0.205 A 
HETATM    2  C4  UNL     1     -33.607   7.036   2.199  1.00 20.00     0.173 A 
HETATM    3  O6  UNL     1     -32.246   7.257   1.890  1.00 20.00    -0.377 OA
ENDROOT
BRANCH   2   4
HETATM    4  C2  UNL     1     -34.094   7.096   3.617  1.00 20.00    -0.062 C 
HETATM    5  C1  UNL     1     -33.561   7.937   4.515  1.00 20.00     0.016 C 
HETATM    6  C5  UNL     1     -35.211   6.160   3.972  1.00 20.00     0.045 C 
ENDBRANCH   2   4
TORSDOF 1
ENDMDL
MODEL 4
REMARK VINA RESULT:      -1.7      1.760      2.809
REMARK  1 active torsions:
REMARK  status: ('A' for Active; 'I' for Inactive)
REMARK    1  A    between atoms: C2_2  and  C4_4 
ROOT
HETATM    1  C3  UNL     1     -32.384   8.764   1.115  1.00 20.00     0.205 A 
HETATM    2  C4  UNL     1     -32.264   7.927   2.337  1.00 20.00     0.173 A 
HETATM    3  O6  UNL     1     -31.216   7.981   1.390  1.00 20.00    -0.377 OA
ENDROOT
BRANCH   2   4
HETATM    4  C2  UNL     1     -33.156   6.724   2.430  1.00 20.00    -0.062 C 
HETATM    5  C1  UNL     1     -32.998   5.660   1.628  1.00 20.00     0.016 C 
HETATM    6  C5  UNL     1     -34.234   6.779   3.471  1.00 20.00     0.045 C 
ENDBRANCH   2   4
TORSDOF 1
ENDMDL
MODEL 5
REMARK VINA RESULT:      -1.7      1.761      2.975
REMARK  1 active torsions:
REMARK  status: ('A' for Active; 'I' for Inactive)
REMARK    1  A    between atoms: C2_2  and  C4_4 
ROOT
HETATM    1  C3  UNL     1     -32.380   8.784   1.146  1.00 20.00     0.205 A 
HETATM    2  C4  UNL     1     -32.244   7.978   2.388  1.00 20.00     0.173 A 
HETATM    3  O6  UNL     1     -31.259   7.922   1.377  1.00 20.00    -0.377 OA
ENDROOT
BRANCH   2   4
HETATM    4  C2  UNL     1     -33.214   6.850   2.580  1.00 20.00    -0.062 C 
HETATM    5  C1  UNL     1     -34.188   6.902   3.501  1.00 20.00     0.016 C 
HETATM    6  C5  UNL     1     -33.034   5.662   1.682  1.00 20.00     0.045 C 
ENDBRANCH   2   4
TORSDOF 1
ENDMDL
MODEL 6
REMARK VINA RESULT:      -1.1      2.776      3.851
REMARK  1 active torsions:
REMARK  status: ('A' for Active; 'I' for Inactive)
REMARK    1  A    between atoms: C2_2  and  C4_4 
ROOT
HETATM    1  C3  UNL     1     -32.620  10.252   0.419  1.00 20.00     0.205 A 
HETATM    2  C4  UNL     1     -31.831   8.993   0.458  1.00 20.00     0.173 A 
HETATM    3  O6  UNL     1     -32.788   9.216  -0.557  1.00 20.00    -0.377 OA
ENDROOT
BRANCH   2   4
HETATM    4  C2  UNL     1     -32.113   8.046   1.587  1.00 20.00    -0.062 C 
HETATM    5  C1  UNL     1     -32.122   8.449   2.866  1.00 20.00     0.016 C 
HETATM    6  C5  UNL     1     -32.385   6.621   1.203  1.00 20.00     0.045 C 
ENDBRANCH   2   4
TORSDOF 1
ENDMDL
MODEL 7
REMARK VINA RESULT:      -1.1      1.606      2.162
REMARK  1 active torsions:
REMARK  status: ('A' for Active; 'I' for Inactive)
REMARK    1  A    between atoms: C2_2  and  C4_4 
ROOT
HETATM    1  C3  UNL     1     -35.390   5.986   4.097  1.00 20.00     0.205 A 
HETATM    2  C4  UNL     1     -34.246   6.228   3.181  1.00 20.00     0.173 A 
HETATM    3  O6  UNL     1     -34.252   5.118   4.054  1.00 20.00    -0.377 OA
ENDROOT
BRANCH   2   4
HETATM    4  C2  UNL     1     -33.386   7.425   3.463  1.00 20.00    -0.062 C 
HETATM    5  C1  UNL     1     -33.464   8.096   4.622  1.00 20.00     0.016 C 
HETATM    6  C5  UNL     1     -32.435   7.828   2.376  1.00 20.00     0.045 C 
ENDBRANCH   2   4
TORSDOF 1
ENDMDL
MODEL 8
REMARK VINA RESULT:      -1.0      1.337      2.102
REMARK  1 active torsions:
REMARK  status: ('A' for Active; 'I' for Inactive)
REMARK    1  A    between atoms: C2_2  and  C4_4 
ROOT
HETATM    1  C3  UNL     1     -33.915   7.701   4.258  1.00 20.00     0.205 A 
HETATM    2  C4  UNL     1     -34.462   6.791   3.217  1.00 20.00     0.173 A 
HETATM    3  O6  UNL     1     -35.039   6.847   4.506  1.00 20.00    -0.377 OA
ENDROOT
BRANCH   2   4
HETATM    4  C2  UNL     1     -33.605   5.630   2.807  1.00 20.00    -0.062 C 
HETATM    5  C1  UNL     1     -32.758   5.706   1.770  1.00 20.00     0.016 C 
HETATM    6  C5  UNL     1     -33.751   4.380   3.623  1.00 20.00     0.045 C 
ENDBRANCH   2   4
TORSDOF 1
ENDMDL
MODEL 9
REMARK VINA RESULT:      -1.0      1.555      2.025
REMARK  1 active torsions:
REMARK  status: ('A' for Active; 'I' for Inactive)
REMARK    1  A    between atoms: C2_2  and  C4_4 
ROOT
HETATM    1  C3  UNL     1     -35.367   6.131   4.028  1.00 20.00     0.205 A 
HETATM    2  C4  UNL     1     -34.210   6.253   3.103  1.00 20.00     0.173 A 
HETATM    3  O6  UNL     1     -34.273   5.205   4.049  1.00 20.00    -0.377 OA
ENDROOT
BRANCH   2   4
HETATM    4  C2  UNL     1     -33.292   7.422   3.309  1.00 20.00    -0.062 C 
HETATM    5  C1  UNL     1     -32.430   7.822   2.363  1.00 20.00     0.016 C 
HETATM    6  C5  UNL     1     -33.395   8.118   4.634  1.00 20.00     0.045 C 
ENDBRANCH   2   4
TORSDOF 1
ENDMDL
