MODEL 1
REMARK VINA RESULT:       0.5      0.000      0.000
REMARK  2 active torsions:
REMARK  status: ('A' for Active; 'I' for Inactive)
REMARK    1  A    between atoms: C4_4  and  C7_7 
REMARK    2  A    between atoms: C8_8  and  O11_11 
ROOT
HETATM    1  C1  UNL     1     -35.028   5.934   4.106  1.00 20.00    -0.019 C 
HETATM    2  C2  UNL     1     -34.791   4.708   4.595  1.00 20.00     0.007 C 
HETATM    3  C5  UNL     1     -33.363   5.522   2.259  1.00 20.00     0.016 C 
HETATM    4  C6  UNL     1     -32.654   4.578   3.236  1.00 20.00     0.042 C 
HETATM    5  C7  UNL     1     -34.225   6.564   2.998  1.00 20.00     0.036 C 
HETATM    6  C8  UNL     1     -33.665   3.825   4.124  1.00 20.00     0.072 C 
HETATM    7  C10 UNL     1     -32.945   3.188   5.316  1.00 20.00     0.050 C 
ENDROOT
BRANCH   5   8
HETATM    8  C4  UNL     1     -33.394   7.698   3.525  1.00 20.00    -0.085 C 
HETATM    9  C3  UNL     1     -33.575   8.197   4.757  1.00 20.00     0.014 C 
HETATM   10  C9  UNL     1     -32.350   8.241   2.596  1.00 20.00     0.043 C 
ENDBRANCH   5   8
BRANCH   6  11
HETATM   11  O11 UNL     1     -34.262   2.773   3.359  1.00 20.00    -0.386 OA
HETATM   12  H27 UNL     1     -34.668   2.170   3.998  1.00 20.00     0.211 HD
ENDBRANCH   6  11
TORSDOF 2
ENDMDL
MODEL 2
REMARK VINA RESULT:       0.6      2.087      3.498
REMARK  2 active torsions:
REMARK  status: ('A' for Active; 'I' for Inactive)
REMARK    1  A    between atoms: C4_4  and  C7_7 
REMARK    2  A    between atoms: C8_8  and  O11_11 
ROOT
HETATM    1  C1  UNL     1     -32.563   6.740   1.274  1.00 20.00    -0.019 C 
HETATM    2  C2  UNL     1     -33.471   6.087   2.014  1.00 20.00     0.007 C 
HETATM    3  C5  UNL     1     -32.111   8.299   3.203  1.00 20.00     0.016 C 
HETATM    4  C6  UNL     1     -33.558   8.037   3.633  1.00 20.00     0.042 C 
HETATM    5  C7  UNL     1     -31.903   8.027   1.701  1.00 20.00     0.036 C 
HETATM    6  C8  UNL     1     -33.976   6.581   3.345  1.00 20.00     0.072 C 
HETATM    7  C10 UNL     1     -35.499   6.445   3.428  1.00 20.00     0.050 C 
ENDROOT
BRANCH   5   8
HETATM    8  C4  UNL     1     -32.383   9.172   0.857  1.00 20.00    -0.085 C 
HETATM    9  C3  UNL     1     -32.737  10.349   1.395  1.00 20.00     0.014 C 
HETATM   10  C9  UNL     1     -32.444   8.926  -0.620  1.00 20.00     0.043 C 
ENDBRANCH   5   8
BRANCH   6  11
HETATM   11  O11 UNL     1     -33.404   5.728   4.341  1.00 20.00    -0.386 OA
HETATM   12  H27 UNL     1     -32.833   5.105   3.870  1.00 20.00     0.211 HD
ENDBRANCH   6  11
TORSDOF 2
ENDMDL
MODEL 3
REMARK VINA RESULT:       0.7      0.066      1.061
REMARK  2 active torsions:
REMARK  status: ('A' for Active; 'I' for Inactive)
REMARK    1  A    between atoms: C4_4  and  C7_7 
REMARK    2  A    between atoms: C8_8  and  O11_11 
ROOT
HETATM    1  C1  UNL     1     -34.985   5.967   4.060  1.00 20.00    -0.019 C 
HETATM    2  C2  UNL     1     -34.762   4.749   4.575  1.00 20.00     0.007 C 
HETATM    3  C5  UNL     1     -33.343   5.487   2.209  1.00 20.00     0.016 C 
HETATM    4  C6  UNL     1     -32.639   4.554   3.200  1.00 20.00     0.042 C 
HETATM    5  C7  UNL     1     -34.182   6.559   2.931  1.00 20.00     0.036 C 
HETATM    6  C8  UNL     1     -33.654   3.838   4.114  1.00 20.00     0.072 C 
HETATM    7  C10 UNL     1     -32.933   3.217   5.314  1.00 20.00     0.050 C 
ENDROOT
BRANCH   5   8
HETATM    8  C4  UNL     1     -33.329   7.692   3.425  1.00 20.00    -0.085 C 
HETATM    9  C3  UNL     1     -32.374   8.246   2.662  1.00 20.00     0.014 C 
HETATM   10  C9  UNL     1     -33.606   8.169   4.819  1.00 20.00     0.043 C 
ENDBRANCH   5   8
BRANCH   6  11
HETATM   11  O11 UNL     1     -34.274   2.778   3.379  1.00 20.00    -0.386 OA
HETATM   12  H27 UNL     1     -33.903   2.816   2.486  1.00 20.00     0.211 HD
ENDBRANCH   6  11
TORSDOF 2
ENDMDL
MODEL 4
REMARK VINA RESULT:       1.1      2.042      3.537
REMARK  2 active torsions:
REMARK  status: ('A' for Active; 'I' for Inactive)
REMARK    1  A    between atoms: C4_4  and  C7_7 
REMARK    2  A    between atoms: C8_8  and  O11_11 
ROOT
HETATM    1  C1  UNL     1     -32.491   6.519   1.393  1.00 20.00    -0.019 C 
HETATM    2  C2  UNL     1     -33.465   5.912   2.087  1.00 20.00     0.007 C 
HETATM    3  C5  UNL     1     -32.164   8.159   3.278  1.00 20.00     0.016 C 
HETATM    4  C6  UNL     1     -33.645   7.937   3.605  1.00 20.00     0.042 C 
HETATM    5  C7  UNL     1     -31.846   7.815   1.811  1.00 20.00     0.036 C 
HETATM    6  C8  UNL     1     -34.063   6.474   3.351  1.00 20.00     0.072 C 
HETATM    7  C10 UNL     1     -35.590   6.362   3.321  1.00 20.00     0.050 C 
ENDROOT
BRANCH   5   8
HETATM    8  C4  UNL     1     -32.240   8.926   0.881  1.00 20.00    -0.085 C 
HETATM    9  C3  UNL     1     -31.978   8.877  -0.434  1.00 20.00     0.014 C 
HETATM   10  C9  UNL     1     -32.942  10.093   1.507  1.00 20.00     0.043 C 
ENDBRANCH   5   8
BRANCH   6  11
HETATM   11  O11 UNL     1     -33.585   5.661   4.427  1.00 20.00    -0.386 OA
HETATM   12  H27 UNL     1     -33.502   6.247   5.193  1.00 20.00     0.211 HD
ENDBRANCH   6  11
TORSDOF 2
ENDMDL
MODEL 5
REMARK VINA RESULT:       1.1      2.198      4.273
REMARK  2 active torsions:
REMARK  status: ('A' for Active; 'I' for Inactive)
REMARK    1  A    between atoms: C4_4  and  C7_7 
REMARK    2  A    between atoms: C8_8  and  O11_11 
ROOT
HETATM    1  C1  UNL     1     -33.006   5.600   1.750  1.00 20.00    -0.019 C 
HETATM    2  C2  UNL     1     -32.120   6.600   1.633  1.00 20.00     0.007 C 
HETATM    3  C5  UNL     1     -34.585   7.140   2.971  1.00 20.00     0.016 C 
HETATM    4  C6  UNL     1     -33.338   7.893   3.444  1.00 20.00     0.042 C 
HETATM    5  C7  UNL     1     -34.260   5.685   2.582  1.00 20.00     0.036 C 
HETATM    6  C8  UNL     1     -32.248   7.918   2.353  1.00 20.00     0.072 C 
HETATM    7  C10 UNL     1     -30.905   8.333   2.960  1.00 20.00     0.050 C 
ENDROOT
BRANCH   5   8
HETATM    8  C4  UNL     1     -34.156   4.797   3.788  1.00 20.00    -0.085 C 
HETATM    9  C3  UNL     1     -33.170   3.897   3.924  1.00 20.00     0.014 C 
HETATM   10  C9  UNL     1     -35.216   4.974   4.833  1.00 20.00     0.043 C 
ENDBRANCH   5   8
BRANCH   6  11
HETATM   11  O11 UNL     1     -32.603   8.891   1.366  1.00 20.00    -0.386 OA
HETATM   12  H27 UNL     1     -31.825   8.997   0.799  1.00 20.00     0.211 HD
ENDBRANCH   6  11
TORSDOF 2
ENDMDL
MODEL 6
REMARK VINA RESULT:       1.1      2.408      4.282
REMARK  2 active torsions:
REMARK  status: ('A' for Active; 'I' for Inactive)
REMARK    1  A    between atoms: C4_4  and  C7_7 
REMARK    2  A    between atoms: C8_8  and  O11_11 
ROOT
HETATM    1  C1  UNL     1     -32.975   7.675   3.971  1.00 20.00    -0.019 C 
HETATM    2  C2  UNL     1     -32.414   8.458   3.038  1.00 20.00     0.007 C 
HETATM    3  C5  UNL     1     -32.939   5.733   2.365  1.00 20.00     0.016 C 
HETATM    4  C6  UNL     1     -33.039   6.776   1.247  1.00 20.00     0.042 C 
HETATM    5  C7  UNL     1     -33.473   6.278   3.703  1.00 20.00     0.036 C 
HETATM    6  C8  UNL     1     -32.249   8.053   1.596  1.00 20.00     0.072 C 
HETATM    7  C10 UNL     1     -32.660   9.197   0.665  1.00 20.00     0.050 C 
ENDROOT
BRANCH   5   8
HETATM    8  C4  UNL     1     -34.972   6.230   3.764  1.00 20.00    -0.085 C 
HETATM    9  C3  UNL     1     -35.737   7.136   3.136  1.00 20.00     0.014 C 
HETATM   10  C9  UNL     1     -35.566   5.110   4.564  1.00 20.00     0.043 C 
ENDBRANCH   5   8
BRANCH   6  11
HETATM   11  O11 UNL     1     -30.854   7.805   1.398  1.00 20.00    -0.386 OA
HETATM   12  H27 UNL     1     -30.386   8.363   2.035  1.00 20.00     0.211 HD
ENDBRANCH   6  11
TORSDOF 2
ENDMDL
MODEL 7
REMARK VINA RESULT:       1.6      2.818      4.782
REMARK  2 active torsions:
REMARK  status: ('A' for Active; 'I' for Inactive)
REMARK    1  A    between atoms: C4_4  and  C7_7 
REMARK    2  A    between atoms: C8_8  and  O11_11 
ROOT
HETATM    1  C1  UNL     1     -31.871   8.014   3.161  1.00 20.00    -0.019 C 
HETATM    2  C2  UNL     1     -31.584   8.891   2.188  1.00 20.00     0.007 C 
HETATM    3  C5  UNL     1     -32.905   6.466   1.461  1.00 20.00     0.016 C 
HETATM    4  C6  UNL     1     -33.226   7.724   0.647  1.00 20.00     0.042 C 
HETATM    5  C7  UNL     1     -32.721   6.785   2.957  1.00 20.00     0.036 C 
HETATM    6  C8  UNL     1     -32.109   8.779   0.780  1.00 20.00     0.072 C 
HETATM    7  C10 UNL     1     -32.608  10.138   0.282  1.00 20.00     0.050 C 
ENDROOT
BRANCH   5   8
HETATM    8  C4  UNL     1     -34.039   6.931   3.660  1.00 20.00    -0.085 C 
HETATM    9  C3  UNL     1     -34.975   5.970   3.618  1.00 20.00     0.014 C 
HETATM   10  C9  UNL     1     -34.250   8.210   4.413  1.00 20.00     0.043 C 
ENDBRANCH   5   8
BRANCH   6  11
HETATM   11  O11 UNL     1     -31.003   8.390  -0.040  1.00 20.00    -0.386 OA
HETATM   12  H27 UNL     1     -31.170   7.474  -0.303  1.00 20.00     0.211 HD
ENDBRANCH   6  11
TORSDOF 2
ENDMDL
MODEL 8
REMARK VINA RESULT:       2.6      2.495      3.802
REMARK  2 active torsions:
REMARK  status: ('A' for Active; 'I' for Inactive)
REMARK    1  A    between atoms: C4_4  and  C7_7 
REMARK    2  A    between atoms: C8_8  and  O11_11 
ROOT
HETATM    1  C1  UNL     1     -31.195   7.404   1.275  1.00 20.00    -0.019 C 
HETATM    2  C2  UNL     1     -31.656   6.149   1.175  1.00 20.00     0.007 C 
HETATM    3  C5  UNL     1     -33.176   8.019   2.706  1.00 20.00     0.016 C 
HETATM    4  C6  UNL     1     -33.941   6.924   1.956  1.00 20.00     0.042 C 
HETATM    5  C7  UNL     1     -31.974   8.536   1.892  1.00 20.00     0.036 C 
HETATM    6  C8  UNL     1     -33.028   5.724   1.629  1.00 20.00     0.072 C 
HETATM    7  C10 UNL     1     -33.692   4.830   0.578  1.00 20.00     0.050 C 
ENDROOT
BRANCH   5   8
HETATM    8  C4  UNL     1     -32.398   9.522   0.842  1.00 20.00    -0.085 C 
HETATM    9  C3  UNL     1     -32.890  10.729   1.159  1.00 20.00     0.014 C 
HETATM   10  C9  UNL     1     -32.240   9.080  -0.582  1.00 20.00     0.043 C 
ENDBRANCH   5   8
BRANCH   6  11
HETATM   11  O11 UNL     1     -32.844   4.945   2.815  1.00 20.00    -0.386 OA
HETATM   12  H27 UNL     1     -32.820   4.020   2.530  1.00 20.00     0.211 HD
ENDBRANCH   6  11
TORSDOF 2
ENDMDL
MODEL 9
REMARK VINA RESULT:       3.0      2.027      2.685
REMARK  2 active torsions:
REMARK  status: ('A' for Active; 'I' for Inactive)
REMARK    1  A    between atoms: C4_4  and  C7_7 
REMARK    2  A    between atoms: C8_8  and  O11_11 
ROOT
HETATM    1  C1  UNL     1     -34.071   6.320   3.426  1.00 20.00    -0.019 C 
HETATM    2  C2  UNL     1     -33.577   5.375   2.613  1.00 20.00     0.007 C 
HETATM    3  C5  UNL     1     -33.185   8.109   1.886  1.00 20.00     0.016 C 
HETATM    4  C6  UNL     1     -32.095   7.105   1.498  1.00 20.00     0.042 C 
HETATM    5  C7  UNL     1     -33.787   7.792   3.269  1.00 20.00     0.036 C 
HETATM    6  C8  UNL     1     -32.643   5.664   1.467  1.00 20.00     0.072 C 
HETATM    7  C10 UNL     1     -31.485   4.662   1.449  1.00 20.00     0.050 C 
ENDROOT
BRANCH   5   8
HETATM    8  C4  UNL     1     -32.909   8.284   4.383  1.00 20.00    -0.085 C 
HETATM    9  C3  UNL     1     -33.248   8.135   5.672  1.00 20.00     0.014 C 
HETATM   10  C9  UNL     1     -31.630   8.950   3.972  1.00 20.00     0.043 C 
ENDBRANCH   5   8
BRANCH   6  11
HETATM   11  O11 UNL     1     -33.399   5.482   0.266  1.00 20.00    -0.386 OA
HETATM   12  H27 UNL     1     -33.254   4.565  -0.009  1.00 20.00     0.211 HD
ENDBRANCH   6  11
TORSDOF 2
ENDMDL
