MODEL 1
REMARK VINA RESULT:      -2.4      0.000      0.000
REMARK  1 active torsions:
REMARK  status: ('A' for Active; 'I' for Inactive)
REMARK    1  A    between atoms: C2_2  and  C3_3 
ROOT
HETATM    1  C1  UNL     1     -33.559   5.802   2.415  1.00 20.00    -0.012 C 
HETATM    2  C2  UNL     1     -34.117   6.511   3.406  1.00 20.00    -0.001 C 
HETATM    3  C4  UNL     1     -32.403   6.356   1.638  1.00 20.00     0.054 C 
HETATM    4  C5  UNL     1     -33.610   7.861   3.814  1.00 20.00     0.209 C 
HETATM    5  C6  UNL     1     -32.235   7.855   1.881  1.00 20.00     0.171 C 
HETATM    6  O8  UNL     1     -32.306   8.131   3.281  1.00 20.00    -0.386 OA
ENDROOT
BRANCH   2   7
HETATM    7  C3  UNL     1     -35.248   5.928   4.128  1.00 20.00     0.267 C 
HETATM    8  O7  UNL     1     -35.252   4.767   4.522  1.00 20.00    -0.302 OA
ENDBRANCH   2   7
TORSDOF 1
ENDMDL
MODEL 2
REMARK VINA RESULT:      -2.1      1.310      3.812
REMARK  1 active torsions:
REMARK  status: ('A' for Active; 'I' for Inactive)
REMARK    1  A    between atoms: C2_2  and  C3_3 
ROOT
HETATM    1  C1  UNL     1     -33.309   8.049   3.425  1.00 20.00    -0.012 C 
HETATM    2  C2  UNL     1     -32.805   7.359   2.393  1.00 20.00    -0.001 C 
HETATM    3  C4  UNL     1     -34.303   7.417   4.353  1.00 20.00     0.054 C 
HETATM    4  C5  UNL     1     -33.168   5.930   2.126  1.00 20.00     0.209 C 
HETATM    5  C6  UNL     1     -34.873   6.127   3.765  1.00 20.00     0.171 C 
HETATM    6  O8  UNL     1     -33.812   5.318   3.253  1.00 20.00    -0.386 OA
ENDROOT
BRANCH   2   7
HETATM    7  C3  UNL     1     -31.844   8.024   1.513  1.00 20.00     0.267 C 
HETATM    8  O7  UNL     1     -32.133   9.013   0.848  1.00 20.00    -0.302 OA
ENDBRANCH   2   7
TORSDOF 1
ENDMDL
MODEL 3
REMARK VINA RESULT:      -1.9      1.101      1.788
REMARK  1 active torsions:
REMARK  status: ('A' for Active; 'I' for Inactive)
REMARK    1  A    between atoms: C2_2  and  C3_3 
ROOT
HETATM    1  C1  UNL     1     -33.697   7.702   3.487  1.00 20.00    -0.012 C 
HETATM    2  C2  UNL     1     -34.094   6.428   3.377  1.00 20.00    -0.001 C 
HETATM    3  C4  UNL     1     -32.614   8.244   2.601  1.00 20.00     0.054 C 
HETATM    4  C5  UNL     1     -33.519   5.490   2.360  1.00 20.00     0.209 C 
HETATM    5  C6  UNL     1     -31.858   7.120   1.895  1.00 20.00     0.171 C 
HETATM    6  O8  UNL     1     -32.785   6.185   1.341  1.00 20.00    -0.386 OA
ENDROOT
BRANCH   2   7
HETATM    7  C3  UNL     1     -35.148   5.947   4.271  1.00 20.00     0.267 C 
HETATM    8  O7  UNL     1     -35.302   4.759   4.531  1.00 20.00    -0.302 OA
ENDBRANCH   2   7
TORSDOF 1
ENDMDL
MODEL 4
REMARK VINA RESULT:      -1.5      2.009      2.852
REMARK  1 active torsions:
REMARK  status: ('A' for Active; 'I' for Inactive)
REMARK    1  A    between atoms: C2_2  and  C3_3 
ROOT
HETATM    1  C1  UNL     1     -34.978   5.091   4.377  1.00 20.00    -0.012 C 
HETATM    2  C2  UNL     1     -33.873   4.518   3.882  1.00 20.00    -0.001 C 
HETATM    3  C4  UNL     1     -35.313   6.514   4.043  1.00 20.00     0.054 C 
HETATM    4  C5  UNL     1     -32.938   5.235   2.957  1.00 20.00     0.209 C 
HETATM    5  C6  UNL     1     -34.118   7.239   3.428  1.00 20.00     0.171 C 
HETATM    6  O8  UNL     1     -33.527   6.425   2.413  1.00 20.00    -0.386 OA
ENDROOT
BRANCH   2   7
HETATM    7  C3  UNL     1     -33.587   3.129   4.245  1.00 20.00     0.267 C 
HETATM    8  O7  UNL     1     -32.833   2.828   5.163  1.00 20.00    -0.302 OA
ENDBRANCH   2   7
TORSDOF 1
ENDMDL
MODEL 5
REMARK VINA RESULT:      -1.3      1.439      3.428
REMARK  1 active torsions:
REMARK  status: ('A' for Active; 'I' for Inactive)
REMARK    1  A    between atoms: C2_2  and  C3_3 
ROOT
HETATM    1  C1  UNL     1     -32.756   6.109   1.735  1.00 20.00    -0.012 C 
HETATM    2  C2  UNL     1     -32.724   7.331   2.283  1.00 20.00    -0.001 C 
HETATM    3  C4  UNL     1     -33.607   5.027   2.331  1.00 20.00     0.054 C 
HETATM    4  C5  UNL     1     -33.545   7.697   3.483  1.00 20.00     0.209 C 
HETATM    5  C6  UNL     1     -34.078   5.399   3.736  1.00 20.00     0.171 C 
HETATM    6  O8  UNL     1     -34.579   6.737   3.741  1.00 20.00    -0.386 OA
ENDROOT
BRANCH   2   7
HETATM    7  C3  UNL     1     -31.872   8.348   1.668  1.00 20.00     0.267 C 
HETATM    8  O7  UNL     1     -32.280   9.116   0.803  1.00 20.00    -0.302 OA
ENDBRANCH   2   7
TORSDOF 1
ENDMDL
MODEL 6
REMARK VINA RESULT:      -1.2      1.227      3.361
REMARK  1 active torsions:
REMARK  status: ('A' for Active; 'I' for Inactive)
REMARK    1  A    between atoms: C2_2  and  C3_3 
ROOT
HETATM    1  C1  UNL     1     -33.141   5.615   2.633  1.00 20.00    -0.012 C 
HETATM    2  C2  UNL     1     -33.376   6.895   2.951  1.00 20.00    -0.001 C 
HETATM    3  C4  UNL     1     -33.966   4.516   3.234  1.00 20.00     0.054 C 
HETATM    4  C5  UNL     1     -34.475   7.305   3.883  1.00 20.00     0.209 C 
HETATM    5  C6  UNL     1     -34.773   5.016   4.431  1.00 20.00     0.171 C 
HETATM    6  O8  UNL     1     -35.419   6.247   4.101  1.00 20.00    -0.386 OA
ENDROOT
BRANCH   2   7
HETATM    7  C3  UNL     1     -32.537   7.928   2.343  1.00 20.00     0.267 C 
HETATM    8  O7  UNL     1     -31.603   7.664   1.594  1.00 20.00    -0.302 OA
ENDBRANCH   2   7
TORSDOF 1
ENDMDL
MODEL 7
REMARK VINA RESULT:      -0.9      1.825      2.413
REMARK  1 active torsions:
REMARK  status: ('A' for Active; 'I' for Inactive)
REMARK    1  A    between atoms: C2_2  and  C3_3 
ROOT
HETATM    1  C1  UNL     1     -32.684   7.973   2.627  1.00 20.00    -0.012 C 
HETATM    2  C2  UNL     1     -33.519   7.087   3.185  1.00 20.00    -0.001 C 
HETATM    3  C4  UNL     1     -31.820   7.580   1.465  1.00 20.00     0.054 C 
HETATM    4  C5  UNL     1     -33.666   5.686   2.675  1.00 20.00     0.209 C 
HETATM    5  C6  UNL     1     -31.775   6.063   1.292  1.00 20.00     0.171 C 
HETATM    6  O8  UNL     1     -33.097   5.527   1.368  1.00 20.00    -0.386 OA
ENDROOT
BRANCH   2   7
HETATM    7  C3  UNL     1     -34.334   7.519   4.321  1.00 20.00     0.267 C 
HETATM    8  O7  UNL     1     -33.885   8.205   5.233  1.00 20.00    -0.302 OA
ENDBRANCH   2   7
TORSDOF 1
ENDMDL
MODEL 8
REMARK VINA RESULT:      -0.7      1.772      2.923
REMARK  1 active torsions:
REMARK  status: ('A' for Active; 'I' for Inactive)
REMARK    1  A    between atoms: C2_2  and  C3_3 
ROOT
HETATM    1  C1  UNL     1     -33.943   5.693   2.813  1.00 20.00    -0.012 C 
HETATM    2  C2  UNL     1     -32.911   6.236   2.155  1.00 20.00    -0.001 C 
HETATM    3  C4  UNL     1     -34.687   6.482   3.850  1.00 20.00     0.054 C 
HETATM    4  C5  UNL     1     -32.463   7.648   2.382  1.00 20.00     0.209 C 
HETATM    5  C6  UNL     1     -33.913   7.735   4.258  1.00 20.00     0.171 C 
HETATM    6  O8  UNL     1     -33.444   8.416   3.093  1.00 20.00    -0.386 OA
ENDROOT
BRANCH   2   7
HETATM    7  C3  UNL     1     -32.214   5.421   1.159  1.00 20.00     0.267 C 
HETATM    8  O7  UNL     1     -32.807   4.695   0.369  1.00 20.00    -0.302 OA
ENDBRANCH   2   7
TORSDOF 1
ENDMDL
MODEL 9
REMARK VINA RESULT:      -0.6      1.706      1.834
REMARK  1 active torsions:
REMARK  status: ('A' for Active; 'I' for Inactive)
REMARK    1  A    between atoms: C2_2  and  C3_3 
ROOT
HETATM    1  C1  UNL     1     -33.496   5.908   2.609  1.00 20.00    -0.012 C 
HETATM    2  C2  UNL     1     -33.442   7.142   3.128  1.00 20.00    -0.001 C 
HETATM    3  C4  UNL     1     -32.618   5.527   1.454  1.00 20.00     0.054 C 
HETATM    4  C5  UNL     1     -32.497   8.188   2.622  1.00 20.00     0.209 C 
HETATM    5  C6  UNL     1     -31.998   6.759   0.795  1.00 20.00     0.171 C 
HETATM    6  O8  UNL     1     -31.466   7.628   1.796  1.00 20.00    -0.386 OA
ENDROOT
BRANCH   2   7
HETATM    7  C3  UNL     1     -34.326   7.465   4.248  1.00 20.00     0.267 C 
HETATM    8  O7  UNL     1     -33.963   8.148   5.200  1.00 20.00    -0.302 OA
ENDBRANCH   2   7
TORSDOF 1
ENDMDL
