MODEL 1
REMARK VINA RESULT:      -2.3      0.000      0.000
REMARK  3 active torsions:
REMARK  status: ('A' for Active; 'I' for Inactive)
REMARK    1  A    between atoms: C2_2  and  O8_8 
REMARK    2  A    between atoms: C4_4  and  C6_6 
REMARK    3  A    between atoms: C6_6  and  O8_8 
ROOT
HETATM    1  C6  UNL     1     -33.284   6.429   1.912  1.00 20.00     0.208 C 
ENDROOT
BRANCH   1   2
HETATM    2  C4  UNL     1     -33.667   6.303   3.371  1.00 20.00     0.169 A 
HETATM    3  C3  UNL     1     -35.101   6.411   3.811  1.00 20.00     0.202 A 
HETATM    4  O7  UNL     1     -34.180   7.504   3.957  1.00 20.00    -0.379 OA
ENDBRANCH   1   2
BRANCH   1   5
HETATM    5  O8  UNL     1     -31.998   7.003   1.822  1.00 20.00    -0.361 OA
BRANCH   5   6
HETATM    6  C2  UNL     1     -32.026   8.358   1.637  1.00 20.00     0.130 C 
HETATM    7  C1  UNL     1     -32.439   8.929   0.503  1.00 20.00    -0.007 C 
HETATM    8  C5  UNL     1     -32.475  10.405   0.285  1.00 20.00     0.038 C 
ENDBRANCH   5   6
ENDBRANCH   1   5
TORSDOF 3
ENDMDL
MODEL 2
REMARK VINA RESULT:      -2.2      1.592      4.251
REMARK  3 active torsions:
REMARK  status: ('A' for Active; 'I' for Inactive)
REMARK    1  A    between atoms: C2_2  and  O8_8 
REMARK    2  A    between atoms: C4_4  and  C6_6 
REMARK    3  A    between atoms: C6_6  and  O8_8 
ROOT
HETATM    1  C6  UNL     1     -31.782   8.297   1.414  1.00 20.00     0.208 C 
ENDROOT
BRANCH   1   2
HETATM    2  C4  UNL     1     -32.787   9.199   0.730  1.00 20.00     0.169 A 
HETATM    3  C3  UNL     1     -32.439   9.936  -0.533  1.00 20.00     0.202 A 
HETATM    4  O7  UNL     1     -32.447  10.590   0.746  1.00 20.00    -0.379 OA
ENDBRANCH   1   2
BRANCH   1   5
HETATM    5  O8  UNL     1     -32.178   8.100   2.754  1.00 20.00    -0.361 OA
BRANCH   5   6
HETATM    6  C2  UNL     1     -33.190   7.189   2.888  1.00 20.00     0.130 C 
HETATM    7  C1  UNL     1     -34.136   7.285   3.825  1.00 20.00    -0.007 C 
HETATM    8  C5  UNL     1     -35.246   6.300   3.984  1.00 20.00     0.038 C 
ENDBRANCH   5   6
ENDBRANCH   1   5
TORSDOF 3
ENDMDL
MODEL 3
REMARK VINA RESULT:      -2.2      1.176      4.151
REMARK  3 active torsions:
REMARK  status: ('A' for Active; 'I' for Inactive)
REMARK    1  A    between atoms: C2_2  and  O8_8 
REMARK    2  A    between atoms: C4_4  and  C6_6 
REMARK    3  A    between atoms: C6_6  and  O8_8 
ROOT
HETATM    1  C6  UNL     1     -32.086   8.281   1.931  1.00 20.00     0.208 C 
ENDROOT
BRANCH   1   2
HETATM    2  C4  UNL     1     -31.754   9.076   0.687  1.00 20.00     0.169 A 
HETATM    3  C3  UNL     1     -32.502  10.335   0.347  1.00 20.00     0.202 A 
HETATM    4  O7  UNL     1     -32.785   9.087  -0.306  1.00 20.00    -0.379 OA
ENDBRANCH   1   2
BRANCH   1   5
HETATM    5  O8  UNL     1     -32.278   6.928   1.575  1.00 20.00    -0.361 OA
BRANCH   5   6
HETATM    6  C2  UNL     1     -33.302   6.332   2.256  1.00 20.00     0.130 C 
HETATM    7  C1  UNL     1     -33.956   6.929   3.256  1.00 20.00    -0.007 C 
HETATM    8  C5  UNL     1     -35.076   6.293   4.009  1.00 20.00     0.038 C 
ENDBRANCH   5   6
ENDBRANCH   1   5
TORSDOF 3
ENDMDL
MODEL 4
REMARK VINA RESULT:      -1.7      1.133      1.249
REMARK  3 active torsions:
REMARK  status: ('A' for Active; 'I' for Inactive)
REMARK    1  A    between atoms: C2_2  and  O8_8 
REMARK    2  A    between atoms: C4_4  and  C6_6 
REMARK    3  A    between atoms: C6_6  and  O8_8 
ROOT
HETATM    1  C6  UNL     1     -33.167   7.786   3.602  1.00 20.00     0.208 C 
ENDROOT
BRANCH   1   2
HETATM    2  C4  UNL     1     -34.160   6.753   3.114  1.00 20.00     0.169 A 
HETATM    3  C3  UNL     1     -35.280   6.272   3.994  1.00 20.00     0.202 A 
HETATM    4  O7  UNL     1     -34.090   5.493   3.791  1.00 20.00    -0.379 OA
ENDBRANCH   1   2
BRANCH   1   5
HETATM    5  O8  UNL     1     -32.104   7.876   2.678  1.00 20.00    -0.361 OA
BRANCH   5   6
HETATM    6  C2  UNL     1     -32.506   8.274   1.433  1.00 20.00     0.130 C 
HETATM    7  C1  UNL     1     -32.203   9.469   0.919  1.00 20.00    -0.007 C 
HETATM    8  C5  UNL     1     -32.633   9.918  -0.438  1.00 20.00     0.038 C 
ENDBRANCH   5   6
ENDBRANCH   1   5
TORSDOF 3
ENDMDL
MODEL 5
REMARK VINA RESULT:      -1.7      1.968      4.713
REMARK  3 active torsions:
REMARK  status: ('A' for Active; 'I' for Inactive)
REMARK    1  A    between atoms: C2_2  and  O8_8 
REMARK    2  A    between atoms: C4_4  and  C6_6 
REMARK    3  A    between atoms: C6_6  and  O8_8 
ROOT
HETATM    1  C6  UNL     1     -33.921   7.130   3.709  1.00 20.00     0.208 C 
ENDROOT
BRANCH   1   2
HETATM    2  C4  UNL     1     -33.423   7.414   2.308  1.00 20.00     0.169 A 
HETATM    3  C3  UNL     1     -32.227   6.696   1.747  1.00 20.00     0.202 A 
HETATM    4  O7  UNL     1     -32.136   8.039   2.250  1.00 20.00    -0.379 OA
ENDBRANCH   1   2
BRANCH   1   5
HETATM    5  O8  UNL     1     -34.942   6.157   3.646  1.00 20.00    -0.361 OA
BRANCH   5   6
HETATM    6  C2  UNL     1     -34.644   5.019   4.343  1.00 20.00     0.130 C 
HETATM    7  C1  UNL     1     -33.725   4.138   3.941  1.00 20.00    -0.007 C 
HETATM    8  C5  UNL     1     -33.389   2.892   4.691  1.00 20.00     0.038 C 
ENDBRANCH   5   6
ENDBRANCH   1   5
TORSDOF 3
ENDMDL
MODEL 6
REMARK VINA RESULT:      -1.4      1.737      4.683
REMARK  3 active torsions:
REMARK  status: ('A' for Active; 'I' for Inactive)
REMARK    1  A    between atoms: C2_2  and  O8_8 
REMARK    2  A    between atoms: C4_4  and  C6_6 
REMARK    3  A    between atoms: C6_6  and  O8_8 
ROOT
HETATM    1  C6  UNL     1     -33.445   6.385   2.325  1.00 20.00     0.208 C 
ENDROOT
BRANCH   1   2
HETATM    2  C4  UNL     1     -32.582   7.620   2.463  1.00 20.00     0.169 A 
HETATM    3  C3  UNL     1     -32.349   8.541   1.297  1.00 20.00     0.202 A 
HETATM    4  O7  UNL     1     -31.363   7.581   1.712  1.00 20.00    -0.379 OA
ENDBRANCH   1   2
BRANCH   1   5
HETATM    5  O8  UNL     1     -34.388   6.364   3.376  1.00 20.00    -0.361 OA
BRANCH   5   6
HETATM    6  C2  UNL     1     -34.325   5.226   4.132  1.00 20.00     0.130 C 
HETATM    7  C1  UNL     1     -33.534   4.194   3.829  1.00 20.00    -0.007 C 
HETATM    8  C5  UNL     1     -33.454   2.946   4.643  1.00 20.00     0.038 C 
ENDBRANCH   5   6
ENDBRANCH   1   5
TORSDOF 3
ENDMDL
MODEL 7
REMARK VINA RESULT:      -1.3      2.552      3.255
REMARK  3 active torsions:
REMARK  status: ('A' for Active; 'I' for Inactive)
REMARK    1  A    between atoms: C2_2  and  O8_8 
REMARK    2  A    between atoms: C4_4  and  C6_6 
REMARK    3  A    between atoms: C6_6  and  O8_8 
ROOT
HETATM    1  C6  UNL     1     -33.736   4.857   3.390  1.00 20.00     0.208 C 
ENDROOT
BRANCH   1   2
HETATM    2  C4  UNL     1     -33.957   3.882   4.527  1.00 20.00     0.169 A 
HETATM    3  C3  UNL     1     -32.810   3.134   5.144  1.00 20.00     0.202 A 
HETATM    4  O7  UNL     1     -33.695   2.514   4.197  1.00 20.00    -0.379 OA
ENDBRANCH   1   2
BRANCH   1   5
HETATM    5  O8  UNL     1     -34.304   6.103   3.735  1.00 20.00    -0.361 OA
BRANCH   5   6
HETATM    6  C2  UNL     1     -33.620   7.168   3.219  1.00 20.00     0.130 C 
HETATM    7  C1  UNL     1     -32.749   7.055   2.212  1.00 20.00    -0.007 C 
HETATM    8  C5  UNL     1     -31.995   8.207   1.637  1.00 20.00     0.038 C 
ENDBRANCH   5   6
ENDBRANCH   1   5
TORSDOF 3
ENDMDL
MODEL 8
REMARK VINA RESULT:      -1.1      1.151      1.514
REMARK  3 active torsions:
REMARK  status: ('A' for Active; 'I' for Inactive)
REMARK    1  A    between atoms: C2_2  and  O8_8 
REMARK    2  A    between atoms: C4_4  and  C6_6 
REMARK    3  A    between atoms: C6_6  and  O8_8 
ROOT
HETATM    1  C6  UNL     1     -33.462   5.278   3.027  1.00 20.00     0.208 C 
ENDROOT
BRANCH   1   2
HETATM    2  C4  UNL     1     -34.407   6.449   3.184  1.00 20.00     0.169 A 
HETATM    3  C3  UNL     1     -34.404   7.290   4.430  1.00 20.00     0.202 A 
HETATM    4  O7  UNL     1     -35.401   6.281   4.201  1.00 20.00    -0.379 OA
ENDBRANCH   1   2
BRANCH   1   5
HETATM    5  O8  UNL     1     -32.568   5.547   1.968  1.00 20.00    -0.361 OA
BRANCH   5   6
HETATM    6  C2  UNL     1     -32.755   6.779   1.406  1.00 20.00     0.130 C 
HETATM    7  C1  UNL     1     -31.861   7.766   1.501  1.00 20.00    -0.007 C 
HETATM    8  C5  UNL     1     -32.049   9.115   0.893  1.00 20.00     0.038 C 
ENDBRANCH   5   6
ENDBRANCH   1   5
TORSDOF 3
ENDMDL
MODEL 9
REMARK VINA RESULT:      -0.9      2.851      4.793
REMARK  3 active torsions:
REMARK  status: ('A' for Active; 'I' for Inactive)
REMARK    1  A    between atoms: C2_2  and  O8_8 
REMARK    2  A    between atoms: C4_4  and  C6_6 
REMARK    3  A    between atoms: C6_6  and  O8_8 
ROOT
HETATM    1  C6  UNL     1     -34.200   6.417   3.259  1.00 20.00     0.208 C 
ENDROOT
BRANCH   1   2
HETATM    2  C4  UNL     1     -33.984   7.839   3.731  1.00 20.00     0.169 A 
HETATM    3  C3  UNL     1     -32.733   8.234   4.464  1.00 20.00     0.202 A 
HETATM    4  O7  UNL     1     -33.972   7.999   5.153  1.00 20.00    -0.379 OA
ENDBRANCH   1   2
BRANCH   1   5
HETATM    5  O8  UNL     1     -35.191   5.812   4.062  1.00 20.00    -0.361 OA
BRANCH   5   6
HETATM    6  C2  UNL     1     -34.806   4.603   4.572  1.00 20.00     0.130 C 
HETATM    7  C1  UNL     1     -33.722   3.947   4.151  1.00 20.00    -0.007 C 
HETATM    8  C5  UNL     1     -33.288   2.628   4.698  1.00 20.00     0.038 C 
ENDBRANCH   5   6
ENDBRANCH   1   5
TORSDOF 3
ENDMDL
