MODEL 1
REMARK VINA RESULT:      -2.4      0.000      0.000
REMARK  3 active torsions:
REMARK  status: ('A' for Active; 'I' for Inactive)
REMARK    1  A    between atoms: C2_2  and  C6_6 
REMARK    2  A    between atoms: C6_6  and  C7_7 
REMARK    3  A    between atoms: C6_6  and  O8_8 
ROOT
HETATM    1  C6  UNL     1     -34.585   6.070   3.348  1.00 20.00     0.144 C 
ENDROOT
BRANCH   1   2
HETATM    2  C2  UNL     1     -33.653   4.928   3.648  1.00 20.00     0.000 C 
HETATM    3  C1  UNL     1     -33.981   3.882   4.420  1.00 20.00    -0.033 C 
HETATM    4  C3  UNL     1     -33.059   2.746   4.717  1.00 20.00     0.036 C 
ENDBRANCH   1   2
BRANCH   1   5
HETATM    5  C7  UNL     1     -33.928   7.470   3.385  1.00 20.00     0.010 C 
HETATM    6  C4  UNL     1     -32.671   7.575   2.515  1.00 20.00     0.012 C 
HETATM    7  C5  UNL     1     -33.619   7.914   4.817  1.00 20.00     0.012 C 
ENDBRANCH   1   5
BRANCH   1   8
HETATM    8  O8  UNL     1     -35.643   6.017   4.307  1.00 20.00    -0.391 OA
HETATM    9  H22 UNL     1     -35.535   5.183   4.787  1.00 20.00     0.210 HD
ENDBRANCH   1   8
TORSDOF 3
ENDMDL
MODEL 2
REMARK VINA RESULT:      -2.1      1.348      1.814
REMARK  3 active torsions:
REMARK  status: ('A' for Active; 'I' for Inactive)
REMARK    1  A    between atoms: C2_2  and  C6_6 
REMARK    2  A    between atoms: C6_6  and  C7_7 
REMARK    3  A    between atoms: C6_6  and  O8_8 
ROOT
HETATM    1  C6  UNL     1     -33.870   6.200   2.953  1.00 20.00     0.144 C 
ENDROOT
BRANCH   1   2
HETATM    2  C2  UNL     1     -33.260   5.067   3.732  1.00 20.00     0.000 C 
HETATM    3  C1  UNL     1     -33.916   3.940   4.043  1.00 20.00    -0.033 C 
HETATM    4  C3  UNL     1     -33.313   2.812   4.813  1.00 20.00     0.036 C 
ENDBRANCH   1   2
BRANCH   1   5
HETATM    5  C7  UNL     1     -33.064   6.638   1.707  1.00 20.00     0.010 C 
HETATM    6  C4  UNL     1     -32.204   5.515   1.114  1.00 20.00     0.012 C 
HETATM    7  C5  UNL     1     -32.202   7.869   1.992  1.00 20.00     0.012 C 
ENDBRANCH   1   5
BRANCH   1   8
HETATM    8  O8  UNL     1     -34.001   7.307   3.846  1.00 20.00    -0.391 OA
HETATM    9  H22 UNL     1     -34.618   7.924   3.427  1.00 20.00     0.210 HD
ENDBRANCH   1   8
TORSDOF 3
ENDMDL
MODEL 3
REMARK VINA RESULT:      -1.9      2.746      5.263
REMARK  3 active torsions:
REMARK  status: ('A' for Active; 'I' for Inactive)
REMARK    1  A    between atoms: C2_2  and  C6_6 
REMARK    2  A    between atoms: C6_6  and  C7_7 
REMARK    3  A    between atoms: C6_6  and  O8_8 
ROOT
HETATM    1  C6  UNL     1     -31.871   7.618   1.946  1.00 20.00     0.144 C 
ENDROOT
BRANCH   1   2
HETATM    2  C2  UNL     1     -31.823   8.600   0.807  1.00 20.00     0.000 C 
HETATM    3  C1  UNL     1     -32.645   9.653   0.698  1.00 20.00    -0.033 C 
HETATM    4  C3  UNL     1     -32.598  10.631  -0.429  1.00 20.00     0.036 C 
ENDBRANCH   1   2
BRANCH   1   5
HETATM    5  C7  UNL     1     -33.042   6.609   1.882  1.00 20.00     0.010 C 
HETATM    6  C4  UNL     1     -33.803   6.476   3.206  1.00 20.00     0.012 C 
HETATM    7  C5  UNL     1     -32.581   5.233   1.397  1.00 20.00     0.012 C 
ENDBRANCH   1   5
BRANCH   1   8
HETATM    8  O8  UNL     1     -31.961   8.374   3.155  1.00 20.00    -0.391 OA
HETATM    9  H22 UNL     1     -32.848   8.215   3.510  1.00 20.00     0.210 HD
ENDBRANCH   1   8
TORSDOF 3
ENDMDL
MODEL 4
REMARK VINA RESULT:      -1.9      2.376      3.159
REMARK  3 active torsions:
REMARK  status: ('A' for Active; 'I' for Inactive)
REMARK    1  A    between atoms: C2_2  and  C6_6 
REMARK    2  A    between atoms: C6_6  and  C7_7 
REMARK    3  A    between atoms: C6_6  and  O8_8 
ROOT
HETATM    1  C6  UNL     1     -32.918   8.062   3.074  1.00 20.00     0.144 C 
ENDROOT
BRANCH   1   2
HETATM    2  C2  UNL     1     -33.632   6.778   3.396  1.00 20.00     0.000 C 
HETATM    3  C1  UNL     1     -34.806   6.722   4.042  1.00 20.00    -0.033 C 
HETATM    4  C3  UNL     1     -35.519   5.450   4.360  1.00 20.00     0.036 C 
ENDBRANCH   1   2
BRANCH   1   5
HETATM    5  C7  UNL     1     -31.967   7.987   1.856  1.00 20.00     0.010 C 
HETATM    6  C4  UNL     1     -32.231   9.076   0.810  1.00 20.00     0.012 C 
HETATM    7  C5  UNL     1     -31.994   6.605   1.199  1.00 20.00     0.012 C 
ENDBRANCH   1   5
BRANCH   1   8
HETATM    8  O8  UNL     1     -32.173   8.436   4.235  1.00 20.00    -0.391 OA
HETATM    9  H22 UNL     1     -32.802   8.450   4.970  1.00 20.00     0.210 HD
ENDBRANCH   1   8
TORSDOF 3
ENDMDL
MODEL 5
REMARK VINA RESULT:      -1.8      2.377      4.377
REMARK  3 active torsions:
REMARK  status: ('A' for Active; 'I' for Inactive)
REMARK    1  A    between atoms: C2_2  and  C6_6 
REMARK    2  A    between atoms: C6_6  and  C7_7 
REMARK    3  A    between atoms: C6_6  and  O8_8 
ROOT
HETATM    1  C6  UNL     1     -33.366   6.718   2.136  1.00 20.00     0.144 C 
ENDROOT
BRANCH   1   2
HETATM    2  C2  UNL     1     -32.500   7.895   1.779  1.00 20.00     0.000 C 
HETATM    3  C1  UNL     1     -32.803   8.775   0.813  1.00 20.00    -0.033 C 
HETATM    4  C3  UNL     1     -31.947   9.946   0.458  1.00 20.00     0.036 C 
ENDBRANCH   1   2
BRANCH   1   5
HETATM    5  C7  UNL     1     -33.812   6.668   3.617  1.00 20.00     0.010 C 
HETATM    6  C4  UNL     1     -35.247   6.163   3.803  1.00 20.00     0.012 C 
HETATM    7  C5  UNL     1     -33.633   8.021   4.310  1.00 20.00     0.012 C 
ENDBRANCH   1   5
BRANCH   1   8
HETATM    8  O8  UNL     1     -32.627   5.536   1.823  1.00 20.00    -0.391 OA
HETATM    9  H22 UNL     1     -31.691   5.782   1.858  1.00 20.00     0.210 HD
ENDBRANCH   1   8
TORSDOF 3
ENDMDL
MODEL 6
REMARK VINA RESULT:      -1.6      1.618      4.177
REMARK  3 active torsions:
REMARK  status: ('A' for Active; 'I' for Inactive)
REMARK    1  A    between atoms: C2_2  and  C6_6 
REMARK    2  A    between atoms: C6_6  and  C7_7 
REMARK    3  A    between atoms: C6_6  and  O8_8 
ROOT
HETATM    1  C6  UNL     1     -33.122   6.742   3.291  1.00 20.00     0.144 C 
ENDROOT
BRANCH   1   2
HETATM    2  C2  UNL     1     -32.729   7.232   1.924  1.00 20.00     0.000 C 
HETATM    3  C1  UNL     1     -32.274   8.469   1.680  1.00 20.00    -0.033 C 
HETATM    4  C3  UNL     1     -31.879   8.957   0.325  1.00 20.00     0.036 C 
ENDBRANCH   1   2
BRANCH   1   5
HETATM    5  C7  UNL     1     -34.296   5.734   3.304  1.00 20.00     0.010 C 
HETATM    6  C4  UNL     1     -35.539   6.259   4.032  1.00 20.00     0.012 C 
HETATM    7  C5  UNL     1     -33.877   4.381   3.882  1.00 20.00     0.012 C 
ENDBRANCH   1   5
BRANCH   1   8
HETATM    8  O8  UNL     1     -33.473   7.889   4.068  1.00 20.00    -0.391 OA
HETATM    9  H22 UNL     1     -34.286   7.659   4.542  1.00 20.00     0.210 HD
ENDBRANCH   1   8
TORSDOF 3
ENDMDL
MODEL 7
REMARK VINA RESULT:      -1.5      2.257      4.621
REMARK  3 active torsions:
REMARK  status: ('A' for Active; 'I' for Inactive)
REMARK    1  A    between atoms: C2_2  and  C6_6 
REMARK    2  A    between atoms: C6_6  and  C7_7 
REMARK    3  A    between atoms: C6_6  and  O8_8 
ROOT
HETATM    1  C6  UNL     1     -32.956   6.547   1.699  1.00 20.00     0.144 C 
ENDROOT
BRANCH   1   2
HETATM    2  C2  UNL     1     -32.417   7.948   1.615  1.00 20.00     0.000 C 
HETATM    3  C1  UNL     1     -32.688   8.791   0.607  1.00 20.00    -0.033 C 
HETATM    4  C3  UNL     1     -32.157  10.183   0.522  1.00 20.00     0.036 C 
ENDBRANCH   1   2
BRANCH   1   5
HETATM    5  C7  UNL     1     -33.939   6.300   2.868  1.00 20.00     0.010 C 
HETATM    6  C4  UNL     1     -33.926   7.416   3.919  1.00 20.00     0.012 C 
HETATM    7  C5  UNL     1     -33.700   4.944   3.535  1.00 20.00     0.012 C 
ENDBRANCH   1   5
BRANCH   1   8
HETATM    8  O8  UNL     1     -31.837   5.668   1.826  1.00 20.00    -0.391 OA
HETATM    9  H22 UNL     1     -31.212   5.918   1.130  1.00 20.00     0.210 HD
ENDBRANCH   1   8
TORSDOF 3
ENDMDL
MODEL 8
REMARK VINA RESULT:      -1.4      2.732      3.824
REMARK  3 active torsions:
REMARK  status: ('A' for Active; 'I' for Inactive)
REMARK    1  A    between atoms: C2_2  and  C6_6 
REMARK    2  A    between atoms: C6_6  and  C7_7 
REMARK    3  A    between atoms: C6_6  and  O8_8 
ROOT
HETATM    1  C6  UNL     1     -32.093   8.025   1.955  1.00 20.00     0.144 C 
ENDROOT
BRANCH   1   2
HETATM    2  C2  UNL     1     -33.274   7.845   2.869  1.00 20.00     0.000 C 
HETATM    3  C1  UNL     1     -33.867   6.664   3.095  1.00 20.00    -0.033 C 
HETATM    4  C3  UNL     1     -35.037   6.481   4.004  1.00 20.00     0.036 C 
ENDBRANCH   1   2
BRANCH   1   5
HETATM    5  C7  UNL     1     -32.370   8.886   0.700  1.00 20.00     0.010 C 
HETATM    6  C4  UNL     1     -31.200   8.914  -0.289  1.00 20.00     0.012 C 
HETATM    7  C5  UNL     1     -32.784  10.312   1.069  1.00 20.00     0.012 C 
ENDBRANCH   1   5
BRANCH   1   8
HETATM    8  O8  UNL     1     -31.666   6.722   1.552  1.00 20.00    -0.391 OA
HETATM    9  H22 UNL     1     -32.427   6.308   1.118  1.00 20.00     0.210 HD
ENDBRANCH   1   8
TORSDOF 3
ENDMDL
MODEL 9
REMARK VINA RESULT:      -1.4      1.612      1.937
REMARK  3 active torsions:
REMARK  status: ('A' for Active; 'I' for Inactive)
REMARK    1  A    between atoms: C2_2  and  C6_6 
REMARK    2  A    between atoms: C6_6  and  C7_7 
REMARK    3  A    between atoms: C6_6  and  O8_8 
ROOT
HETATM    1  C6  UNL     1     -33.296   5.756   3.090  1.00 20.00     0.144 C 
ENDROOT
BRANCH   1   2
HETATM    2  C2  UNL     1     -33.657   4.342   3.453  1.00 20.00     0.000 C 
HETATM    3  C1  UNL     1     -32.997   3.616   4.367  1.00 20.00    -0.033 C 
HETATM    4  C3  UNL     1     -33.355   2.214   4.731  1.00 20.00     0.036 C 
ENDBRANCH   1   2
BRANCH   1   5
HETATM    5  C7  UNL     1     -34.354   6.815   3.480  1.00 20.00     0.010 C 
HETATM    6  C4  UNL     1     -33.802   7.923   4.384  1.00 20.00     0.012 C 
HETATM    7  C5  UNL     1     -35.588   6.176   4.121  1.00 20.00     0.012 C 
ENDBRANCH   1   5
BRANCH   1   8
HETATM    8  O8  UNL     1     -33.087   5.792   1.677  1.00 20.00    -0.391 OA
HETATM    9  H22 UNL     1     -32.298   6.334   1.531  1.00 20.00     0.210 HD
ENDBRANCH   1   8
TORSDOF 3
ENDMDL
