MODEL 1
REMARK VINA RESULT:      -0.9      0.000      0.000
REMARK  0 active torsions:
REMARK  status: ('A' for Active; 'I' for Inactive)
ROOT
HETATM    1  C1  UNL     1     -34.249   6.590   3.459  1.00 20.00     0.178 C 
HETATM    2  C2  UNL     1     -33.268   7.738   3.617  1.00 20.00     0.102 C 
HETATM    3  C3  UNL     1     -32.828   6.007   1.731  1.00 20.00     0.241 C 
HETATM    4  O4  UNL     1     -33.553   5.494   2.854  1.00 20.00    -0.381 OA
HETATM    5  S5  UNL     1     -32.380   7.725   2.050  1.00 20.00    -0.141 SA
ENDROOT
TORSDOF 0
ENDMDL
MODEL 2
REMARK VINA RESULT:      -0.7      0.917      1.879
REMARK  0 active torsions:
REMARK  status: ('A' for Active; 'I' for Inactive)
ROOT
HETATM    1  C1  UNL     1     -33.490   5.430   2.917  1.00 20.00     0.178 C 
HETATM    2  C2  UNL     1     -32.870   6.021   1.665  1.00 20.00     0.102 C 
HETATM    3  C3  UNL     1     -33.540   7.644   3.578  1.00 20.00     0.241 C 
HETATM    4  O4  UNL     1     -34.307   6.437   3.523  1.00 20.00    -0.381 OA
HETATM    5  S5  UNL     1     -32.375   7.668   2.201  1.00 20.00    -0.141 SA
ENDROOT
TORSDOF 0
ENDMDL
MODEL 3
REMARK VINA RESULT:      -0.6      1.670      2.228
REMARK  0 active torsions:
REMARK  status: ('A' for Active; 'I' for Inactive)
ROOT
HETATM    1  C1  UNL     1     -32.924   5.909   1.545  1.00 20.00     0.178 C 
HETATM    2  C2  UNL     1     -33.563   5.778   2.916  1.00 20.00     0.102 C 
HETATM    3  C3  UNL     1     -32.361   8.006   2.337  1.00 20.00     0.241 C 
HETATM    4  O4  UNL     1     -31.858   6.860   1.643  1.00 20.00    -0.381 OA
HETATM    5  S5  UNL     1     -33.656   7.486   3.480  1.00 20.00    -0.141 SA
ENDROOT
TORSDOF 0
ENDMDL
MODEL 4
REMARK VINA RESULT:      -0.5      1.779      2.004
REMARK  0 active torsions:
REMARK  status: ('A' for Active; 'I' for Inactive)
ROOT
HETATM    1  C1  UNL     1     -33.275   7.506   3.662  1.00 20.00     0.178 C 
HETATM    2  C2  UNL     1     -33.958   6.323   2.998  1.00 20.00     0.102 C 
HETATM    3  C3  UNL     1     -31.988   7.458   1.743  1.00 20.00     0.241 C 
HETATM    4  O4  UNL     1     -32.704   8.321   2.633  1.00 20.00    -0.381 OA
HETATM    5  S5  UNL     1     -32.773   5.834   1.734  1.00 20.00    -0.141 SA
ENDROOT
TORSDOF 0
ENDMDL
MODEL 5
REMARK VINA RESULT:      -0.5      1.455      1.956
REMARK  0 active torsions:
REMARK  status: ('A' for Active; 'I' for Inactive)
ROOT
HETATM    1  C1  UNL     1     -31.939   6.726   1.624  1.00 20.00     0.178 C 
HETATM    2  C2  UNL     1     -32.377   8.070   2.178  1.00 20.00     0.102 C 
HETATM    3  C3  UNL     1     -33.707   5.960   2.901  1.00 20.00     0.241 C 
HETATM    4  O4  UNL     1     -33.078   5.858   1.619  1.00 20.00    -0.381 OA
HETATM    5  S5  UNL     1     -33.418   7.609   3.573  1.00 20.00    -0.141 SA
ENDROOT
TORSDOF 0
ENDMDL
MODEL 6
REMARK VINA RESULT:      -0.5      1.867      2.672
REMARK  0 active torsions:
REMARK  status: ('A' for Active; 'I' for Inactive)
ROOT
HETATM    1  C1  UNL     1     -32.415   7.494   1.717  1.00 20.00     0.178 C 
HETATM    2  C2  UNL     1     -32.806   6.037   1.884  1.00 20.00     0.102 C 
HETATM    3  C3  UNL     1     -33.481   7.704   3.757  1.00 20.00     0.241 C 
HETATM    4  O4  UNL     1     -32.311   8.075   3.021  1.00 20.00    -0.381 OA
HETATM    5  S5  UNL     1     -34.069   6.105   3.166  1.00 20.00    -0.141 SA
ENDROOT
TORSDOF 0
ENDMDL
MODEL 7
REMARK VINA RESULT:      -0.5      1.732      1.947
REMARK  0 active torsions:
REMARK  status: ('A' for Active; 'I' for Inactive)
ROOT
HETATM    1  C1  UNL     1     -32.474   7.914   2.927  1.00 20.00     0.178 C 
HETATM    2  C2  UNL     1     -33.777   7.574   3.627  1.00 20.00     0.102 C 
HETATM    3  C3  UNL     1     -32.896   5.928   1.821  1.00 20.00     0.241 C 
HETATM    4  O4  UNL     1     -32.488   7.288   1.639  1.00 20.00    -0.381 OA
HETATM    5  S5  UNL     1     -33.989   5.825   3.252  1.00 20.00    -0.141 SA
ENDROOT
TORSDOF 0
ENDMDL
MODEL 8
REMARK VINA RESULT:      -0.4      2.061      2.701
REMARK  0 active torsions:
REMARK  status: ('A' for Active; 'I' for Inactive)
ROOT
HETATM    1  C1  UNL     1     -33.139   6.592   2.187  1.00 20.00     0.178 C 
HETATM    2  C2  UNL     1     -33.761   5.401   2.894  1.00 20.00     0.102 C 
HETATM    3  C3  UNL     1     -34.089   7.753   3.946  1.00 20.00     0.241 C 
HETATM    4  O4  UNL     1     -32.897   7.609   3.166  1.00 20.00    -0.381 OA
HETATM    5  S5  UNL     1     -34.954   6.171   4.002  1.00 20.00    -0.141 SA
ENDROOT
TORSDOF 0
ENDMDL
MODEL 9
REMARK VINA RESULT:      -0.2      2.148      2.744
REMARK  0 active torsions:
REMARK  status: ('A' for Active; 'I' for Inactive)
ROOT
HETATM    1  C1  UNL     1     -34.004   4.278   4.174  1.00 20.00     0.178 C 
HETATM    2  C2  UNL     1     -33.409   5.022   2.992  1.00 20.00     0.102 C 
HETATM    3  C3  UNL     1     -35.307   6.180   4.334  1.00 20.00     0.241 C 
HETATM    4  O4  UNL     1     -35.342   4.750   4.364  1.00 20.00    -0.381 OA
HETATM    5  S5  UNL     1     -33.953   6.717   3.270  1.00 20.00    -0.141 SA
ENDROOT
TORSDOF 0
ENDMDL
