MODEL 1
REMARK VINA RESULT:      -0.9      0.000      0.000
REMARK  0 active torsions:
REMARK  status: ('A' for Active; 'I' for Inactive)
ROOT
HETATM    1  C1  UNL     1     -34.237   7.265   3.806  1.00 20.00     0.029 C 
HETATM    2  C2  UNL     1     -32.905   7.972   3.564  1.00 20.00     0.044 C 
HETATM    3  C3  UNL     1     -34.137   5.790   3.424  1.00 20.00     0.167 C 
HETATM    4  C4  UNL     1     -32.432   6.198   1.820  1.00 20.00     0.207 C 
HETATM    5  C5  UNL     1     -32.412   8.710   1.109  1.00 20.00     0.209 A 
HETATM    6  C6  UNL     1     -32.421   7.649   2.184  1.00 20.00     0.103 A 
HETATM    7  O7  UNL     1     -33.733   5.648   2.059  1.00 20.00    -0.388 OA
HETATM    8  O8  UNL     1     -31.218   8.336   1.812  1.00 20.00    -0.373 OA
ENDROOT
TORSDOF 0
ENDMDL
MODEL 2
REMARK VINA RESULT:      -0.7      1.414      3.432
REMARK  0 active torsions:
REMARK  status: ('A' for Active; 'I' for Inactive)
ROOT
HETATM    1  C1  UNL     1     -32.771   6.048   1.418  1.00 20.00     0.029 C 
HETATM    2  C2  UNL     1     -33.481   5.403   2.606  1.00 20.00     0.044 C 
HETATM    3  C3  UNL     1     -31.931   7.238   1.878  1.00 20.00     0.167 C 
HETATM    4  C4  UNL     1     -33.336   7.659   3.747  1.00 20.00     0.207 C 
HETATM    5  C5  UNL     1     -35.679   6.559   3.410  1.00 20.00     0.209 A 
HETATM    6  C6  UNL     1     -34.172   6.467   3.402  1.00 20.00     0.103 A 
HETATM    7  O7  UNL     1     -32.745   8.197   2.559  1.00 20.00    -0.388 OA
HETATM    8  O8  UNL     1     -34.952   5.964   4.495  1.00 20.00    -0.373 OA
ENDROOT
TORSDOF 0
ENDMDL
MODEL 3
REMARK VINA RESULT:      -0.5      1.300      3.153
REMARK  0 active torsions:
REMARK  status: ('A' for Active; 'I' for Inactive)
ROOT
HETATM    1  C1  UNL     1     -32.384   8.135   3.597  1.00 20.00     0.029 C 
HETATM    2  C2  UNL     1     -33.840   7.844   3.952  1.00 20.00     0.044 C 
HETATM    3  C3  UNL     1     -32.137   7.897   2.109  1.00 20.00     0.167 C 
HETATM    4  C4  UNL     1     -33.874   6.282   1.959  1.00 20.00     0.207 C 
HETATM    5  C5  UNL     1     -34.464   5.335   4.319  1.00 20.00     0.209 A 
HETATM    6  C6  UNL     1     -34.223   6.506   3.396  1.00 20.00     0.103 A 
HETATM    7  O7  UNL     1     -32.484   6.556   1.749  1.00 20.00    -0.388 OA
HETATM    8  O8  UNL     1     -35.547   6.085   3.749  1.00 20.00    -0.373 OA
ENDROOT
TORSDOF 0
ENDMDL
MODEL 4
REMARK VINA RESULT:      -0.4      1.384      1.981
REMARK  0 active torsions:
REMARK  status: ('A' for Active; 'I' for Inactive)
ROOT
HETATM    1  C1  UNL     1     -33.519   5.373   2.966  1.00 20.00     0.029 C 
HETATM    2  C2  UNL     1     -33.076   6.212   1.770  1.00 20.00     0.044 C 
HETATM    3  C3  UNL     1     -34.595   6.106   3.765  1.00 20.00     0.167 C 
HETATM    4  C4  UNL     1     -33.803   8.244   3.095  1.00 20.00     0.207 C 
HETATM    5  C5  UNL     1     -31.335   8.096   2.257  1.00 20.00     0.209 A 
HETATM    6  C6  UNL     1     -32.761   7.601   2.234  1.00 20.00     0.103 A 
HETATM    7  O7  UNL     1     -34.119   7.385   4.196  1.00 20.00    -0.388 OA
HETATM    8  O8  UNL     1     -32.244   8.457   1.206  1.00 20.00    -0.373 OA
ENDROOT
TORSDOF 0
ENDMDL
MODEL 5
REMARK VINA RESULT:      -0.2      1.571      2.704
REMARK  0 active torsions:
REMARK  status: ('A' for Active; 'I' for Inactive)
ROOT
HETATM    1  C1  UNL     1     -31.947   7.042   1.660  1.00 20.00     0.029 C 
HETATM    2  C2  UNL     1     -32.899   8.039   2.319  1.00 20.00     0.044 C 
HETATM    3  C3  UNL     1     -32.649   5.705   1.430  1.00 20.00     0.167 C 
HETATM    4  C4  UNL     1     -34.137   6.037   3.252  1.00 20.00     0.207 C 
HETATM    5  C5  UNL     1     -33.195   7.824   4.904  1.00 20.00     0.209 A 
HETATM    6  C6  UNL     1     -33.549   7.389   3.502  1.00 20.00     0.103 A 
HETATM    7  O7  UNL     1     -33.153   5.181   2.662  1.00 20.00    -0.388 OA
HETATM    8  O8  UNL     1     -34.397   8.265   4.256  1.00 20.00    -0.373 OA
ENDROOT
TORSDOF 0
ENDMDL
MODEL 6
REMARK VINA RESULT:      -0.1      1.576      2.281
REMARK  0 active torsions:
REMARK  status: ('A' for Active; 'I' for Inactive)
ROOT
HETATM    1  C1  UNL     1     -33.309   8.258   2.820  1.00 20.00     0.029 C 
HETATM    2  C2  UNL     1     -32.260   7.359   2.169  1.00 20.00     0.044 C 
HETATM    3  C3  UNL     1     -33.939   7.560   4.023  1.00 20.00     0.167 C 
HETATM    4  C4  UNL     1     -33.542   5.396   3.125  1.00 20.00     0.207 C 
HETATM    5  C5  UNL     1     -33.156   5.520   0.547  1.00 20.00     0.209 A 
HETATM    6  C6  UNL     1     -32.849   6.000   1.945  1.00 20.00     0.103 A 
HETATM    7  O7  UNL     1     -34.519   6.311   3.634  1.00 20.00    -0.388 OA
HETATM    8  O8  UNL     1     -31.981   5.094   1.251  1.00 20.00    -0.373 OA
ENDROOT
TORSDOF 0
ENDMDL
MODEL 7
REMARK VINA RESULT:      -0.0      1.842      2.193
REMARK  0 active torsions:
REMARK  status: ('A' for Active; 'I' for Inactive)
ROOT
HETATM    1  C1  UNL     1     -35.382   6.446   3.843  1.00 20.00     0.029 C 
HETATM    2  C2  UNL     1     -34.059   6.963   3.284  1.00 20.00     0.044 C 
HETATM    3  C3  UNL     1     -35.154   5.197   4.691  1.00 20.00     0.167 C 
HETATM    4  C4  UNL     1     -33.202   4.588   3.480  1.00 20.00     0.207 C 
HETATM    5  C5  UNL     1     -33.155   5.762   1.149  1.00 20.00     0.209 A 
HETATM    6  C6  UNL     1     -33.317   5.827   2.649  1.00 20.00     0.103 A 
HETATM    7  O7  UNL     1     -34.501   4.180   3.925  1.00 20.00    -0.388 OA
HETATM    8  O8  UNL     1     -32.096   6.214   2.005  1.00 20.00    -0.373 OA
ENDROOT
TORSDOF 0
ENDMDL
MODEL 8
REMARK VINA RESULT:       0.2      1.160      2.526
REMARK  0 active torsions:
REMARK  status: ('A' for Active; 'I' for Inactive)
ROOT
HETATM    1  C1  UNL     1     -34.187   6.615   4.074  1.00 20.00     0.029 C 
HETATM    2  C2  UNL     1     -34.263   6.019   2.670  1.00 20.00     0.044 C 
HETATM    3  C3  UNL     1     -33.705   8.063   4.015  1.00 20.00     0.167 C 
HETATM    4  C4  UNL     1     -32.493   7.701   2.003  1.00 20.00     0.207 C 
HETATM    5  C5  UNL     1     -32.018   5.159   1.652  1.00 20.00     0.209 A 
HETATM    6  C6  UNL     1     -32.977   6.286   1.952  1.00 20.00     0.103 A 
HETATM    7  O7  UNL     1     -32.433   8.145   3.364  1.00 20.00    -0.388 OA
HETATM    8  O8  UNL     1     -32.899   5.689   0.651  1.00 20.00    -0.373 OA
ENDROOT
TORSDOF 0
ENDMDL
MODEL 9
REMARK VINA RESULT:       0.8      2.278      3.078
REMARK  0 active torsions:
REMARK  status: ('A' for Active; 'I' for Inactive)
ROOT
HETATM    1  C1  UNL     1     -32.912   4.717   3.259  1.00 20.00     0.029 C 
HETATM    2  C2  UNL     1     -33.336   6.088   2.739  1.00 20.00     0.044 C 
HETATM    3  C3  UNL     1     -34.132   3.910   3.698  1.00 20.00     0.167 C 
HETATM    4  C4  UNL     1     -35.388   5.861   4.205  1.00 20.00     0.207 C 
HETATM    5  C5  UNL     1     -33.813   7.915   4.542  1.00 20.00     0.209 A 
HETATM    6  C6  UNL     1     -34.262   6.724   3.730  1.00 20.00     0.103 A 
HETATM    7  O7  UNL     1     -34.873   4.618   4.695  1.00 20.00    -0.388 OA
HETATM    8  O8  UNL     1     -34.654   8.061   3.388  1.00 20.00    -0.373 OA
ENDROOT
TORSDOF 0
ENDMDL
