MODEL 1
REMARK VINA RESULT:      -2.4      0.000      0.000
REMARK  2 active torsions:
REMARK  status: ('A' for Active; 'I' for Inactive)
REMARK    1  A    between atoms: C5_5  and  C6_6 
REMARK    2  A    between atoms: C6_6  and  O7_7 
ROOT
HETATM    1  C1  UNL     1     -32.694   7.686   2.159  1.00 20.00    -0.004 A 
HETATM    2  C2  UNL     1     -32.759   6.367   1.588  1.00 20.00    -0.004 A 
HETATM    3  C3  UNL     1     -33.302   7.688   3.354  1.00 20.00    -0.016 A 
HETATM    4  C4  UNL     1     -33.407   5.545   2.425  1.00 20.00    -0.016 A 
HETATM    5  C5  UNL     1     -33.827   6.308   3.656  1.00 20.00     0.054 A 
ENDROOT
BRANCH   5   6
HETATM    6  C6  UNL     1     -35.337   6.295   3.856  1.00 20.00     0.176 C 
BRANCH   6   7
HETATM    7  O7  UNL     1     -35.693   5.108   4.541  1.00 20.00    -0.400 OA
HETATM    8  H15 UNL     1     -36.206   4.563   3.919  1.00 20.00     0.209 HD
ENDBRANCH   6   7
ENDBRANCH   5   6
TORSDOF 2
ENDMDL
MODEL 2
REMARK VINA RESULT:      -2.2      0.913      1.744
REMARK  2 active torsions:
REMARK  status: ('A' for Active; 'I' for Inactive)
REMARK    1  A    between atoms: C5_5  and  C6_6 
REMARK    2  A    between atoms: C6_6  and  O7_7 
ROOT
HETATM    1  C1  UNL     1     -32.585   7.386   2.510  1.00 20.00    -0.004 A 
HETATM    2  C2  UNL     1     -33.204   8.055   3.623  1.00 20.00    -0.004 A 
HETATM    3  C3  UNL     1     -33.260   6.263   2.228  1.00 20.00    -0.016 A 
HETATM    4  C4  UNL     1     -34.267   7.352   4.036  1.00 20.00    -0.016 A 
HETATM    5  C5  UNL     1     -34.420   6.119   3.181  1.00 20.00     0.054 A 
ENDROOT
BRANCH   5   6
HETATM    6  C6  UNL     1     -34.340   4.836   3.997  1.00 20.00     0.176 C 
BRANCH   6   7
HETATM    7  O7  UNL     1     -35.540   4.694   4.736  1.00 20.00    -0.400 OA
HETATM    8  H15 UNL     1     -35.796   5.582   5.038  1.00 20.00     0.209 HD
ENDBRANCH   6   7
ENDBRANCH   5   6
TORSDOF 2
ENDMDL
MODEL 3
REMARK VINA RESULT:      -1.9      1.961      2.801
REMARK  2 active torsions:
REMARK  status: ('A' for Active; 'I' for Inactive)
REMARK    1  A    between atoms: C5_5  and  C6_6 
REMARK    2  A    between atoms: C6_6  and  O7_7 
ROOT
HETATM    1  C1  UNL     1     -33.835   6.655   3.182  1.00 20.00    -0.004 A 
HETATM    2  C2  UNL     1     -34.981   6.613   4.053  1.00 20.00    -0.004 A 
HETATM    3  C3  UNL     1     -33.390   5.410   2.966  1.00 20.00    -0.016 A 
HETATM    4  C4  UNL     1     -35.252   5.342   4.379  1.00 20.00    -0.016 A 
HETATM    5  C5  UNL     1     -34.255   4.427   3.713  1.00 20.00     0.054 A 
ENDROOT
BRANCH   5   6
HETATM    6  C6  UNL     1     -33.460   3.608   4.721  1.00 20.00     0.176 C 
BRANCH   6   7
HETATM    7  O7  UNL     1     -33.608   2.234   4.406  1.00 20.00    -0.400 OA
HETATM    8  H15 UNL     1     -33.155   1.731   5.105  1.00 20.00     0.209 HD
ENDBRANCH   6   7
ENDBRANCH   5   6
TORSDOF 2
ENDMDL
MODEL 4
REMARK VINA RESULT:      -1.9      2.162      3.411
REMARK  2 active torsions:
REMARK  status: ('A' for Active; 'I' for Inactive)
REMARK    1  A    between atoms: C5_5  and  C6_6 
REMARK    2  A    between atoms: C6_6  and  O7_7 
ROOT
HETATM    1  C1  UNL     1     -35.076   5.028   4.158  1.00 20.00    -0.004 A 
HETATM    2  C2  UNL     1     -35.359   6.439   4.174  1.00 20.00    -0.004 A 
HETATM    3  C3  UNL     1     -33.865   4.820   3.623  1.00 20.00    -0.016 A 
HETATM    4  C4  UNL     1     -34.325   7.112   3.651  1.00 20.00    -0.016 A 
HETATM    5  C5  UNL     1     -33.248   6.141   3.239  1.00 20.00     0.054 A 
ENDROOT
BRANCH   5   6
HETATM    6  C6  UNL     1     -32.937   6.221   1.750  1.00 20.00     0.176 C 
BRANCH   6   7
HETATM    7  O7  UNL     1     -32.068   7.318   1.528  1.00 20.00    -0.400 OA
HETATM    8  H15 UNL     1     -31.458   7.059   0.816  1.00 20.00     0.209 HD
ENDBRANCH   6   7
ENDBRANCH   5   6
TORSDOF 2
ENDMDL
MODEL 5
REMARK VINA RESULT:      -1.9      0.885      1.780
REMARK  2 active torsions:
REMARK  status: ('A' for Active; 'I' for Inactive)
REMARK    1  A    between atoms: C5_5  and  C6_6 
REMARK    2  A    between atoms: C6_6  and  O7_7 
ROOT
HETATM    1  C1  UNL     1     -31.986   6.150   1.449  1.00 20.00    -0.004 A 
HETATM    2  C2  UNL     1     -31.761   7.523   1.813  1.00 20.00    -0.004 A 
HETATM    3  C3  UNL     1     -33.202   5.769   1.865  1.00 20.00    -0.016 A 
HETATM    4  C4  UNL     1     -32.836   8.002   2.453  1.00 20.00    -0.016 A 
HETATM    5  C5  UNL     1     -33.884   6.922   2.556  1.00 20.00     0.054 A 
ENDROOT
BRANCH   5   6
HETATM    6  C6  UNL     1     -34.240   6.600   4.001  1.00 20.00     0.176 C 
BRANCH   6   7
HETATM    7  O7  UNL     1     -35.565   6.098   4.040  1.00 20.00    -0.400 OA
HETATM    8  H15 UNL     1     -35.502   5.134   4.151  1.00 20.00     0.209 HD
ENDBRANCH   6   7
ENDBRANCH   5   6
TORSDOF 2
ENDMDL
MODEL 6
REMARK VINA RESULT:      -1.8      2.089      3.237
REMARK  2 active torsions:
REMARK  status: ('A' for Active; 'I' for Inactive)
REMARK    1  A    between atoms: C5_5  and  C6_6 
REMARK    2  A    between atoms: C6_6  and  O7_7 
ROOT
HETATM    1  C1  UNL     1     -35.207   6.190   4.130  1.00 20.00    -0.004 A 
HETATM    2  C2  UNL     1     -34.639   7.512   4.105  1.00 20.00    -0.004 A 
HETATM    3  C3  UNL     1     -34.384   5.336   3.506  1.00 20.00    -0.016 A 
HETATM    4  C4  UNL     1     -33.462   7.484   3.466  1.00 20.00    -0.016 A 
HETATM    5  C5  UNL     1     -33.168   6.077   3.011  1.00 20.00     0.054 A 
ENDROOT
BRANCH   5   6
HETATM    6  C6  UNL     1     -33.009   5.981   1.499  1.00 20.00     0.176 C 
BRANCH   6   7
HETATM    7  O7  UNL     1     -31.813   5.279   1.212  1.00 20.00    -0.400 OA
HETATM    8  H15 UNL     1     -31.893   4.937   0.305  1.00 20.00     0.209 HD
ENDBRANCH   6   7
ENDBRANCH   5   6
TORSDOF 2
ENDMDL
MODEL 7
REMARK VINA RESULT:      -1.8      2.128      3.142
REMARK  2 active torsions:
REMARK  status: ('A' for Active; 'I' for Inactive)
REMARK    1  A    between atoms: C5_5  and  C6_6 
REMARK    2  A    between atoms: C6_6  and  O7_7 
ROOT
HETATM    1  C1  UNL     1     -35.304   5.306   4.523  1.00 20.00    -0.004 A 
HETATM    2  C2  UNL     1     -34.229   4.463   4.073  1.00 20.00    -0.004 A 
HETATM    3  C3  UNL     1     -35.223   6.499   3.918  1.00 20.00    -0.016 A 
HETATM    4  C4  UNL     1     -33.476   5.129   3.186  1.00 20.00    -0.016 A 
HETATM    5  C5  UNL     1     -34.036   6.515   2.989  1.00 20.00     0.054 A 
ENDROOT
BRANCH   5   6
HETATM    6  C6  UNL     1     -33.032   7.600   3.353  1.00 20.00     0.176 C 
BRANCH   6   7
HETATM    7  O7  UNL     1     -32.302   7.951   2.191  1.00 20.00    -0.400 OA
HETATM    8  H15 UNL     1     -31.831   8.779   2.389  1.00 20.00     0.209 HD
ENDBRANCH   6   7
ENDBRANCH   5   6
TORSDOF 2
ENDMDL
MODEL 8
REMARK VINA RESULT:      -1.7      2.750      3.851
REMARK  2 active torsions:
REMARK  status: ('A' for Active; 'I' for Inactive)
REMARK    1  A    between atoms: C5_5  and  C6_6 
REMARK    2  A    between atoms: C6_6  and  O7_7 
ROOT
HETATM    1  C1  UNL     1     -33.124   5.909   2.062  1.00 20.00    -0.004 A 
HETATM    2  C2  UNL     1     -33.616   6.932   2.946  1.00 20.00    -0.004 A 
HETATM    3  C3  UNL     1     -32.104   6.392   1.340  1.00 20.00    -0.016 A 
HETATM    4  C4  UNL     1     -32.903   8.053   2.777  1.00 20.00    -0.016 A 
HETATM    5  C5  UNL     1     -31.849   7.828   1.723  1.00 20.00     0.054 A 
ENDROOT
BRANCH   5   6
HETATM    6  C6  UNL     1     -32.002   8.776   0.542  1.00 20.00     0.176 C 
BRANCH   6   7
HETATM    7  O7  UNL     1     -32.636   9.961   0.991  1.00 20.00    -0.400 OA
HETATM    8  H15 UNL     1     -32.915  10.453   0.199  1.00 20.00     0.209 HD
ENDBRANCH   6   7
ENDBRANCH   5   6
TORSDOF 2
ENDMDL
MODEL 9
REMARK VINA RESULT:      -1.6      2.468      3.231
REMARK  2 active torsions:
REMARK  status: ('A' for Active; 'I' for Inactive)
REMARK    1  A    between atoms: C5_5  and  C6_6 
REMARK    2  A    between atoms: C6_6  and  O7_7 
ROOT
HETATM    1  C1  UNL     1     -34.459   6.277   4.078  1.00 20.00    -0.004 A 
HETATM    2  C2  UNL     1     -33.893   5.183   3.334  1.00 20.00    -0.004 A 
HETATM    3  C3  UNL     1     -34.197   7.431   3.448  1.00 20.00    -0.016 A 
HETATM    4  C4  UNL     1     -33.279   5.653   2.240  1.00 20.00    -0.016 A 
HETATM    5  C5  UNL     1     -33.409   7.154   2.193  1.00 20.00     0.054 A 
ENDROOT
BRANCH   5   6
HETATM    6  C6  UNL     1     -32.055   7.851   2.197  1.00 20.00     0.176 C 
BRANCH   6   7
HETATM    7  O7  UNL     1     -32.011   8.761   1.112  1.00 20.00    -0.400 OA
HETATM    8  H15 UNL     1     -31.527   9.547   1.418  1.00 20.00     0.209 HD
ENDBRANCH   6   7
ENDBRANCH   5   6
TORSDOF 2
ENDMDL
