MODEL 1
REMARK VINA RESULT:       1.4      0.000      0.000
REMARK  1 active torsions:
REMARK  status: ('A' for Active; 'I' for Inactive)
REMARK    1  A    between atoms: C1_1  and  C6_6 
ROOT
HETATM    1  C2  UNL     1     -33.136   6.103   1.567  1.00 20.00     0.002 C 
HETATM    2  C3  UNL     1     -31.822   6.758   1.154  1.00 20.00     0.012 C 
HETATM    3  C4  UNL     1     -33.409   6.278   3.057  1.00 20.00     0.009 C 
HETATM    4  C5  UNL     1     -32.112   8.458   3.040  1.00 20.00     0.021 C 
HETATM    5  C6  UNL     1     -31.715   8.221   1.577  1.00 20.00     0.055 C 
HETATM    6  C7  UNL     1     -33.408   7.753   3.510  1.00 20.00    -0.047 C 
HETATM    7  C9  UNL     1     -34.662   8.480   2.988  1.00 20.00     0.015 C 
HETATM    8  C10 UNL     1     -33.460   7.798   5.051  1.00 20.00     0.015 C 
ENDROOT
BRANCH   5   9
HETATM    9  C1  UNL     1     -32.473   9.125   0.649  1.00 20.00     0.127 C 
HETATM   10  C8  UNL     1     -32.644  10.554   1.085  1.00 20.00     0.091 C 
HETATM   11  O11 UNL     1     -32.930   8.716  -0.418  1.00 20.00    -0.298 OA
ENDBRANCH   5   9
TORSDOF 1
ENDMDL
MODEL 2
REMARK VINA RESULT:       1.6      0.826      1.018
REMARK  1 active torsions:
REMARK  status: ('A' for Active; 'I' for Inactive)
REMARK    1  A    between atoms: C1_1  and  C6_6 
ROOT
HETATM    1  C2  UNL     1     -33.239   6.236   1.574  1.00 20.00     0.002 C 
HETATM    2  C3  UNL     1     -31.875   6.823   1.224  1.00 20.00     0.012 C 
HETATM    3  C4  UNL     1     -33.537   6.352   3.065  1.00 20.00     0.009 C 
HETATM    4  C5  UNL     1     -32.101   8.440   3.190  1.00 20.00     0.021 C 
HETATM    5  C6  UNL     1     -31.684   8.252   1.726  1.00 20.00     0.055 C 
HETATM    6  C7  UNL     1     -33.452   7.798   3.595  1.00 20.00    -0.047 C 
HETATM    7  C9  UNL     1     -34.642   8.633   3.085  1.00 20.00     0.015 C 
HETATM    8  C10 UNL     1     -33.539   7.769   5.135  1.00 20.00     0.015 C 
ENDROOT
BRANCH   5   9
HETATM    9  C1  UNL     1     -32.359   9.250   0.830  1.00 20.00     0.127 C 
HETATM   10  C8  UNL     1     -32.495   8.875  -0.620  1.00 20.00     0.091 C 
HETATM   11  O11 UNL     1     -32.782  10.322   1.262  1.00 20.00    -0.298 OA
ENDBRANCH   5   9
TORSDOF 1
ENDMDL
MODEL 3
REMARK VINA RESULT:       2.2      2.133      3.676
REMARK  1 active torsions:
REMARK  status: ('A' for Active; 'I' for Inactive)
REMARK    1  A    between atoms: C1_1  and  C6_6 
ROOT
HETATM    1  C2  UNL     1     -31.312   5.640   1.593  1.00 20.00     0.002 C 
HETATM    2  C3  UNL     1     -32.686   5.059   1.277  1.00 20.00     0.012 C 
HETATM    3  C4  UNL     1     -31.197   7.093   1.145  1.00 20.00     0.009 C 
HETATM    4  C5  UNL     1     -33.692   7.398   1.493  1.00 20.00     0.021 C 
HETATM    5  C6  UNL     1     -33.839   5.905   1.811  1.00 20.00     0.055 C 
HETATM    6  C7  UNL     1     -32.288   8.005   1.742  1.00 20.00    -0.047 C 
HETATM    7  C9  UNL     1     -32.038   8.237   3.244  1.00 20.00     0.015 C 
HETATM    8  C10 UNL     1     -32.219   9.381   1.048  1.00 20.00     0.015 C 
ENDROOT
BRANCH   5   9
HETATM    9  C1  UNL     1     -34.065   5.674   3.277  1.00 20.00     0.127 C 
HETATM   10  C8  UNL     1     -34.920   6.681   3.997  1.00 20.00     0.091 C 
HETATM   11  O11 UNL     1     -33.575   4.708   3.860  1.00 20.00    -0.298 OA
ENDBRANCH   5   9
TORSDOF 1
ENDMDL
MODEL 4
REMARK VINA RESULT:       2.2      1.815      3.886
REMARK  1 active torsions:
REMARK  status: ('A' for Active; 'I' for Inactive)
REMARK    1  A    between atoms: C1_1  and  C6_6 
ROOT
HETATM    1  C2  UNL     1     -32.320   8.374   1.875  1.00 20.00     0.002 C 
HETATM    2  C3  UNL     1     -32.360   8.091   3.374  1.00 20.00     0.012 C 
HETATM    3  C4  UNL     1     -31.813   7.170   1.087  1.00 20.00     0.009 C 
HETATM    4  C5  UNL     1     -32.740   5.615   2.865  1.00 20.00     0.021 C 
HETATM    5  C6  UNL     1     -33.129   6.821   3.730  1.00 20.00     0.055 C 
HETATM    6  C7  UNL     1     -32.627   5.885   1.344  1.00 20.00    -0.047 C 
HETATM    7  C9  UNL     1     -34.017   5.984   0.688  1.00 20.00     0.015 C 
HETATM    8  C10 UNL     1     -31.895   4.696   0.688  1.00 20.00     0.015 C 
ENDROOT
BRANCH   5   9
HETATM    9  C1  UNL     1     -34.612   7.049   3.720  1.00 20.00     0.127 C 
HETATM   10  C8  UNL     1     -35.480   5.874   4.080  1.00 20.00     0.091 C 
HETATM   11  O11 UNL     1     -35.094   8.144   3.433  1.00 20.00    -0.298 OA
ENDBRANCH   5   9
TORSDOF 1
ENDMDL
MODEL 5
REMARK VINA RESULT:       2.3      1.945      3.743
REMARK  1 active torsions:
REMARK  status: ('A' for Active; 'I' for Inactive)
REMARK    1  A    between atoms: C1_1  and  C6_6 
ROOT
HETATM    1  C2  UNL     1     -31.659   5.626   1.716  1.00 20.00     0.002 C 
HETATM    2  C3  UNL     1     -33.134   5.276   1.543  1.00 20.00     0.012 C 
HETATM    3  C4  UNL     1     -31.333   6.998   1.135  1.00 20.00     0.009 C 
HETATM    4  C5  UNL     1     -33.702   7.767   1.618  1.00 20.00     0.021 C 
HETATM    5  C6  UNL     1     -34.078   6.352   2.075  1.00 20.00     0.055 C 
HETATM    6  C7  UNL     1     -32.199   8.132   1.720  1.00 20.00    -0.047 C 
HETATM    7  C9  UNL     1     -31.793   8.427   3.177  1.00 20.00     0.015 C 
HETATM    8  C10 UNL     1     -31.951   9.417   0.905  1.00 20.00     0.015 C 
ENDROOT
BRANCH   5   9
HETATM    9  C1  UNL     1     -34.221   6.276   3.567  1.00 20.00     0.127 C 
HETATM   10  C8  UNL     1     -34.217   4.901   4.179  1.00 20.00     0.091 C 
HETATM   11  O11 UNL     1     -34.335   7.288   4.257  1.00 20.00    -0.298 OA
ENDBRANCH   5   9
TORSDOF 1
ENDMDL
MODEL 6
REMARK VINA RESULT:       2.5      1.864      3.326
REMARK  1 active torsions:
REMARK  status: ('A' for Active; 'I' for Inactive)
REMARK    1  A    between atoms: C1_1  and  C6_6 
ROOT
HETATM    1  C2  UNL     1     -32.202   7.813   3.389  1.00 20.00     0.002 C 
HETATM    2  C3  UNL     1     -32.291   7.914   1.870  1.00 20.00     0.012 C 
HETATM    3  C4  UNL     1     -33.571   7.586   4.021  1.00 20.00     0.009 C 
HETATM    4  C5  UNL     1     -34.343   6.391   1.921  1.00 20.00     0.021 C 
HETATM    5  C6  UNL     1     -33.019   6.736   1.227  1.00 20.00     0.055 C 
HETATM    6  C7  UNL     1     -34.301   6.344   3.469  1.00 20.00    -0.047 C 
HETATM    7  C9  UNL     1     -33.629   5.052   3.971  1.00 20.00     0.015 C 
HETATM    8  C10 UNL     1     -35.750   6.344   3.998  1.00 20.00     0.015 C 
ENDROOT
BRANCH   5   9
HETATM    9  C1  UNL     1     -32.131   5.532   1.108  1.00 20.00     0.127 C 
HETATM   10  C8  UNL     1     -32.631   4.403   0.248  1.00 20.00     0.091 C 
HETATM   11  O11 UNL     1     -31.045   5.472   1.684  1.00 20.00    -0.298 OA
ENDBRANCH   5   9
TORSDOF 1
ENDMDL
MODEL 7
REMARK VINA RESULT:       2.9      2.418      4.160
REMARK  1 active torsions:
REMARK  status: ('A' for Active; 'I' for Inactive)
REMARK    1  A    between atoms: C1_1  and  C6_6 
ROOT
HETATM    1  C2  UNL     1     -33.118   8.163   2.438  1.00 20.00     0.002 C 
HETATM    2  C3  UNL     1     -33.182   7.676   3.882  1.00 20.00     0.012 C 
HETATM    3  C4  UNL     1     -32.236   7.263   1.578  1.00 20.00     0.009 C 
HETATM    4  C5  UNL     1     -32.806   5.285   3.061  1.00 20.00     0.021 C 
HETATM    5  C6  UNL     1     -33.582   6.208   4.009  1.00 20.00     0.055 C 
HETATM    6  C7  UNL     1     -32.667   5.782   1.600  1.00 20.00    -0.047 C 
HETATM    7  C9  UNL     1     -33.978   5.588   0.816  1.00 20.00     0.015 C 
HETATM    8  C10 UNL     1     -31.582   4.940   0.897  1.00 20.00     0.015 C 
ENDROOT
BRANCH   5   9
HETATM    9  C1  UNL     1     -35.064   6.021   3.867  1.00 20.00     0.127 C 
HETATM   10  C8  UNL     1     -35.822   7.122   3.175  1.00 20.00     0.091 C 
HETATM   11  O11 UNL     1     -35.632   5.017   4.294  1.00 20.00    -0.298 OA
ENDBRANCH   5   9
TORSDOF 1
ENDMDL
MODEL 8
REMARK VINA RESULT:       3.4      2.061      3.704
REMARK  1 active torsions:
REMARK  status: ('A' for Active; 'I' for Inactive)
REMARK    1  A    between atoms: C1_1  and  C6_6 
ROOT
HETATM    1  C2  UNL     1     -33.894   4.909   3.980  1.00 20.00     0.002 C 
HETATM    2  C3  UNL     1     -34.711   6.196   3.933  1.00 20.00     0.012 C 
HETATM    3  C4  UNL     1     -33.695   4.317   2.588  1.00 20.00     0.009 C 
HETATM    4  C5  UNL     1     -33.817   6.642   1.581  1.00 20.00     0.021 C 
HETATM    5  C6  UNL     1     -34.156   7.230   2.956  1.00 20.00     0.055 C 
HETATM    6  C7  UNL     1     -33.044   5.300   1.593  1.00 20.00    -0.047 C 
HETATM    7  C9  UNL     1     -31.558   5.514   1.936  1.00 20.00     0.015 C 
HETATM    8  C10 UNL     1     -33.105   4.687   0.179  1.00 20.00     0.015 C 
ENDROOT
BRANCH   5   9
HETATM    9  C1  UNL     1     -32.990   7.975   3.539  1.00 20.00     0.127 C 
HETATM   10  C8  UNL     1     -33.027   8.240   5.019  1.00 20.00     0.091 C 
HETATM   11  O11 UNL     1     -32.049   8.349   2.839  1.00 20.00    -0.298 OA
ENDBRANCH   5   9
TORSDOF 1
ENDMDL
MODEL 9
REMARK VINA RESULT:       3.9      1.814      3.024
REMARK  1 active torsions:
REMARK  status: ('A' for Active; 'I' for Inactive)
REMARK    1  A    between atoms: C1_1  and  C6_6 
ROOT
HETATM    1  C2  UNL     1     -32.808   8.087   4.255  1.00 20.00     0.002 C 
HETATM    2  C3  UNL     1     -32.960   8.563   2.814  1.00 20.00     0.012 C 
HETATM    3  C4  UNL     1     -34.056   7.357   4.742  1.00 20.00     0.009 C 
HETATM    4  C5  UNL     1     -34.546   6.609   2.367  1.00 20.00     0.021 C 
HETATM    5  C6  UNL     1     -33.374   7.454   1.850  1.00 20.00     0.055 C 
HETATM    6  C7  UNL     1     -34.454   6.164   3.848  1.00 20.00    -0.047 C 
HETATM    7  C9  UNL     1     -33.458   5.001   4.022  1.00 20.00     0.015 C 
HETATM    8  C10 UNL     1     -35.840   5.652   4.293  1.00 20.00     0.015 C 
ENDROOT
BRANCH   5   9
HETATM    9  C1  UNL     1     -32.208   6.595   1.458  1.00 20.00     0.127 C 
HETATM   10  C8  UNL     1     -30.861   7.263   1.408  1.00 20.00     0.091 C 
HETATM   11  O11 UNL     1     -32.347   5.401   1.192  1.00 20.00    -0.298 OA
ENDBRANCH   5   9
TORSDOF 1
ENDMDL
