MODEL 1
REMARK VINA RESULT:      -2.4      0.000      0.000
REMARK  0 active torsions:
REMARK  status: ('A' for Active; 'I' for Inactive)
ROOT
HETATM    1  C1  UNL     1     -33.475   6.294   2.539  1.00 20.00     0.223 C 
HETATM    2  C2  UNL     1     -34.159   6.720   3.566  1.00 20.00    -0.033 C 
HETATM    3  C3  UNL     1     -35.375   5.999   4.073  1.00 20.00     0.047 C 
HETATM    4  C4  UNL     1     -33.784   7.962   4.320  1.00 20.00     0.047 C 
HETATM    5  O5  UNL     1     -32.858   5.911   1.615  1.00 20.00    -0.284 OA
ENDROOT
TORSDOF 0
ENDMDL
MODEL 2
REMARK VINA RESULT:      -2.4      0.002      1.606
REMARK  0 active torsions:
REMARK  status: ('A' for Active; 'I' for Inactive)
ROOT
HETATM    1  C1  UNL     1     -33.475   6.295   2.538  1.00 20.00     0.223 C 
HETATM    2  C2  UNL     1     -34.159   6.719   3.566  1.00 20.00    -0.033 C 
HETATM    3  C3  UNL     1     -33.782   7.961   4.321  1.00 20.00     0.047 C 
HETATM    4  C4  UNL     1     -35.374   6.000   4.072  1.00 20.00     0.047 C 
HETATM    5  O5  UNL     1     -32.860   5.913   1.612  1.00 20.00    -0.284 OA
ENDROOT
TORSDOF 0
ENDMDL
MODEL 3
REMARK VINA RESULT:      -2.2      2.014      3.211
REMARK  0 active torsions:
REMARK  status: ('A' for Active; 'I' for Inactive)
ROOT
HETATM    1  C1  UNL     1     -33.666   7.121   3.174  1.00 20.00     0.223 C 
HETATM    2  C2  UNL     1     -32.827   6.973   2.187  1.00 20.00    -0.033 C 
HETATM    3  C3  UNL     1     -31.934   8.088   1.720  1.00 20.00     0.047 C 
HETATM    4  C4  UNL     1     -32.688   5.679   1.440  1.00 20.00     0.047 C 
HETATM    5  O5  UNL     1     -34.423   7.254   4.065  1.00 20.00    -0.284 OA
ENDROOT
TORSDOF 0
ENDMDL
MODEL 4
REMARK VINA RESULT:      -2.2      1.996      2.797
REMARK  0 active torsions:
REMARK  status: ('A' for Active; 'I' for Inactive)
ROOT
HETATM    1  C1  UNL     1     -33.709   7.071   3.166  1.00 20.00     0.223 C 
HETATM    2  C2  UNL     1     -32.849   6.946   2.193  1.00 20.00    -0.033 C 
HETATM    3  C3  UNL     1     -32.680   5.661   1.433  1.00 20.00     0.047 C 
HETATM    4  C4  UNL     1     -31.961   8.075   1.757  1.00 20.00     0.047 C 
HETATM    5  O5  UNL     1     -34.485   7.185   4.042  1.00 20.00    -0.284 OA
ENDROOT
TORSDOF 0
ENDMDL
MODEL 5
REMARK VINA RESULT:      -2.1      1.919      2.407
REMARK  0 active torsions:
REMARK  status: ('A' for Active; 'I' for Inactive)
ROOT
HETATM    1  C1  UNL     1     -33.985   4.788   3.768  1.00 20.00     0.223 C 
HETATM    2  C2  UNL     1     -33.821   5.974   3.251  1.00 20.00    -0.033 C 
HETATM    3  C3  UNL     1     -33.069   6.192   1.969  1.00 20.00     0.047 C 
HETATM    4  C4  UNL     1     -34.369   7.214   3.896  1.00 20.00     0.047 C 
HETATM    5  O5  UNL     1     -34.135   3.719   4.235  1.00 20.00    -0.284 OA
ENDROOT
TORSDOF 0
ENDMDL
MODEL 6
REMARK VINA RESULT:      -2.1      1.924      2.441
REMARK  0 active torsions:
REMARK  status: ('A' for Active; 'I' for Inactive)
ROOT
HETATM    1  C1  UNL     1     -33.986   4.779   3.777  1.00 20.00     0.223 C 
HETATM    2  C2  UNL     1     -33.827   5.966   3.260  1.00 20.00    -0.033 C 
HETATM    3  C3  UNL     1     -34.389   7.202   3.904  1.00 20.00     0.047 C 
HETATM    4  C4  UNL     1     -33.071   6.191   1.984  1.00 20.00     0.047 C 
HETATM    5  O5  UNL     1     -34.129   3.708   4.242  1.00 20.00    -0.284 OA
ENDROOT
TORSDOF 0
ENDMDL
MODEL 7
REMARK VINA RESULT:      -2.0      1.875      2.419
REMARK  0 active torsions:
REMARK  status: ('A' for Active; 'I' for Inactive)
ROOT
HETATM    1  C1  UNL     1     -34.761   5.546   4.069  1.00 20.00     0.223 C 
HETATM    2  C2  UNL     1     -34.053   6.485   3.505  1.00 20.00    -0.033 C 
HETATM    3  C3  UNL     1     -33.282   6.255   2.237  1.00 20.00     0.047 C 
HETATM    4  C4  UNL     1     -33.953   7.869   4.078  1.00 20.00     0.047 C 
HETATM    5  O5  UNL     1     -35.400   4.700   4.578  1.00 20.00    -0.284 OA
ENDROOT
TORSDOF 0
ENDMDL
MODEL 8
REMARK VINA RESULT:      -1.8      2.000      2.642
REMARK  0 active torsions:
REMARK  status: ('A' for Active; 'I' for Inactive)
ROOT
HETATM    1  C1  UNL     1     -32.399   8.133   1.575  1.00 20.00     0.223 C 
HETATM    2  C2  UNL     1     -32.878   7.085   2.187  1.00 20.00    -0.033 C 
HETATM    3  C3  UNL     1     -32.663   5.690   1.674  1.00 20.00     0.047 C 
HETATM    4  C4  UNL     1     -33.680   7.191   3.451  1.00 20.00     0.047 C 
HETATM    5  O5  UNL     1     -31.968   9.078   1.024  1.00 20.00    -0.284 OA
ENDROOT
TORSDOF 0
ENDMDL
MODEL 9
REMARK VINA RESULT:      -1.8      1.999      2.771
REMARK  0 active torsions:
REMARK  status: ('A' for Active; 'I' for Inactive)
ROOT
HETATM    1  C1  UNL     1     -32.399   8.133   1.575  1.00 20.00     0.223 C 
HETATM    2  C2  UNL     1     -32.880   7.085   2.185  1.00 20.00    -0.033 C 
HETATM    3  C3  UNL     1     -33.681   7.194   3.451  1.00 20.00     0.047 C 
HETATM    4  C4  UNL     1     -32.673   5.691   1.671  1.00 20.00     0.047 C 
HETATM    5  O5  UNL     1     -31.964   9.076   1.023  1.00 20.00    -0.284 OA
ENDROOT
TORSDOF 0
ENDMDL
