MODEL 1
REMARK VINA RESULT:      -1.1      0.000      0.000
REMARK  1 active torsions:
REMARK  status: ('A' for Active; 'I' for Inactive)
REMARK    1  A    between atoms: C1_1  and  S5_5 
ROOT
HETATM    1  C1  UNL     1     -32.961   7.115   2.453  1.00 20.00     0.041 C 
HETATM    2  C2  UNL     1     -33.163   5.714   1.937  1.00 20.00     0.069 C 
HETATM    3  S4  UNL     1     -31.909   8.177   1.698  1.00 20.00    -0.078 SA
ENDROOT
BRANCH   1   4
HETATM    4  S5  UNL     1     -33.870   7.556   3.894  1.00 20.00    -0.128 SA
HETATM    5  C3  UNL     1     -35.127   6.257   3.880  1.00 20.00     0.096 C 
ENDBRANCH   1   4
TORSDOF 1
ENDMDL
MODEL 2
REMARK VINA RESULT:      -1.1      1.976      3.340
REMARK  1 active torsions:
REMARK  status: ('A' for Active; 'I' for Inactive)
REMARK    1  A    between atoms: C1_1  and  S5_5 
ROOT
HETATM    1  C1  UNL     1     -33.790   6.075   3.263  1.00 20.00     0.041 C 
HETATM    2  C2  UNL     1     -34.175   7.394   3.882  1.00 20.00     0.069 C 
HETATM    3  S4  UNL     1     -34.231   4.622   3.968  1.00 20.00    -0.078 SA
ENDROOT
BRANCH   1   4
HETATM    4  S5  UNL     1     -32.839   6.154   1.785  1.00 20.00    -0.128 SA
HETATM    5  C3  UNL     1     -32.150   7.817   1.945  1.00 20.00     0.096 C 
ENDBRANCH   1   4
TORSDOF 1
ENDMDL
MODEL 3
REMARK VINA RESULT:      -1.0      1.434      1.752
REMARK  1 active torsions:
REMARK  status: ('A' for Active; 'I' for Inactive)
REMARK    1  A    between atoms: C1_1  and  S5_5 
ROOT
HETATM    1  C1  UNL     1     -32.886   7.152   2.399  1.00 20.00     0.041 C 
HETATM    2  C2  UNL     1     -32.015   8.220   1.791  1.00 20.00     0.069 C 
HETATM    3  S4  UNL     1     -33.005   5.630   1.712  1.00 20.00    -0.078 SA
ENDROOT
BRANCH   1   4
HETATM    4  S5  UNL     1     -33.780   7.604   3.846  1.00 20.00    -0.128 SA
HETATM    5  C3  UNL     1     -35.048   6.315   3.846  1.00 20.00     0.096 C 
ENDBRANCH   1   4
TORSDOF 1
ENDMDL
MODEL 4
REMARK VINA RESULT:      -0.9      1.595      2.919
REMARK  1 active torsions:
REMARK  status: ('A' for Active; 'I' for Inactive)
REMARK    1  A    between atoms: C1_1  and  S5_5 
ROOT
HETATM    1  C1  UNL     1     -33.782   6.010   3.254  1.00 20.00     0.041 C 
HETATM    2  C2  UNL     1     -34.176   4.658   3.789  1.00 20.00     0.069 C 
HETATM    3  S4  UNL     1     -34.259   7.421   4.019  1.00 20.00    -0.078 SA
ENDROOT
BRANCH   1   4
HETATM    4  S5  UNL     1     -32.822   6.017   1.780  1.00 20.00    -0.128 SA
HETATM    5  C3  UNL     1     -32.138   7.689   1.859  1.00 20.00     0.096 C 
ENDBRANCH   1   4
TORSDOF 1
ENDMDL
MODEL 5
REMARK VINA RESULT:      -0.7      1.348      2.960
REMARK  1 active torsions:
REMARK  status: ('A' for Active; 'I' for Inactive)
REMARK    1  A    between atoms: C1_1  and  S5_5 
ROOT
HETATM    1  C1  UNL     1     -32.867   6.985   2.258  1.00 20.00     0.041 C 
HETATM    2  C2  UNL     1     -32.890   5.740   1.410  1.00 20.00     0.069 C 
HETATM    3  S4  UNL     1     -33.983   7.224   3.484  1.00 20.00    -0.078 SA
ENDROOT
BRANCH   1   4
HETATM    4  S5  UNL     1     -31.624   8.170   1.872  1.00 20.00    -0.128 SA
HETATM    5  C3  UNL     1     -32.536   9.211   0.709  1.00 20.00     0.096 C 
ENDBRANCH   1   4
TORSDOF 1
ENDMDL
MODEL 6
REMARK VINA RESULT:      -0.7      2.271      2.535
REMARK  1 active torsions:
REMARK  status: ('A' for Active; 'I' for Inactive)
REMARK    1  A    between atoms: C1_1  and  S5_5 
ROOT
HETATM    1  C1  UNL     1     -33.955   6.422   3.409  1.00 20.00     0.041 C 
HETATM    2  C2  UNL     1     -33.938   7.784   4.053  1.00 20.00     0.069 C 
HETATM    3  S4  UNL     1     -33.075   6.105   2.020  1.00 20.00    -0.078 SA
ENDROOT
BRANCH   1   4
HETATM    4  S5  UNL     1     -34.963   5.205   4.184  1.00 20.00    -0.128 SA
HETATM    5  C3  UNL     1     -33.799   3.822   4.236  1.00 20.00     0.096 C 
ENDBRANCH   1   4
TORSDOF 1
ENDMDL
MODEL 7
REMARK VINA RESULT:      -0.5      2.203      2.331
REMARK  1 active torsions:
REMARK  status: ('A' for Active; 'I' for Inactive)
REMARK    1  A    between atoms: C1_1  and  S5_5 
ROOT
HETATM    1  C1  UNL     1     -33.892   5.244   3.293  1.00 20.00     0.041 C 
HETATM    2  C2  UNL     1     -33.771   3.906   3.975  1.00 20.00     0.069 C 
HETATM    3  S4  UNL     1     -32.954   5.629   1.961  1.00 20.00    -0.078 SA
ENDROOT
BRANCH   1   4
HETATM    4  S5  UNL     1     -35.050   6.372   3.988  1.00 20.00    -0.128 SA
HETATM    5  C3  UNL     1     -33.988   7.820   4.197  1.00 20.00     0.096 C 
ENDBRANCH   1   4
TORSDOF 1
ENDMDL
MODEL 8
REMARK VINA RESULT:      -0.5      1.856      3.086
REMARK  1 active torsions:
REMARK  status: ('A' for Active; 'I' for Inactive)
REMARK    1  A    between atoms: C1_1  and  S5_5 
ROOT
HETATM    1  C1  UNL     1     -32.867   7.066   2.337  1.00 20.00     0.041 C 
HETATM    2  C2  UNL     1     -33.850   7.310   3.453  1.00 20.00     0.069 C 
HETATM    3  S4  UNL     1     -32.908   5.657   1.434  1.00 20.00    -0.078 SA
ENDROOT
BRANCH   1   4
HETATM    4  S5  UNL     1     -31.672   8.327   2.060  1.00 20.00    -0.128 SA
HETATM    5  C3  UNL     1     -32.450   9.198   0.681  1.00 20.00     0.096 C 
ENDBRANCH   1   4
TORSDOF 1
ENDMDL
MODEL 9
REMARK VINA RESULT:      -0.4      1.423      1.847
REMARK  1 active torsions:
REMARK  status: ('A' for Active; 'I' for Inactive)
REMARK    1  A    between atoms: C1_1  and  S5_5 
ROOT
HETATM    1  C1  UNL     1     -33.200   7.317   3.160  1.00 20.00     0.041 C 
HETATM    2  C2  UNL     1     -33.562   8.165   4.351  1.00 20.00     0.069 C 
HETATM    3  S4  UNL     1     -32.180   7.891   1.962  1.00 20.00    -0.078 SA
ENDROOT
BRANCH   1   4
HETATM    4  S5  UNL     1     -33.924   5.715   3.093  1.00 20.00    -0.128 SA
HETATM    5  C3  UNL     1     -35.375   5.983   4.136  1.00 20.00     0.096 C 
ENDBRANCH   1   4
TORSDOF 1
ENDMDL
