MODEL 1
REMARK VINA RESULT:      -0.3      0.000      0.000
REMARK  0 active torsions:
REMARK  status: ('A' for Active; 'I' for Inactive)
ROOT
HETATM    1  C1  UNL     1     -32.874   6.074   1.885  1.00 20.00     0.229 C 
HETATM    2  C2  UNL     1     -33.432   5.267   3.041  1.00 20.00     0.104 C 
HETATM    3  C3  UNL     1     -34.777   5.804   3.516  1.00 20.00     0.009 C 
HETATM    4  C4  UNL     1     -34.657   6.943   4.527  1.00 20.00     0.002 C 
HETATM    5  C5  UNL     1     -34.005   8.212   3.980  1.00 20.00     0.021 C 
HETATM    6  C6  UNL     1     -32.573   7.997   3.499  1.00 20.00     0.140 C 
HETATM    7  N7  UNL     1     -32.521   7.383   2.175  1.00 20.00    -0.284 N 
HETATM    8  O8  UNL     1     -32.771   5.555   0.771  1.00 20.00    -0.273 OA
HETATM    9 BR9  UNL     1     -31.918   8.494   0.747  1.00 20.00     0.052 Br
ENDROOT
TORSDOF 0
ENDMDL
MODEL 2
REMARK VINA RESULT:      -0.3      2.295      2.906
REMARK  0 active torsions:
REMARK  status: ('A' for Active; 'I' for Inactive)
ROOT
HETATM    1  C1  UNL     1     -32.873   5.653   1.956  1.00 20.00     0.229 C 
HETATM    2  C2  UNL     1     -32.769   7.037   1.346  1.00 20.00     0.104 C 
HETATM    3  C3  UNL     1     -32.071   8.021   2.278  1.00 20.00     0.009 C 
HETATM    4  C4  UNL     1     -33.008   8.671   3.294  1.00 20.00     0.002 C 
HETATM    5  C5  UNL     1     -33.630   7.699   4.297  1.00 20.00     0.021 C 
HETATM    6  C6  UNL     1     -34.490   6.623   3.641  1.00 20.00     0.140 C 
HETATM    7  N7  UNL     1     -33.686   5.543   3.074  1.00 20.00    -0.284 N 
HETATM    8  O8  UNL     1     -32.245   4.716   1.457  1.00 20.00    -0.273 OA
HETATM    9 BR9  UNL     1     -33.778   3.859   3.962  1.00 20.00     0.052 Br
ENDROOT
TORSDOF 0
ENDMDL
MODEL 3
REMARK VINA RESULT:      -0.0      2.769      3.869
REMARK  0 active torsions:
REMARK  status: ('A' for Active; 'I' for Inactive)
ROOT
HETATM    1  C1  UNL     1     -33.485   7.599   3.830  1.00 20.00     0.229 C 
HETATM    2  C2  UNL     1     -32.181   8.103   3.243  1.00 20.00     0.104 C 
HETATM    3  C3  UNL     1     -32.240   8.202   1.723  1.00 20.00     0.009 C 
HETATM    4  C4  UNL     1     -31.913   6.890   1.013  1.00 20.00     0.002 C 
HETATM    5  C5  UNL     1     -32.907   5.759   1.277  1.00 20.00     0.021 C 
HETATM    6  C6  UNL     1     -32.997   5.366   2.749  1.00 20.00     0.140 C 
HETATM    7  N7  UNL     1     -33.824   6.292   3.518  1.00 20.00    -0.284 N 
HETATM    8  O8  UNL     1     -34.171   8.349   4.530  1.00 20.00    -0.273 OA
HETATM    9 BR9  UNL     1     -35.503   5.624   4.128  1.00 20.00     0.052 Br
ENDROOT
TORSDOF 0
ENDMDL
MODEL 4
REMARK VINA RESULT:      -0.0      1.898      2.874
REMARK  0 active torsions:
REMARK  status: ('A' for Active; 'I' for Inactive)
ROOT
HETATM    1  C1  UNL     1     -34.239   7.151   3.596  1.00 20.00     0.229 C 
HETATM    2  C2  UNL     1     -35.218   6.056   3.970  1.00 20.00     0.104 C 
HETATM    3  C3  UNL     1     -34.528   4.880   4.651  1.00 20.00     0.009 C 
HETATM    4  C4  UNL     1     -33.949   3.861   3.671  1.00 20.00     0.002 C 
HETATM    5  C5  UNL     1     -32.824   4.398   2.787  1.00 20.00     0.021 C 
HETATM    6  C6  UNL     1     -33.256   5.558   1.896  1.00 20.00     0.140 C 
HETATM    7  N7  UNL     1     -33.307   6.824   2.623  1.00 20.00    -0.284 N 
HETATM    8  O8  UNL     1     -34.302   8.246   4.160  1.00 20.00    -0.273 OA
HETATM    9 BR9  UNL     1     -31.972   8.112   2.181  1.00 20.00     0.052 Br
ENDROOT
TORSDOF 0
ENDMDL
MODEL 5
REMARK VINA RESULT:       0.5      1.806      2.568
REMARK  0 active torsions:
REMARK  status: ('A' for Active; 'I' for Inactive)
ROOT
HETATM    1  C1  UNL     1     -32.311   7.386   1.946  1.00 20.00     0.229 C 
HETATM    2  C2  UNL     1     -33.291   8.315   2.635  1.00 20.00     0.104 C 
HETATM    3  C3  UNL     1     -33.546   7.905   4.081  1.00 20.00     0.009 C 
HETATM    4  C4  UNL     1     -34.632   6.842   4.233  1.00 20.00     0.002 C 
HETATM    5  C5  UNL     1     -34.295   5.494   3.595  1.00 20.00     0.021 C 
HETATM    6  C6  UNL     1     -34.072   5.578   2.088  1.00 20.00     0.140 C 
HETATM    7  N7  UNL     1     -32.743   6.083   1.754  1.00 20.00    -0.284 N 
HETATM    8  O8  UNL     1     -31.204   7.811   1.605  1.00 20.00    -0.273 OA
HETATM    9 BR9  UNL     1     -31.524   4.829   0.995  1.00 20.00     0.052 Br
ENDROOT
TORSDOF 0
ENDMDL
MODEL 6
REMARK VINA RESULT:       0.8      2.336      3.136
REMARK  0 active torsions:
REMARK  status: ('A' for Active; 'I' for Inactive)
ROOT
HETATM    1  C1  UNL     1     -33.830   6.078   3.125  1.00 20.00     0.229 C 
HETATM    2  C2  UNL     1     -33.529   5.575   1.727  1.00 20.00     0.104 C 
HETATM    3  C3  UNL     1     -32.033   5.571   1.431  1.00 20.00     0.009 C 
HETATM    4  C4  UNL     1     -31.506   6.914   0.931  1.00 20.00     0.002 C 
HETATM    5  C5  UNL     1     -31.607   8.054   1.944  1.00 20.00     0.021 C 
HETATM    6  C6  UNL     1     -33.040   8.358   2.369  1.00 20.00     0.140 C 
HETATM    7  N7  UNL     1     -33.534   7.411   3.365  1.00 20.00    -0.284 N 
HETATM    8  O8  UNL     1     -34.300   5.306   3.964  1.00 20.00    -0.273 OA
HETATM    9 BR9  UNL     1     -33.781   8.087   5.131  1.00 20.00     0.052 Br
ENDROOT
TORSDOF 0
ENDMDL
MODEL 7
REMARK VINA RESULT:       2.7      2.123      2.820
REMARK  0 active torsions:
REMARK  status: ('A' for Active; 'I' for Inactive)
ROOT
HETATM    1  C1  UNL     1     -33.372   6.302   2.938  1.00 20.00     0.229 C 
HETATM    2  C2  UNL     1     -33.477   7.579   3.749  1.00 20.00     0.104 C 
HETATM    3  C3  UNL     1     -34.029   8.736   2.925  1.00 20.00     0.009 C 
HETATM    4  C4  UNL     1     -32.963   9.477   2.121  1.00 20.00     0.002 C 
HETATM    5  C5  UNL     1     -32.284   8.636   1.040  1.00 20.00     0.021 C 
HETATM    6  C6  UNL     1     -31.547   7.421   1.593  1.00 20.00     0.140 C 
HETATM    7  N7  UNL     1     -32.453   6.318   1.900  1.00 20.00    -0.284 N 
HETATM    8  O8  UNL     1     -34.091   5.339   3.219  1.00 20.00    -0.273 OA
HETATM    9 BR9  UNL     1     -32.345   4.788   0.767  1.00 20.00     0.052 Br
ENDROOT
TORSDOF 0
ENDMDL
