MODEL 1
REMARK VINA RESULT:      -1.5      0.000      0.000
REMARK  2 active torsions:
REMARK  status: ('A' for Active; 'I' for Inactive)
REMARK    1  A    between atoms: C8_8  and  C9_9 
REMARK    2  A    between atoms: C8_8  and  O10_10 
ROOT
HETATM    1  C1  UNL     1     -33.225   3.004   4.572  1.00 20.00     0.012 C 
HETATM    2  C2  UNL     1     -33.992   3.927   4.529  1.00 20.00    -0.115 C 
HETATM    3  C9  UNL     1     -34.936   5.045   4.487  1.00 20.00     0.130 C 
ENDROOT
BRANCH   3   4
HETATM    4  C8  UNL     1     -34.443   6.142   3.542  1.00 20.00     0.068 C 
HETATM    5  C6  UNL     1     -33.547   5.544   2.446  1.00 20.00     0.038 C 
HETATM    6  C4  UNL     1     -32.955   6.617   1.530  1.00 20.00     0.003 C 
HETATM    7  C3  UNL     1     -32.217   7.691   2.325  1.00 20.00     0.000 C 
HETATM    8  C5  UNL     1     -33.107   8.305   3.400  1.00 20.00     0.003 C 
HETATM    9  C7  UNL     1     -33.698   7.237   4.322  1.00 20.00     0.038 C 
BRANCH   4  10
HETATM   10  O10 UNL     1     -35.589   6.720   2.909  1.00 20.00    -0.389 OA
HETATM   11  H24 UNL     1     -35.295   7.562   2.535  1.00 20.00     0.210 HD
ENDBRANCH   4  10
ENDBRANCH   3   4
TORSDOF 2
ENDMDL
MODEL 2
REMARK VINA RESULT:      -1.1      1.419      4.233
REMARK  2 active torsions:
REMARK  status: ('A' for Active; 'I' for Inactive)
REMARK    1  A    between atoms: C8_8  and  C9_9 
REMARK    2  A    between atoms: C8_8  and  O10_10 
ROOT
HETATM    1  C1  UNL     1     -32.405   9.499   0.595  1.00 20.00     0.012 C 
HETATM    2  C2  UNL     1     -32.152   8.503   1.215  1.00 20.00    -0.115 C 
HETATM    3  C9  UNL     1     -31.830   7.292   1.972  1.00 20.00     0.130 C 
ENDROOT
BRANCH   3   4
HETATM    4  C8  UNL     1     -33.100   6.525   2.344  1.00 20.00     0.068 C 
HETATM    5  C6  UNL     1     -33.968   7.355   3.302  1.00 20.00     0.038 C 
HETATM    6  C4  UNL     1     -35.206   6.590   3.774  1.00 20.00     0.003 C 
HETATM    7  C3  UNL     1     -34.835   5.244   4.389  1.00 20.00     0.000 C 
HETATM    8  C5  UNL     1     -33.992   4.404   3.435  1.00 20.00     0.003 C 
HETATM    9  C7  UNL     1     -32.749   5.162   2.963  1.00 20.00     0.038 C 
BRANCH   4  10
HETATM   10  O10 UNL     1     -33.847   6.312   1.143  1.00 20.00    -0.389 OA
HETATM   11  H24 UNL     1     -33.333   6.714   0.429  1.00 20.00     0.210 HD
ENDBRANCH   4  10
ENDBRANCH   3   4
TORSDOF 2
ENDMDL
MODEL 3
REMARK VINA RESULT:      -1.0      2.192      4.645
REMARK  2 active torsions:
REMARK  status: ('A' for Active; 'I' for Inactive)
REMARK    1  A    between atoms: C8_8  and  C9_9 
REMARK    2  A    between atoms: C8_8  and  O10_10 
ROOT
HETATM    1  C1  UNL     1     -32.740  10.847   0.425  1.00 20.00     0.012 C 
HETATM    2  C2  UNL     1     -32.389   9.700   0.458  1.00 20.00    -0.115 C 
HETATM    3  C9  UNL     1     -31.955   8.302   0.484  1.00 20.00     0.130 C 
ENDROOT
BRANCH   3   4
HETATM    4  C8  UNL     1     -32.327   7.638   1.811  1.00 20.00     0.068 C 
HETATM    5  C6  UNL     1     -32.761   6.182   1.580  1.00 20.00     0.038 C 
HETATM    6  C4  UNL     1     -33.230   5.505   2.869  1.00 20.00     0.003 C 
HETATM    7  C3  UNL     1     -34.331   6.308   3.558  1.00 20.00     0.000 C 
HETATM    8  C5  UNL     1     -33.900   7.749   3.811  1.00 20.00     0.003 C 
HETATM    9  C7  UNL     1     -33.434   8.433   2.524  1.00 20.00     0.038 C 
BRANCH   4  10
HETATM   10  O10 UNL     1     -31.158   7.626   2.636  1.00 20.00    -0.389 OA
HETATM   11  H24 UNL     1     -31.433   7.263   3.489  1.00 20.00     0.210 HD
ENDBRANCH   4  10
ENDBRANCH   3   4
TORSDOF 2
ENDMDL
MODEL 4
REMARK VINA RESULT:       0.7      2.442      3.788
REMARK  2 active torsions:
REMARK  status: ('A' for Active; 'I' for Inactive)
REMARK    1  A    between atoms: C8_8  and  C9_9 
REMARK    2  A    between atoms: C8_8  and  O10_10 
ROOT
HETATM    1  C1  UNL     1     -34.818   6.848   4.034  1.00 20.00     0.012 C 
HETATM    2  C2  UNL     1     -33.913   6.713   3.257  1.00 20.00    -0.115 C 
HETATM    3  C9  UNL     1     -32.811   6.533   2.309  1.00 20.00     0.130 C 
ENDROOT
BRANCH   3   4
HETATM    4  C8  UNL     1     -32.275   7.884   1.832  1.00 20.00     0.068 C 
HETATM    5  C6  UNL     1     -33.409   8.918   1.760  1.00 20.00     0.038 C 
HETATM    6  C4  UNL     1     -32.936  10.260   1.200  1.00 20.00     0.003 C 
HETATM    7  C3  UNL     1     -32.252  10.095  -0.154  1.00 20.00     0.000 C 
HETATM    8  C5  UNL     1     -31.109   9.087  -0.086  1.00 20.00     0.003 C 
HETATM    9  C7  UNL     1     -31.578   7.740   0.469  1.00 20.00     0.038 C 
BRANCH   4  10
HETATM   10  O10 UNL     1     -31.321   8.339   2.797  1.00 20.00    -0.389 OA
HETATM   11  H24 UNL     1     -31.246   9.296   2.672  1.00 20.00     0.210 HD
ENDBRANCH   4  10
ENDBRANCH   3   4
TORSDOF 2
ENDMDL
MODEL 5
REMARK VINA RESULT:       0.8      1.498      2.322
REMARK  2 active torsions:
REMARK  status: ('A' for Active; 'I' for Inactive)
REMARK    1  A    between atoms: C8_8  and  C9_9 
REMARK    2  A    between atoms: C8_8  and  O10_10 
ROOT
HETATM    1  C1  UNL     1     -34.232   4.098   4.391  1.00 20.00     0.012 C 
HETATM    2  C2  UNL     1     -34.486   5.234   4.100  1.00 20.00    -0.115 C 
HETATM    3  C9  UNL     1     -34.811   6.618   3.750  1.00 20.00     0.130 C 
ENDROOT
BRANCH   3   4
HETATM    4  C8  UNL     1     -33.579   7.350   3.213  1.00 20.00     0.068 C 
HETATM    5  C6  UNL     1     -33.987   8.680   2.561  1.00 20.00     0.038 C 
HETATM    6  C4  UNL     1     -32.797   9.404   1.928  1.00 20.00     0.003 C 
HETATM    7  C3  UNL     1     -32.054   8.509   0.941  1.00 20.00     0.000 C 
HETATM    8  C5  UNL     1     -31.626   7.195   1.587  1.00 20.00     0.003 C 
HETATM    9  C7  UNL     1     -32.812   6.464   2.217  1.00 20.00     0.038 C 
BRANCH   4  10
HETATM   10  O10 UNL     1     -32.729   7.644   4.325  1.00 20.00    -0.389 OA
HETATM   11  H24 UNL     1     -31.884   7.933   3.951  1.00 20.00     0.210 HD
ENDBRANCH   4  10
ENDBRANCH   3   4
TORSDOF 2
ENDMDL
MODEL 6
REMARK VINA RESULT:       0.9      1.565      4.003
REMARK  2 active torsions:
REMARK  status: ('A' for Active; 'I' for Inactive)
REMARK    1  A    between atoms: C8_8  and  C9_9 
REMARK    2  A    between atoms: C8_8  and  O10_10 
ROOT
HETATM    1  C1  UNL     1     -32.015   9.182   1.112  1.00 20.00     0.012 C 
HETATM    2  C2  UNL     1     -32.305   8.027   1.260  1.00 20.00    -0.115 C 
HETATM    3  C9  UNL     1     -32.653   6.614   1.427  1.00 20.00     0.130 C 
ENDROOT
BRANCH   3   4
HETATM    4  C8  UNL     1     -33.323   6.372   2.780  1.00 20.00     0.068 C 
HETATM    5  C6  UNL     1     -33.249   4.884   3.157  1.00 20.00     0.038 C 
HETATM    6  C4  UNL     1     -33.988   4.579   4.462  1.00 20.00     0.003 C 
HETATM    7  C3  UNL     1     -35.432   5.069   4.419  1.00 20.00     0.000 C 
HETATM    8  C5  UNL     1     -35.512   6.551   4.068  1.00 20.00     0.003 C 
HETATM    9  C7  UNL     1     -34.780   6.861   2.761  1.00 20.00     0.038 C 
BRANCH   4  10
HETATM   10  O10 UNL     1     -32.596   7.114   3.765  1.00 20.00    -0.389 OA
HETATM   11  H24 UNL     1     -31.801   7.443   3.323  1.00 20.00     0.210 HD
ENDBRANCH   4  10
ENDBRANCH   3   4
TORSDOF 2
ENDMDL
MODEL 7
REMARK VINA RESULT:       1.4      2.076      3.276
REMARK  2 active torsions:
REMARK  status: ('A' for Active; 'I' for Inactive)
REMARK    1  A    between atoms: C8_8  and  C9_9 
REMARK    2  A    between atoms: C8_8  and  O10_10 
ROOT
HETATM    1  C1  UNL     1     -35.244   6.455   3.975  1.00 20.00     0.012 C 
HETATM    2  C2  UNL     1     -34.188   6.991   3.775  1.00 20.00    -0.115 C 
HETATM    3  C9  UNL     1     -32.898   7.643   3.545  1.00 20.00     0.130 C 
ENDROOT
BRANCH   3   4
HETATM    4  C8  UNL     1     -32.704   7.968   2.063  1.00 20.00     0.068 C 
HETATM    5  C6  UNL     1     -31.218   7.882   1.685  1.00 20.00     0.038 C 
HETATM    6  C4  UNL     1     -30.964   8.288   0.231  1.00 20.00     0.003 C 
HETATM    7  C3  UNL     1     -31.535   9.670  -0.074  1.00 20.00     0.000 C 
HETATM    8  C5  UNL     1     -33.017   9.756   0.278  1.00 20.00     0.003 C 
HETATM    9  C7  UNL     1     -33.275   9.356   1.732  1.00 20.00     0.038 C 
BRANCH   4  10
HETATM   10  O10 UNL     1     -33.411   6.981   1.305  1.00 20.00    -0.389 OA
HETATM   11  H24 UNL     1     -34.185   6.738   1.832  1.00 20.00     0.210 HD
ENDBRANCH   4  10
ENDBRANCH   3   4
TORSDOF 2
ENDMDL
MODEL 8
REMARK VINA RESULT:       1.4      1.841      3.236
REMARK  2 active torsions:
REMARK  status: ('A' for Active; 'I' for Inactive)
REMARK    1  A    between atoms: C8_8  and  C9_9 
REMARK    2  A    between atoms: C8_8  and  O10_10 
ROOT
HETATM    1  C1  UNL     1     -33.859   3.799  -0.694  1.00 20.00     0.012 C 
HETATM    2  C2  UNL     1     -33.132   4.352   0.084  1.00 20.00    -0.115 C 
HETATM    3  C9  UNL     1     -32.234   5.019   1.029  1.00 20.00     0.130 C 
ENDROOT
BRANCH   3   4
HETATM    4  C8  UNL     1     -32.925   6.209   1.695  1.00 20.00     0.068 C 
HETATM    5  C6  UNL     1     -31.905   7.311   2.019  1.00 20.00     0.038 C 
HETATM    6  C4  UNL     1     -32.536   8.485   2.770  1.00 20.00     0.003 C 
HETATM    7  C3  UNL     1     -33.268   8.021   4.026  1.00 20.00     0.000 C 
HETATM    8  C5  UNL     1     -34.300   6.943   3.708  1.00 20.00     0.003 C 
HETATM    9  C7  UNL     1     -33.673   5.764   2.962  1.00 20.00     0.038 C 
BRANCH   4  10
HETATM   10  O10 UNL     1     -33.870   6.743   0.761  1.00 20.00    -0.389 OA
HETATM   11  H24 UNL     1     -33.657   7.682   0.668  1.00 20.00     0.210 HD
ENDBRANCH   4  10
ENDBRANCH   3   4
TORSDOF 2
ENDMDL
