MODEL 1
REMARK VINA RESULT:      -2.1      0.000      0.000
REMARK  5 active torsions:
REMARK  status: ('A' for Active; 'I' for Inactive)
REMARK    1  A    between atoms: C1_1  and  C4_4 
REMARK    2  A    between atoms: C2_2  and  C7_7 
REMARK    3  A    between atoms: C7_7  and  C9_9 
REMARK    4  A    between atoms: C8_8  and  C9_9 
REMARK    5  A    between atoms: C9_9  and  O10_10 
ROOT
HETATM    1  C7  UNL     1     -32.333   6.740   1.205  1.00 20.00     0.126 C 
ENDROOT
BRANCH   1   2
HETATM    2  C2  UNL     1     -32.992   5.928   2.238  1.00 20.00    -0.099 C 
HETATM    3  C1  UNL     1     -33.532   5.264   3.082  1.00 20.00    -0.072 C 
BRANCH   3   4
HETATM    4  C4  UNL     1     -34.169   4.478   4.088  1.00 20.00    -0.018 C 
HETATM    5  C3  UNL     1     -35.316   4.912   4.630  1.00 20.00     0.028 C 
HETATM    6  C5  UNL     1     -33.532   3.187   4.511  1.00 20.00     0.057 C 
ENDBRANCH   3   4
ENDBRANCH   1   2
BRANCH   1   7
HETATM    7  C9  UNL     1     -32.271   8.231   1.561  1.00 20.00     0.129 C 
BRANCH   7   8
HETATM    8  C8  UNL     1     -31.707   9.103   0.432  1.00 20.00     0.028 C 
HETATM    9  C6  UNL     1     -32.623  10.274   0.099  1.00 20.00     0.007 C 
ENDBRANCH   7   8
BRANCH   7  10
HETATM   10  O10 UNL     1     -31.489   8.416   2.738  1.00 20.00    -0.395 OA
HETATM   11  H24 UNL     1     -30.570   8.514   2.445  1.00 20.00     0.210 HD
ENDBRANCH   7  10
ENDBRANCH   1   7
TORSDOF 5
ENDMDL
MODEL 2
REMARK VINA RESULT:      -1.7      2.259      5.584
REMARK  5 active torsions:
REMARK  status: ('A' for Active; 'I' for Inactive)
REMARK    1  A    between atoms: C1_1  and  C4_4 
REMARK    2  A    between atoms: C2_2  and  C7_7 
REMARK    3  A    between atoms: C7_7  and  C9_9 
REMARK    4  A    between atoms: C8_8  and  C9_9 
REMARK    5  A    between atoms: C9_9  and  O10_10 
ROOT
HETATM    1  C7  UNL     1     -35.134   6.463   3.782  1.00 20.00     0.126 C 
ENDROOT
BRANCH   1   2
HETATM    2  C2  UNL     1     -34.061   7.092   2.997  1.00 20.00    -0.099 C 
HETATM    3  C1  UNL     1     -33.184   7.607   2.357  1.00 20.00    -0.072 C 
BRANCH   3   4
HETATM    4  C4  UNL     1     -32.144   8.213   1.591  1.00 20.00    -0.018 C 
HETATM    5  C3  UNL     1     -30.903   7.708   1.658  1.00 20.00     0.028 C 
HETATM    6  C5  UNL     1     -32.470   9.400   0.735  1.00 20.00     0.057 C 
ENDBRANCH   3   4
ENDBRANCH   1   2
BRANCH   1   7
HETATM    7  C9  UNL     1     -34.667   5.222   4.553  1.00 20.00     0.129 C 
BRANCH   7   8
HETATM    8  C8  UNL     1     -33.849   4.246   3.697  1.00 20.00     0.028 C 
HETATM    9  C6  UNL     1     -33.336   3.063   4.508  1.00 20.00     0.007 C 
ENDBRANCH   7   8
BRANCH   7  10
HETATM   10  O10 UNL     1     -35.792   4.541   5.103  1.00 20.00    -0.395 OA
HETATM   11  H24 UNL     1     -35.653   4.510   6.062  1.00 20.00     0.210 HD
ENDBRANCH   7  10
ENDBRANCH   1   7
TORSDOF 5
ENDMDL
MODEL 3
REMARK VINA RESULT:      -1.5      2.087      5.516
REMARK  5 active torsions:
REMARK  status: ('A' for Active; 'I' for Inactive)
REMARK    1  A    between atoms: C1_1  and  C4_4 
REMARK    2  A    between atoms: C2_2  and  C7_7 
REMARK    3  A    between atoms: C7_7  and  C9_9 
REMARK    4  A    between atoms: C8_8  and  C9_9 
REMARK    5  A    between atoms: C9_9  and  O10_10 
ROOT
HETATM    1  C7  UNL     1     -34.182   7.378   4.444  1.00 20.00     0.126 C 
ENDROOT
BRANCH   1   2
HETATM    2  C2  UNL     1     -33.463   7.849   3.250  1.00 20.00    -0.099 C 
HETATM    3  C1  UNL     1     -32.874   8.231   2.275  1.00 20.00    -0.072 C 
BRANCH   3   4
HETATM    4  C4  UNL     1     -32.177   8.693   1.119  1.00 20.00    -0.018 C 
HETATM    5  C3  UNL     1     -31.162   7.964   0.632  1.00 20.00     0.028 C 
HETATM    6  C5  UNL     1     -32.600   9.984   0.483  1.00 20.00     0.057 C 
ENDBRANCH   3   4
ENDBRANCH   1   2
BRANCH   1   7
HETATM    7  C9  UNL     1     -34.947   6.069   4.208  1.00 20.00     0.129 C 
BRANCH   7   8
HETATM    8  C8  UNL     1     -34.121   5.007   3.472  1.00 20.00     0.028 C 
HETATM    9  C6  UNL     1     -33.824   3.800   4.353  1.00 20.00     0.007 C 
ENDBRANCH   7   8
BRANCH   7  10
HETATM   10  O10 UNL     1     -36.142   6.332   3.476  1.00 20.00    -0.395 OA
HETATM   11  H24 UNL     1     -36.689   6.901   4.038  1.00 20.00     0.210 HD
ENDBRANCH   7  10
ENDBRANCH   1   7
TORSDOF 5
ENDMDL
MODEL 4
REMARK VINA RESULT:      -1.4      1.202      1.322
REMARK  5 active torsions:
REMARK  status: ('A' for Active; 'I' for Inactive)
REMARK    1  A    between atoms: C1_1  and  C4_4 
REMARK    2  A    between atoms: C2_2  and  C7_7 
REMARK    3  A    between atoms: C7_7  and  C9_9 
REMARK    4  A    between atoms: C8_8  and  C9_9 
REMARK    5  A    between atoms: C9_9  and  O10_10 
ROOT
HETATM    1  C7  UNL     1     -32.571   8.514   2.615  1.00 20.00     0.126 C 
ENDROOT
BRANCH   1   2
HETATM    2  C2  UNL     1     -33.275   7.335   3.143  1.00 20.00    -0.099 C 
HETATM    3  C1  UNL     1     -33.850   6.372   3.573  1.00 20.00    -0.072 C 
BRANCH   3   4
HETATM    4  C4  UNL     1     -34.530   5.229   4.089  1.00 20.00    -0.018 C 
HETATM    5  C3  UNL     1     -35.782   5.364   4.550  1.00 20.00     0.028 C 
HETATM    6  C5  UNL     1     -33.820   3.908   4.104  1.00 20.00     0.057 C 
ENDBRANCH   3   4
ENDBRANCH   1   2
BRANCH   1   7
HETATM    7  C9  UNL     1     -31.661   8.187   1.424  1.00 20.00     0.129 C 
BRANCH   7   8
HETATM    8  C8  UNL     1     -32.021   8.965   0.152  1.00 20.00     0.028 C 
HETATM    9  C6  UNL     1     -32.633  10.324   0.465  1.00 20.00     0.007 C 
ENDBRANCH   7   8
BRANCH   7  10
HETATM   10  O10 UNL     1     -31.702   6.788   1.152  1.00 20.00    -0.395 OA
HETATM   11  H24 UNL     1     -32.635   6.528   1.190  1.00 20.00     0.210 HD
ENDBRANCH   7  10
ENDBRANCH   1   7
TORSDOF 5
ENDMDL
MODEL 5
REMARK VINA RESULT:      -1.4      1.950      5.480
REMARK  5 active torsions:
REMARK  status: ('A' for Active; 'I' for Inactive)
REMARK    1  A    between atoms: C1_1  and  C4_4 
REMARK    2  A    between atoms: C2_2  and  C7_7 
REMARK    3  A    between atoms: C7_7  and  C9_9 
REMARK    4  A    between atoms: C8_8  and  C9_9 
REMARK    5  A    between atoms: C9_9  and  O10_10 
ROOT
HETATM    1  C7  UNL     1     -32.188   6.241   2.030  1.00 20.00     0.126 C 
ENDROOT
BRANCH   1   2
HETATM    2  C2  UNL     1     -32.291   7.582   1.435  1.00 20.00    -0.099 C 
HETATM    3  C1  UNL     1     -32.374   8.678   0.950  1.00 20.00    -0.072 C 
BRANCH   3   4
HETATM    4  C4  UNL     1     -32.479   9.977   0.370  1.00 20.00    -0.018 C 
HETATM    5  C3  UNL     1     -32.546  10.096  -0.964  1.00 20.00     0.028 C 
HETATM    6  C5  UNL     1     -32.507  11.175   1.273  1.00 20.00     0.057 C 
ENDBRANCH   3   4
ENDBRANCH   1   2
BRANCH   1   7
HETATM    7  C9  UNL     1     -33.513   5.742   2.622  1.00 20.00     0.129 C 
BRANCH   7   8
HETATM    8  C8  UNL     1     -34.203   6.775   3.523  1.00 20.00     0.028 C 
HETATM    9  C6  UNL     1     -35.459   6.215   4.178  1.00 20.00     0.007 C 
ENDBRANCH   7   8
BRANCH   7  10
HETATM   10  O10 UNL     1     -33.292   4.542   3.359  1.00 20.00    -0.395 OA
HETATM   11  H24 UNL     1     -32.571   4.074   2.913  1.00 20.00     0.210 HD
ENDBRANCH   7  10
ENDBRANCH   1   7
TORSDOF 5
ENDMDL
MODEL 6
REMARK VINA RESULT:      -1.2      1.508      5.723
REMARK  5 active torsions:
REMARK  status: ('A' for Active; 'I' for Inactive)
REMARK    1  A    between atoms: C1_1  and  C4_4 
REMARK    2  A    between atoms: C2_2  and  C7_7 
REMARK    3  A    between atoms: C7_7  and  C9_9 
REMARK    4  A    between atoms: C8_8  and  C9_9 
REMARK    5  A    between atoms: C9_9  and  O10_10 
ROOT
HETATM    1  C7  UNL     1     -33.781   7.077   3.688  1.00 20.00     0.126 C 
ENDROOT
BRANCH   1   2
HETATM    2  C2  UNL     1     -33.170   7.852   2.597  1.00 20.00    -0.099 C 
HETATM    3  C1  UNL     1     -32.670   8.486   1.707  1.00 20.00    -0.072 C 
BRANCH   3   4
HETATM    4  C4  UNL     1     -32.082   9.238   0.647  1.00 20.00    -0.018 C 
HETATM    5  C3  UNL     1     -31.042   8.722  -0.025  1.00 20.00     0.028 C 
HETATM    6  C5  UNL     1     -32.645  10.589   0.317  1.00 20.00     0.057 C 
ENDBRANCH   3   4
ENDBRANCH   1   2
BRANCH   1   7
HETATM    7  C9  UNL     1     -34.237   5.679   3.249  1.00 20.00     0.129 C 
BRANCH   7   8
HETATM    8  C8  UNL     1     -34.509   4.732   4.425  1.00 20.00     0.028 C 
HETATM    9  C6  UNL     1     -33.637   3.484   4.369  1.00 20.00     0.007 C 
ENDBRANCH   7   8
BRANCH   7  10
HETATM   10  O10 UNL     1     -33.259   5.099   2.389  1.00 20.00    -0.395 OA
HETATM   11  H24 UNL     1     -32.521   4.828   2.955  1.00 20.00     0.210 HD
ENDBRANCH   7  10
ENDBRANCH   1   7
TORSDOF 5
ENDMDL
MODEL 7
REMARK VINA RESULT:      -1.1      1.375      5.548
REMARK  5 active torsions:
REMARK  status: ('A' for Active; 'I' for Inactive)
REMARK    1  A    between atoms: C1_1  and  C4_4 
REMARK    2  A    between atoms: C2_2  and  C7_7 
REMARK    3  A    between atoms: C7_7  and  C9_9 
REMARK    4  A    between atoms: C8_8  and  C9_9 
REMARK    5  A    between atoms: C9_9  and  O10_10 
ROOT
HETATM    1  C7  UNL     1     -33.179   5.675   2.417  1.00 20.00     0.126 C 
ENDROOT
BRANCH   1   2
HETATM    2  C2  UNL     1     -32.793   6.939   1.771  1.00 20.00    -0.099 C 
HETATM    3  C1  UNL     1     -32.476   7.972   1.245  1.00 20.00    -0.072 C 
BRANCH   3   4
HETATM    4  C4  UNL     1     -32.105   9.197   0.616  1.00 20.00    -0.018 C 
HETATM    5  C3  UNL     1     -32.785  10.316   0.908  1.00 20.00     0.028 C 
HETATM    6  C5  UNL     1     -30.965   9.196  -0.358  1.00 20.00     0.057 C 
ENDBRANCH   3   4
ENDBRANCH   1   2
BRANCH   1   7
HETATM    7  C9  UNL     1     -33.917   5.880   3.746  1.00 20.00     0.129 C 
BRANCH   7   8
HETATM    8  C8  UNL     1     -34.586   4.604   4.273  1.00 20.00     0.028 C 
HETATM    9  C6  UNL     1     -33.599   3.450   4.400  1.00 20.00     0.007 C 
ENDBRANCH   7   8
BRANCH   7  10
HETATM   10  O10 UNL     1     -34.898   6.905   3.603  1.00 20.00    -0.395 OA
HETATM   11  H24 UNL     1     -34.839   7.454   4.399  1.00 20.00     0.210 HD
ENDBRANCH   7  10
ENDBRANCH   1   7
TORSDOF 5
ENDMDL
MODEL 8
REMARK VINA RESULT:      -1.0      1.670      2.854
REMARK  5 active torsions:
REMARK  status: ('A' for Active; 'I' for Inactive)
REMARK    1  A    between atoms: C1_1  and  C4_4 
REMARK    2  A    between atoms: C2_2  and  C7_7 
REMARK    3  A    between atoms: C7_7  and  C9_9 
REMARK    4  A    between atoms: C8_8  and  C9_9 
REMARK    5  A    between atoms: C9_9  and  O10_10 
ROOT
HETATM    1  C7  UNL     1     -35.201   6.291   3.689  1.00 20.00     0.126 C 
ENDROOT
BRANCH   1   2
HETATM    2  C2  UNL     1     -34.494   5.100   4.181  1.00 20.00    -0.099 C 
HETATM    3  C1  UNL     1     -33.917   4.125   4.584  1.00 20.00    -0.072 C 
BRANCH   3   4
HETATM    4  C4  UNL     1     -33.227   2.972   5.061  1.00 20.00    -0.018 C 
HETATM    5  C3  UNL     1     -33.324   1.821   4.379  1.00 20.00     0.028 C 
HETATM    6  C5  UNL     1     -32.413   3.081   6.317  1.00 20.00     0.057 C 
ENDBRANCH   3   4
ENDBRANCH   1   2
BRANCH   1   7
HETATM    7  C9  UNL     1     -34.253   7.421   3.266  1.00 20.00     0.129 C 
BRANCH   7   8
HETATM    8  C8  UNL     1     -33.180   6.972   2.266  1.00 20.00     0.028 C 
HETATM    9  C6  UNL     1     -32.111   8.037   2.056  1.00 20.00     0.007 C 
ENDBRANCH   7   8
BRANCH   7  10
HETATM   10  O10 UNL     1     -33.625   7.982   4.416  1.00 20.00    -0.395 OA
HETATM   11  H24 UNL     1     -33.588   8.939   4.271  1.00 20.00     0.210 HD
ENDBRANCH   7  10
ENDBRANCH   1   7
TORSDOF 5
ENDMDL
MODEL 9
REMARK VINA RESULT:      -1.0      1.163      1.190
REMARK  5 active torsions:
REMARK  status: ('A' for Active; 'I' for Inactive)
REMARK    1  A    between atoms: C1_1  and  C4_4 
REMARK    2  A    between atoms: C2_2  and  C7_7 
REMARK    3  A    between atoms: C7_7  and  C9_9 
REMARK    4  A    between atoms: C8_8  and  C9_9 
REMARK    5  A    between atoms: C9_9  and  O10_10 
ROOT
HETATM    1  C7  UNL     1     -32.012   6.957   0.862  1.00 20.00     0.126 C 
ENDROOT
BRANCH   1   2
HETATM    2  C2  UNL     1     -32.861   6.381   1.916  1.00 20.00    -0.099 C 
HETATM    3  C1  UNL     1     -33.556   5.912   2.777  1.00 20.00    -0.072 C 
BRANCH   3   4
HETATM    4  C4  UNL     1     -34.377   5.349   3.799  1.00 20.00    -0.018 C 
HETATM    5  C3  UNL     1     -35.417   6.054   4.267  1.00 20.00     0.028 C 
HETATM    6  C5  UNL     1     -34.049   3.982   4.322  1.00 20.00     0.057 C 
ENDBRANCH   3   4
ENDBRANCH   1   2
BRANCH   1   7
HETATM    7  C9  UNL     1     -31.612   8.412   1.141  1.00 20.00     0.129 C 
BRANCH   7   8
HETATM    8  C8  UNL     1     -32.797   9.385   1.108  1.00 20.00     0.028 C 
HETATM    9  C6  UNL     1     -32.734  10.325  -0.090  1.00 20.00     0.007 C 
ENDBRANCH   7   8
BRANCH   7  10
HETATM   10  O10 UNL     1     -30.627   8.832   0.200  1.00 20.00    -0.395 OA
HETATM   11  H24 UNL     1     -30.459   9.770   0.378  1.00 20.00     0.210 HD
ENDBRANCH   7  10
ENDBRANCH   1   7
TORSDOF 5
ENDMDL
