MODEL 1
REMARK VINA RESULT:      -0.5      0.000      0.000
REMARK  4 active torsions:
REMARK  status: ('A' for Active; 'I' for Inactive)
REMARK    1  A    between atoms: C5_5  and  C7_7 
REMARK    2  A    between atoms: C5_5  and  C8_8 
REMARK    3  A    between atoms: C6_6  and  C7_7 
REMARK    4  A    between atoms: C6_6  and  S9_9 
ROOT
HETATM    1  C5  UNL     1     -33.353   5.838   3.050  1.00 20.00     0.013 C 
ENDROOT
BRANCH   1   2
HETATM    2  C7  UNL     1     -32.879   6.413   1.691  1.00 20.00    -0.009 C 
HETATM    3  C1  UNL     1     -32.197   5.387   0.786  1.00 20.00     0.011 C 
BRANCH   2   4
HETATM    4  C6  UNL     1     -31.983   7.660   1.891  1.00 20.00     0.075 C 
BRANCH   4   5
HETATM    5  S9  UNL     1     -32.319   9.060   0.776  1.00 20.00    -0.182 SA
HETATM    6  H27 UNL     1     -31.065   9.175   0.320  1.00 20.00     0.101 HD
ENDBRANCH   4   5
ENDBRANCH   2   4
ENDBRANCH   1   2
BRANCH   1   7
HETATM    7  C8  UNL     1     -34.564   6.497   3.776  1.00 20.00    -0.051 C 
HETATM    8  C2  UNL     1     -34.129   7.626   4.722  1.00 20.00     0.014 C 
HETATM    9  C3  UNL     1     -35.612   7.031   2.783  1.00 20.00     0.014 C 
HETATM   10  C4  UNL     1     -35.255   5.399   4.619  1.00 20.00     0.014 C 
ENDBRANCH   1   7
TORSDOF 4
ENDMDL
MODEL 2
REMARK VINA RESULT:      -0.4      0.042      1.438
REMARK  4 active torsions:
REMARK  status: ('A' for Active; 'I' for Inactive)
REMARK    1  A    between atoms: C5_5  and  C7_7 
REMARK    2  A    between atoms: C5_5  and  C8_8 
REMARK    3  A    between atoms: C6_6  and  C7_7 
REMARK    4  A    between atoms: C6_6  and  S9_9 
ROOT
HETATM    1  C5  UNL     1     -33.326   5.868   3.080  1.00 20.00     0.013 C 
ENDROOT
BRANCH   1   2
HETATM    2  C7  UNL     1     -32.885   6.436   1.707  1.00 20.00    -0.009 C 
HETATM    3  C1  UNL     1     -32.236   5.402   0.787  1.00 20.00     0.011 C 
BRANCH   2   4
HETATM    4  C6  UNL     1     -31.973   7.676   1.879  1.00 20.00     0.075 C 
BRANCH   4   5
HETATM    5  S9  UNL     1     -32.323   9.072   0.764  1.00 20.00    -0.182 SA
HETATM    6  H27 UNL     1     -33.621   8.790   0.596  1.00 20.00     0.101 HD
ENDBRANCH   4   5
ENDBRANCH   2   4
ENDBRANCH   1   2
BRANCH   1   7
HETATM    7  C8  UNL     1     -34.597   6.446   3.771  1.00 20.00    -0.051 C 
HETATM    8  C2  UNL     1     -35.593   7.030   2.759  1.00 20.00     0.014 C 
HETATM    9  C3  UNL     1     -35.306   5.395   4.645  1.00 20.00     0.014 C 
HETATM   10  C4  UNL     1     -34.139   7.585   4.711  1.00 20.00     0.014 C 
ENDBRANCH   1   7
TORSDOF 4
ENDMDL
MODEL 3
REMARK VINA RESULT:      -0.4      0.056      1.445
REMARK  4 active torsions:
REMARK  status: ('A' for Active; 'I' for Inactive)
REMARK    1  A    between atoms: C5_5  and  C7_7 
REMARK    2  A    between atoms: C5_5  and  C8_8 
REMARK    3  A    between atoms: C6_6  and  C7_7 
REMARK    4  A    between atoms: C6_6  and  S9_9 
ROOT
HETATM    1  C5  UNL     1     -33.315   5.831   3.054  1.00 20.00     0.013 C 
ENDROOT
BRANCH   1   2
HETATM    2  C7  UNL     1     -32.877   6.420   1.689  1.00 20.00    -0.009 C 
HETATM    3  C1  UNL     1     -32.232   5.399   0.751  1.00 20.00     0.011 C 
BRANCH   2   4
HETATM    4  C6  UNL     1     -31.963   7.655   1.878  1.00 20.00     0.075 C 
BRANCH   4   5
HETATM    5  S9  UNL     1     -32.301   9.062   0.773  1.00 20.00    -0.182 SA
HETATM    6  H27 UNL     1     -32.390   9.980   1.744  1.00 20.00     0.101 HD
ENDBRANCH   4   5
ENDBRANCH   2   4
ENDBRANCH   1   2
BRANCH   1   7
HETATM    7  C8  UNL     1     -34.538   6.449   3.795  1.00 20.00    -0.051 C 
HETATM    8  C2  UNL     1     -35.303   5.406   4.623  1.00 20.00     0.014 C 
HETATM    9  C3  UNL     1     -34.131   7.627   4.698  1.00 20.00     0.014 C 
HETATM   10  C4  UNL     1     -35.498   7.010   2.721  1.00 20.00     0.014 C 
ENDBRANCH   1   7
TORSDOF 4
ENDMDL
MODEL 4
REMARK VINA RESULT:      -0.2      2.447      4.333
REMARK  4 active torsions:
REMARK  status: ('A' for Active; 'I' for Inactive)
REMARK    1  A    between atoms: C5_5  and  C7_7 
REMARK    2  A    between atoms: C5_5  and  C8_8 
REMARK    3  A    between atoms: C6_6  and  C7_7 
REMARK    4  A    between atoms: C6_6  and  S9_9 
ROOT
HETATM    1  C5  UNL     1     -32.963   5.697   2.928  1.00 20.00     0.013 C 
ENDROOT
BRANCH   1   2
HETATM    2  C7  UNL     1     -34.393   5.935   3.476  1.00 20.00    -0.009 C 
HETATM    3  C1  UNL     1     -34.578   7.288   4.164  1.00 20.00     0.011 C 
BRANCH   2   4
HETATM    4  C6  UNL     1     -34.840   4.776   4.401  1.00 20.00     0.075 C 
BRANCH   4   5
HETATM    5  S9  UNL     1     -33.645   3.416   4.594  1.00 20.00    -0.182 SA
HETATM    6  H27 UNL     1     -34.228   2.596   3.711  1.00 20.00     0.101 HD
ENDBRANCH   4   5
ENDBRANCH   2   4
ENDBRANCH   1   2
BRANCH   1   7
HETATM    7  C8  UNL     1     -32.611   6.169   1.485  1.00 20.00    -0.051 C 
HETATM    8  C2  UNL     1     -33.834   6.158   0.557  1.00 20.00     0.014 C 
HETATM    9  C3  UNL     1     -31.968   7.567   1.476  1.00 20.00     0.014 C 
HETATM   10  C4  UNL     1     -31.564   5.184   0.916  1.00 20.00     0.014 C 
ENDBRANCH   1   7
TORSDOF 4
ENDMDL
MODEL 5
REMARK VINA RESULT:      -0.1      2.433      4.257
REMARK  4 active torsions:
REMARK  status: ('A' for Active; 'I' for Inactive)
REMARK    1  A    between atoms: C5_5  and  C7_7 
REMARK    2  A    between atoms: C5_5  and  C8_8 
REMARK    3  A    between atoms: C6_6  and  C7_7 
REMARK    4  A    between atoms: C6_6  and  S9_9 
ROOT
HETATM    1  C5  UNL     1     -32.925   5.752   2.966  1.00 20.00     0.013 C 
ENDROOT
BRANCH   1   2
HETATM    2  C7  UNL     1     -34.365   6.008   3.476  1.00 20.00    -0.009 C 
HETATM    3  C1  UNL     1     -34.543   7.352   4.185  1.00 20.00     0.011 C 
BRANCH   2   4
HETATM    4  C6  UNL     1     -34.863   4.842   4.365  1.00 20.00     0.075 C 
BRANCH   4   5
HETATM    5  S9  UNL     1     -33.697   3.461   4.579  1.00 20.00    -0.182 SA
HETATM    6  H27 UNL     1     -33.195   3.885   5.746  1.00 20.00     0.101 HD
ENDBRANCH   4   5
ENDBRANCH   2   4
ENDBRANCH   1   2
BRANCH   1   7
HETATM    7  C8  UNL     1     -32.544   6.170   1.514  1.00 20.00    -0.051 C 
HETATM    8  C2  UNL     1     -31.947   7.584   1.456  1.00 20.00     0.014 C 
HETATM    9  C3  UNL     1     -31.571   5.172   0.863  1.00 20.00     0.014 C 
HETATM   10  C4  UNL     1     -33.840   6.158   0.671  1.00 20.00     0.014 C 
ENDBRANCH   1   7
TORSDOF 4
ENDMDL
MODEL 6
REMARK VINA RESULT:       0.3      2.473      4.171
REMARK  4 active torsions:
REMARK  status: ('A' for Active; 'I' for Inactive)
REMARK    1  A    between atoms: C5_5  and  C7_7 
REMARK    2  A    between atoms: C5_5  and  C8_8 
REMARK    3  A    between atoms: C6_6  and  C7_7 
REMARK    4  A    between atoms: C6_6  and  S9_9 
ROOT
HETATM    1  C5  UNL     1     -33.312   7.623   3.127  1.00 20.00     0.013 C 
ENDROOT
BRANCH   1   2
HETATM    2  C7  UNL     1     -34.167   6.332   3.074  1.00 20.00    -0.009 C 
HETATM    3  C1  UNL     1     -35.343   6.325   4.052  1.00 20.00     0.011 C 
BRANCH   2   4
HETATM    4  C6  UNL     1     -33.290   5.069   3.253  1.00 20.00     0.075 C 
BRANCH   4   5
HETATM    5  S9  UNL     1     -33.915   3.836   4.438  1.00 20.00    -0.182 SA
HETATM    6  H27 UNL     1     -34.897   4.604   4.928  1.00 20.00     0.101 HD
ENDBRANCH   4   5
ENDBRANCH   2   4
ENDBRANCH   1   2
BRANCH   1   7
HETATM    7  C8  UNL     1     -32.262   7.889   2.006  1.00 20.00    -0.051 C 
HETATM    8  C2  UNL     1     -31.934   6.620   1.206  1.00 20.00     0.014 C 
HETATM    9  C3  UNL     1     -32.714   9.003   1.045  1.00 20.00     0.014 C 
HETATM   10  C4  UNL     1     -30.964   8.377   2.691  1.00 20.00     0.014 C 
ENDBRANCH   1   7
TORSDOF 4
ENDMDL
MODEL 7
REMARK VINA RESULT:       0.4      2.469      4.145
REMARK  4 active torsions:
REMARK  status: ('A' for Active; 'I' for Inactive)
REMARK    1  A    between atoms: C5_5  and  C7_7 
REMARK    2  A    between atoms: C5_5  and  C8_8 
REMARK    3  A    between atoms: C6_6  and  C7_7 
REMARK    4  A    between atoms: C6_6  and  S9_9 
ROOT
HETATM    1  C5  UNL     1     -33.339   7.661   3.112  1.00 20.00     0.013 C 
ENDROOT
BRANCH   1   2
HETATM    2  C7  UNL     1     -34.151   6.342   3.078  1.00 20.00    -0.009 C 
HETATM    3  C1  UNL     1     -35.344   6.322   4.035  1.00 20.00     0.011 C 
BRANCH   2   4
HETATM    4  C6  UNL     1     -33.237   5.113   3.304  1.00 20.00     0.075 C 
BRANCH   4   5
HETATM    5  S9  UNL     1     -33.898   3.833   4.418  1.00 20.00    -0.182 SA
HETATM    6  H27 UNL     1     -33.907   2.852   3.507  1.00 20.00     0.101 HD
ENDBRANCH   4   5
ENDBRANCH   2   4
ENDBRANCH   1   2
BRANCH   1   7
HETATM    7  C8  UNL     1     -32.230   7.903   2.044  1.00 20.00    -0.051 C 
HETATM    8  C2  UNL     1     -30.915   8.387   2.672  1.00 20.00     0.014 C 
HETATM    9  C3  UNL     1     -31.965   6.647   1.194  1.00 20.00     0.014 C 
HETATM   10  C4  UNL     1     -32.741   9.002   1.084  1.00 20.00     0.014 C 
ENDBRANCH   1   7
TORSDOF 4
ENDMDL
MODEL 8
REMARK VINA RESULT:       0.5      1.300      1.881
REMARK  4 active torsions:
REMARK  status: ('A' for Active; 'I' for Inactive)
REMARK    1  A    between atoms: C5_5  and  C7_7 
REMARK    2  A    between atoms: C5_5  and  C8_8 
REMARK    3  A    between atoms: C6_6  and  C7_7 
REMARK    4  A    between atoms: C6_6  and  S9_9 
ROOT
HETATM    1  C5  UNL     1     -33.639   7.549   2.214  1.00 20.00     0.013 C 
ENDROOT
BRANCH   1   2
HETATM    2  C7  UNL     1     -32.121   7.795   2.020  1.00 20.00    -0.009 C 
HETATM    3  C1  UNL     1     -31.490   8.671   3.103  1.00 20.00     0.011 C 
BRANCH   2   4
HETATM    4  C6  UNL     1     -31.819   8.355   0.608  1.00 20.00     0.075 C 
BRANCH   4   5
HETATM    5  S9  UNL     1     -32.508  10.001   0.248  1.00 20.00    -0.182 SA
HETATM    6  H27 UNL     1     -33.745   9.572  -0.032  1.00 20.00     0.101 HD
ENDBRANCH   4   5
ENDBRANCH   2   4
ENDBRANCH   1   2
BRANCH   1   7
HETATM    7  C8  UNL     1     -34.137   6.837   3.507  1.00 20.00    -0.051 C 
HETATM    8  C2  UNL     1     -33.765   7.616   4.778  1.00 20.00     0.014 C 
HETATM    9  C3  UNL     1     -35.655   6.588   3.481  1.00 20.00     0.014 C 
HETATM   10  C4  UNL     1     -33.450   5.453   3.571  1.00 20.00     0.014 C 
ENDBRANCH   1   7
TORSDOF 4
ENDMDL
MODEL 9
REMARK VINA RESULT:       0.6      1.689      2.383
REMARK  4 active torsions:
REMARK  status: ('A' for Active; 'I' for Inactive)
REMARK    1  A    between atoms: C5_5  and  C7_7 
REMARK    2  A    between atoms: C5_5  and  C8_8 
REMARK    3  A    between atoms: C6_6  and  C7_7 
REMARK    4  A    between atoms: C6_6  and  S9_9 
ROOT
HETATM    1  C5  UNL     1     -33.804   6.912   2.167  1.00 20.00     0.013 C 
ENDROOT
BRANCH   1   2
HETATM    2  C7  UNL     1     -32.367   7.473   2.024  1.00 20.00    -0.009 C 
HETATM    3  C1  UNL     1     -32.281   8.758   1.199  1.00 20.00     0.011 C 
BRANCH   2   4
HETATM    4  C6  UNL     1     -31.395   6.398   1.478  1.00 20.00     0.075 C 
BRANCH   4   5
HETATM    5  S9  UNL     1     -32.177   4.913   0.774  1.00 20.00    -0.182 SA
HETATM    6  H27 UNL     1     -31.033   4.286   0.473  1.00 20.00     0.101 HD
ENDBRANCH   4   5
ENDBRANCH   2   4
ENDBRANCH   1   2
BRANCH   1   7
HETATM    7  C8  UNL     1     -34.353   6.574   3.585  1.00 20.00    -0.051 C 
HETATM    8  C2  UNL     1     -33.967   5.157   4.035  1.00 20.00     0.014 C 
HETATM    9  C3  UNL     1     -33.891   7.594   4.641  1.00 20.00     0.014 C 
HETATM   10  C4  UNL     1     -35.896   6.655   3.519  1.00 20.00     0.014 C 
ENDBRANCH   1   7
TORSDOF 4
ENDMDL
