MODEL 1
REMARK VINA RESULT:      -1.9      0.000      0.000
REMARK  1 active torsions:
REMARK  status: ('A' for Active; 'I' for Inactive)
REMARK    1  A    between atoms: C2_2  and  C4_4 
ROOT
HETATM    1  C3  UNL     1     -31.993   7.721   1.819  1.00 20.00     0.204 A 
HETATM    2  C4  UNL     1     -33.309   7.084   2.100  1.00 20.00     0.167 A 
HETATM    3  O5  UNL     1     -32.201   6.313   1.668  1.00 20.00    -0.377 OA
ENDROOT
BRANCH   2   4
HETATM    4  C2  UNL     1     -33.767   7.050   3.519  1.00 20.00    -0.003 C 
HETATM    5  C1  UNL     1     -34.934   6.531   3.917  1.00 20.00     0.009 C 
ENDBRANCH   2   4
TORSDOF 1
ENDMDL
MODEL 2
REMARK VINA RESULT:      -1.6      1.942      2.904
REMARK  1 active torsions:
REMARK  status: ('A' for Active; 'I' for Inactive)
REMARK    1  A    between atoms: C2_2  and  C4_4 
ROOT
HETATM    1  C3  UNL     1     -34.180   7.477   4.191  1.00 20.00     0.204 A 
HETATM    2  C4  UNL     1     -33.821   6.265   3.402  1.00 20.00     0.167 A 
HETATM    3  O5  UNL     1     -35.172   6.563   3.712  1.00 20.00    -0.377 OA
ENDROOT
BRANCH   2   4
HETATM    4  C2  UNL     1     -33.280   6.476   2.028  1.00 20.00    -0.003 C 
HETATM    5  C1  UNL     1     -32.474   5.612   1.401  1.00 20.00     0.009 C 
ENDBRANCH   2   4
TORSDOF 1
ENDMDL
MODEL 3
REMARK VINA RESULT:      -1.6      1.099      1.165
REMARK  1 active torsions:
REMARK  status: ('A' for Active; 'I' for Inactive)
REMARK    1  A    between atoms: C2_2  and  C4_4 
ROOT
HETATM    1  C3  UNL     1     -32.724   6.677   1.811  1.00 20.00     0.204 A 
HETATM    2  C4  UNL     1     -32.964   7.151   3.202  1.00 20.00     0.167 A 
HETATM    3  O5  UNL     1     -32.412   8.012   2.221  1.00 20.00    -0.377 OA
ENDROOT
BRANCH   2   4
HETATM    4  C2  UNL     1     -34.382   7.293   3.644  1.00 20.00    -0.003 C 
HETATM    5  C1  UNL     1     -35.143   6.272   4.053  1.00 20.00     0.009 C 
ENDBRANCH   2   4
TORSDOF 1
ENDMDL
MODEL 4
REMARK VINA RESULT:      -1.6      1.800      3.353
REMARK  1 active torsions:
REMARK  status: ('A' for Active; 'I' for Inactive)
REMARK    1  A    between atoms: C2_2  and  C4_4 
ROOT
HETATM    1  C3  UNL     1     -32.764   7.596   2.372  1.00 20.00     0.204 A 
HETATM    2  C4  UNL     1     -31.826   8.408   1.548  1.00 20.00     0.167 A 
HETATM    3  O5  UNL     1     -31.744   6.993   1.569  1.00 20.00    -0.377 OA
ENDROOT
BRANCH   2   4
HETATM    4  C2  UNL     1     -32.393   9.131   0.373  1.00 20.00    -0.003 C 
HETATM    5  C1  UNL     1     -32.531  10.459   0.308  1.00 20.00     0.009 C 
ENDBRANCH   2   4
TORSDOF 1
ENDMDL
MODEL 5
REMARK VINA RESULT:      -1.6      1.649      3.019
REMARK  1 active torsions:
REMARK  status: ('A' for Active; 'I' for Inactive)
REMARK    1  A    between atoms: C2_2  and  C4_4 
ROOT
HETATM    1  C3  UNL     1     -34.733   6.479   3.901  1.00 20.00     0.204 A 
HETATM    2  C4  UNL     1     -34.010   7.472   3.060  1.00 20.00     0.167 A 
HETATM    3  O5  UNL     1     -34.017   7.579   4.472  1.00 20.00    -0.377 OA
ENDROOT
BRANCH   2   4
HETATM    4  C2  UNL     1     -32.799   7.000   2.326  1.00 20.00    -0.003 C 
HETATM    5  C1  UNL     1     -31.926   7.814   1.723  1.00 20.00     0.009 C 
ENDBRANCH   2   4
TORSDOF 1
ENDMDL
MODEL 6
REMARK VINA RESULT:      -1.5      2.075      2.618
REMARK  1 active torsions:
REMARK  status: ('A' for Active; 'I' for Inactive)
REMARK    1  A    between atoms: C2_2  and  C4_4 
ROOT
HETATM    1  C3  UNL     1     -34.204   7.448   4.219  1.00 20.00     0.204 A 
HETATM    2  C4  UNL     1     -34.878   6.256   3.633  1.00 20.00     0.167 A 
HETATM    3  O5  UNL     1     -33.702   6.791   3.051  1.00 20.00    -0.377 OA
ENDROOT
BRANCH   2   4
HETATM    4  C2  UNL     1     -34.842   4.990   4.421  1.00 20.00    -0.003 C 
HETATM    5  C1  UNL     1     -33.989   3.986   4.186  1.00 20.00     0.009 C 
ENDBRANCH   2   4
TORSDOF 1
ENDMDL
MODEL 7
REMARK VINA RESULT:      -1.5      2.964      3.503
REMARK  1 active torsions:
REMARK  status: ('A' for Active; 'I' for Inactive)
REMARK    1  A    between atoms: C2_2  and  C4_4 
ROOT
HETATM    1  C3  UNL     1     -32.788   9.790  -0.471  1.00 20.00     0.204 A 
HETATM    2  C4  UNL     1     -31.898   9.377   0.649  1.00 20.00     0.167 A 
HETATM    3  O5  UNL     1     -32.466  10.675   0.607  1.00 20.00    -0.377 OA
ENDROOT
BRANCH   2   4
HETATM    4  C2  UNL     1     -32.412   8.338   1.588  1.00 20.00    -0.003 C 
HETATM    5  C1  UNL     1     -31.946   7.086   1.646  1.00 20.00     0.009 C 
ENDBRANCH   2   4
TORSDOF 1
ENDMDL
MODEL 8
REMARK VINA RESULT:      -1.3      2.497      3.308
REMARK  1 active torsions:
REMARK  status: ('A' for Active; 'I' for Inactive)
REMARK    1  A    between atoms: C2_2  and  C4_4 
ROOT
HETATM    1  C3  UNL     1     -34.276   4.543   4.091  1.00 20.00     0.204 A 
HETATM    2  C4  UNL     1     -34.999   5.802   3.759  1.00 20.00     0.167 A 
HETATM    3  O5  UNL     1     -35.538   4.871   4.682  1.00 20.00    -0.377 OA
ENDROOT
BRANCH   2   4
HETATM    4  C2  UNL     1     -34.393   7.084   4.221  1.00 20.00    -0.003 C 
HETATM    5  C1  UNL     1     -33.507   7.791   3.511  1.00 20.00     0.009 C 
ENDBRANCH   2   4
TORSDOF 1
ENDMDL
MODEL 9
REMARK VINA RESULT:      -1.1      1.824      2.798
REMARK  1 active torsions:
REMARK  status: ('A' for Active; 'I' for Inactive)
REMARK    1  A    between atoms: C2_2  and  C4_4 
ROOT
HETATM    1  C3  UNL     1     -32.564   5.450   1.666  1.00 20.00     0.204 A 
HETATM    2  C4  UNL     1     -33.036   6.859   1.562  1.00 20.00     0.167 A 
HETATM    3  O5  UNL     1     -33.400   6.045   2.663  1.00 20.00    -0.377 OA
ENDROOT
BRANCH   2   4
HETATM    4  C2  UNL     1     -32.015   7.937   1.703  1.00 20.00    -0.003 C 
HETATM    5  C1  UNL     1     -32.012   9.064   0.982  1.00 20.00     0.009 C 
ENDBRANCH   2   4
TORSDOF 1
ENDMDL
