MODEL 1
REMARK VINA RESULT:       0.4      0.000      0.000
REMARK  1 active torsions:
REMARK  status: ('A' for Active; 'I' for Inactive)
REMARK    1  A    between atoms: C3_3  and  C8_8 
ROOT
HETATM    1  C1  UNL     1     -34.678   6.843   3.371  1.00 20.00     0.048 A 
HETATM    2  C2  UNL     1     -35.417   6.216   4.393  1.00 20.00     0.141 A 
HETATM    3  C3  UNL     1     -33.823   5.868   2.919  1.00 20.00     0.039 A 
HETATM    4  C7  UNL     1     -33.450   3.469   3.569  1.00 20.00     0.179 C 
HETATM    5  N9  UNL     1     -35.062   4.942   4.579  1.00 20.00    -0.185 NA
HETATM    6  N10 UNL     1     -34.091   4.760   3.668  1.00 20.00    -0.278 N 
ENDROOT
BRANCH   3   7
HETATM    7  C8  UNL     1     -32.752   5.896   1.815  1.00 20.00    -0.007 C 
HETATM    8  C4  UNL     1     -32.186   7.325   1.678  1.00 20.00     0.021 C 
HETATM    9  C5  UNL     1     -33.379   5.466   0.472  1.00 20.00     0.021 C 
HETATM   10  C6  UNL     1     -31.556   4.955   2.083  1.00 20.00     0.021 C 
ENDBRANCH   3   7
TORSDOF 1
ENDMDL
MODEL 2
REMARK VINA RESULT:       0.6      1.458      2.621
REMARK  1 active torsions:
REMARK  status: ('A' for Active; 'I' for Inactive)
REMARK    1  A    between atoms: C3_3  and  C8_8 
ROOT
HETATM    1  C1  UNL     1     -34.024   7.743   3.957  1.00 20.00     0.048 A 
HETATM    2  C2  UNL     1     -34.824   6.608   4.191  1.00 20.00     0.141 A 
HETATM    3  C3  UNL     1     -33.226   7.389   2.897  1.00 20.00     0.039 A 
HETATM    4  C7  UNL     1     -33.027   5.298   1.516  1.00 20.00     0.179 C 
HETATM    5  N9  UNL     1     -34.558   5.608   3.347  1.00 20.00    -0.185 NA
HETATM    6  N10 UNL     1     -33.583   6.113   2.572  1.00 20.00    -0.278 N 
ENDROOT
BRANCH   3   7
HETATM    7  C8  UNL     1     -32.134   8.171   2.149  1.00 20.00    -0.007 C 
HETATM    8  C4  UNL     1     -31.217   7.186   1.392  1.00 20.00     0.021 C 
HETATM    9  C5  UNL     1     -31.289   8.978   3.157  1.00 20.00     0.021 C 
HETATM   10  C6  UNL     1     -32.684   9.173   1.109  1.00 20.00     0.021 C 
ENDBRANCH   3   7
TORSDOF 1
ENDMDL
MODEL 3
REMARK VINA RESULT:       0.6      1.457      2.246
REMARK  1 active torsions:
REMARK  status: ('A' for Active; 'I' for Inactive)
REMARK    1  A    between atoms: C3_3  and  C8_8 
ROOT
HETATM    1  C1  UNL     1     -34.044   7.752   3.934  1.00 20.00     0.048 A 
HETATM    2  C2  UNL     1     -34.824   6.607   4.181  1.00 20.00     0.141 A 
HETATM    3  C3  UNL     1     -33.226   7.393   2.892  1.00 20.00     0.039 A 
HETATM    4  C7  UNL     1     -32.969   5.279   1.556  1.00 20.00     0.179 C 
HETATM    5  N9  UNL     1     -34.528   5.595   3.361  1.00 20.00    -0.185 NA
HETATM    6  N10 UNL     1     -33.554   6.104   2.588  1.00 20.00    -0.278 N 
ENDROOT
BRANCH   3   7
HETATM    7  C8  UNL     1     -32.139   8.181   2.141  1.00 20.00    -0.007 C 
HETATM    8  C4  UNL     1     -31.225   8.900   3.157  1.00 20.00     0.021 C 
HETATM    9  C5  UNL     1     -32.799   9.229   1.221  1.00 20.00     0.021 C 
HETATM   10  C6  UNL     1     -31.231   7.301   1.253  1.00 20.00     0.021 C 
ENDBRANCH   3   7
TORSDOF 1
ENDMDL
MODEL 4
REMARK VINA RESULT:       0.6      2.087      3.972
REMARK  1 active torsions:
REMARK  status: ('A' for Active; 'I' for Inactive)
REMARK    1  A    between atoms: C3_3  and  C8_8 
ROOT
HETATM    1  C1  UNL     1     -33.122   5.279   1.770  1.00 20.00     0.048 A 
HETATM    2  C2  UNL     1     -32.047   5.721   0.975  1.00 20.00     0.141 A 
HETATM    3  C3  UNL     1     -33.412   6.347   2.581  1.00 20.00     0.039 A 
HETATM    4  C7  UNL     1     -32.432   8.651   2.810  1.00 20.00     0.179 C 
HETATM    5  N9  UNL     1     -31.679   6.975   1.257  1.00 20.00    -0.185 NA
HETATM    6  N10 UNL     1     -32.529   7.328   2.237  1.00 20.00    -0.278 N 
ENDROOT
BRANCH   3   7
HETATM    7  C8  UNL     1     -34.477   6.524   3.677  1.00 20.00    -0.007 C 
HETATM    8  C4  UNL     1     -34.724   5.174   4.383  1.00 20.00     0.021 C 
HETATM    9  C5  UNL     1     -35.796   7.016   3.045  1.00 20.00     0.021 C 
HETATM   10  C6  UNL     1     -34.085   7.545   4.769  1.00 20.00     0.021 C 
ENDBRANCH   3   7
TORSDOF 1
ENDMDL
MODEL 5
REMARK VINA RESULT:       0.7      0.060      1.361
REMARK  1 active torsions:
REMARK  status: ('A' for Active; 'I' for Inactive)
REMARK    1  A    between atoms: C3_3  and  C8_8 
ROOT
HETATM    1  C1  UNL     1     -34.676   6.857   3.396  1.00 20.00     0.048 A 
HETATM    2  C2  UNL     1     -35.422   6.236   4.417  1.00 20.00     0.141 A 
HETATM    3  C3  UNL     1     -33.833   5.874   2.939  1.00 20.00     0.039 A 
HETATM    4  C7  UNL     1     -33.488   3.469   3.581  1.00 20.00     0.179 C 
HETATM    5  N9  UNL     1     -35.081   4.957   4.598  1.00 20.00    -0.185 NA
HETATM    6  N10 UNL     1     -34.114   4.767   3.685  1.00 20.00    -0.278 N 
ENDROOT
BRANCH   3   7
HETATM    7  C8  UNL     1     -32.764   5.893   1.835  1.00 20.00    -0.007 C 
HETATM    8  C4  UNL     1     -31.612   4.936   2.212  1.00 20.00     0.021 C 
HETATM    9  C5  UNL     1     -32.205   7.323   1.677  1.00 20.00     0.021 C 
HETATM   10  C6  UNL     1     -33.288   5.452   0.450  1.00 20.00     0.021 C 
ENDBRANCH   3   7
TORSDOF 1
ENDMDL
MODEL 6
REMARK VINA RESULT:       0.7      1.998      3.726
REMARK  1 active torsions:
REMARK  status: ('A' for Active; 'I' for Inactive)
REMARK    1  A    between atoms: C3_3  and  C8_8 
ROOT
HETATM    1  C1  UNL     1     -32.467   8.411   2.701  1.00 20.00     0.048 A 
HETATM    2  C2  UNL     1     -31.601   8.269   1.600  1.00 20.00     0.141 A 
HETATM    3  C3  UNL     1     -33.165   7.230   2.744  1.00 20.00     0.039 A 
HETATM    4  C7  UNL     1     -33.115   5.149   1.335  1.00 20.00     0.179 C 
HETATM    5  N9  UNL     1     -31.735   7.088   0.989  1.00 20.00    -0.185 NA
HETATM    6  N10 UNL     1     -32.693   6.479   1.708  1.00 20.00    -0.278 N 
ENDROOT
BRANCH   3   7
HETATM    7  C8  UNL     1     -34.263   6.739   3.703  1.00 20.00    -0.007 C 
HETATM    8  C4  UNL     1     -34.209   7.553   5.013  1.00 20.00     0.021 C 
HETATM    9  C5  UNL     1     -34.043   5.245   4.024  1.00 20.00     0.021 C 
HETATM   10  C6  UNL     1     -35.694   6.878   3.137  1.00 20.00     0.021 C 
ENDBRANCH   3   7
TORSDOF 1
ENDMDL
MODEL 7
REMARK VINA RESULT:       0.9      1.021      2.252
REMARK  1 active torsions:
REMARK  status: ('A' for Active; 'I' for Inactive)
REMARK    1  A    between atoms: C3_3  and  C8_8 
ROOT
HETATM    1  C1  UNL     1     -33.883   4.392   3.398  1.00 20.00     0.048 A 
HETATM    2  C2  UNL     1     -34.786   4.637   4.450  1.00 20.00     0.141 A 
HETATM    3  C3  UNL     1     -33.637   5.631   2.861  1.00 20.00     0.039 A 
HETATM    4  C7  UNL     1     -34.458   7.941   3.416  1.00 20.00     0.179 C 
HETATM    5  N9  UNL     1     -35.093   5.931   4.575  1.00 20.00    -0.185 NA
HETATM    6  N10 UNL     1     -34.379   6.510   3.595  1.00 20.00    -0.278 N 
ENDROOT
BRANCH   3   7
HETATM    7  C8  UNL     1     -32.741   6.065   1.689  1.00 20.00    -0.007 C 
HETATM    8  C4  UNL     1     -33.581   6.145   0.396  1.00 20.00     0.021 C 
HETATM    9  C5  UNL     1     -31.606   5.038   1.495  1.00 20.00     0.021 C 
HETATM   10  C6  UNL     1     -32.077   7.447   1.888  1.00 20.00     0.021 C 
ENDBRANCH   3   7
TORSDOF 1
ENDMDL
MODEL 8
REMARK VINA RESULT:       1.0      1.013      1.886
REMARK  1 active torsions:
REMARK  status: ('A' for Active; 'I' for Inactive)
REMARK    1  A    between atoms: C3_3  and  C8_8 
ROOT
HETATM    1  C1  UNL     1     -33.903   4.376   3.436  1.00 20.00     0.048 A 
HETATM    2  C2  UNL     1     -34.806   4.663   4.478  1.00 20.00     0.141 A 
HETATM    3  C3  UNL     1     -33.640   5.596   2.863  1.00 20.00     0.039 A 
HETATM    4  C7  UNL     1     -34.432   7.931   3.349  1.00 20.00     0.179 C 
HETATM    5  N9  UNL     1     -35.096   5.964   4.564  1.00 20.00    -0.185 NA
HETATM    6  N10 UNL     1     -34.372   6.505   3.569  1.00 20.00    -0.278 N 
ENDROOT
BRANCH   3   7
HETATM    7  C8  UNL     1     -32.736   5.984   1.681  1.00 20.00    -0.007 C 
HETATM    8  C4  UNL     1     -32.117   7.375   1.936  1.00 20.00     0.021 C 
HETATM    9  C5  UNL     1     -33.569   6.029   0.383  1.00 20.00     0.021 C 
HETATM   10  C6  UNL     1     -31.568   5.001   1.440  1.00 20.00     0.021 C 
ENDBRANCH   3   7
TORSDOF 1
ENDMDL
MODEL 9
REMARK VINA RESULT:       1.3      1.594      2.539
REMARK  1 active torsions:
REMARK  status: ('A' for Active; 'I' for Inactive)
REMARK    1  A    between atoms: C3_3  and  C8_8 
ROOT
HETATM    1  C1  UNL     1     -34.582   5.733   3.256  1.00 20.00     0.048 A 
HETATM    2  C2  UNL     1     -34.956   6.536   4.350  1.00 20.00     0.141 A 
HETATM    3  C3  UNL     1     -33.511   6.386   2.699  1.00 20.00     0.039 A 
HETATM    4  C7  UNL     1     -32.300   8.511   3.281  1.00 20.00     0.179 C 
HETATM    5  N9  UNL     1     -34.184   7.619   4.482  1.00 20.00    -0.185 NA
HETATM    6  N10 UNL     1     -33.314   7.499   3.464  1.00 20.00    -0.278 N 
ENDROOT
BRANCH   3   7
HETATM    7  C8  UNL     1     -32.638   6.041   1.481  1.00 20.00    -0.007 C 
HETATM    8  C4  UNL     1     -33.520   5.446   0.363  1.00 20.00     0.021 C 
HETATM    9  C5  UNL     1     -31.565   5.008   1.887  1.00 20.00     0.021 C 
HETATM   10  C6  UNL     1     -31.896   7.257   0.880  1.00 20.00     0.021 C 
ENDBRANCH   3   7
TORSDOF 1
ENDMDL
