MODEL 1
REMARK VINA RESULT:      -0.4      0.000      0.000
REMARK  2 active torsions:
REMARK  status: ('A' for Active; 'I' for Inactive)
REMARK    1  A    between atoms: C6_6  and  C8_8 
REMARK    2  A    between atoms: C7_7  and  C8_8 
ROOT
HETATM    1  C1  UNL     1     -31.956   5.403   1.025  1.00 20.00     0.075 C 
HETATM    2  C8  UNL     1     -32.872   6.420   1.597  1.00 20.00     0.186 C 
HETATM    3  N9  UNL     1     -31.247   4.596   0.585  1.00 20.00    -0.196 NA
ENDROOT
BRANCH   2   4
HETATM    4  C6  UNL     1     -33.692   5.880   2.719  1.00 20.00    -0.031 A 
HETATM    5  C2  UNL     1     -34.695   6.659   3.288  1.00 20.00     0.028 A 
HETATM    6  C4  UNL     1     -35.429   6.111   4.327  1.00 20.00     0.116 A 
HETATM    7  N10 UNL     1     -35.232   4.868   4.822  1.00 20.00    -0.273 NA
HETATM    8  C5  UNL     1     -34.249   4.142   4.243  1.00 20.00     0.116 A 
HETATM    9  C3  UNL     1     -33.459   4.597   3.200  1.00 20.00     0.028 A 
ENDBRANCH   2   4
BRANCH   2  10
HETATM   10  C7  UNL     1     -32.106   7.673   2.008  1.00 20.00     0.255 C 
HETATM   11  O11 UNL     1     -32.102   8.736   1.394  1.00 20.00    -0.305 OA
ENDBRANCH   2  10
TORSDOF 2
ENDMDL
MODEL 2
REMARK VINA RESULT:      -0.4      0.004      1.418
REMARK  2 active torsions:
REMARK  status: ('A' for Active; 'I' for Inactive)
REMARK    1  A    between atoms: C6_6  and  C8_8 
REMARK    2  A    between atoms: C7_7  and  C8_8 
ROOT
HETATM    1  C1  UNL     1     -31.953   5.401   1.028  1.00 20.00     0.075 C 
HETATM    2  C8  UNL     1     -32.870   6.417   1.598  1.00 20.00     0.186 C 
HETATM    3  N9  UNL     1     -31.243   4.595   0.590  1.00 20.00    -0.196 NA
ENDROOT
BRANCH   2   4
HETATM    4  C6  UNL     1     -33.693   5.878   2.719  1.00 20.00    -0.031 A 
HETATM    5  C2  UNL     1     -33.459   4.594   3.201  1.00 20.00     0.028 A 
HETATM    6  C4  UNL     1     -34.250   4.140   4.244  1.00 20.00     0.116 A 
HETATM    7  N10 UNL     1     -35.233   4.868   4.822  1.00 20.00    -0.273 NA
HETATM    8  C5  UNL     1     -35.429   6.110   4.327  1.00 20.00     0.116 A 
HETATM    9  C3  UNL     1     -34.694   6.657   3.288  1.00 20.00     0.028 A 
ENDBRANCH   2   4
BRANCH   2  10
HETATM   10  C7  UNL     1     -32.107   7.672   2.009  1.00 20.00     0.255 C 
HETATM   11  O11 UNL     1     -32.106   8.735   1.396  1.00 20.00    -0.305 OA
ENDBRANCH   2  10
TORSDOF 2
ENDMDL
MODEL 3
REMARK VINA RESULT:      -0.4      2.089      3.910
REMARK  2 active torsions:
REMARK  status: ('A' for Active; 'I' for Inactive)
REMARK    1  A    between atoms: C6_6  and  C8_8 
REMARK    2  A    between atoms: C7_7  and  C8_8 
ROOT
HETATM    1  C1  UNL     1     -33.975   4.226   4.255  1.00 20.00     0.075 C 
HETATM    2  C8  UNL     1     -34.280   5.676   4.189  1.00 20.00     0.186 C 
HETATM    3  N9  UNL     1     -33.723   3.094   4.298  1.00 20.00    -0.196 NA
ENDROOT
BRANCH   2   4
HETATM    4  C6  UNL     1     -33.433   6.392   3.192  1.00 20.00    -0.031 A 
HETATM    5  C2  UNL     1     -33.078   7.720   3.404  1.00 20.00     0.028 A 
HETATM    6  C4  UNL     1     -32.290   8.339   2.448  1.00 20.00     0.116 A 
HETATM    7  N10 UNL     1     -31.844   7.733   1.324  1.00 20.00    -0.273 NA
HETATM    8  C5  UNL     1     -32.210   6.443   1.154  1.00 20.00     0.116 A 
HETATM    9  C3  UNL     1     -32.994   5.734   2.049  1.00 20.00     0.028 A 
ENDBRANCH   2   4
BRANCH   2  10
HETATM   10  C7  UNL     1     -35.766   5.910   3.941  1.00 20.00     0.255 C 
HETATM   11  O11 UNL     1     -36.235   6.744   3.172  1.00 20.00    -0.305 OA
ENDBRANCH   2  10
TORSDOF 2
ENDMDL
MODEL 4
REMARK VINA RESULT:      -0.4      1.910      2.181
REMARK  2 active torsions:
REMARK  status: ('A' for Active; 'I' for Inactive)
REMARK    1  A    between atoms: C6_6  and  C8_8 
REMARK    2  A    between atoms: C7_7  and  C8_8 
ROOT
HETATM    1  C1  UNL     1     -32.214   7.630   1.645  1.00 20.00     0.075 C 
HETATM    2  C8  UNL     1     -32.247   6.183   1.967  1.00 20.00     0.186 C 
HETATM    3  N9  UNL     1     -32.199   8.765   1.403  1.00 20.00    -0.196 NA
ENDROOT
BRANCH   2   4
HETATM    4  C6  UNL     1     -33.357   5.832   2.900  1.00 20.00    -0.031 A 
HETATM    5  C2  UNL     1     -34.322   6.779   3.223  1.00 20.00     0.028 A 
HETATM    6  C4  UNL     1     -35.332   6.404   4.094  1.00 20.00     0.116 A 
HETATM    7  N10 UNL     1     -35.437   5.174   4.647  1.00 20.00    -0.273 NA
HETATM    8  C5  UNL     1     -34.480   4.281   4.309  1.00 20.00     0.116 A 
HETATM    9  C3  UNL     1     -33.430   4.557   3.449  1.00 20.00     0.028 A 
ENDBRANCH   2   4
BRANCH   2  10
HETATM   10  C7  UNL     1     -32.289   5.341   0.696  1.00 20.00     0.255 C 
HETATM   11  O11 UNL     1     -31.461   4.492   0.379  1.00 20.00    -0.305 OA
ENDBRANCH   2  10
TORSDOF 2
ENDMDL
MODEL 5
REMARK VINA RESULT:      -0.4      1.910      2.594
REMARK  2 active torsions:
REMARK  status: ('A' for Active; 'I' for Inactive)
REMARK    1  A    between atoms: C6_6  and  C8_8 
REMARK    2  A    between atoms: C7_7  and  C8_8 
ROOT
HETATM    1  C1  UNL     1     -32.225   7.643   1.641  1.00 20.00     0.075 C 
HETATM    2  C8  UNL     1     -32.259   6.196   1.961  1.00 20.00     0.186 C 
HETATM    3  N9  UNL     1     -32.209   8.779   1.401  1.00 20.00    -0.196 NA
ENDROOT
BRANCH   2   4
HETATM    4  C6  UNL     1     -33.367   5.845   2.896  1.00 20.00    -0.031 A 
HETATM    5  C2  UNL     1     -33.449   4.564   3.432  1.00 20.00     0.028 A 
HETATM    6  C4  UNL     1     -34.497   4.289   4.295  1.00 20.00     0.116 A 
HETATM    7  N10 UNL     1     -35.444   5.188   4.648  1.00 20.00    -0.273 NA
HETATM    8  C5  UNL     1     -35.331   6.422   4.107  1.00 20.00     0.116 A 
HETATM    9  C3  UNL     1     -34.322   6.797   3.235  1.00 20.00     0.028 A 
ENDBRANCH   2   4
BRANCH   2  10
HETATM   10  C7  UNL     1     -32.305   5.356   0.689  1.00 20.00     0.255 C 
HETATM   11  O11 UNL     1     -31.481   4.504   0.370  1.00 20.00    -0.305 OA
ENDBRANCH   2  10
TORSDOF 2
ENDMDL
MODEL 6
REMARK VINA RESULT:       0.4      2.558      4.361
REMARK  2 active torsions:
REMARK  status: ('A' for Active; 'I' for Inactive)
REMARK    1  A    between atoms: C6_6  and  C8_8 
REMARK    2  A    between atoms: C7_7  and  C8_8 
ROOT
HETATM    1  C1  UNL     1     -35.025   4.827   4.331  1.00 20.00     0.075 C 
HETATM    2  C8  UNL     1     -33.925   4.544   3.378  1.00 20.00     0.186 C 
HETATM    3  N9  UNL     1     -35.886   5.064   5.073  1.00 20.00    -0.196 NA
ENDROOT
BRANCH   2   4
HETATM    4  C6  UNL     1     -33.302   5.788   2.841  1.00 20.00    -0.031 A 
HETATM    5  C2  UNL     1     -33.513   7.006   3.478  1.00 20.00     0.028 A 
HETATM    6  C4  UNL     1     -32.912   8.132   2.940  1.00 20.00     0.116 A 
HETATM    7  N10 UNL     1     -32.133   8.119   1.835  1.00 20.00    -0.273 NA
HETATM    8  C5  UNL     1     -31.950   6.917   1.243  1.00 20.00     0.116 A 
HETATM    9  C3  UNL     1     -32.507   5.734   1.702  1.00 20.00     0.028 A 
ENDBRANCH   2   4
BRANCH   2  10
HETATM   10  C7  UNL     1     -32.888   3.616   4.001  1.00 20.00     0.255 C 
HETATM   11  O11 UNL     1     -33.093   2.847   4.935  1.00 20.00    -0.305 OA
ENDBRANCH   2  10
TORSDOF 2
ENDMDL
MODEL 7
REMARK VINA RESULT:       0.4      2.312      2.897
REMARK  2 active torsions:
REMARK  status: ('A' for Active; 'I' for Inactive)
REMARK    1  A    between atoms: C6_6  and  C8_8 
REMARK    2  A    between atoms: C7_7  and  C8_8 
ROOT
HETATM    1  C1  UNL     1     -32.181   8.689   0.981  1.00 20.00     0.075 C 
HETATM    2  C8  UNL     1     -31.980   7.441   1.757  1.00 20.00     0.186 C 
HETATM    3  N9  UNL     1     -32.349   9.670   0.384  1.00 20.00    -0.196 NA
ENDROOT
BRANCH   2   4
HETATM    4  C6  UNL     1     -33.030   7.242   2.797  1.00 20.00    -0.031 A 
HETATM    5  C2  UNL     1     -33.920   6.177   2.695  1.00 20.00     0.028 A 
HETATM    6  C4  UNL     1     -34.876   6.035   3.687  1.00 20.00     0.116 A 
HETATM    7  N10 UNL     1     -34.997   6.866   4.747  1.00 20.00    -0.273 NA
HETATM    8  C5  UNL     1     -34.114   7.888   4.812  1.00 20.00     0.116 A 
HETATM    9  C3  UNL     1     -33.122   8.117   3.872  1.00 20.00     0.028 A 
ENDBRANCH   2   4
BRANCH   2  10
HETATM   10  C7  UNL     1     -31.865   6.235   0.830  1.00 20.00     0.255 C 
HETATM   11  O11 UNL     1     -31.447   5.128   1.155  1.00 20.00    -0.305 OA
ENDBRANCH   2  10
TORSDOF 2
ENDMDL
MODEL 8
REMARK VINA RESULT:       0.9      2.366      4.364
REMARK  2 active torsions:
REMARK  status: ('A' for Active; 'I' for Inactive)
REMARK    1  A    between atoms: C6_6  and  C8_8 
REMARK    2  A    between atoms: C7_7  and  C8_8 
ROOT
HETATM    1  C1  UNL     1     -33.815   7.954   4.878  1.00 20.00     0.075 C 
HETATM    2  C8  UNL     1     -34.423   7.354   3.667  1.00 20.00     0.186 C 
HETATM    3  N9  UNL     1     -33.324   8.424   5.819  1.00 20.00    -0.196 NA
ENDROOT
BRANCH   2   4
HETATM    4  C6  UNL     1     -33.403   6.935   2.663  1.00 20.00    -0.031 A 
HETATM    5  C2  UNL     1     -32.435   7.837   2.235  1.00 20.00     0.028 A 
HETATM    6  C4  UNL     1     -31.509   7.399   1.302  1.00 20.00     0.116 A 
HETATM    7  N10 UNL     1     -31.489   6.150   0.783  1.00 20.00    -0.273 NA
HETATM    8  C5  UNL     1     -32.445   5.302   1.224  1.00 20.00     0.116 A 
HETATM    9  C3  UNL     1     -33.415   5.642   2.154  1.00 20.00     0.028 A 
ENDBRANCH   2   4
BRANCH   2  10
HETATM   10  C7  UNL     1     -35.357   6.205   4.037  1.00 20.00     0.255 C 
HETATM   11  O11 UNL     1     -35.004   5.126   4.502  1.00 20.00    -0.305 OA
ENDBRANCH   2  10
TORSDOF 2
ENDMDL
MODEL 9
REMARK VINA RESULT:       0.9      2.366      4.495
REMARK  2 active torsions:
REMARK  status: ('A' for Active; 'I' for Inactive)
REMARK    1  A    between atoms: C6_6  and  C8_8 
REMARK    2  A    between atoms: C7_7  and  C8_8 
ROOT
HETATM    1  C1  UNL     1     -33.815   7.954   4.877  1.00 20.00     0.075 C 
HETATM    2  C8  UNL     1     -34.423   7.353   3.666  1.00 20.00     0.186 C 
HETATM    3  N9  UNL     1     -33.325   8.425   5.818  1.00 20.00    -0.196 NA
ENDROOT
BRANCH   2   4
HETATM    4  C6  UNL     1     -33.402   6.934   2.663  1.00 20.00    -0.031 A 
HETATM    5  C2  UNL     1     -33.414   5.641   2.153  1.00 20.00     0.028 A 
HETATM    6  C4  UNL     1     -32.445   5.302   1.223  1.00 20.00     0.116 A 
HETATM    7  N10 UNL     1     -31.489   6.150   0.782  1.00 20.00    -0.273 NA
HETATM    8  C5  UNL     1     -31.509   7.399   1.301  1.00 20.00     0.116 A 
HETATM    9  C3  UNL     1     -32.435   7.836   2.234  1.00 20.00     0.028 A 
ENDBRANCH   2   4
BRANCH   2  10
HETATM   10  C7  UNL     1     -35.356   6.204   4.036  1.00 20.00     0.255 C 
HETATM   11  O11 UNL     1     -35.003   5.124   4.501  1.00 20.00    -0.305 OA
ENDBRANCH   2  10
TORSDOF 2
ENDMDL
