MODEL 1
REMARK VINA RESULT:      -1.1      0.000      0.000
REMARK  2 active torsions:
REMARK  status: ('A' for Active; 'I' for Inactive)
REMARK    1  A    between atoms: C4_4  and  C5_5 
REMARK    2  A    between atoms: C4_4  and  N6_6 
ROOT
HETATM    1  C1  UNL     1     -33.958   7.468   4.542  1.00 20.00     0.016 C 
HETATM    2  C2  UNL     1     -35.885   6.746   3.120  1.00 20.00     0.016 C 
HETATM    3  C3  UNL     1     -33.555   6.120   2.462  1.00 20.00     0.016 C 
HETATM    4  C5  UNL     1     -34.502   6.335   3.655  1.00 20.00    -0.036 C 
ENDROOT
BRANCH   4   5
HETATM    5  C4  UNL     1     -34.659   5.033   4.468  1.00 20.00     0.154 C 
BRANCH   5   6
HETATM    6  N6  UNL     1     -33.844   3.954   3.901  1.00 20.00    -0.063 NA
HETATM    7  O7  UNL     1     -33.411   3.174   4.764  1.00 20.00    -0.101 OA
ENDBRANCH   5   6
ENDBRANCH   4   5
TORSDOF 2
ENDMDL
MODEL 2
REMARK VINA RESULT:      -1.1      2.718      3.314
REMARK  2 active torsions:
REMARK  status: ('A' for Active; 'I' for Inactive)
REMARK    1  A    between atoms: C4_4  and  C5_5 
REMARK    2  A    between atoms: C4_4  and  N6_6 
ROOT
HETATM    1  C1  UNL     1     -35.836   6.785   3.183  1.00 20.00     0.016 C 
HETATM    2  C2  UNL     1     -33.913   7.523   4.602  1.00 20.00     0.016 C 
HETATM    3  C3  UNL     1     -34.327   5.082   4.246  1.00 20.00     0.016 C 
HETATM    4  C5  UNL     1     -34.385   6.470   3.584  1.00 20.00    -0.036 C 
ENDROOT
BRANCH   4   5
HETATM    5  C4  UNL     1     -33.454   6.526   2.354  1.00 20.00     0.154 C 
BRANCH   5   6
HETATM    6  N6  UNL     1     -32.637   7.743   2.366  1.00 20.00    -0.063 NA
HETATM    7  O7  UNL     1     -31.646   7.664   1.622  1.00 20.00    -0.101 OA
ENDBRANCH   5   6
ENDBRANCH   4   5
TORSDOF 2
ENDMDL
MODEL 3
REMARK VINA RESULT:      -1.1      2.731      3.223
REMARK  2 active torsions:
REMARK  status: ('A' for Active; 'I' for Inactive)
REMARK    1  A    between atoms: C4_4  and  C5_5 
REMARK    2  A    between atoms: C4_4  and  N6_6 
ROOT
HETATM    1  C1  UNL     1     -33.908   7.534   4.625  1.00 20.00     0.016 C 
HETATM    2  C2  UNL     1     -34.255   5.095   4.191  1.00 20.00     0.016 C 
HETATM    3  C3  UNL     1     -35.822   6.768   3.189  1.00 20.00     0.016 C 
HETATM    4  C5  UNL     1     -34.356   6.502   3.575  1.00 20.00    -0.036 C 
ENDROOT
BRANCH   4   5
HETATM    5  C4  UNL     1     -33.446   6.559   2.330  1.00 20.00     0.154 C 
BRANCH   5   6
HETATM    6  N6  UNL     1     -32.589   7.749   2.356  1.00 20.00    -0.063 NA
HETATM    7  O7  UNL     1     -31.609   7.651   1.600  1.00 20.00    -0.101 OA
ENDBRANCH   5   6
ENDBRANCH   4   5
TORSDOF 2
ENDMDL
MODEL 4
REMARK VINA RESULT:      -1.1      2.734      3.228
REMARK  2 active torsions:
REMARK  status: ('A' for Active; 'I' for Inactive)
REMARK    1  A    between atoms: C4_4  and  C5_5 
REMARK    2  A    between atoms: C4_4  and  N6_6 
ROOT
HETATM    1  C1  UNL     1     -34.269   5.078   4.215  1.00 20.00     0.016 C 
HETATM    2  C2  UNL     1     -35.797   6.770   3.187  1.00 20.00     0.016 C 
HETATM    3  C3  UNL     1     -33.898   7.527   4.627  1.00 20.00     0.016 C 
HETATM    4  C5  UNL     1     -34.340   6.481   3.589  1.00 20.00    -0.036 C 
ENDROOT
BRANCH   4   5
HETATM    5  C4  UNL     1     -33.458   6.561   2.325  1.00 20.00     0.154 C 
BRANCH   5   6
HETATM    6  N6  UNL     1     -32.609   7.756   2.348  1.00 20.00    -0.063 NA
HETATM    7  O7  UNL     1     -31.629   7.664   1.592  1.00 20.00    -0.101 OA
ENDBRANCH   5   6
ENDBRANCH   4   5
TORSDOF 2
ENDMDL
MODEL 5
REMARK VINA RESULT:      -1.1      0.034      1.639
REMARK  2 active torsions:
REMARK  status: ('A' for Active; 'I' for Inactive)
REMARK    1  A    between atoms: C4_4  and  C5_5 
REMARK    2  A    between atoms: C4_4  and  N6_6 
ROOT
HETATM    1  C1  UNL     1     -35.907   6.779   3.114  1.00 20.00     0.016 C 
HETATM    2  C2  UNL     1     -33.581   6.091   2.500  1.00 20.00     0.016 C 
HETATM    3  C3  UNL     1     -33.968   7.462   4.557  1.00 20.00     0.016 C 
HETATM    4  C5  UNL     1     -34.543   6.339   3.676  1.00 20.00    -0.036 C 
ENDROOT
BRANCH   4   5
HETATM    5  C4  UNL     1     -34.680   5.030   4.481  1.00 20.00     0.154 C 
BRANCH   5   6
HETATM    6  N6  UNL     1     -33.846   3.969   3.909  1.00 20.00    -0.063 NA
HETATM    7  O7  UNL     1     -33.415   3.182   4.767  1.00 20.00    -0.101 OA
ENDBRANCH   5   6
ENDBRANCH   4   5
TORSDOF 2
ENDMDL
MODEL 6
REMARK VINA RESULT:      -0.8      2.451      2.957
REMARK  2 active torsions:
REMARK  status: ('A' for Active; 'I' for Inactive)
REMARK    1  A    between atoms: C4_4  and  C5_5 
REMARK    2  A    between atoms: C4_4  and  N6_6 
ROOT
HETATM    1  C1  UNL     1     -32.284   7.505   1.836  1.00 20.00     0.016 C 
HETATM    2  C2  UNL     1     -33.788   6.008   0.511  1.00 20.00     0.016 C 
HETATM    3  C3  UNL     1     -31.610   5.131   1.373  1.00 20.00     0.016 C 
HETATM    4  C5  UNL     1     -32.794   6.061   1.686  1.00 20.00    -0.036 C 
ENDROOT
BRANCH   4   5
HETATM    5  C4  UNL     1     -33.524   5.603   2.966  1.00 20.00     0.154 C 
BRANCH   5   6
HETATM    6  N6  UNL     1     -34.261   6.712   3.579  1.00 20.00    -0.063 NA
HETATM    7  O7  UNL     1     -35.385   6.376   3.985  1.00 20.00    -0.101 OA
ENDBRANCH   5   6
ENDBRANCH   4   5
TORSDOF 2
ENDMDL
MODEL 7
REMARK VINA RESULT:      -0.8      2.453      3.382
REMARK  2 active torsions:
REMARK  status: ('A' for Active; 'I' for Inactive)
REMARK    1  A    between atoms: C4_4  and  C5_5 
REMARK    2  A    between atoms: C4_4  and  N6_6 
ROOT
HETATM    1  C1  UNL     1     -33.770   6.029   0.475  1.00 20.00     0.016 C 
HETATM    2  C2  UNL     1     -31.620   5.135   1.391  1.00 20.00     0.016 C 
HETATM    3  C3  UNL     1     -32.253   7.518   1.813  1.00 20.00     0.016 C 
HETATM    4  C5  UNL     1     -32.798   6.087   1.667  1.00 20.00    -0.036 C 
ENDROOT
BRANCH   4   5
HETATM    5  C4  UNL     1     -33.499   5.635   2.965  1.00 20.00     0.154 C 
BRANCH   5   6
HETATM    6  N6  UNL     1     -34.253   6.738   3.569  1.00 20.00    -0.063 NA
HETATM    7  O7  UNL     1     -35.360   6.382   4.004  1.00 20.00    -0.101 OA
ENDBRANCH   5   6
ENDBRANCH   4   5
TORSDOF 2
ENDMDL
MODEL 8
REMARK VINA RESULT:      -0.7      2.769      3.638
REMARK  2 active torsions:
REMARK  status: ('A' for Active; 'I' for Inactive)
REMARK    1  A    between atoms: C4_4  and  C5_5 
REMARK    2  A    between atoms: C4_4  and  N6_6 
ROOT
HETATM    1  C1  UNL     1     -32.132   6.511   1.451  1.00 20.00     0.016 C 
HETATM    2  C2  UNL     1     -31.040   8.305   2.810  1.00 20.00     0.016 C 
HETATM    3  C3  UNL     1     -32.637   8.927   0.987  1.00 20.00     0.016 C 
HETATM    4  C5  UNL     1     -32.337   7.896   2.089  1.00 20.00    -0.036 C 
ENDROOT
BRANCH   4   5
HETATM    5  C4  UNL     1     -33.481   7.856   3.124  1.00 20.00     0.154 C 
BRANCH   5   6
HETATM    6  N6  UNL     1     -34.013   6.498   3.272  1.00 20.00    -0.063 NA
HETATM    7  O7  UNL     1     -35.074   6.465   3.916  1.00 20.00    -0.101 OA
ENDBRANCH   5   6
ENDBRANCH   4   5
TORSDOF 2
ENDMDL
MODEL 9
REMARK VINA RESULT:      -0.7      2.743      3.488
REMARK  2 active torsions:
REMARK  status: ('A' for Active; 'I' for Inactive)
REMARK    1  A    between atoms: C4_4  and  C5_5 
REMARK    2  A    between atoms: C4_4  and  N6_6 
ROOT
HETATM    1  C1  UNL     1     -32.656   8.871   0.984  1.00 20.00     0.016 C 
HETATM    2  C2  UNL     1     -32.213   6.466   1.511  1.00 20.00     0.016 C 
HETATM    3  C3  UNL     1     -31.030   8.256   2.797  1.00 20.00     0.016 C 
HETATM    4  C5  UNL     1     -32.356   7.874   2.117  1.00 20.00    -0.036 C 
ENDROOT
BRANCH   4   5
HETATM    5  C4  UNL     1     -33.508   7.851   3.144  1.00 20.00     0.154 C 
BRANCH   5   6
HETATM    6  N6  UNL     1     -34.039   6.494   3.311  1.00 20.00    -0.063 NA
HETATM    7  O7  UNL     1     -35.113   6.472   3.933  1.00 20.00    -0.101 OA
ENDBRANCH   5   6
ENDBRANCH   4   5
TORSDOF 2
ENDMDL
