MODEL 1
REMARK VINA RESULT:      -0.1      0.000      0.000
REMARK  3 active torsions:
REMARK  status: ('A' for Active; 'I' for Inactive)
REMARK    1  A    between atoms: C3_3  and  C9_9 
REMARK    2  A    between atoms: C8_8  and  C10_10 
REMARK    3  A    between atoms: C9_9  and  C10_10 
ROOT
HETATM    1  C1  UNL     1     -31.474   6.312   1.619  1.00 20.00    -0.026 C 
HETATM    2  C2  UNL     1     -32.770   5.969   1.605  1.00 20.00    -0.025 C 
HETATM    3  C4  UNL     1     -32.641   8.128   0.796  1.00 20.00     0.017 C 
HETATM    4  C5  UNL     1     -31.889   8.277   3.054  1.00 20.00     0.013 C 
HETATM    5  C6  UNL     1     -31.412   7.820   1.657  1.00 20.00     0.009 C 
HETATM    6  C7  UNL     1     -33.572   7.250   1.642  1.00 20.00     0.012 C 
HETATM    7  C8  UNL     1     -33.411   7.933   3.026  1.00 20.00    -0.006 C 
ENDROOT
BRANCH   7   8
HETATM    8  C10 UNL     1     -33.867   7.098   4.214  1.00 20.00     0.012 C 
BRANCH   8   9
HETATM    9  C9  UNL     1     -35.211   6.434   3.942  1.00 20.00     0.070 C 
BRANCH   9  10
HETATM   10  C3  UNL     1     -35.262   5.007   4.432  1.00 20.00     0.231 C 
HETATM   11  O11 UNL     1     -34.371   4.181   4.270  1.00 20.00    -0.307 OA
ENDBRANCH   9  10
ENDBRANCH   8   9
ENDBRANCH   7   8
TORSDOF 3
ENDMDL
MODEL 2
REMARK VINA RESULT:      -0.0      0.746      1.844
REMARK  3 active torsions:
REMARK  status: ('A' for Active; 'I' for Inactive)
REMARK    1  A    between atoms: C3_3  and  C9_9 
REMARK    2  A    between atoms: C8_8  and  C10_10 
REMARK    3  A    between atoms: C9_9  and  C10_10 
ROOT
HETATM    1  C1  UNL     1     -32.737   8.641   0.724  1.00 20.00    -0.026 C 
HETATM    2  C2  UNL     1     -32.678   9.285   1.898  1.00 20.00    -0.025 C 
HETATM    3  C4  UNL     1     -31.000   7.698   1.919  1.00 20.00     0.017 C 
HETATM    4  C5  UNL     1     -33.025   6.444   1.810  1.00 20.00     0.013 C 
HETATM    5  C6  UNL     1     -32.088   7.292   0.921  1.00 20.00     0.009 C 
HETATM    6  C7  UNL     1     -31.995   8.361   2.881  1.00 20.00     0.012 C 
HETATM    7  C8  UNL     1     -32.918   7.153   3.196  1.00 20.00    -0.006 C 
ENDROOT
BRANCH   7   8
HETATM    8  C10 UNL     1     -34.267   7.513   3.801  1.00 20.00     0.012 C 
BRANCH   8   9
HETATM    9  C9  UNL     1     -35.287   6.403   3.583  1.00 20.00     0.070 C 
BRANCH   9  10
HETATM   10  C3  UNL     1     -35.101   5.248   4.536  1.00 20.00     0.231 C 
HETATM   11  O11 UNL     1     -34.523   4.202   4.262  1.00 20.00    -0.307 OA
ENDBRANCH   9  10
ENDBRANCH   8   9
ENDBRANCH   7   8
TORSDOF 3
ENDMDL
MODEL 3
REMARK VINA RESULT:       0.1      2.560      4.453
REMARK  3 active torsions:
REMARK  status: ('A' for Active; 'I' for Inactive)
REMARK    1  A    between atoms: C3_3  and  C9_9 
REMARK    2  A    between atoms: C8_8  and  C10_10 
REMARK    3  A    between atoms: C9_9  and  C10_10 
ROOT
HETATM    1  C1  UNL     1     -33.774   6.699   4.822  1.00 20.00    -0.026 C 
HETATM    2  C2  UNL     1     -33.777   7.971   4.401  1.00 20.00    -0.025 C 
HETATM    3  C4  UNL     1     -35.337   6.840   3.128  1.00 20.00     0.017 C 
HETATM    4  C5  UNL     1     -33.249   5.832   2.572  1.00 20.00     0.013 C 
HETATM    5  C6  UNL     1     -34.312   5.853   3.694  1.00 20.00     0.009 C 
HETATM    6  C7  UNL     1     -34.311   7.973   2.987  1.00 20.00     0.012 C 
HETATM    7  C8  UNL     1     -33.287   7.297   2.036  1.00 20.00    -0.006 C 
ENDROOT
BRANCH   7   8
HETATM    8  C10 UNL     1     -31.919   7.962   1.986  1.00 20.00     0.012 C 
BRANCH   8   9
HETATM    9  C9  UNL     1     -31.623   8.521   0.600  1.00 20.00     0.070 C 
BRANCH   9  10
HETATM   10  C3  UNL     1     -32.394   9.786   0.308  1.00 20.00     0.231 C 
HETATM   11  O11 UNL     1     -33.036   9.992  -0.716  1.00 20.00    -0.307 OA
ENDBRANCH   9  10
ENDBRANCH   8   9
ENDBRANCH   7   8
TORSDOF 3
ENDMDL
MODEL 4
REMARK VINA RESULT:       0.7      1.565      1.912
REMARK  3 active torsions:
REMARK  status: ('A' for Active; 'I' for Inactive)
REMARK    1  A    between atoms: C3_3  and  C9_9 
REMARK    2  A    between atoms: C8_8  and  C10_10 
REMARK    3  A    between atoms: C9_9  and  C10_10 
ROOT
HETATM    1  C1  UNL     1     -31.377   6.911   1.829  1.00 20.00    -0.026 C 
HETATM    2  C2  UNL     1     -31.794   5.641   1.745  1.00 20.00    -0.025 C 
HETATM    3  C4  UNL     1     -33.438   6.949   0.788  1.00 20.00     0.017 C 
HETATM    4  C5  UNL     1     -33.386   7.613   3.078  1.00 20.00     0.013 C 
HETATM    5  C6  UNL     1     -32.602   7.790   1.759  1.00 20.00     0.009 C 
HETATM    6  C7  UNL     1     -33.301   5.672   1.627  1.00 20.00     0.012 C 
HETATM    7  C8  UNL     1     -33.925   6.152   2.964  1.00 20.00    -0.006 C 
ENDROOT
BRANCH   7   8
HETATM    8  C10 UNL     1     -33.601   5.288   4.174  1.00 20.00     0.012 C 
BRANCH   8   9
HETATM    9  C9  UNL     1     -34.136   3.872   4.004  1.00 20.00     0.070 C 
BRANCH   9  10
HETATM   10  C3  UNL     1     -33.210   2.829   4.583  1.00 20.00     0.231 C 
HETATM   11  O11 UNL     1     -32.616   2.937   5.650  1.00 20.00    -0.307 OA
ENDBRANCH   9  10
ENDBRANCH   8   9
ENDBRANCH   7   8
TORSDOF 3
ENDMDL
MODEL 5
REMARK VINA RESULT:       0.8      2.489      4.325
REMARK  3 active torsions:
REMARK  status: ('A' for Active; 'I' for Inactive)
REMARK    1  A    between atoms: C3_3  and  C9_9 
REMARK    2  A    between atoms: C8_8  and  C10_10 
REMARK    3  A    between atoms: C9_9  and  C10_10 
ROOT
HETATM    1  C1  UNL     1     -35.748   6.743   3.149  1.00 20.00    -0.026 C 
HETATM    2  C2  UNL     1     -34.894   6.537   2.137  1.00 20.00    -0.025 C 
HETATM    3  C4  UNL     1     -34.125   5.295   3.926  1.00 20.00     0.017 C 
HETATM    4  C5  UNL     1     -33.963   7.563   4.644  1.00 20.00     0.013 C 
HETATM    5  C6  UNL     1     -35.006   6.443   4.429  1.00 20.00     0.009 C 
HETATM    6  C7  UNL     1     -33.578   6.106   2.744  1.00 20.00     0.012 C 
HETATM    7  C8  UNL     1     -32.933   7.296   3.503  1.00 20.00    -0.006 C 
ENDROOT
BRANCH   7   8
HETATM    8  C10 UNL     1     -32.639   8.521   2.649  1.00 20.00     0.012 C 
BRANCH   8   9
HETATM    9  C9  UNL     1     -31.881   8.146   1.382  1.00 20.00     0.070 C 
BRANCH   9  10
HETATM   10  C3  UNL     1     -32.002   9.195   0.302  1.00 20.00     0.231 C 
HETATM   11  O11 UNL     1     -32.611  10.253   0.421  1.00 20.00    -0.307 OA
ENDBRANCH   9  10
ENDBRANCH   8   9
ENDBRANCH   7   8
TORSDOF 3
ENDMDL
MODEL 6
REMARK VINA RESULT:       1.0      2.640      4.320
REMARK  3 active torsions:
REMARK  status: ('A' for Active; 'I' for Inactive)
REMARK    1  A    between atoms: C3_3  and  C9_9 
REMARK    2  A    between atoms: C8_8  and  C10_10 
REMARK    3  A    between atoms: C9_9  and  C10_10 
ROOT
HETATM    1  C1  UNL     1     -35.228   7.123   2.986  1.00 20.00    -0.026 C 
HETATM    2  C2  UNL     1     -34.693   6.421   1.977  1.00 20.00    -0.025 C 
HETATM    3  C4  UNL     1     -33.687   5.676   3.917  1.00 20.00     0.017 C 
HETATM    4  C5  UNL     1     -33.028   7.960   3.726  1.00 20.00     0.013 C 
HETATM    5  C6  UNL     1     -34.240   7.089   4.127  1.00 20.00     0.009 C 
HETATM    6  C7  UNL     1     -33.343   5.926   2.443  1.00 20.00     0.012 C 
HETATM    7  C8  UNL     1     -32.365   7.122   2.588  1.00 20.00    -0.006 C 
ENDROOT
BRANCH   7   8
HETATM    8  C10 UNL     1     -32.122   7.915   1.312  1.00 20.00     0.012 C 
BRANCH   8   9
HETATM    9  C9  UNL     1     -32.540   9.371   1.474  1.00 20.00     0.070 C 
BRANCH   9  10
HETATM   10  C3  UNL     1     -32.432  10.152   0.187  1.00 20.00     0.231 C 
HETATM   11  O11 UNL     1     -32.984   9.847  -0.864  1.00 20.00    -0.307 OA
ENDBRANCH   9  10
ENDBRANCH   8   9
ENDBRANCH   7   8
TORSDOF 3
ENDMDL
MODEL 7
REMARK VINA RESULT:       1.0      1.723      3.011
REMARK  3 active torsions:
REMARK  status: ('A' for Active; 'I' for Inactive)
REMARK    1  A    between atoms: C3_3  and  C9_9 
REMARK    2  A    between atoms: C8_8  and  C10_10 
REMARK    3  A    between atoms: C9_9  and  C10_10 
ROOT
HETATM    1  C1  UNL     1     -33.312   8.017   4.896  1.00 20.00    -0.026 C 
HETATM    2  C2  UNL     1     -32.392   7.647   3.994  1.00 20.00    -0.025 C 
HETATM    3  C4  UNL     1     -34.220   8.418   2.811  1.00 20.00     0.017 C 
HETATM    4  C5  UNL     1     -35.011   6.488   3.966  1.00 20.00     0.013 C 
HETATM    5  C6  UNL     1     -34.655   7.972   4.210  1.00 20.00     0.009 C 
HETATM    6  C7  UNL     1     -33.125   7.348   2.706  1.00 20.00     0.012 C 
HETATM    7  C8  UNL     1     -33.981   6.063   2.873  1.00 20.00    -0.006 C 
ENDROOT
BRANCH   7   8
HETATM    8  C10 UNL     1     -33.197   4.809   3.230  1.00 20.00     0.012 C 
BRANCH   8   9
HETATM    9  C9  UNL     1     -34.000   3.894   4.145  1.00 20.00     0.070 C 
BRANCH   9  10
HETATM   10  C3  UNL     1     -33.148   2.831   4.797  1.00 20.00     0.231 C 
HETATM   11  O11 UNL     1     -32.438   3.011   5.780  1.00 20.00    -0.307 OA
ENDBRANCH   9  10
ENDBRANCH   8   9
ENDBRANCH   7   8
TORSDOF 3
ENDMDL
MODEL 8
REMARK VINA RESULT:       1.3      1.497      2.731
REMARK  3 active torsions:
REMARK  status: ('A' for Active; 'I' for Inactive)
REMARK    1  A    between atoms: C3_3  and  C9_9 
REMARK    2  A    between atoms: C8_8  and  C10_10 
REMARK    3  A    between atoms: C9_9  and  C10_10 
ROOT
HETATM    1  C1  UNL     1     -33.077   9.968  -0.131  1.00 20.00    -0.026 C 
HETATM    2  C2  UNL     1     -32.573  10.324   1.058  1.00 20.00    -0.025 C 
HETATM    3  C4  UNL     1     -30.956   9.064  -0.004  1.00 20.00     0.017 C 
HETATM    4  C5  UNL     1     -32.779   7.562   0.330  1.00 20.00     0.013 C 
HETATM    5  C6  UNL     1     -32.337   8.732  -0.579  1.00 20.00     0.009 C 
HETATM    6  C7  UNL     1     -31.500   9.319   1.408  1.00 20.00     0.012 C 
HETATM    7  C8  UNL     1     -32.147   7.940   1.706  1.00 20.00    -0.006 C 
ENDROOT
BRANCH   7   8
HETATM    8  C10 UNL     1     -33.144   7.930   2.856  1.00 20.00     0.012 C 
BRANCH   8   9
HETATM    9  C9  UNL     1     -33.775   6.555   3.032  1.00 20.00     0.070 C 
BRANCH   9  10
HETATM   10  C3  UNL     1     -34.942   6.572   3.990  1.00 20.00     0.231 C 
HETATM   11  O11 UNL     1     -35.533   5.574   4.389  1.00 20.00    -0.307 OA
ENDBRANCH   9  10
ENDBRANCH   8   9
ENDBRANCH   7   8
TORSDOF 3
ENDMDL
MODEL 9
REMARK VINA RESULT:       2.2      2.899      4.304
REMARK  3 active torsions:
REMARK  status: ('A' for Active; 'I' for Inactive)
REMARK    1  A    between atoms: C3_3  and  C9_9 
REMARK    2  A    between atoms: C8_8  and  C10_10 
REMARK    3  A    between atoms: C9_9  and  C10_10 
ROOT
HETATM    1  C1  UNL     1     -32.074   4.868   0.599  1.00 20.00    -0.026 C 
HETATM    2  C2  UNL     1     -31.463   5.218   1.740  1.00 20.00    -0.025 C 
HETATM    3  C4  UNL     1     -33.723   5.104   2.200  1.00 20.00     0.017 C 
HETATM    4  C5  UNL     1     -33.511   6.874   0.616  1.00 20.00     0.013 C 
HETATM    5  C6  UNL     1     -33.507   5.331   0.700  1.00 20.00     0.009 C 
HETATM    6  C7  UNL     1     -32.488   5.922   2.599  1.00 20.00     0.012 C 
HETATM    7  C8  UNL     1     -32.852   7.293   1.968  1.00 20.00    -0.006 C 
ENDROOT
BRANCH   7   8
HETATM    8  C10 UNL     1     -31.686   8.257   1.803  1.00 20.00     0.012 C 
BRANCH   8   9
HETATM    9  C9  UNL     1     -31.609   8.798   0.381  1.00 20.00     0.070 C 
BRANCH   9  10
HETATM   10  C3  UNL     1     -32.480  10.013   0.175  1.00 20.00     0.231 C 
HETATM   11  O11 UNL     1     -33.165  10.221  -0.821  1.00 20.00    -0.307 OA
ENDBRANCH   9  10
ENDBRANCH   8   9
ENDBRANCH   7   8
TORSDOF 3
ENDMDL
