MODEL 1
REMARK VINA RESULT:      -3.0      0.000      0.000
REMARK  2 active torsions:
REMARK  status: ('A' for Active; 'I' for Inactive)
REMARK    1  A    between atoms: C6_6  and  O8_8 
REMARK    2  A    between atoms: N7_7  and  O8_8 
ROOT
HETATM    1  C1  UNL     1     -32.587  10.264   0.131  1.00 20.00     0.014 C 
HETATM    2  C2  UNL     1     -32.251   9.245   0.672  1.00 20.00    -0.089 C 
HETATM    3  C6  UNL     1     -31.841   8.005   1.329  1.00 20.00     0.296 C 
ENDROOT
BRANCH   3   4
HETATM    4  O8  UNL     1     -32.391   7.929   2.635  1.00 20.00    -0.244 OA
BRANCH   4   5
HETATM    5  N7  UNL     1     -33.415   6.974   2.623  1.00 20.00    -0.143 NA
HETATM    6  C3  UNL     1     -34.120   7.033   3.710  1.00 20.00     0.032 C 
HETATM    7  C4  UNL     1     -35.297   6.137   4.007  1.00 20.00     0.067 C 
HETATM    8  C5  UNL     1     -33.743   8.053   4.752  1.00 20.00     0.067 C 
ENDBRANCH   4   5
ENDBRANCH   3   4
TORSDOF 2
ENDMDL
MODEL 2
REMARK VINA RESULT:      -2.2      0.988      1.401
REMARK  2 active torsions:
REMARK  status: ('A' for Active; 'I' for Inactive)
REMARK    1  A    between atoms: C6_6  and  O8_8 
REMARK    2  A    between atoms: N7_7  and  O8_8 
ROOT
HETATM    1  C1  UNL     1     -32.691   9.991  -0.168  1.00 20.00     0.014 C 
HETATM    2  C2  UNL     1     -32.188   9.278   0.658  1.00 20.00    -0.089 C 
HETATM    3  C6  UNL     1     -31.575   8.412   1.665  1.00 20.00     0.296 C 
ENDROOT
BRANCH   3   4
HETATM    4  O8  UNL     1     -32.358   7.245   1.861  1.00 20.00    -0.244 OA
BRANCH   4   5
HETATM    5  N7  UNL     1     -33.374   7.551   2.775  1.00 20.00    -0.143 NA
HETATM    6  C3  UNL     1     -33.972   6.474   3.183  1.00 20.00     0.032 C 
HETATM    7  C4  UNL     1     -35.113   6.460   4.171  1.00 20.00     0.067 C 
HETATM    8  C5  UNL     1     -33.510   5.149   2.637  1.00 20.00     0.067 C 
ENDBRANCH   4   5
ENDBRANCH   3   4
TORSDOF 2
ENDMDL
MODEL 3
REMARK VINA RESULT:      -2.2      2.321      4.978
REMARK  2 active torsions:
REMARK  status: ('A' for Active; 'I' for Inactive)
REMARK    1  A    between atoms: C6_6  and  O8_8 
REMARK    2  A    between atoms: N7_7  and  O8_8 
ROOT
HETATM    1  C1  UNL     1     -33.265   2.858   4.597  1.00 20.00     0.014 C 
HETATM    2  C2  UNL     1     -33.880   3.882   4.465  1.00 20.00    -0.089 C 
HETATM    3  C6  UNL     1     -34.629   5.128   4.307  1.00 20.00     0.296 C 
ENDROOT
BRANCH   3   4
HETATM    4  O8  UNL     1     -34.453   5.651   3.000  1.00 20.00    -0.244 OA
BRANCH   4   5
HETATM    5  N7  UNL     1     -33.732   6.847   3.102  1.00 20.00    -0.143 NA
HETATM    6  C3  UNL     1     -32.809   6.914   2.192  1.00 20.00     0.032 C 
HETATM    7  C4  UNL     1     -31.858   8.074   2.032  1.00 20.00     0.067 C 
HETATM    8  C5  UNL     1     -32.665   5.761   1.235  1.00 20.00     0.067 C 
ENDBRANCH   4   5
ENDBRANCH   3   4
TORSDOF 2
ENDMDL
MODEL 4
REMARK VINA RESULT:      -1.7      1.105      4.325
REMARK  2 active torsions:
REMARK  status: ('A' for Active; 'I' for Inactive)
REMARK    1  A    between atoms: C6_6  and  O8_8 
REMARK    2  A    between atoms: N7_7  and  O8_8 
ROOT
HETATM    1  C1  UNL     1     -35.480   5.489   4.166  1.00 20.00     0.014 C 
HETATM    2  C2  UNL     1     -34.846   6.510   4.146  1.00 20.00    -0.089 C 
HETATM    3  C6  UNL     1     -34.077   7.754   4.121  1.00 20.00     0.296 C 
ENDROOT
BRANCH   3   4
HETATM    4  O8  UNL     1     -32.762   7.515   3.646  1.00 20.00    -0.244 OA
BRANCH   4   5
HETATM    5  N7  UNL     1     -32.441   8.520   2.725  1.00 20.00    -0.143 NA
HETATM    6  C3  UNL     1     -32.155   8.014   1.565  1.00 20.00     0.032 C 
HETATM    7  C4  UNL     1     -31.767   8.830   0.356  1.00 20.00     0.067 C 
HETATM    8  C5  UNL     1     -32.204   6.517   1.406  1.00 20.00     0.067 C 
ENDBRANCH   4   5
ENDBRANCH   3   4
TORSDOF 2
ENDMDL
MODEL 5
REMARK VINA RESULT:      -1.6      1.312      4.238
REMARK  2 active torsions:
REMARK  status: ('A' for Active; 'I' for Inactive)
REMARK    1  A    between atoms: C6_6  and  O8_8 
REMARK    2  A    between atoms: N7_7  and  O8_8 
ROOT
HETATM    1  C1  UNL     1     -34.534   6.675   3.788  1.00 20.00     0.014 C 
HETATM    2  C2  UNL     1     -33.754   6.477   2.896  1.00 20.00    -0.089 C 
HETATM    3  C6  UNL     1     -32.806   6.233   1.809  1.00 20.00     0.296 C 
ENDROOT
BRANCH   3   4
HETATM    4  O8  UNL     1     -31.844   7.274   1.745  1.00 20.00    -0.244 OA
BRANCH   4   5
HETATM    5  N7  UNL     1     -32.526   8.497   1.727  1.00 20.00    -0.143 NA
HETATM    6  C3  UNL     1     -32.168   9.215   0.708  1.00 20.00     0.032 C 
HETATM    7  C4  UNL     1     -32.717  10.587   0.403  1.00 20.00     0.067 C 
HETATM    8  C5  UNL     1     -31.134   8.656  -0.233  1.00 20.00     0.067 C 
ENDBRANCH   4   5
ENDBRANCH   3   4
TORSDOF 2
ENDMDL
MODEL 6
REMARK VINA RESULT:      -1.6      1.323      2.204
REMARK  2 active torsions:
REMARK  status: ('A' for Active; 'I' for Inactive)
REMARK    1  A    between atoms: C6_6  and  O8_8 
REMARK    2  A    between atoms: N7_7  and  O8_8 
ROOT
HETATM    1  C1  UNL     1     -31.999   5.032   1.037  1.00 20.00     0.014 C 
HETATM    2  C2  UNL     1     -31.908   6.203   1.294  1.00 20.00    -0.089 C 
HETATM    3  C6  UNL     1     -31.795   7.627   1.604  1.00 20.00     0.296 C 
ENDROOT
BRANCH   3   4
HETATM    4  O8  UNL     1     -32.693   7.982   2.644  1.00 20.00    -0.244 OA
BRANCH   4   5
HETATM    5  N7  UNL     1     -33.706   7.016   2.694  1.00 20.00    -0.143 NA
HETATM    6  C3  UNL     1     -34.283   7.007   3.856  1.00 20.00     0.032 C 
HETATM    7  C4  UNL     1     -35.414   6.081   4.233  1.00 20.00     0.067 C 
HETATM    8  C5  UNL     1     -33.797   7.973   4.903  1.00 20.00     0.067 C 
ENDBRANCH   4   5
ENDBRANCH   3   4
TORSDOF 2
ENDMDL
MODEL 7
REMARK VINA RESULT:      -1.5      1.433      4.255
REMARK  2 active torsions:
REMARK  status: ('A' for Active; 'I' for Inactive)
REMARK    1  A    between atoms: C6_6  and  O8_8 
REMARK    2  A    between atoms: N7_7  and  O8_8 
ROOT
HETATM    1  C1  UNL     1     -35.391   5.080   4.463  1.00 20.00     0.014 C 
HETATM    2  C2  UNL     1     -35.023   6.212   4.301  1.00 20.00    -0.089 C 
HETATM    3  C6  UNL     1     -34.577   7.591   4.106  1.00 20.00     0.296 C 
ENDROOT
BRANCH   3   4
HETATM    4  O8  UNL     1     -33.439   7.629   3.258  1.00 20.00    -0.244 OA
BRANCH   4   5
HETATM    5  N7  UNL     1     -33.319   6.383   2.631  1.00 20.00    -0.143 NA
HETATM    6  C3  UNL     1     -32.423   6.418   1.693  1.00 20.00     0.032 C 
HETATM    7  C4  UNL     1     -32.056   5.238   0.827  1.00 20.00     0.067 C 
HETATM    8  C5  UNL     1     -31.704   7.717   1.440  1.00 20.00     0.067 C 
ENDBRANCH   4   5
ENDBRANCH   3   4
TORSDOF 2
ENDMDL
MODEL 8
REMARK VINA RESULT:      -1.5      1.968      2.753
REMARK  2 active torsions:
REMARK  status: ('A' for Active; 'I' for Inactive)
REMARK    1  A    between atoms: C6_6  and  O8_8 
REMARK    2  A    between atoms: N7_7  and  O8_8 
ROOT
HETATM    1  C1  UNL     1     -31.672   8.120   1.472  1.00 20.00     0.014 C 
HETATM    2  C2  UNL     1     -32.441   7.829   2.348  1.00 20.00    -0.089 C 
HETATM    3  C6  UNL     1     -33.377   7.477   3.415  1.00 20.00     0.296 C 
ENDROOT
BRANCH   3   4
HETATM    4  O8  UNL     1     -34.182   6.375   3.027  1.00 20.00    -0.244 OA
BRANCH   4   5
HETATM    5  N7  UNL     1     -33.445   5.202   3.234  1.00 20.00    -0.143 NA
HETATM    6  C3  UNL     1     -34.034   4.428   4.093  1.00 20.00     0.032 C 
HETATM    7  C4  UNL     1     -33.496   3.089   4.535  1.00 20.00     0.067 C 
HETATM    8  C5  UNL     1     -35.333   4.890   4.699  1.00 20.00     0.067 C 
ENDBRANCH   4   5
ENDBRANCH   3   4
TORSDOF 2
ENDMDL
MODEL 9
REMARK VINA RESULT:      -1.3      1.848      2.352
REMARK  2 active torsions:
REMARK  status: ('A' for Active; 'I' for Inactive)
REMARK    1  A    between atoms: C6_6  and  O8_8 
REMARK    2  A    between atoms: N7_7  and  O8_8 
ROOT
HETATM    1  C1  UNL     1     -31.955   8.408   1.694  1.00 20.00     0.014 C 
HETATM    2  C2  UNL     1     -31.955   7.230   1.454  1.00 20.00    -0.089 C 
HETATM    3  C6  UNL     1     -31.954   5.798   1.160  1.00 20.00     0.296 C 
ENDROOT
BRANCH   3   4
HETATM    4  O8  UNL     1     -32.754   5.097   2.099  1.00 20.00    -0.244 OA
BRANCH   4   5
HETATM    5  N7  UNL     1     -33.735   5.974   2.578  1.00 20.00    -0.143 NA
HETATM    6  C3  UNL     1     -34.352   5.469   3.602  1.00 20.00     0.032 C 
HETATM    7  C4  UNL     1     -35.465   6.164   4.348  1.00 20.00     0.067 C 
HETATM    8  C5  UNL     1     -33.944   4.101   4.079  1.00 20.00     0.067 C 
ENDBRANCH   4   5
ENDBRANCH   3   4
TORSDOF 2
ENDMDL
