MODEL 1
REMARK VINA RESULT:      -1.9      0.000      0.000
REMARK  4 active torsions:
REMARK  status: ('A' for Active; 'I' for Inactive)
REMARK    1  A    between atoms: C1_1  and  C6_6 
REMARK    2  A    between atoms: C2_2  and  C8_8 
REMARK    3  A    between atoms: C8_8  and  C10_10 
REMARK    4  A    between atoms: C9_9  and  C10_10 
ROOT
HETATM    1  C1  UNL     1     -33.415   7.419   2.944  1.00 20.00    -0.074 C 
HETATM    2  C2  UNL     1     -34.312   6.798   3.447  1.00 20.00    -0.104 C 
ENDROOT
BRANCH   1   3
HETATM    3  C6  UNL     1     -32.322   8.175   2.331  1.00 20.00     0.200 C 
HETATM    4  C4  UNL     1     -31.684   7.434   1.167  1.00 20.00     0.047 C 
HETATM    5  C3  UNL     1     -31.201   8.569   0.299  1.00 20.00     0.030 C 
HETATM    6  C5  UNL     1     -32.313   9.580   0.466  1.00 20.00     0.169 C 
HETATM    7  O11 UNL     1     -32.813   9.420   1.801  1.00 20.00    -0.374 OA
ENDBRANCH   1   3
BRANCH   2   8
HETATM    8  C8  UNL     1     -35.411   6.041   4.061  1.00 20.00     0.094 C 
BRANCH   8   9
HETATM    9  C10 UNL     1     -34.888   4.796   4.777  1.00 20.00     0.012 C 
BRANCH   9  10
HETATM   10  C9  UNL     1     -33.908   4.019   3.899  1.00 20.00    -0.004 C 
HETATM   11  C7  UNL     1     -33.184   2.941   4.689  1.00 20.00     0.005 C 
ENDBRANCH   9  10
ENDBRANCH   8   9
ENDBRANCH   2   8
TORSDOF 4
ENDMDL
MODEL 2
REMARK VINA RESULT:      -0.5      1.611      5.684
REMARK  4 active torsions:
REMARK  status: ('A' for Active; 'I' for Inactive)
REMARK    1  A    between atoms: C1_1  and  C6_6 
REMARK    2  A    between atoms: C2_2  and  C8_8 
REMARK    3  A    between atoms: C8_8  and  C10_10 
REMARK    4  A    between atoms: C9_9  and  C10_10 
ROOT
HETATM    1  C1  UNL     1     -33.064   6.740   2.234  1.00 20.00    -0.074 C 
HETATM    2  C2  UNL     1     -32.295   7.590   1.876  1.00 20.00    -0.104 C 
ENDROOT
BRANCH   1   3
HETATM    3  C6  UNL     1     -34.001   5.704   2.670  1.00 20.00     0.200 C 
HETATM    4  C4  UNL     1     -33.352   4.682   3.589  1.00 20.00     0.047 C 
HETATM    5  C3  UNL     1     -34.514   4.242   4.443  1.00 20.00     0.030 C 
HETATM    6  C5  UNL     1     -35.273   5.538   4.622  1.00 20.00     0.169 C 
HETATM    7  O11 UNL     1     -35.083   6.293   3.417  1.00 20.00    -0.374 OA
ENDBRANCH   1   3
BRANCH   2   8
HETATM    8  C8  UNL     1     -31.352   8.628   1.438  1.00 20.00     0.094 C 
BRANCH   8   9
HETATM    9  C10 UNL     1     -31.479   8.890  -0.062  1.00 20.00     0.012 C 
BRANCH   9  10
HETATM   10  C9  UNL     1     -32.657   9.815  -0.367  1.00 20.00    -0.004 C 
HETATM   11  C7  UNL     1     -32.787  10.916   0.674  1.00 20.00     0.005 C 
ENDBRANCH   9  10
ENDBRANCH   8   9
ENDBRANCH   2   8
TORSDOF 4
ENDMDL
MODEL 3
REMARK VINA RESULT:      -0.4      1.299      2.386
REMARK  4 active torsions:
REMARK  status: ('A' for Active; 'I' for Inactive)
REMARK    1  A    between atoms: C1_1  and  C6_6 
REMARK    2  A    between atoms: C2_2  and  C8_8 
REMARK    3  A    between atoms: C8_8  and  C10_10 
REMARK    4  A    between atoms: C9_9  and  C10_10 
ROOT
HETATM    1  C1  UNL     1     -32.380   7.337   1.477  1.00 20.00    -0.074 C 
HETATM    2  C2  UNL     1     -32.807   6.293   1.889  1.00 20.00    -0.104 C 
ENDROOT
BRANCH   1   3
HETATM    3  C6  UNL     1     -31.859   8.609   0.974  1.00 20.00     0.200 C 
HETATM    4  C4  UNL     1     -32.270   8.876  -0.465  1.00 20.00     0.047 C 
HETATM    5  C3  UNL     1     -32.307  10.384  -0.507  1.00 20.00     0.030 C 
HETATM    6  C5  UNL     1     -32.860  10.716   0.862  1.00 20.00     0.169 C 
HETATM    7  O11 UNL     1     -32.375   9.703   1.755  1.00 20.00    -0.374 OA
ENDBRANCH   1   3
BRANCH   2   8
HETATM    8  C8  UNL     1     -33.331   5.018   2.396  1.00 20.00     0.094 C 
BRANCH   8   9
HETATM    9  C10 UNL     1     -34.032   5.206   3.741  1.00 20.00     0.012 C 
BRANCH   9  10
HETATM   10  C9  UNL     1     -34.903   6.462   3.743  1.00 20.00    -0.004 C 
HETATM   11  C7  UNL     1     -34.247   7.595   4.516  1.00 20.00     0.005 C 
ENDBRANCH   9  10
ENDBRANCH   8   9
ENDBRANCH   2   8
TORSDOF 4
ENDMDL
MODEL 4
REMARK VINA RESULT:      -0.4      1.183      1.793
REMARK  4 active torsions:
REMARK  status: ('A' for Active; 'I' for Inactive)
REMARK    1  A    between atoms: C1_1  and  C6_6 
REMARK    2  A    between atoms: C2_2  and  C8_8 
REMARK    3  A    between atoms: C8_8  and  C10_10 
REMARK    4  A    between atoms: C9_9  and  C10_10 
ROOT
HETATM    1  C1  UNL     1     -32.383   7.527   1.481  1.00 20.00    -0.074 C 
HETATM    2  C2  UNL     1     -32.794   6.517   1.984  1.00 20.00    -0.104 C 
ENDROOT
BRANCH   1   3
HETATM    3  C6  UNL     1     -31.883   8.758   0.868  1.00 20.00     0.200 C 
HETATM    4  C4  UNL     1     -32.403   8.956  -0.547  1.00 20.00     0.047 C 
HETATM    5  C3  UNL     1     -32.418  10.459  -0.670  1.00 20.00     0.030 C 
HETATM    6  C5  UNL     1     -32.852  10.877   0.718  1.00 20.00     0.169 C 
HETATM    7  O11 UNL     1     -32.315   9.904   1.625  1.00 20.00    -0.374 OA
ENDBRANCH   1   3
BRANCH   2   8
HETATM    8  C8  UNL     1     -33.295   5.282   2.601  1.00 20.00     0.094 C 
BRANCH   8   9
HETATM    9  C10 UNL     1     -34.318   5.589   3.695  1.00 20.00     0.012 C 
BRANCH   9  10
HETATM   10  C9  UNL     1     -34.610   4.353   4.545  1.00 20.00    -0.004 C 
HETATM   11  C7  UNL     1     -33.476   3.343   4.470  1.00 20.00     0.005 C 
ENDBRANCH   9  10
ENDBRANCH   8   9
ENDBRANCH   2   8
TORSDOF 4
ENDMDL
MODEL 5
REMARK VINA RESULT:      -0.4      1.694      5.745
REMARK  4 active torsions:
REMARK  status: ('A' for Active; 'I' for Inactive)
REMARK    1  A    between atoms: C1_1  and  C6_6 
REMARK    2  A    between atoms: C2_2  and  C8_8 
REMARK    3  A    between atoms: C8_8  and  C10_10 
REMARK    4  A    between atoms: C9_9  and  C10_10 
ROOT
HETATM    1  C1  UNL     1     -32.765   7.411   2.604  1.00 20.00    -0.074 C 
HETATM    2  C2  UNL     1     -32.205   7.969   1.700  1.00 20.00    -0.104 C 
ENDROOT
BRANCH   1   3
HETATM    3  C6  UNL     1     -33.446   6.731   3.707  1.00 20.00     0.200 C 
HETATM    4  C4  UNL     1     -34.954   6.916   3.660  1.00 20.00     0.047 C 
HETATM    5  C3  UNL     1     -35.447   5.649   4.314  1.00 20.00     0.030 C 
HETATM    6  C5  UNL     1     -34.460   4.629   3.793  1.00 20.00     0.169 C 
HETATM    7  O11 UNL     1     -33.207   5.312   3.641  1.00 20.00    -0.374 OA
ENDBRANCH   1   3
BRANCH   2   8
HETATM    8  C8  UNL     1     -31.523   8.654   0.594  1.00 20.00     0.094 C 
BRANCH   8   9
HETATM    9  C10 UNL     1     -32.511   9.043  -0.505  1.00 20.00     0.012 C 
BRANCH   9  10
HETATM   10  C9  UNL     1     -32.863  10.529  -0.435  1.00 20.00    -0.004 C 
HETATM   11  C7  UNL     1     -32.702  11.075   0.975  1.00 20.00     0.005 C 
ENDBRANCH   9  10
ENDBRANCH   8   9
ENDBRANCH   2   8
TORSDOF 4
ENDMDL
MODEL 6
REMARK VINA RESULT:       0.3      1.779      5.715
REMARK  4 active torsions:
REMARK  status: ('A' for Active; 'I' for Inactive)
REMARK    1  A    between atoms: C1_1  and  C6_6 
REMARK    2  A    between atoms: C2_2  and  C8_8 
REMARK    3  A    between atoms: C8_8  and  C10_10 
REMARK    4  A    between atoms: C9_9  and  C10_10 
ROOT
HETATM    1  C1  UNL     1     -33.049   6.383   2.235  1.00 20.00    -0.074 C 
HETATM    2  C2  UNL     1     -32.427   7.331   1.838  1.00 20.00    -0.104 C 
ENDROOT
BRANCH   1   3
HETATM    3  C6  UNL     1     -33.807   5.228   2.718  1.00 20.00     0.200 C 
HETATM    4  C4  UNL     1     -32.962   4.294   3.570  1.00 20.00     0.047 C 
HETATM    5  C3  UNL     1     -33.991   3.696   4.496  1.00 20.00     0.030 C 
HETATM    6  C5  UNL     1     -34.900   4.878   4.751  1.00 20.00     0.169 C 
HETATM    7  O11 UNL     1     -34.900   5.661   3.549  1.00 20.00    -0.374 OA
ENDBRANCH   1   3
BRANCH   2   8
HETATM    8  C8  UNL     1     -31.668   8.490   1.351  1.00 20.00     0.094 C 
BRANCH   8   9
HETATM    9  C10 UNL     1     -32.417   9.793   1.623  1.00 20.00     0.012 C 
BRANCH   9  10
HETATM   10  C9  UNL     1     -32.522  10.649   0.361  1.00 20.00    -0.004 C 
HETATM   11  C7  UNL     1     -32.678   9.790  -0.884  1.00 20.00     0.005 C 
ENDBRANCH   9  10
ENDBRANCH   8   9
ENDBRANCH   2   8
TORSDOF 4
ENDMDL
