MODEL 1
REMARK VINA RESULT:      -2.4      0.000      0.000
REMARK  3 active torsions:
REMARK  status: ('A' for Active; 'I' for Inactive)
REMARK    1  A    between atoms: C1_1  and  C3_3 
REMARK    2  A    between atoms: C2_2  and  C7_7 
REMARK    3  A    between atoms: C7_7  and  C8_8 
ROOT
HETATM    1  C1  UNL     1     -32.354   8.364   1.743  1.00 20.00     0.045 C 
HETATM    2  C2  UNL     1     -32.753   7.089   1.637  1.00 20.00    -0.023 C 
ENDROOT
BRANCH   2   3
HETATM    3  C7  UNL     1     -33.232   6.273   2.805  1.00 20.00     0.031 C 
BRANCH   3   4
HETATM    4  C8  UNL     1     -34.363   6.958   3.594  1.00 20.00    -0.019 C 
HETATM    5  C5  UNL     1     -35.317   5.902   4.159  1.00 20.00     0.010 C 
HETATM    6  C6  UNL     1     -33.827   7.832   4.730  1.00 20.00     0.010 C 
ENDBRANCH   3   4
ENDBRANCH   2   3
BRANCH   1   7
HETATM    7  C3  UNL     1     -31.887   9.115   0.545  1.00 20.00     0.145 C 
HETATM    8  C4  UNL     1     -32.640  10.372   0.197  1.00 20.00     0.096 C 
HETATM    9  O9  UNL     1     -30.947   8.726  -0.145  1.00 20.00    -0.294 OA
ENDBRANCH   1   7
TORSDOF 3
ENDMDL
MODEL 2
REMARK VINA RESULT:      -2.0      2.971      5.171
REMARK  3 active torsions:
REMARK  status: ('A' for Active; 'I' for Inactive)
REMARK    1  A    between atoms: C1_1  and  C3_3 
REMARK    2  A    between atoms: C2_2  and  C7_7 
REMARK    3  A    between atoms: C7_7  and  C8_8 
ROOT
HETATM    1  C1  UNL     1     -33.396   4.706   2.872  1.00 20.00     0.045 C 
HETATM    2  C2  UNL     1     -33.363   6.029   2.660  1.00 20.00    -0.023 C 
ENDROOT
BRANCH   2   3
HETATM    3  C7  UNL     1     -32.739   6.655   1.445  1.00 20.00     0.031 C 
BRANCH   3   4
HETATM    4  C8  UNL     1     -31.915   7.914   1.772  1.00 20.00    -0.019 C 
HETATM    5  C5  UNL     1     -32.251   9.029   0.778  1.00 20.00     0.010 C 
HETATM    6  C6  UNL     1     -32.155   8.405   3.202  1.00 20.00     0.010 C 
ENDBRANCH   3   4
ENDBRANCH   2   3
BRANCH   1   7
HETATM    7  C3  UNL     1     -34.028   4.150   4.100  1.00 20.00     0.145 C 
HETATM    8  C4  UNL     1     -33.308   3.015   4.779  1.00 20.00     0.096 C 
HETATM    9  O9  UNL     1     -35.096   4.574   4.536  1.00 20.00    -0.294 OA
ENDBRANCH   1   7
TORSDOF 3
ENDMDL
MODEL 3
REMARK VINA RESULT:      -1.9      2.131      4.704
REMARK  3 active torsions:
REMARK  status: ('A' for Active; 'I' for Inactive)
REMARK    1  A    between atoms: C1_1  and  C3_3 
REMARK    2  A    between atoms: C2_2  and  C7_7 
REMARK    3  A    between atoms: C7_7  and  C8_8 
ROOT
HETATM    1  C1  UNL     1     -33.449   7.168   2.647  1.00 20.00     0.045 C 
HETATM    2  C2  UNL     1     -32.584   8.161   2.400  1.00 20.00    -0.023 C 
ENDROOT
BRANCH   2   3
HETATM    3  C7  UNL     1     -31.780   8.261   1.134  1.00 20.00     0.031 C 
BRANCH   3   4
HETATM    4  C8  UNL     1     -31.969   9.605   0.405  1.00 20.00    -0.019 C 
HETATM    5  C5  UNL     1     -32.614   9.369  -0.962  1.00 20.00     0.010 C 
HETATM    6  C6  UNL     1     -32.818  10.587   1.216  1.00 20.00     0.010 C 
ENDBRANCH   3   4
ENDBRANCH   2   3
BRANCH   1   7
HETATM    7  C3  UNL     1     -34.211   7.125   3.925  1.00 20.00     0.145 C 
HETATM    8  C4  UNL     1     -35.301   6.092   4.030  1.00 20.00     0.096 C 
HETATM    9  O9  UNL     1     -33.985   7.905   4.847  1.00 20.00    -0.294 OA
ENDBRANCH   1   7
TORSDOF 3
ENDMDL
MODEL 4
REMARK VINA RESULT:      -1.9      2.310      4.785
REMARK  3 active torsions:
REMARK  status: ('A' for Active; 'I' for Inactive)
REMARK    1  A    between atoms: C1_1  and  C3_3 
REMARK    2  A    between atoms: C2_2  and  C7_7 
REMARK    3  A    between atoms: C7_7  and  C8_8 
ROOT
HETATM    1  C1  UNL     1     -33.127   6.409   2.280  1.00 20.00     0.045 C 
HETATM    2  C2  UNL     1     -32.719   7.675   2.439  1.00 20.00    -0.023 C 
ENDROOT
BRANCH   2   3
HETATM    3  C7  UNL     1     -31.871   8.402   1.432  1.00 20.00     0.031 C 
BRANCH   3   4
HETATM    4  C8  UNL     1     -32.685   9.352   0.534  1.00 20.00    -0.019 C 
HETATM    5  C5  UNL     1     -32.657  10.768   1.113  1.00 20.00     0.010 C 
HETATM    6  C6  UNL     1     -32.165   9.370  -0.906  1.00 20.00     0.010 C 
ENDBRANCH   3   4
ENDBRANCH   2   3
BRANCH   1   7
HETATM    7  C3  UNL     1     -33.963   5.745   3.318  1.00 20.00     0.145 C 
HETATM    8  C4  UNL     1     -35.055   6.574   3.941  1.00 20.00     0.096 C 
HETATM    9  O9  UNL     1     -33.767   4.585   3.672  1.00 20.00    -0.294 OA
ENDBRANCH   1   7
TORSDOF 3
ENDMDL
MODEL 5
REMARK VINA RESULT:      -1.8      2.468      4.967
REMARK  3 active torsions:
REMARK  status: ('A' for Active; 'I' for Inactive)
REMARK    1  A    between atoms: C1_1  and  C3_3 
REMARK    2  A    between atoms: C2_2  and  C7_7 
REMARK    3  A    between atoms: C7_7  and  C8_8 
ROOT
HETATM    1  C1  UNL     1     -33.708   7.277   3.424  1.00 20.00     0.045 C 
HETATM    2  C2  UNL     1     -32.848   7.231   2.397  1.00 20.00    -0.023 C 
ENDROOT
BRANCH   2   3
HETATM    3  C7  UNL     1     -31.968   8.386   2.005  1.00 20.00     0.031 C 
BRANCH   3   4
HETATM    4  C8  UNL     1     -32.314   8.963   0.619  1.00 20.00    -0.019 C 
HETATM    5  C5  UNL     1     -32.720  10.432   0.755  1.00 20.00     0.010 C 
HETATM    6  C6  UNL     1     -31.148   8.837  -0.365  1.00 20.00     0.010 C 
ENDBRANCH   3   4
ENDBRANCH   2   3
BRANCH   1   7
HETATM    7  C3  UNL     1     -34.554   6.098   3.757  1.00 20.00     0.145 C 
HETATM    8  C4  UNL     1     -33.910   4.743   3.627  1.00 20.00     0.096 C 
HETATM    9  O9  UNL     1     -35.728   6.212   4.102  1.00 20.00    -0.294 OA
ENDBRANCH   1   7
TORSDOF 3
ENDMDL
MODEL 6
REMARK VINA RESULT:      -1.7      0.977      1.166
REMARK  3 active torsions:
REMARK  status: ('A' for Active; 'I' for Inactive)
REMARK    1  A    between atoms: C1_1  and  C3_3 
REMARK    2  A    between atoms: C2_2  and  C7_7 
REMARK    3  A    between atoms: C7_7  and  C8_8 
ROOT
HETATM    1  C1  UNL     1     -32.739   8.688   1.633  1.00 20.00     0.045 C 
HETATM    2  C2  UNL     1     -32.535   7.365   1.705  1.00 20.00    -0.023 C 
ENDROOT
BRANCH   2   3
HETATM    3  C7  UNL     1     -33.105   6.500   2.794  1.00 20.00     0.031 C 
BRANCH   3   4
HETATM    4  C8  UNL     1     -34.212   7.200   3.603  1.00 20.00    -0.019 C 
HETATM    5  C5  UNL     1     -35.283   6.184   4.008  1.00 20.00     0.010 C 
HETATM    6  C6  UNL     1     -33.662   7.898   4.850  1.00 20.00     0.010 C 
ENDBRANCH   3   4
ENDBRANCH   2   3
BRANCH   1   7
HETATM    7  C3  UNL     1     -32.142   9.489   0.529  1.00 20.00     0.145 C 
HETATM    8  C4  UNL     1     -31.096   8.807  -0.313  1.00 20.00     0.096 C 
HETATM    9  O9  UNL     1     -32.465  10.656   0.319  1.00 20.00    -0.294 OA
ENDBRANCH   1   7
TORSDOF 3
ENDMDL
MODEL 7
REMARK VINA RESULT:      -1.7      0.472      1.268
REMARK  3 active torsions:
REMARK  status: ('A' for Active; 'I' for Inactive)
REMARK    1  A    between atoms: C1_1  and  C3_3 
REMARK    2  A    between atoms: C2_2  and  C7_7 
REMARK    3  A    between atoms: C7_7  and  C8_8 
ROOT
HETATM    1  C1  UNL     1     -31.929   7.918   1.660  1.00 20.00     0.045 C 
HETATM    2  C2  UNL     1     -33.037   7.166   1.716  1.00 20.00    -0.023 C 
ENDROOT
BRANCH   2   3
HETATM    3  C7  UNL     1     -33.239   6.065   2.719  1.00 20.00     0.031 C 
BRANCH   3   4
HETATM    4  C8  UNL     1     -34.057   6.510   3.945  1.00 20.00    -0.019 C 
HETATM    5  C5  UNL     1     -33.873   8.011   4.177  1.00 20.00     0.010 C 
HETATM    6  C6  UNL     1     -35.546   6.188   3.793  1.00 20.00     0.010 C 
ENDBRANCH   3   4
ENDBRANCH   2   3
BRANCH   1   7
HETATM    7  C3  UNL     1     -31.790   8.992   0.638  1.00 20.00     0.145 C 
HETATM    8  C4  UNL     1     -32.744  10.152   0.742  1.00 20.00     0.096 C 
HETATM    9  O9  UNL     1     -30.956   8.933  -0.263  1.00 20.00    -0.294 OA
ENDBRANCH   1   7
TORSDOF 3
ENDMDL
MODEL 8
REMARK VINA RESULT:      -1.3      1.368      1.737
REMARK  3 active torsions:
REMARK  status: ('A' for Active; 'I' for Inactive)
REMARK    1  A    between atoms: C1_1  and  C3_3 
REMARK    2  A    between atoms: C2_2  and  C7_7 
REMARK    3  A    between atoms: C7_7  and  C8_8 
ROOT
HETATM    1  C1  UNL     1     -32.141   8.021   1.447  1.00 20.00     0.045 C 
HETATM    2  C2  UNL     1     -33.149   7.168   1.675  1.00 20.00    -0.023 C 
ENDROOT
BRANCH   2   3
HETATM    3  C7  UNL     1     -32.966   5.831   2.337  1.00 20.00     0.031 C 
BRANCH   3   4
HETATM    4  C8  UNL     1     -33.704   5.718   3.683  1.00 20.00    -0.019 C 
HETATM    5  C5  UNL     1     -34.943   6.616   3.674  1.00 20.00     0.010 C 
HETATM    6  C6  UNL     1     -34.112   4.277   3.999  1.00 20.00     0.010 C 
ENDBRANCH   3   4
ENDBRANCH   2   3
BRANCH   1   7
HETATM    7  C3  UNL     1     -32.390   9.330   0.783  1.00 20.00     0.145 C 
HETATM    8  C4  UNL     1     -32.374   9.340  -0.723  1.00 20.00     0.096 C 
HETATM    9  O9  UNL     1     -32.580  10.362   1.423  1.00 20.00    -0.294 OA
ENDBRANCH   1   7
TORSDOF 3
ENDMDL
MODEL 9
REMARK VINA RESULT:      -1.2      0.795      1.397
REMARK  3 active torsions:
REMARK  status: ('A' for Active; 'I' for Inactive)
REMARK    1  A    between atoms: C1_1  and  C3_3 
REMARK    2  A    between atoms: C2_2  and  C7_7 
REMARK    3  A    between atoms: C7_7  and  C8_8 
ROOT
HETATM    1  C1  UNL     1     -31.920   8.320   1.887  1.00 20.00     0.045 C 
HETATM    2  C2  UNL     1     -33.111   8.266   2.499  1.00 20.00    -0.023 C 
ENDROOT
BRANCH   2   3
HETATM    3  C7  UNL     1     -33.335   7.567   3.811  1.00 20.00     0.031 C 
BRANCH   3   4
HETATM    4  C8  UNL     1     -33.926   6.155   3.648  1.00 20.00    -0.019 C 
HETATM    5  C5  UNL     1     -35.442   6.197   3.859  1.00 20.00     0.010 C 
HETATM    6  C6  UNL     1     -33.611   5.552   2.277  1.00 20.00     0.010 C 
ENDBRANCH   3   4
ENDBRANCH   2   3
BRANCH   1   7
HETATM    7  C3  UNL     1     -31.766   9.026   0.585  1.00 20.00     0.145 C 
HETATM    8  C4  UNL     1     -32.683  10.194   0.336  1.00 20.00     0.096 C 
HETATM    9  O9  UNL     1     -30.949   8.668  -0.260  1.00 20.00    -0.294 OA
ENDBRANCH   1   7
TORSDOF 3
ENDMDL
