MODEL 1
REMARK VINA RESULT:      -0.9      0.000      0.000
REMARK  4 active torsions:
REMARK  status: ('A' for Active; 'I' for Inactive)
REMARK    1  A    between atoms: C1_1  and  C7_7 
REMARK    2  A    between atoms: C2_2  and  C9_9 
REMARK    3  A    between atoms: C9_9  and  C11_11 
REMARK    4  A    between atoms: C10_10  and  C11_11 
ROOT
HETATM    1  C3  UNL     1     -35.606   6.022   4.124  1.00 20.00     0.006 C 
HETATM    2  C4  UNL     1     -34.873   4.815   4.688  1.00 20.00     0.026 C 
HETATM    3  C5  UNL     1     -34.618   7.084   3.637  1.00 20.00     0.045 C 
HETATM    4  C6  UNL     1     -33.906   4.231   3.659  1.00 20.00     0.169 C 
HETATM    5  C7  UNL     1     -33.257   6.485   3.263  1.00 20.00     0.200 C 
HETATM    6  O12 UNL     1     -33.448   5.189   2.701  1.00 20.00    -0.374 OA
ENDROOT
BRANCH   5   7
HETATM    7  C1  UNL     1     -32.558   7.335   2.291  1.00 20.00    -0.074 C 
HETATM    8  C2  UNL     1     -31.985   8.029   1.497  1.00 20.00    -0.104 C 
BRANCH   8   9
HETATM    9  C9  UNL     1     -31.287   8.882   0.525  1.00 20.00     0.094 C 
BRANCH   9  10
HETATM   10  C11 UNL     1     -32.197   9.233  -0.653  1.00 20.00     0.012 C 
BRANCH  10  11
HETATM   11  C10 UNL     1     -33.071  10.446  -0.337  1.00 20.00    -0.004 C 
HETATM   12  C8  UNL     1     -32.560  11.201   0.880  1.00 20.00     0.005 C 
ENDBRANCH  10  11
ENDBRANCH   9  10
ENDBRANCH   8   9
ENDBRANCH   5   7
TORSDOF 4
ENDMDL
MODEL 2
REMARK VINA RESULT:      -0.1      0.889      1.509
REMARK  4 active torsions:
REMARK  status: ('A' for Active; 'I' for Inactive)
REMARK    1  A    between atoms: C1_1  and  C7_7 
REMARK    2  A    between atoms: C2_2  and  C9_9 
REMARK    3  A    between atoms: C9_9  and  C11_11 
REMARK    4  A    between atoms: C10_10  and  C11_11 
ROOT
HETATM    1  C3  UNL     1     -33.842   4.249   4.255  1.00 20.00     0.006 C 
HETATM    2  C4  UNL     1     -35.279   4.732   4.368  1.00 20.00     0.026 C 
HETATM    3  C5  UNL     1     -33.136   4.904   3.066  1.00 20.00     0.045 C 
HETATM    4  C6  UNL     1     -35.340   6.256   4.468  1.00 20.00     0.169 C 
HETATM    5  C7  UNL     1     -33.765   6.250   2.685  1.00 20.00     0.200 C 
HETATM    6  O12 UNL     1     -34.221   6.910   3.864  1.00 20.00    -0.374 OA
ENDROOT
BRANCH   5   7
HETATM    7  C1  UNL     1     -32.792   7.108   1.997  1.00 20.00    -0.074 C 
HETATM    8  C2  UNL     1     -31.997   7.809   1.434  1.00 20.00    -0.104 C 
BRANCH   8   9
HETATM    9  C9  UNL     1     -31.023   8.669   0.748  1.00 20.00     0.094 C 
BRANCH   9  10
HETATM   10  C11 UNL     1     -31.576   9.171  -0.587  1.00 20.00     0.012 C 
BRANCH  10  11
HETATM   11  C10 UNL     1     -32.852   9.988  -0.388  1.00 20.00    -0.004 C 
HETATM   12  C8  UNL     1     -32.693  11.007   0.729  1.00 20.00     0.005 C 
ENDBRANCH  10  11
ENDBRANCH   9  10
ENDBRANCH   8   9
ENDBRANCH   5   7
TORSDOF 4
ENDMDL
MODEL 3
REMARK VINA RESULT:       0.4      1.493      5.926
REMARK  4 active torsions:
REMARK  status: ('A' for Active; 'I' for Inactive)
REMARK    1  A    between atoms: C1_1  and  C7_7 
REMARK    2  A    between atoms: C2_2  and  C9_9 
REMARK    3  A    between atoms: C9_9  and  C11_11 
REMARK    4  A    between atoms: C10_10  and  C11_11 
ROOT
HETATM    1  C3  UNL     1     -31.230   7.927   0.063  1.00 20.00     0.006 C 
HETATM    2  C4  UNL     1     -31.133   9.437   0.214  1.00 20.00     0.026 C 
HETATM    3  C5  UNL     1     -31.762   7.281   1.344  1.00 20.00     0.045 C 
HETATM    4  C6  UNL     1     -32.482  10.036   0.609  1.00 20.00     0.169 C 
HETATM    5  C7  UNL     1     -32.606   8.252   2.178  1.00 20.00     0.200 C 
HETATM    6  O12 UNL     1     -33.329   9.120   1.307  1.00 20.00    -0.374 OA
ENDROOT
BRANCH   5   7
HETATM    7  C1  UNL     1     -33.554   7.525   3.031  1.00 20.00    -0.074 C 
HETATM    8  C2  UNL     1     -34.329   6.931   3.729  1.00 20.00    -0.104 C 
BRANCH   8   9
HETATM    9  C9  UNL     1     -35.276   6.201   4.583  1.00 20.00     0.094 C 
BRANCH   9  10
HETATM   10  C11 UNL     1     -35.121   4.689   4.411  1.00 20.00     0.012 C 
BRANCH  10  11
HETATM   11  C10 UNL     1     -33.695   4.320   4.005  1.00 20.00    -0.004 C 
HETATM   12  C8  UNL     1     -33.253   3.013   4.646  1.00 20.00     0.005 C 
ENDBRANCH  10  11
ENDBRANCH   9  10
ENDBRANCH   8   9
ENDBRANCH   5   7
TORSDOF 4
ENDMDL
MODEL 4
REMARK VINA RESULT:       1.2      1.446      5.875
REMARK  4 active torsions:
REMARK  status: ('A' for Active; 'I' for Inactive)
REMARK    1  A    between atoms: C1_1  and  C7_7 
REMARK    2  A    between atoms: C2_2  and  C9_9 
REMARK    3  A    between atoms: C9_9  and  C11_11 
REMARK    4  A    between atoms: C10_10  and  C11_11 
ROOT
HETATM    1  C3  UNL     1     -32.382  10.515   0.526  1.00 20.00     0.006 C 
HETATM    2  C4  UNL     1     -31.613   9.653  -0.463  1.00 20.00     0.026 C 
HETATM    3  C5  UNL     1     -33.401   9.680   1.304  1.00 20.00     0.045 C 
HETATM    4  C6  UNL     1     -30.934   8.481   0.243  1.00 20.00     0.169 C 
HETATM    5  C7  UNL     1     -33.009   8.199   1.372  1.00 20.00     0.200 C 
HETATM    6  O12 UNL     1     -31.590   8.088   1.451  1.00 20.00    -0.374 OA
ENDROOT
BRANCH   5   7
HETATM    7  C1  UNL     1     -33.610   7.549   2.543  1.00 20.00    -0.074 C 
HETATM    8  C2  UNL     1     -34.103   7.018   3.500  1.00 20.00    -0.104 C 
BRANCH   8   9
HETATM    9  C9  UNL     1     -34.705   6.370   4.673  1.00 20.00     0.094 C 
BRANCH   9  10
HETATM   10  C11 UNL     1     -35.015   4.899   4.392  1.00 20.00     0.012 C 
BRANCH  10  11
HETATM   11  C10 UNL     1     -33.791   4.169   3.839  1.00 20.00    -0.004 C 
HETATM   12  C8  UNL     1     -33.361   3.032   4.753  1.00 20.00     0.005 C 
ENDBRANCH  10  11
ENDBRANCH   9  10
ENDBRANCH   8   9
ENDBRANCH   5   7
TORSDOF 4
ENDMDL
MODEL 5
REMARK VINA RESULT:       1.4      0.828      1.458
REMARK  4 active torsions:
REMARK  status: ('A' for Active; 'I' for Inactive)
REMARK    1  A    between atoms: C1_1  and  C7_7 
REMARK    2  A    between atoms: C2_2  and  C9_9 
REMARK    3  A    between atoms: C9_9  and  C11_11 
REMARK    4  A    between atoms: C10_10  and  C11_11 
ROOT
HETATM    1  C3  UNL     1     -35.343   5.693   4.237  1.00 20.00     0.006 C 
HETATM    2  C4  UNL     1     -34.311   4.578   4.254  1.00 20.00     0.026 C 
HETATM    3  C5  UNL     1     -34.679   7.051   3.997  1.00 20.00     0.045 C 
HETATM    4  C6  UNL     1     -33.496   4.566   2.961  1.00 20.00     0.169 C 
HETATM    5  C7  UNL     1     -33.344   6.922   3.253  1.00 20.00     0.200 C 
HETATM    6  O12 UNL     1     -33.422   5.844   2.324  1.00 20.00    -0.374 OA
ENDROOT
BRANCH   5   7
HETATM    7  C1  UNL     1     -33.024   8.159   2.532  1.00 20.00    -0.074 C 
HETATM    8  C2  UNL     1     -32.761   9.171   1.941  1.00 20.00    -0.104 C 
BRANCH   8   9
HETATM    9  C9  UNL     1     -32.439  10.411   1.221  1.00 20.00     0.094 C 
BRANCH   9  10
HETATM   10  C11 UNL     1     -32.816  10.303  -0.257  1.00 20.00     0.012 C 
BRANCH  10  11
HETATM   11  C10 UNL     1     -32.344   8.977  -0.855  1.00 20.00    -0.004 C 
HETATM   12  C8  UNL     1     -30.837   8.814  -0.729  1.00 20.00     0.005 C 
ENDBRANCH  10  11
ENDBRANCH   9  10
ENDBRANCH   8   9
ENDBRANCH   5   7
TORSDOF 4
ENDMDL
MODEL 6
REMARK VINA RESULT:       1.7      1.723      6.099
REMARK  4 active torsions:
REMARK  status: ('A' for Active; 'I' for Inactive)
REMARK    1  A    between atoms: C1_1  and  C7_7 
REMARK    2  A    between atoms: C2_2  and  C9_9 
REMARK    3  A    between atoms: C9_9  and  C11_11 
REMARK    4  A    between atoms: C10_10  and  C11_11 
ROOT
HETATM    1  C3  UNL     1     -32.651   9.981  -0.929  1.00 20.00     0.006 C 
HETATM    2  C4  UNL     1     -32.124  11.050   0.015  1.00 20.00     0.026 C 
HETATM    3  C5  UNL     1     -32.360   8.580  -0.386  1.00 20.00     0.045 C 
HETATM    4  C6  UNL     1     -32.703  10.876   1.418  1.00 20.00     0.169 C 
HETATM    5  C7  UNL     1     -32.201   8.568   1.139  1.00 20.00     0.200 C 
HETATM    6  O12 UNL     1     -33.082   9.530   1.715  1.00 20.00    -0.374 OA
ENDROOT
BRANCH   5   7
HETATM    7  C1  UNL     1     -32.508   7.242   1.689  1.00 20.00    -0.074 C 
HETATM    8  C2  UNL     1     -32.758   6.157   2.139  1.00 20.00    -0.104 C 
BRANCH   8   9
HETATM    9  C9  UNL     1     -33.068   4.829   2.688  1.00 20.00     0.094 C 
BRANCH   9  10
HETATM   10  C11 UNL     1     -34.266   4.891   3.636  1.00 20.00     0.012 C 
BRANCH  10  11
HETATM   11  C10 UNL     1     -34.081   3.952   4.827  1.00 20.00    -0.004 C 
HETATM   12  C8  UNL     1     -33.108   2.829   4.506  1.00 20.00     0.005 C 
ENDBRANCH  10  11
ENDBRANCH   9  10
ENDBRANCH   8   9
ENDBRANCH   5   7
TORSDOF 4
ENDMDL
MODEL 7
REMARK VINA RESULT:       1.8      1.550      5.510
REMARK  4 active torsions:
REMARK  status: ('A' for Active; 'I' for Inactive)
REMARK    1  A    between atoms: C1_1  and  C7_7 
REMARK    2  A    between atoms: C2_2  and  C9_9 
REMARK    3  A    between atoms: C9_9  and  C11_11 
REMARK    4  A    between atoms: C10_10  and  C11_11 
ROOT
HETATM    1  C3  UNL     1     -32.621   9.927  -0.952  1.00 20.00     0.006 C 
HETATM    2  C4  UNL     1     -32.037  10.977  -0.020  1.00 20.00     0.026 C 
HETATM    3  C5  UNL     1     -32.394   8.518  -0.401  1.00 20.00     0.045 C 
HETATM    4  C6  UNL     1     -32.614  10.841   1.388  1.00 20.00     0.169 C 
HETATM    5  C7  UNL     1     -32.225   8.509   1.123  1.00 20.00     0.200 C 
HETATM    6  O12 UNL     1     -33.054   9.516   1.697  1.00 20.00    -0.374 OA
ENDROOT
BRANCH   5   7
HETATM    7  C1  UNL     1     -32.591   7.203   1.685  1.00 20.00    -0.074 C 
HETATM    8  C2  UNL     1     -32.892   6.135   2.143  1.00 20.00    -0.104 C 
BRANCH   8   9
HETATM    9  C9  UNL     1     -33.258   4.829   2.708  1.00 20.00     0.094 C 
BRANCH   9  10
HETATM   10  C11 UNL     1     -34.160   4.991   3.932  1.00 20.00     0.012 C 
BRANCH  10  11
HETATM   11  C10 UNL     1     -35.052   6.226   3.805  1.00 20.00    -0.004 C 
HETATM   12  C8  UNL     1     -34.433   7.433   4.492  1.00 20.00     0.005 C 
ENDBRANCH  10  11
ENDBRANCH   9  10
ENDBRANCH   8   9
ENDBRANCH   5   7
TORSDOF 4
ENDMDL
