MODEL 1
REMARK VINA RESULT:       4.6      0.000      0.000
REMARK  0 active torsions:
REMARK  status: ('A' for Active; 'I' for Inactive)
ROOT
HETATM    1  C1  UNL     1     -33.387   5.946   2.472  1.00 20.00     0.145 C 
HETATM    2  C2  UNL     1     -32.062   7.888   1.558  1.00 20.00     0.061 C 
HETATM    3  C3  UNL     1     -33.280   7.977   3.963  1.00 20.00     0.061 C 
HETATM    4  C4  UNL     1     -32.024   6.405   1.946  1.00 20.00     0.103 C 
HETATM    5  C5  UNL     1     -34.203   7.007   3.218  1.00 20.00     0.103 C 
HETATM    6  C6  UNL     1     -31.503   5.445   0.875  1.00 20.00     0.024 C 
HETATM    7  C7  UNL     1     -35.305   6.356   4.054  1.00 20.00     0.024 C 
HETATM    8  O8  UNL     1     -33.800   4.799   2.306  1.00 20.00    -0.296 OA
HETATM    9  S9  UNL     1     -31.958   8.474  -0.011  1.00 20.00    -0.076 SA
HETATM   10  S10 UNL     1     -33.133   8.076   5.631  1.00 20.00    -0.076 SA
HETATM   11  S11 UNL     1     -32.285   9.005   2.916  1.00 20.00    -0.074 SA
ENDROOT
TORSDOF 0
ENDMDL
MODEL 2
REMARK VINA RESULT:       4.6      0.006      3.637
REMARK  0 active torsions:
REMARK  status: ('A' for Active; 'I' for Inactive)
ROOT
HETATM    1  C1  UNL     1     -33.387   5.951   2.471  1.00 20.00     0.145 C 
HETATM    2  C2  UNL     1     -33.275   7.980   3.965  1.00 20.00     0.061 C 
HETATM    3  C3  UNL     1     -32.058   7.890   1.560  1.00 20.00     0.061 C 
HETATM    4  C4  UNL     1     -34.200   7.011   3.219  1.00 20.00     0.103 C 
HETATM    5  C5  UNL     1     -32.022   6.408   1.946  1.00 20.00     0.103 C 
HETATM    6  C6  UNL     1     -35.303   6.360   4.055  1.00 20.00     0.024 C 
HETATM    7  C7  UNL     1     -31.503   5.448   0.874  1.00 20.00     0.024 C 
HETATM    8  O8  UNL     1     -33.803   4.805   2.302  1.00 20.00    -0.296 OA
HETATM    9  S9  UNL     1     -33.130   8.078   5.633  1.00 20.00    -0.076 SA
HETATM   10  S10 UNL     1     -31.956   8.478  -0.008  1.00 20.00    -0.076 SA
HETATM   11  S11 UNL     1     -32.276   9.006   2.920  1.00 20.00    -0.074 SA
ENDROOT
TORSDOF 0
ENDMDL
MODEL 3
REMARK VINA RESULT:       6.0      2.592      3.005
REMARK  0 active torsions:
REMARK  status: ('A' for Active; 'I' for Inactive)
ROOT
HETATM    1  C1  UNL     1     -32.416   8.040   2.744  1.00 20.00     0.145 C 
HETATM    2  C2  UNL     1     -32.427   5.837   1.518  1.00 20.00     0.061 C 
HETATM    3  C3  UNL     1     -34.166   6.391   3.504  1.00 20.00     0.061 C 
HETATM    4  C4  UNL     1     -32.535   7.360   1.378  1.00 20.00     0.103 C 
HETATM    5  C5  UNL     1     -32.970   7.247   3.933  1.00 20.00     0.103 C 
HETATM    6  C6  UNL     1     -31.592   8.008   0.364  1.00 20.00     0.024 C 
HETATM    7  C7  UNL     1     -33.198   8.161   5.137  1.00 20.00     0.024 C 
HETATM    8  O8  UNL     1     -31.909   9.153   2.880  1.00 20.00    -0.296 OA
HETATM    9  S9  UNL     1     -31.143   4.910   0.965  1.00 20.00    -0.076 SA
HETATM   10  S10 UNL     1     -35.754   6.653   3.974  1.00 20.00    -0.076 SA
HETATM   11  S11 UNL     1     -33.771   5.073   2.385  1.00 20.00    -0.074 SA
ENDROOT
TORSDOF 0
ENDMDL
MODEL 4
REMARK VINA RESULT:       6.0      2.596      4.346
REMARK  0 active torsions:
REMARK  status: ('A' for Active; 'I' for Inactive)
ROOT
HETATM    1  C1  UNL     1     -32.446   8.033   2.772  1.00 20.00     0.145 C 
HETATM    2  C2  UNL     1     -34.186   6.365   3.514  1.00 20.00     0.061 C 
HETATM    3  C3  UNL     1     -32.426   5.833   1.540  1.00 20.00     0.061 C 
HETATM    4  C4  UNL     1     -33.001   7.234   3.954  1.00 20.00     0.103 C 
HETATM    5  C5  UNL     1     -32.549   7.354   1.402  1.00 20.00     0.103 C 
HETATM    6  C6  UNL     1     -33.248   8.144   5.158  1.00 20.00     0.024 C 
HETATM    7  C7  UNL     1     -31.606   8.014   0.396  1.00 20.00     0.024 C 
HETATM    8  O8  UNL     1     -31.949   9.150   2.912  1.00 20.00    -0.296 OA
HETATM    9  S9  UNL     1     -35.780   6.610   3.975  1.00 20.00    -0.076 SA
HETATM   10  S10 UNL     1     -31.128   4.920   0.997  1.00 20.00    -0.076 SA
HETATM   11  S11 UNL     1     -33.771   5.055   2.395  1.00 20.00    -0.074 SA
ENDROOT
TORSDOF 0
ENDMDL
MODEL 5
REMARK VINA RESULT:       6.1      2.011      3.507
REMARK  0 active torsions:
REMARK  status: ('A' for Active; 'I' for Inactive)
ROOT
HETATM    1  C1  UNL     1     -34.242   6.209   3.637  1.00 20.00     0.145 C 
HETATM    2  C2  UNL     1     -32.573   7.890   2.769  1.00 20.00     0.061 C 
HETATM    3  C3  UNL     1     -32.864   5.444   1.668  1.00 20.00     0.061 C 
HETATM    4  C4  UNL     1     -34.052   7.620   3.073  1.00 20.00     0.103 C 
HETATM    5  C5  UNL     1     -33.267   5.148   3.117  1.00 20.00     0.103 C 
HETATM    6  C6  UNL     1     -34.755   8.656   3.951  1.00 20.00     0.024 C 
HETATM    7  C7  UNL     1     -33.798   3.740   3.390  1.00 20.00     0.024 C 
HETATM    8  O8  UNL     1     -35.122   5.944   4.455  1.00 20.00    -0.296 OA
HETATM    9  S9  UNL     1     -31.602   8.969   3.608  1.00 20.00    -0.076 SA
HETATM   10  S10 UNL     1     -33.312   4.525   0.339  1.00 20.00    -0.076 SA
HETATM   11  S11 UNL     1     -31.896   6.914   1.453  1.00 20.00    -0.074 SA
ENDROOT
TORSDOF 0
ENDMDL
MODEL 6
REMARK VINA RESULT:       6.1      2.009      2.608
REMARK  0 active torsions:
REMARK  status: ('A' for Active; 'I' for Inactive)
ROOT
HETATM    1  C1  UNL     1     -34.240   6.210   3.633  1.00 20.00     0.145 C 
HETATM    2  C2  UNL     1     -32.861   5.446   1.665  1.00 20.00     0.061 C 
HETATM    3  C3  UNL     1     -32.572   7.891   2.767  1.00 20.00     0.061 C 
HETATM    4  C4  UNL     1     -33.266   5.150   3.114  1.00 20.00     0.103 C 
HETATM    5  C5  UNL     1     -34.050   7.622   3.068  1.00 20.00     0.103 C 
HETATM    6  C6  UNL     1     -33.799   3.742   3.386  1.00 20.00     0.024 C 
HETATM    7  C7  UNL     1     -34.754   8.658   3.945  1.00 20.00     0.024 C 
HETATM    8  O8  UNL     1     -35.120   5.947   4.452  1.00 20.00    -0.296 OA
HETATM    9  S9  UNL     1     -33.306   4.525   0.335  1.00 20.00    -0.076 SA
HETATM   10  S10 UNL     1     -31.600   8.968   3.608  1.00 20.00    -0.076 SA
HETATM   11  S11 UNL     1     -31.894   6.916   1.450  1.00 20.00    -0.074 SA
ENDROOT
TORSDOF 0
ENDMDL
MODEL 7
REMARK VINA RESULT:       6.3      2.362      3.314
REMARK  0 active torsions:
REMARK  status: ('A' for Active; 'I' for Inactive)
ROOT
HETATM    1  C1  UNL     1     -32.291   6.800   2.103  1.00 20.00     0.145 C 
HETATM    2  C2  UNL     1     -33.820   5.107   3.178  1.00 20.00     0.061 C 
HETATM    3  C3  UNL     1     -34.058   7.756   3.627  1.00 20.00     0.061 C 
HETATM    4  C4  UNL     1     -33.287   5.665   1.853  1.00 20.00     0.103 C 
HETATM    5  C5  UNL     1     -32.555   7.654   3.348  1.00 20.00     0.103 C 
HETATM    6  C6  UNL     1     -32.707   4.638   0.879  1.00 20.00     0.024 C 
HETATM    7  C7  UNL     1     -31.797   8.980   3.269  1.00 20.00     0.024 C 
HETATM    8  O8  UNL     1     -31.340   7.015   1.353  1.00 20.00    -0.296 OA
HETATM    9  S9  UNL     1     -33.474   3.583   3.787  1.00 20.00    -0.076 SA
HETATM   10  S10 UNL     1     -34.974   9.151   3.465  1.00 20.00    -0.076 SA
HETATM   11  S11 UNL     1     -34.829   6.232   4.105  1.00 20.00    -0.074 SA
ENDROOT
TORSDOF 0
ENDMDL
MODEL 8
REMARK VINA RESULT:       6.4      2.362      3.552
REMARK  0 active torsions:
REMARK  status: ('A' for Active; 'I' for Inactive)
ROOT
HETATM    1  C1  UNL     1     -32.291   6.808   2.110  1.00 20.00     0.145 C 
HETATM    2  C2  UNL     1     -34.062   7.760   3.633  1.00 20.00     0.061 C 
HETATM    3  C3  UNL     1     -33.820   5.112   3.180  1.00 20.00     0.061 C 
HETATM    4  C4  UNL     1     -32.558   7.660   3.354  1.00 20.00     0.103 C 
HETATM    5  C5  UNL     1     -33.287   5.671   1.857  1.00 20.00     0.103 C 
HETATM    6  C6  UNL     1     -31.802   8.987   3.276  1.00 20.00     0.024 C 
HETATM    7  C7  UNL     1     -32.706   4.646   0.882  1.00 20.00     0.024 C 
HETATM    8  O8  UNL     1     -31.339   7.022   1.361  1.00 20.00    -0.296 OA
HETATM    9  S9  UNL     1     -34.979   9.155   3.472  1.00 20.00    -0.076 SA
HETATM   10  S10 UNL     1     -33.472   3.589   3.790  1.00 20.00    -0.076 SA
HETATM   11  S11 UNL     1     -34.833   6.235   4.106  1.00 20.00    -0.074 SA
ENDROOT
TORSDOF 0
ENDMDL
MODEL 9
REMARK VINA RESULT:       6.7      2.073      2.272
REMARK  0 active torsions:
REMARK  status: ('A' for Active; 'I' for Inactive)
ROOT
HETATM    1  C1  UNL     1     -33.942   4.783   3.789  1.00 20.00     0.145 C 
HETATM    2  C2  UNL     1     -32.281   5.330   1.973  1.00 20.00     0.061 C 
HETATM    3  C3  UNL     1     -33.558   7.242   3.382  1.00 20.00     0.061 C 
HETATM    4  C4  UNL     1     -32.503   4.597   3.301  1.00 20.00     0.103 C 
HETATM    5  C5  UNL     1     -34.600   6.119   3.427  1.00 20.00     0.103 C 
HETATM    6  C6  UNL     1     -32.108   3.119   3.325  1.00 20.00     0.024 C 
HETATM    7  C7  UNL     1     -35.826   6.377   4.304  1.00 20.00     0.024 C 
HETATM    8  O8  UNL     1     -34.534   3.916   4.432  1.00 20.00    -0.296 OA
HETATM    9  S9  UNL     1     -32.022   4.582   0.494  1.00 20.00    -0.076 SA
HETATM   10  S10 UNL     1     -33.461   8.508   4.478  1.00 20.00    -0.076 SA
HETATM   11  S11 UNL     1     -32.367   7.097   2.076  1.00 20.00    -0.074 SA
ENDROOT
TORSDOF 0
ENDMDL
