MODEL 1
REMARK VINA RESULT:      -2.1      0.000      0.000
REMARK  2 active torsions:
REMARK  status: ('A' for Active; 'I' for Inactive)
REMARK    1  A    between atoms: C2_2  and  C3_3 
REMARK    2  A    between atoms: N7_7  and  N8_8 
ROOT
HETATM    1  C2  UNL     1     -33.003   6.991   1.974  1.00 20.00     0.138 C 
HETATM    2  N7  UNL     1     -32.293   8.066   2.095  1.00 20.00    -0.214 NA
ENDROOT
BRANCH   1   3
HETATM    3  C3  UNL     1     -33.673   6.325   3.128  1.00 20.00    -0.047 C 
HETATM    4  C1  UNL     1     -33.502   4.994   3.209  1.00 20.00    -0.023 C 
HETATM    5  C4  UNL     1     -34.049   4.068   4.248  1.00 20.00     0.036 C 
HETATM    6  C5  UNL     1     -34.454   7.199   4.060  1.00 20.00     0.049 C 
ENDBRANCH   1   3
BRANCH   2   7
HETATM    7  N8  UNL     1     -31.783   8.501   0.923  1.00 20.00    -0.222 NA
HETATM    8  C6  UNL     1     -32.398   9.699   0.376  1.00 20.00     0.135 C 
HETATM    9  H20 UNL     1     -31.772   7.760   0.223  1.00 20.00     0.148 HD
ENDBRANCH   2   7
TORSDOF 2
ENDMDL
MODEL 2
REMARK VINA RESULT:      -2.0      2.626      4.632
REMARK  2 active torsions:
REMARK  status: ('A' for Active; 'I' for Inactive)
REMARK    1  A    between atoms: C2_2  and  C3_3 
REMARK    2  A    between atoms: N7_7  and  N8_8 
ROOT
HETATM    1  C2  UNL     1     -33.492   5.260   3.148  1.00 20.00     0.138 C 
HETATM    2  N7  UNL     1     -34.151   4.768   4.148  1.00 20.00    -0.214 NA
ENDROOT
BRANCH   1   3
HETATM    3  C3  UNL     1     -33.343   6.726   2.916  1.00 20.00    -0.047 C 
HETATM    4  C1  UNL     1     -32.529   7.073   1.904  1.00 20.00    -0.023 C 
HETATM    5  C4  UNL     1     -32.191   8.454   1.441  1.00 20.00     0.036 C 
HETATM    6  C5  UNL     1     -34.106   7.640   3.824  1.00 20.00     0.049 C 
ENDBRANCH   1   3
BRANCH   2   7
HETATM    7  N8  UNL     1     -34.155   3.417   4.168  1.00 20.00    -0.222 NA
HETATM    8  C6  UNL     1     -33.044   2.796   4.871  1.00 20.00     0.135 C 
HETATM    9  H20 UNL     1     -34.236   3.031   3.228  1.00 20.00     0.148 HD
ENDBRANCH   2   7
TORSDOF 2
ENDMDL
MODEL 3
REMARK VINA RESULT:      -2.0      1.055      1.617
REMARK  2 active torsions:
REMARK  status: ('A' for Active; 'I' for Inactive)
REMARK    1  A    between atoms: C2_2  and  C3_3 
REMARK    2  A    between atoms: N7_7  and  N8_8 
ROOT
HETATM    1  C2  UNL     1     -32.876   7.969   2.197  1.00 20.00     0.138 C 
HETATM    2  N7  UNL     1     -32.109   8.053   1.157  1.00 20.00    -0.214 NA
ENDROOT
BRANCH   1   3
HETATM    3  C3  UNL     1     -33.478   6.685   2.661  1.00 20.00    -0.047 C 
HETATM    4  C1  UNL     1     -34.409   6.796   3.624  1.00 20.00    -0.023 C 
HETATM    5  C4  UNL     1     -35.177   5.692   4.278  1.00 20.00     0.036 C 
HETATM    6  C5  UNL     1     -32.986   5.428   2.012  1.00 20.00     0.049 C 
ENDBRANCH   1   3
BRANCH   2   7
HETATM    7  N8  UNL     1     -31.671   9.308   0.921  1.00 20.00    -0.222 NA
HETATM    8  C6  UNL     1     -32.512  10.115   0.052  1.00 20.00     0.135 C 
HETATM    9  H20 UNL     1     -30.710   9.309   0.580  1.00 20.00     0.148 HD
ENDBRANCH   2   7
TORSDOF 2
ENDMDL
MODEL 4
REMARK VINA RESULT:      -1.9      0.960      1.026
REMARK  2 active torsions:
REMARK  status: ('A' for Active; 'I' for Inactive)
REMARK    1  A    between atoms: C2_2  and  C3_3 
REMARK    2  A    between atoms: N7_7  and  N8_8 
ROOT
HETATM    1  C2  UNL     1     -33.183   7.551   2.258  1.00 20.00     0.138 C 
HETATM    2  N7  UNL     1     -32.087   8.239   2.234  1.00 20.00    -0.214 NA
ENDROOT
BRANCH   1   3
HETATM    3  C3  UNL     1     -33.848   7.126   3.524  1.00 20.00    -0.047 C 
HETATM    4  C1  UNL     1     -34.544   5.977   3.456  1.00 20.00    -0.023 C 
HETATM    5  C4  UNL     1     -35.306   5.310   4.556  1.00 20.00     0.036 C 
HETATM    6  C5  UNL     1     -33.670   8.012   4.718  1.00 20.00     0.049 C 
ENDBRANCH   1   3
BRANCH   2   7
HETATM    7  N8  UNL     1     -31.663   8.519   0.983  1.00 20.00    -0.222 NA
HETATM    8  C6  UNL     1     -32.334   9.628   0.325  1.00 20.00     0.135 C 
HETATM    9  H20 UNL     1     -31.686   7.691   0.388  1.00 20.00     0.148 HD
ENDBRANCH   2   7
TORSDOF 2
ENDMDL
MODEL 5
REMARK VINA RESULT:      -1.6      2.148      4.466
REMARK  2 active torsions:
REMARK  status: ('A' for Active; 'I' for Inactive)
REMARK    1  A    between atoms: C2_2  and  C3_3 
REMARK    2  A    between atoms: N7_7  and  N8_8 
ROOT
HETATM    1  C2  UNL     1     -33.750   5.985   2.879  1.00 20.00     0.138 C 
HETATM    2  N7  UNL     1     -34.592   6.746   3.500  1.00 20.00    -0.214 NA
ENDROOT
BRANCH   1   3
HETATM    3  C3  UNL     1     -32.730   6.510   1.925  1.00 20.00    -0.047 C 
HETATM    4  C1  UNL     1     -32.556   7.843   1.938  1.00 20.00    -0.023 C 
HETATM    5  C4  UNL     1     -31.612   8.645   1.100  1.00 20.00     0.036 C 
HETATM    6  C5  UNL     1     -32.020   5.509   1.067  1.00 20.00     0.049 C 
ENDBRANCH   1   3
BRANCH   2   7
HETATM    7  N8  UNL     1     -35.422   6.063   4.319  1.00 20.00    -0.222 NA
HETATM    8  C6  UNL     1     -35.031   4.693   4.609  1.00 20.00     0.135 C 
HETATM    9  H20 UNL     1     -36.383   6.091   3.982  1.00 20.00     0.148 HD
ENDBRANCH   2   7
TORSDOF 2
ENDMDL
MODEL 6
REMARK VINA RESULT:      -1.0      2.045      4.693
REMARK  2 active torsions:
REMARK  status: ('A' for Active; 'I' for Inactive)
REMARK    1  A    between atoms: C2_2  and  C3_3 
REMARK    2  A    between atoms: N7_7  and  N8_8 
ROOT
HETATM    1  C2  UNL     1     -33.164   7.793   2.970  1.00 20.00     0.138 C 
HETATM    2  N7  UNL     1     -34.017   6.820   2.994  1.00 20.00    -0.214 NA
ENDROOT
BRANCH   1   3
HETATM    3  C3  UNL     1     -32.379   8.156   1.754  1.00 20.00    -0.047 C 
HETATM    4  C1  UNL     1     -32.752   9.293   1.141  1.00 20.00    -0.023 C 
HETATM    5  C4  UNL     1     -32.154   9.902  -0.087  1.00 20.00     0.036 C 
HETATM    6  C5  UNL     1     -31.276   7.226   1.353  1.00 20.00     0.049 C 
ENDBRANCH   1   3
BRANCH   2   7
HETATM    7  N8  UNL     1     -34.618   6.671   4.194  1.00 20.00    -0.222 NA
HETATM    8  C6  UNL     1     -35.328   5.417   4.390  1.00 20.00     0.135 C 
HETATM    9  H20 UNL     1     -35.230   7.458   4.405  1.00 20.00     0.148 HD
ENDBRANCH   2   7
TORSDOF 2
ENDMDL
MODEL 7
REMARK VINA RESULT:      -0.7      2.187      3.745
REMARK  2 active torsions:
REMARK  status: ('A' for Active; 'I' for Inactive)
REMARK    1  A    between atoms: C2_2  and  C3_3 
REMARK    2  A    between atoms: N7_7  and  N8_8 
ROOT
HETATM    1  C2  UNL     1     -33.572   6.427   2.691  1.00 20.00     0.138 C 
HETATM    2  N7  UNL     1     -33.614   7.403   3.539  1.00 20.00    -0.214 NA
ENDROOT
BRANCH   1   3
HETATM    3  C3  UNL     1     -32.470   6.260   1.698  1.00 20.00    -0.047 C 
HETATM    4  C1  UNL     1     -32.290   5.009   1.238  1.00 20.00    -0.023 C 
HETATM    5  C4  UNL     1     -31.273   4.544   0.245  1.00 20.00     0.036 C 
HETATM    6  C5  UNL     1     -31.695   7.486   1.327  1.00 20.00     0.049 C 
ENDBRANCH   1   3
BRANCH   2   7
HETATM    7  N8  UNL     1     -34.695   7.359   4.347  1.00 20.00    -0.222 NA
HETATM    8  C6  UNL     1     -35.491   6.146   4.266  1.00 20.00     0.135 C 
HETATM    9  H20 UNL     1     -35.289   8.178   4.219  1.00 20.00     0.148 HD
ENDBRANCH   2   7
TORSDOF 2
ENDMDL
MODEL 8
REMARK VINA RESULT:      -0.3      1.390      2.003
REMARK  2 active torsions:
REMARK  status: ('A' for Active; 'I' for Inactive)
REMARK    1  A    between atoms: C2_2  and  C3_3 
REMARK    2  A    between atoms: N7_7  and  N8_8 
ROOT
HETATM    1  C2  UNL     1     -32.837   8.315   1.665  1.00 20.00     0.138 C 
HETATM    2  N7  UNL     1     -32.009   8.796   0.794  1.00 20.00    -0.214 NA
ENDROOT
BRANCH   1   3
HETATM    3  C3  UNL     1     -32.876   6.871   2.038  1.00 20.00    -0.047 C 
HETATM    4  C1  UNL     1     -32.118   6.056   1.284  1.00 20.00    -0.023 C 
HETATM    5  C4  UNL     1     -31.958   4.576   1.422  1.00 20.00     0.036 C 
HETATM    6  C5  UNL     1     -33.744   6.490   3.198  1.00 20.00     0.049 C 
ENDBRANCH   1   3
BRANCH   2   7
HETATM    7  N8  UNL     1     -32.144  10.128   0.613  1.00 20.00    -0.222 NA
HETATM    8  C6  UNL     1     -32.993  10.528  -0.497  1.00 20.00     0.135 C 
HETATM    9  H20 UNL     1     -31.236  10.588   0.545  1.00 20.00     0.148 HD
ENDBRANCH   2   7
TORSDOF 2
ENDMDL
MODEL 9
REMARK VINA RESULT:       0.2      2.756      4.376
REMARK  2 active torsions:
REMARK  status: ('A' for Active; 'I' for Inactive)
REMARK    1  A    between atoms: C2_2  and  C3_3 
REMARK    2  A    between atoms: N7_7  and  N8_8 
ROOT
HETATM    1  C2  UNL     1     -32.017   6.908   1.364  1.00 20.00     0.138 C 
HETATM    2  N7  UNL     1     -32.979   6.117   1.714  1.00 20.00    -0.214 NA
ENDROOT
BRANCH   1   3
HETATM    3  C3  UNL     1     -32.055   8.383   1.590  1.00 20.00    -0.047 C 
HETATM    4  C1  UNL     1     -32.385   9.126   0.520  1.00 20.00    -0.023 C 
HETATM    5  C4  UNL     1     -32.504  10.615   0.448  1.00 20.00     0.036 C 
HETATM    6  C5  UNL     1     -31.726   8.869   2.968  1.00 20.00     0.049 C 
ENDBRANCH   1   3
BRANCH   2   7
HETATM    7  N8  UNL     1     -32.735   4.821   1.419  1.00 20.00    -0.222 NA
HETATM    8  C6  UNL     1     -31.610   4.580   0.531  1.00 20.00     0.135 C 
HETATM    9  H20 UNL     1     -33.570   4.357   1.063  1.00 20.00     0.148 HD
ENDBRANCH   2   7
TORSDOF 2
ENDMDL
