MODEL 1
REMARK VINA RESULT:      -0.8      0.000      0.000
REMARK  3 active torsions:
REMARK  status: ('A' for Active; 'I' for Inactive)
REMARK    1  A    between atoms: C3_3  and  C9_9 
REMARK    2  A    between atoms: C8_8  and  C10_10 
REMARK    3  A    between atoms: C9_9  and  C10_10 
ROOT
HETATM    1  C1  UNL     1     -31.886   8.369   0.403  1.00 20.00    -0.026 C 
HETATM    2  C2  UNL     1     -32.573   9.292   1.093  1.00 20.00    -0.025 C 
HETATM    3  C4  UNL     1     -31.292   8.132   2.623  1.00 20.00     0.017 C 
HETATM    4  C5  UNL     1     -32.793   6.507   1.760  1.00 20.00     0.013 C 
HETATM    5  C6  UNL     1     -31.509   7.275   1.374  1.00 20.00     0.009 C 
HETATM    6  C7  UNL     1     -32.666   8.804   2.523  1.00 20.00     0.012 C 
HETATM    7  C8  UNL     1     -33.627   7.585   2.522  1.00 20.00    -0.006 C 
ENDROOT
BRANCH   7   8
HETATM    8  C10 UNL     1     -34.015   7.133   3.926  1.00 20.00     0.012 C 
BRANCH   8   9
HETATM    9  C9  UNL     1     -35.225   6.209   3.897  1.00 20.00     0.070 C 
BRANCH   9  10
HETATM   10  C3  UNL     1     -34.911   4.829   4.422  1.00 20.00     0.231 C 
HETATM   11  O11 UNL     1     -33.969   4.137   4.048  1.00 20.00    -0.307 OA
ENDBRANCH   9  10
ENDBRANCH   8   9
ENDBRANCH   7   8
TORSDOF 3
ENDMDL
MODEL 2
REMARK VINA RESULT:      -0.4      1.087      2.098
REMARK  3 active torsions:
REMARK  status: ('A' for Active; 'I' for Inactive)
REMARK    1  A    between atoms: C3_3  and  C9_9 
REMARK    2  A    between atoms: C8_8  and  C10_10 
REMARK    3  A    between atoms: C9_9  and  C10_10 
ROOT
HETATM    1  C1  UNL     1     -31.271   7.252   1.568  1.00 20.00    -0.026 C 
HETATM    2  C2  UNL     1     -31.682   5.976   1.519  1.00 20.00    -0.025 C 
HETATM    3  C4  UNL     1     -33.527   7.287   1.066  1.00 20.00     0.017 C 
HETATM    4  C5  UNL     1     -32.940   7.847   3.298  1.00 20.00     0.013 C 
HETATM    5  C6  UNL     1     -32.489   8.102   1.843  1.00 20.00     0.009 C 
HETATM    6  C7  UNL     1     -33.173   5.975   1.776  1.00 20.00     0.012 C 
HETATM    7  C8  UNL     1     -33.375   6.347   3.269  1.00 20.00    -0.006 C 
ENDROOT
BRANCH   7   8
HETATM    8  C10 UNL     1     -34.811   6.151   3.743  1.00 20.00     0.012 C 
BRANCH   8   9
HETATM    9  C9  UNL     1     -34.973   4.835   4.492  1.00 20.00     0.070 C 
BRANCH   9  10
HETATM   10  C3  UNL     1     -33.896   3.836   4.144  1.00 20.00     0.231 C 
HETATM   11  O11 UNL     1     -33.344   3.095   4.950  1.00 20.00    -0.307 OA
ENDBRANCH   9  10
ENDBRANCH   8   9
ENDBRANCH   7   8
TORSDOF 3
ENDMDL
MODEL 3
REMARK VINA RESULT:      -0.3      0.840      1.792
REMARK  3 active torsions:
REMARK  status: ('A' for Active; 'I' for Inactive)
REMARK    1  A    between atoms: C3_3  and  C9_9 
REMARK    2  A    between atoms: C8_8  and  C10_10 
REMARK    3  A    between atoms: C9_9  and  C10_10 
ROOT
HETATM    1  C1  UNL     1     -31.102   7.148   1.364  1.00 20.00    -0.026 C 
HETATM    2  C2  UNL     1     -31.877   6.060   1.492  1.00 20.00    -0.025 C 
HETATM    3  C4  UNL     1     -33.292   7.847   1.133  1.00 20.00     0.017 C 
HETATM    4  C5  UNL     1     -32.250   8.330   3.212  1.00 20.00     0.013 C 
HETATM    5  C6  UNL     1     -31.959   8.347   1.695  1.00 20.00     0.009 C 
HETATM    6  C7  UNL     1     -33.247   6.535   1.924  1.00 20.00     0.012 C 
HETATM    7  C8  UNL     1     -33.112   7.039   3.386  1.00 20.00    -0.006 C 
ENDROOT
BRANCH   7   8
HETATM    8  C10 UNL     1     -34.457   7.324   4.044  1.00 20.00     0.012 C 
BRANCH   8   9
HETATM    9  C9  UNL     1     -35.418   6.155   3.872  1.00 20.00     0.070 C 
BRANCH   9  10
HETATM   10  C3  UNL     1     -34.984   4.933   4.644  1.00 20.00     0.231 C 
HETATM   11  O11 UNL     1     -34.380   3.980   4.162  1.00 20.00    -0.307 OA
ENDBRANCH   9  10
ENDBRANCH   8   9
ENDBRANCH   7   8
TORSDOF 3
ENDMDL
MODEL 4
REMARK VINA RESULT:       0.1      2.398      4.596
REMARK  3 active torsions:
REMARK  status: ('A' for Active; 'I' for Inactive)
REMARK    1  A    between atoms: C3_3  and  C9_9 
REMARK    2  A    between atoms: C8_8  and  C10_10 
REMARK    3  A    between atoms: C9_9  and  C10_10 
ROOT
HETATM    1  C1  UNL     1     -35.376   6.163   4.122  1.00 20.00    -0.026 C 
HETATM    2  C2  UNL     1     -34.527   5.180   3.783  1.00 20.00    -0.025 C 
HETATM    3  C4  UNL     1     -33.239   6.953   4.508  1.00 20.00     0.017 C 
HETATM    4  C5  UNL     1     -34.324   7.771   2.560  1.00 20.00     0.013 C 
HETATM    5  C6  UNL     1     -34.607   7.461   4.047  1.00 20.00     0.009 C 
HETATM    6  C7  UNL     1     -33.196   5.828   3.467  1.00 20.00     0.012 C 
HETATM    7  C8  UNL     1     -33.375   6.606   2.137  1.00 20.00    -0.006 C 
ENDROOT
BRANCH   7   8
HETATM    8  C10 UNL     1     -32.057   7.111   1.561  1.00 20.00     0.012 C 
BRANCH   8   9
HETATM    9  C9  UNL     1     -32.005   8.633   1.546  1.00 20.00     0.070 C 
BRANCH   9  10
HETATM   10  C3  UNL     1     -32.028   9.198   0.147  1.00 20.00     0.231 C 
HETATM   11  O11 UNL     1     -32.764  10.105  -0.228  1.00 20.00    -0.307 OA
ENDBRANCH   9  10
ENDBRANCH   8   9
ENDBRANCH   7   8
TORSDOF 3
ENDMDL
MODEL 5
REMARK VINA RESULT:       0.1      2.578      4.470
REMARK  3 active torsions:
REMARK  status: ('A' for Active; 'I' for Inactive)
REMARK    1  A    between atoms: C3_3  and  C9_9 
REMARK    2  A    between atoms: C8_8  and  C10_10 
REMARK    3  A    between atoms: C9_9  and  C10_10 
ROOT
HETATM    1  C1  UNL     1     -33.557   5.215   3.089  1.00 20.00    -0.026 C 
HETATM    2  C2  UNL     1     -33.870   6.466   3.461  1.00 20.00    -0.025 C 
HETATM    3  C4  UNL     1     -33.981   6.409   1.157  1.00 20.00     0.017 C 
HETATM    4  C5  UNL     1     -31.697   5.983   1.646  1.00 20.00     0.013 C 
HETATM    5  C6  UNL     1     -33.074   5.283   1.659  1.00 20.00     0.009 C 
HETATM    6  C7  UNL     1     -33.580   7.369   2.282  1.00 20.00     0.012 C 
HETATM    7  C8  UNL     1     -32.038   7.429   2.127  1.00 20.00    -0.006 C 
ENDROOT
BRANCH   7   8
HETATM    8  C10 UNL     1     -31.580   8.493   1.134  1.00 20.00     0.012 C 
BRANCH   8   9
HETATM    9  C9  UNL     1     -32.390   9.775   1.282  1.00 20.00     0.070 C 
BRANCH   9  10
HETATM   10  C3  UNL     1     -32.698  10.419  -0.047  1.00 20.00     0.231 C 
HETATM   11  O11 UNL     1     -32.993   9.807  -1.069  1.00 20.00    -0.307 OA
ENDBRANCH   9  10
ENDBRANCH   8   9
ENDBRANCH   7   8
TORSDOF 3
ENDMDL
MODEL 6
REMARK VINA RESULT:       0.4      2.556      4.548
REMARK  3 active torsions:
REMARK  status: ('A' for Active; 'I' for Inactive)
REMARK    1  A    between atoms: C3_3  and  C9_9 
REMARK    2  A    between atoms: C8_8  and  C10_10 
REMARK    3  A    between atoms: C9_9  and  C10_10 
ROOT
HETATM    1  C1  UNL     1     -34.610   6.650   5.018  1.00 20.00    -0.026 C 
HETATM    2  C2  UNL     1     -33.864   7.758   4.884  1.00 20.00    -0.025 C 
HETATM    3  C4  UNL     1     -35.099   7.548   2.946  1.00 20.00     0.017 C 
HETATM    4  C5  UNL     1     -33.688   5.637   2.955  1.00 20.00     0.013 C 
HETATM    5  C6  UNL     1     -34.968   6.183   3.627  1.00 20.00     0.009 C 
HETATM    6  C7  UNL     1     -33.713   8.019   3.401  1.00 20.00     0.012 C 
HETATM    7  C8  UNL     1     -32.788   6.908   2.837  1.00 20.00    -0.006 C 
ENDROOT
BRANCH   7   8
HETATM    8  C10 UNL     1     -32.344   7.173   1.403  1.00 20.00     0.012 C 
BRANCH   8   9
HETATM    9  C9  UNL     1     -31.690   8.542   1.269  1.00 20.00     0.070 C 
BRANCH   9  10
HETATM   10  C3  UNL     1     -32.393   9.422   0.264  1.00 20.00     0.231 C 
HETATM   11  O11 UNL     1     -32.414  10.648   0.302  1.00 20.00    -0.307 OA
ENDBRANCH   9  10
ENDBRANCH   8   9
ENDBRANCH   7   8
TORSDOF 3
ENDMDL
MODEL 7
REMARK VINA RESULT:       0.7      2.498      4.501
REMARK  3 active torsions:
REMARK  status: ('A' for Active; 'I' for Inactive)
REMARK    1  A    between atoms: C3_3  and  C9_9 
REMARK    2  A    between atoms: C8_8  and  C10_10 
REMARK    3  A    between atoms: C9_9  and  C10_10 
ROOT
HETATM    1  C1  UNL     1     -34.050   4.956   3.569  1.00 20.00    -0.026 C 
HETATM    2  C2  UNL     1     -34.120   5.962   4.455  1.00 20.00    -0.025 C 
HETATM    3  C4  UNL     1     -34.912   6.784   2.449  1.00 20.00     0.017 C 
HETATM    4  C5  UNL     1     -32.636   6.266   2.015  1.00 20.00     0.013 C 
HETATM    5  C6  UNL     1     -34.007   5.576   2.193  1.00 20.00     0.009 C 
HETATM    6  C7  UNL     1     -34.108   7.254   3.666  1.00 20.00     0.012 C 
HETATM    7  C8  UNL     1     -32.682   7.410   3.076  1.00 20.00    -0.006 C 
ENDROOT
BRANCH   7   8
HETATM    8  C10 UNL     1     -32.441   8.783   2.458  1.00 20.00     0.012 C 
BRANCH   8   9
HETATM    9  C9  UNL     1     -31.982   8.668   1.011  1.00 20.00     0.070 C 
BRANCH   9  10
HETATM   10  C3  UNL     1     -32.348   9.881   0.190  1.00 20.00     0.231 C 
HETATM   11  O11 UNL     1     -33.008   9.851  -0.843  1.00 20.00    -0.307 OA
ENDBRANCH   9  10
ENDBRANCH   8   9
ENDBRANCH   7   8
TORSDOF 3
ENDMDL
MODEL 8
REMARK VINA RESULT:       1.1      1.444      2.174
REMARK  3 active torsions:
REMARK  status: ('A' for Active; 'I' for Inactive)
REMARK    1  A    between atoms: C3_3  and  C9_9 
REMARK    2  A    between atoms: C8_8  and  C10_10 
REMARK    3  A    between atoms: C9_9  and  C10_10 
ROOT
HETATM    1  C1  UNL     1     -33.270   8.668   2.186  1.00 20.00    -0.026 C 
HETATM    2  C2  UNL     1     -34.288   8.788   3.052  1.00 20.00    -0.025 C 
HETATM    3  C4  UNL     1     -32.618   7.628   4.143  1.00 20.00     0.017 C 
HETATM    4  C5  UNL     1     -33.259   6.198   2.360  1.00 20.00     0.013 C 
HETATM    5  C6  UNL     1     -32.445   7.482   2.629  1.00 20.00     0.009 C 
HETATM    6  C7  UNL     1     -34.148   7.672   4.065  1.00 20.00     0.012 C 
HETATM    7  C8  UNL     1     -34.476   6.347   3.327  1.00 20.00    -0.006 C 
ENDROOT
BRANCH   7   8
HETATM    8  C10 UNL     1     -34.616   5.159   4.271  1.00 20.00     0.012 C 
BRANCH   8   9
HETATM    9  C9  UNL     1     -33.869   3.941   3.744  1.00 20.00     0.070 C 
BRANCH   9  10
HETATM   10  C3  UNL     1     -33.287   3.097   4.853  1.00 20.00     0.231 C 
HETATM   11  O11 UNL     1     -33.149   1.879   4.804  1.00 20.00    -0.307 OA
ENDBRANCH   9  10
ENDBRANCH   8   9
ENDBRANCH   7   8
TORSDOF 3
ENDMDL
MODEL 9
REMARK VINA RESULT:       1.4      1.462      2.248
REMARK  3 active torsions:
REMARK  status: ('A' for Active; 'I' for Inactive)
REMARK    1  A    between atoms: C3_3  and  C9_9 
REMARK    2  A    between atoms: C8_8  and  C10_10 
REMARK    3  A    between atoms: C9_9  and  C10_10 
ROOT
HETATM    1  C1  UNL     1     -32.893  10.419  -0.182  1.00 20.00    -0.026 C 
HETATM    2  C2  UNL     1     -32.643  10.474   1.136  1.00 20.00    -0.025 C 
HETATM    3  C4  UNL     1     -31.051   9.081   0.212  1.00 20.00     0.017 C 
HETATM    4  C5  UNL     1     -33.108   7.953  -0.159  1.00 20.00     0.013 C 
HETATM    5  C6  UNL     1     -32.280   9.140  -0.699  1.00 20.00     0.009 C 
HETATM    6  C7  UNL     1     -31.875   9.221   1.498  1.00 20.00     0.012 C 
HETATM    7  C8  UNL     1     -32.867   8.033   1.381  1.00 20.00    -0.006 C 
ENDROOT
BRANCH   7   8
HETATM    8  C10 UNL     1     -32.307   6.733   1.949  1.00 20.00     0.012 C 
BRANCH   8   9
HETATM    9  C9  UNL     1     -33.398   5.903   2.614  1.00 20.00     0.070 C 
BRANCH   9  10
HETATM   10  C3  UNL     1     -34.244   6.716   3.563  1.00 20.00     0.231 C 
HETATM   11  O11 UNL     1     -35.341   6.373   3.990  1.00 20.00    -0.307 OA
ENDBRANCH   9  10
ENDBRANCH   8   9
ENDBRANCH   7   8
TORSDOF 3
ENDMDL
