MODEL 1
REMARK VINA RESULT:       0.2      0.000      0.000
REMARK  0 active torsions:
REMARK  status: ('A' for Active; 'I' for Inactive)
ROOT
HETATM    1  C1  UNL     1     -33.873   6.741   3.020  1.00 20.00     0.062 C 
HETATM    2  C2  UNL     1     -31.822   6.534   1.599  1.00 20.00     0.113 C 
HETATM    3  C3  UNL     1     -32.154   7.939   2.124  1.00 20.00     0.056 C 
HETATM    4  C4  UNL     1     -35.030   6.364   3.882  1.00 20.00     0.078 C 
HETATM    5  C5  UNL     1     -30.918   8.569   2.773  1.00 20.00     0.041 C 
HETATM    6  C6  UNL     1     -32.668   8.862   1.009  1.00 20.00     0.041 C 
HETATM    7  N7  UNL     1     -33.207   7.838   3.165  1.00 20.00    -0.277 NA
HETATM    8  S8  UNL     1     -33.372   5.625   1.780  1.00 20.00    -0.113 SA
ENDROOT
TORSDOF 0
ENDMDL
MODEL 2
REMARK VINA RESULT:       1.0      2.142      3.652
REMARK  0 active torsions:
REMARK  status: ('A' for Active; 'I' for Inactive)
ROOT
HETATM    1  C1  UNL     1     -33.017   6.277   2.204  1.00 20.00     0.062 C 
HETATM    2  C2  UNL     1     -33.919   7.439   4.230  1.00 20.00     0.113 C 
HETATM    3  C3  UNL     1     -34.781   6.311   3.645  1.00 20.00     0.056 C 
HETATM    4  C4  UNL     1     -32.060   5.816   1.157  1.00 20.00     0.078 C 
HETATM    5  C5  UNL     1     -35.200   5.336   4.750  1.00 20.00     0.041 C 
HETATM    6  C6  UNL     1     -36.036   6.851   2.944  1.00 20.00     0.041 C 
HETATM    7  N7  UNL     1     -33.985   5.549   2.650  1.00 20.00    -0.277 NA
HETATM    8  S8  UNL     1     -32.789   7.864   2.886  1.00 20.00    -0.113 SA
ENDROOT
TORSDOF 0
ENDMDL
MODEL 3
REMARK VINA RESULT:       1.1      1.831      2.774
REMARK  0 active torsions:
REMARK  status: ('A' for Active; 'I' for Inactive)
ROOT
HETATM    1  C1  UNL     1     -33.406   7.190   3.243  1.00 20.00     0.062 C 
HETATM    2  C2  UNL     1     -32.172   7.341   1.070  1.00 20.00     0.113 C 
HETATM    3  C3  UNL     1     -32.714   5.957   1.457  1.00 20.00     0.056 C 
HETATM    4  C4  UNL     1     -34.145   7.601   4.472  1.00 20.00     0.078 C 
HETATM    5  C5  UNL     1     -33.495   5.347   0.288  1.00 20.00     0.041 C 
HETATM    6  C6  UNL     1     -31.591   4.995   1.872  1.00 20.00     0.041 C 
HETATM    7  N7  UNL     1     -33.651   6.097   2.600  1.00 20.00    -0.277 NA
HETATM    8  S8  UNL     1     -32.178   8.260   2.624  1.00 20.00    -0.113 SA
ENDROOT
TORSDOF 0
ENDMDL
MODEL 4
REMARK VINA RESULT:       1.4      2.036      2.974
REMARK  0 active torsions:
REMARK  status: ('A' for Active; 'I' for Inactive)
ROOT
HETATM    1  C1  UNL     1     -33.690   4.547   3.690  1.00 20.00     0.062 C 
HETATM    2  C2  UNL     1     -33.328   6.724   2.508  1.00 20.00     0.113 C 
HETATM    3  C3  UNL     1     -34.340   6.731   3.664  1.00 20.00     0.056 C 
HETATM    4  C4  UNL     1     -33.474   3.145   4.152  1.00 20.00     0.078 C 
HETATM    5  C5  UNL     1     -34.041   7.885   4.626  1.00 20.00     0.041 C 
HETATM    6  C6  UNL     1     -35.786   6.853   3.160  1.00 20.00     0.041 C 
HETATM    7  N7  UNL     1     -34.221   5.464   4.428  1.00 20.00    -0.277 NA
HETATM    8  S8  UNL     1     -33.160   4.977   2.087  1.00 20.00    -0.113 SA
ENDROOT
TORSDOF 0
ENDMDL
MODEL 5
REMARK VINA RESULT:       1.5      2.305      3.187
REMARK  0 active torsions:
REMARK  status: ('A' for Active; 'I' for Inactive)
ROOT
HETATM    1  C1  UNL     1     -33.874   4.487   4.120  1.00 20.00     0.062 C 
HETATM    2  C2  UNL     1     -35.246   6.458   3.412  1.00 20.00     0.113 C 
HETATM    3  C3  UNL     1     -33.731   6.559   3.182  1.00 20.00     0.056 C 
HETATM    4  C4  UNL     1     -33.515   3.102   4.542  1.00 20.00     0.078 C 
HETATM    5  C5  UNL     1     -33.440   6.996   1.742  1.00 20.00     0.041 C 
HETATM    6  C6  UNL     1     -33.066   7.543   4.155  1.00 20.00     0.041 C 
HETATM    7  N7  UNL     1     -33.114   5.223   3.380  1.00 20.00    -0.277 NA
HETATM    8  S8  UNL     1     -35.415   5.128   4.621  1.00 20.00    -0.113 SA
ENDROOT
TORSDOF 0
ENDMDL
MODEL 6
REMARK VINA RESULT:       1.5      1.334      3.202
REMARK  0 active torsions:
REMARK  status: ('A' for Active; 'I' for Inactive)
ROOT
HETATM    1  C1  UNL     1     -32.691   8.272   1.654  1.00 20.00     0.062 C 
HETATM    2  C2  UNL     1     -33.090   6.035   2.705  1.00 20.00     0.113 C 
HETATM    3  C3  UNL     1     -33.744   7.242   3.393  1.00 20.00     0.056 C 
HETATM    4  C4  UNL     1     -32.313   9.304   0.647  1.00 20.00     0.078 C 
HETATM    5  C5  UNL     1     -35.228   6.965   3.653  1.00 20.00     0.041 C 
HETATM    6  C6  UNL     1     -33.053   7.591   4.720  1.00 20.00     0.041 C 
HETATM    7  N7  UNL     1     -33.656   8.424   2.499  1.00 20.00    -0.277 NA
HETATM    8  S8  UNL     1     -31.811   6.768   1.662  1.00 20.00    -0.113 SA
ENDROOT
TORSDOF 0
ENDMDL
MODEL 7
REMARK VINA RESULT:       1.6      1.448      2.505
REMARK  0 active torsions:
REMARK  status: ('A' for Active; 'I' for Inactive)
ROOT
HETATM    1  C1  UNL     1     -32.469   5.966   1.625  1.00 20.00     0.062 C 
HETATM    2  C2  UNL     1     -33.575   7.916   2.739  1.00 20.00     0.113 C 
HETATM    3  C3  UNL     1     -32.277   8.210   1.973  1.00 20.00     0.056 C 
HETATM    4  C4  UNL     1     -32.266   4.607   1.046  1.00 20.00     0.078 C 
HETATM    5  C5  UNL     1     -32.477   9.398   1.027  1.00 20.00     0.041 C 
HETATM    6  C6  UNL     1     -31.106   8.507   2.920  1.00 20.00     0.041 C 
HETATM    7  N7  UNL     1     -31.917   7.031   1.145  1.00 20.00    -0.277 NA
HETATM    8  S8  UNL     1     -33.536   6.129   2.992  1.00 20.00    -0.113 SA
ENDROOT
TORSDOF 0
ENDMDL
MODEL 8
REMARK VINA RESULT:       1.6      1.467      2.110
REMARK  0 active torsions:
REMARK  status: ('A' for Active; 'I' for Inactive)
ROOT
HETATM    1  C1  UNL     1     -34.014   7.102   3.447  1.00 20.00     0.062 C 
HETATM    2  C2  UNL     1     -32.110   8.723   3.335  1.00 20.00     0.113 C 
HETATM    3  C3  UNL     1     -32.406   7.923   2.058  1.00 20.00     0.056 C 
HETATM    4  C4  UNL     1     -35.247   6.413   3.925  1.00 20.00     0.078 C 
HETATM    5  C5  UNL     1     -32.498   8.863   0.852  1.00 20.00     0.041 C 
HETATM    6  C6  UNL     1     -31.334   6.856   1.788  1.00 20.00     0.041 C 
HETATM    7  N7  UNL     1     -33.716   7.240   2.198  1.00 20.00    -0.277 NA
HETATM    8  S8  UNL     1     -32.942   7.789   4.636  1.00 20.00    -0.113 SA
ENDROOT
TORSDOF 0
ENDMDL
MODEL 9
REMARK VINA RESULT:       1.7      1.997      3.061
REMARK  0 active torsions:
REMARK  status: ('A' for Active; 'I' for Inactive)
ROOT
HETATM    1  C1  UNL     1     -33.072   5.984   2.370  1.00 20.00     0.062 C 
HETATM    2  C2  UNL     1     -34.921   6.374   4.013  1.00 20.00     0.113 C 
HETATM    3  C3  UNL     1     -33.993   7.565   3.729  1.00 20.00     0.056 C 
HETATM    4  C4  UNL     1     -32.263   5.353   1.288  1.00 20.00     0.078 C 
HETATM    5  C5  UNL     1     -34.817   8.815   3.408  1.00 20.00     0.041 C 
HETATM    6  C6  UNL     1     -33.061   7.862   4.913  1.00 20.00     0.041 C 
HETATM    7  N7  UNL     1     -33.153   7.261   2.543  1.00 20.00    -0.277 NA
HETATM    8  S8  UNL     1     -33.985   4.945   3.428  1.00 20.00    -0.113 SA
ENDROOT
TORSDOF 0
ENDMDL
