MODEL 1
REMARK VINA RESULT:      -2.3      0.000      0.000
REMARK  2 active torsions:
REMARK  status: ('A' for Active; 'I' for Inactive)
REMARK    1  A    between atoms: C3_3  and  C7_7 
REMARK    2  A    between atoms: C7_7  and  C8_8 
ROOT
HETATM    1  C1  UNL     1     -34.678   6.558   3.870  1.00 20.00     0.088 C 
HETATM    2  C2  UNL     1     -33.732   7.507   3.396  1.00 20.00     0.096 C 
HETATM    3  C3  UNL     1     -32.875   7.281   2.382  1.00 20.00    -0.073 C 
HETATM    4  C4  UNL     1     -32.883   5.952   1.675  1.00 20.00     0.044 C 
HETATM    5  N9  UNL     1     -35.453   5.788   4.261  1.00 20.00    -0.192 NA
ENDROOT
BRANCH   3   6
HETATM    6  C7  UNL     1     -31.889   8.301   1.844  1.00 20.00     0.038 C 
BRANCH   6   7
HETATM    7  C8  UNL     1     -32.357   9.038   0.573  1.00 20.00    -0.019 C 
HETATM    8  C5  UNL     1     -31.286   9.047  -0.520  1.00 20.00     0.010 C 
HETATM    9  C6  UNL     1     -32.749  10.476   0.924  1.00 20.00     0.010 C 
ENDBRANCH   6   7
ENDBRANCH   3   6
TORSDOF 2
ENDMDL
MODEL 2
REMARK VINA RESULT:      -1.2      2.526      4.541
REMARK  2 active torsions:
REMARK  status: ('A' for Active; 'I' for Inactive)
REMARK    1  A    between atoms: C3_3  and  C7_7 
REMARK    2  A    between atoms: C7_7  and  C8_8 
ROOT
HETATM    1  C1  UNL     1     -31.879   8.572   0.836  1.00 20.00     0.088 C 
HETATM    2  C2  UNL     1     -32.549   7.889   1.887  1.00 20.00     0.096 C 
HETATM    3  C3  UNL     1     -32.676   6.550   1.960  1.00 20.00    -0.073 C 
HETATM    4  C4  UNL     1     -32.085   5.680   0.882  1.00 20.00     0.044 C 
HETATM    5  N9  UNL     1     -31.332   9.135  -0.019  1.00 20.00    -0.192 NA
ENDROOT
BRANCH   3   6
HETATM    6  C7  UNL     1     -33.356   5.810   3.097  1.00 20.00     0.038 C 
BRANCH   6   7
HETATM    7  C8  UNL     1     -34.589   6.527   3.684  1.00 20.00    -0.019 C 
HETATM    8  C5  UNL     1     -34.202   7.665   4.630  1.00 20.00     0.010 C 
HETATM    9  C6  UNL     1     -35.471   5.518   4.423  1.00 20.00     0.010 C 
ENDBRANCH   6   7
ENDBRANCH   3   6
TORSDOF 2
ENDMDL
MODEL 3
REMARK VINA RESULT:      -1.2      0.661      1.290
REMARK  2 active torsions:
REMARK  status: ('A' for Active; 'I' for Inactive)
REMARK    1  A    between atoms: C3_3  and  C7_7 
REMARK    2  A    between atoms: C7_7  and  C8_8 
ROOT
HETATM    1  C1  UNL     1     -34.373   6.942   3.624  1.00 20.00     0.088 C 
HETATM    2  C2  UNL     1     -33.332   7.772   3.128  1.00 20.00     0.096 C 
HETATM    3  C3  UNL     1     -32.541   7.453   2.086  1.00 20.00    -0.073 C 
HETATM    4  C4  UNL     1     -32.736   6.143   1.369  1.00 20.00     0.044 C 
HETATM    5  N9  UNL     1     -35.227   6.270   4.032  1.00 20.00    -0.192 NA
ENDROOT
BRANCH   3   6
HETATM    6  C7  UNL     1     -31.451   8.349   1.526  1.00 20.00     0.038 C 
BRANCH   6   7
HETATM    7  C8  UNL     1     -31.957   9.468   0.593  1.00 20.00    -0.019 C 
HETATM    8  C5  UNL     1     -32.955  10.395   1.288  1.00 20.00     0.010 C 
HETATM    9  C6  UNL     1     -32.603   8.852  -0.651  1.00 20.00     0.010 C 
ENDBRANCH   6   7
ENDBRANCH   3   6
TORSDOF 2
ENDMDL
MODEL 4
REMARK VINA RESULT:      -1.1      1.730      2.816
REMARK  2 active torsions:
REMARK  status: ('A' for Active; 'I' for Inactive)
REMARK    1  A    between atoms: C3_3  and  C7_7 
REMARK    2  A    between atoms: C7_7  and  C8_8 
ROOT
HETATM    1  C1  UNL     1     -33.577   3.905   4.129  1.00 20.00     0.088 C 
HETATM    2  C2  UNL     1     -33.216   5.129   3.504  1.00 20.00     0.096 C 
HETATM    3  C3  UNL     1     -34.006   6.219   3.461  1.00 20.00    -0.073 C 
HETATM    4  C4  UNL     1     -35.368   6.184   4.102  1.00 20.00     0.044 C 
HETATM    5  N9  UNL     1     -33.865   2.903   4.639  1.00 20.00    -0.192 NA
ENDROOT
BRANCH   3   6
HETATM    6  C7  UNL     1     -33.615   7.542   2.829  1.00 20.00     0.038 C 
BRANCH   6   7
HETATM    7  C8  UNL     1     -32.313   7.500   2.004  1.00 20.00    -0.019 C 
HETATM    8  C5  UNL     1     -32.117   8.764   1.165  1.00 20.00     0.010 C 
HETATM    9  C6  UNL     1     -32.318   6.270   1.092  1.00 20.00     0.010 C 
ENDBRANCH   6   7
ENDBRANCH   3   6
TORSDOF 2
ENDMDL
MODEL 5
REMARK VINA RESULT:      -1.1      2.616      4.650
REMARK  2 active torsions:
REMARK  status: ('A' for Active; 'I' for Inactive)
REMARK    1  A    between atoms: C3_3  and  C7_7 
REMARK    2  A    between atoms: C7_7  and  C8_8 
ROOT
HETATM    1  C1  UNL     1     -32.465   9.653   0.299  1.00 20.00     0.088 C 
HETATM    2  C2  UNL     1     -32.808   8.329   0.685  1.00 20.00     0.096 C 
HETATM    3  C3  UNL     1     -32.340   7.717   1.789  1.00 20.00    -0.073 C 
HETATM    4  C4  UNL     1     -31.390   8.444   2.705  1.00 20.00     0.044 C 
HETATM    5  N9  UNL     1     -32.190  10.734  -0.021  1.00 20.00    -0.192 NA
ENDROOT
BRANCH   3   6
HETATM    6  C7  UNL     1     -32.730   6.318   2.230  1.00 20.00     0.038 C 
BRANCH   6   7
HETATM    7  C8  UNL     1     -34.049   6.240   3.025  1.00 20.00    -0.019 C 
HETATM    8  C5  UNL     1     -34.174   7.365   4.053  1.00 20.00     0.010 C 
HETATM    9  C6  UNL     1     -34.149   4.883   3.728  1.00 20.00     0.010 C 
ENDBRANCH   6   7
ENDBRANCH   3   6
TORSDOF 2
ENDMDL
MODEL 6
REMARK VINA RESULT:      -1.0      2.614      5.053
REMARK  2 active torsions:
REMARK  status: ('A' for Active; 'I' for Inactive)
REMARK    1  A    between atoms: C3_3  and  C7_7 
REMARK    2  A    between atoms: C7_7  and  C8_8 
ROOT
HETATM    1  C1  UNL     1     -32.249   8.295   1.258  1.00 20.00     0.088 C 
HETATM    2  C2  UNL     1     -32.512   6.921   1.504  1.00 20.00     0.096 C 
HETATM    3  C3  UNL     1     -33.234   6.462   2.543  1.00 20.00    -0.073 C 
HETATM    4  C4  UNL     1     -33.821   7.432   3.535  1.00 20.00     0.044 C 
HETATM    5  N9  UNL     1     -32.031   9.416   1.051  1.00 20.00    -0.192 NA
ENDROOT
BRANCH   3   6
HETATM    6  C7  UNL     1     -33.553   5.000   2.793  1.00 20.00     0.038 C 
BRANCH   6   7
HETATM    7  C8  UNL     1     -33.861   4.651   4.263  1.00 20.00    -0.019 C 
HETATM    8  C5  UNL     1     -33.493   3.207   4.606  1.00 20.00     0.010 C 
HETATM    9  C6  UNL     1     -35.346   4.889   4.552  1.00 20.00     0.010 C 
ENDBRANCH   6   7
ENDBRANCH   3   6
TORSDOF 2
ENDMDL
MODEL 7
REMARK VINA RESULT:      -0.9      1.174      1.908
REMARK  2 active torsions:
REMARK  status: ('A' for Active; 'I' for Inactive)
REMARK    1  A    between atoms: C3_3  and  C7_7 
REMARK    2  A    between atoms: C7_7  and  C8_8 
ROOT
HETATM    1  C1  UNL     1     -34.842   5.643   4.022  1.00 20.00     0.088 C 
HETATM    2  C2  UNL     1     -34.032   6.515   3.246  1.00 20.00     0.096 C 
HETATM    3  C3  UNL     1     -33.471   7.646   3.716  1.00 20.00    -0.073 C 
HETATM    4  C4  UNL     1     -33.688   8.052   5.150  1.00 20.00     0.044 C 
HETATM    5  N9  UNL     1     -35.503   4.926   4.651  1.00 20.00    -0.192 NA
ENDROOT
BRANCH   3   6
HETATM    6  C7  UNL     1     -32.573   8.563   2.907  1.00 20.00     0.038 C 
BRANCH   6   7
HETATM    7  C8  UNL     1     -32.472   8.206   1.410  1.00 20.00    -0.019 C 
HETATM    8  C5  UNL     1     -31.340   7.216   1.126  1.00 20.00     0.010 C 
HETATM    9  C6  UNL     1     -32.264   9.480   0.587  1.00 20.00     0.010 C 
ENDBRANCH   6   7
ENDBRANCH   3   6
TORSDOF 2
ENDMDL
MODEL 8
REMARK VINA RESULT:      -0.9      1.448      1.989
REMARK  2 active torsions:
REMARK  status: ('A' for Active; 'I' for Inactive)
REMARK    1  A    between atoms: C3_3  and  C7_7 
REMARK    2  A    between atoms: C7_7  and  C8_8 
ROOT
HETATM    1  C1  UNL     1     -33.871   4.486   3.843  1.00 20.00     0.088 C 
HETATM    2  C2  UNL     1     -33.932   5.763   3.223  1.00 20.00     0.096 C 
HETATM    3  C3  UNL     1     -33.216   6.112   2.138  1.00 20.00    -0.073 C 
HETATM    4  C4  UNL     1     -32.277   5.118   1.506  1.00 20.00     0.044 C 
HETATM    5  N9  UNL     1     -33.827   3.444   4.354  1.00 20.00    -0.192 NA
ENDROOT
BRANCH   3   6
HETATM    6  C7  UNL     1     -33.302   7.460   1.446  1.00 20.00     0.038 C 
BRANCH   6   7
HETATM    7  C8  UNL     1     -31.970   8.235   1.380  1.00 20.00    -0.019 C 
HETATM    8  C5  UNL     1     -31.432   8.581   2.770  1.00 20.00     0.010 C 
HETATM    9  C6  UNL     1     -32.156   9.516   0.563  1.00 20.00     0.010 C 
ENDBRANCH   6   7
ENDBRANCH   3   6
TORSDOF 2
ENDMDL
MODEL 9
REMARK VINA RESULT:      -0.4      2.363      3.521
REMARK  2 active torsions:
REMARK  status: ('A' for Active; 'I' for Inactive)
REMARK    1  A    between atoms: C3_3  and  C7_7 
REMARK    2  A    between atoms: C7_7  and  C8_8 
ROOT
HETATM    1  C1  UNL     1     -33.630   3.259   4.492  1.00 20.00     0.088 C 
HETATM    2  C2  UNL     1     -34.253   4.535   4.492  1.00 20.00     0.096 C 
HETATM    3  C3  UNL     1     -34.095   5.455   3.521  1.00 20.00    -0.073 C 
HETATM    4  C4  UNL     1     -33.209   5.156   2.341  1.00 20.00     0.044 C 
HETATM    5  N9  UNL     1     -33.124   2.214   4.497  1.00 20.00    -0.192 NA
ENDROOT
BRANCH   3   6
HETATM    6  C7  UNL     1     -34.786   6.806   3.493  1.00 20.00     0.038 C 
BRANCH   6   7
HETATM    7  C8  UNL     1     -33.845   8.013   3.678  1.00 20.00    -0.019 C 
HETATM    8  C5  UNL     1     -32.682   7.999   2.684  1.00 20.00     0.010 C 
HETATM    9  C6  UNL     1     -33.302   8.031   5.109  1.00 20.00     0.010 C 
ENDBRANCH   6   7
ENDBRANCH   3   6
TORSDOF 2
ENDMDL
