MODEL 1
REMARK VINA RESULT:      -1.1      0.000      0.000
REMARK  1 active torsions:
REMARK  status: ('A' for Active; 'I' for Inactive)
REMARK    1  A    between atoms: C3_3  and  C5_5 
ROOT
HETATM    1  C1  UNL     1     -35.574   6.483   3.496  1.00 20.00     0.179 C 
HETATM    2  C2  UNL     1     -34.091   5.237   4.208  1.00 20.00     0.179 C 
HETATM    3  C3  UNL     1     -34.039   6.601   3.493  1.00 20.00     0.011 C 
HETATM    4  C4  UNL     1     -33.504   7.733   4.363  1.00 20.00     0.020 C 
HETATM    5  O6  UNL     1     -35.524   5.343   4.387  1.00 20.00    -0.389 OA
ENDROOT
BRANCH   3   6
HETATM    6  C5  UNL     1     -33.398   6.574   2.114  1.00 20.00     0.128 C 
HETATM    7 CL7  UNL     1     -32.165   7.844   1.985  1.00 20.00    -0.130 Cl
ENDBRANCH   3   6
TORSDOF 1
ENDMDL
MODEL 2
REMARK VINA RESULT:      -0.7      2.341      3.023
REMARK  1 active torsions:
REMARK  status: ('A' for Active; 'I' for Inactive)
REMARK    1  A    between atoms: C3_3  and  C5_5 
ROOT
HETATM    1  C1  UNL     1     -34.114   7.484   4.396  1.00 20.00     0.179 C 
HETATM    2  C2  UNL     1     -33.674   6.294   2.768  1.00 20.00     0.179 C 
HETATM    3  C3  UNL     1     -34.879   6.327   3.727  1.00 20.00     0.011 C 
HETATM    4  C4  UNL     1     -36.185   6.752   3.063  1.00 20.00     0.020 C 
HETATM    5  O6  UNL     1     -33.165   7.539   3.303  1.00 20.00    -0.389 OA
ENDROOT
BRANCH   3   6
HETATM    6  C5  UNL     1     -35.043   5.085   4.591  1.00 20.00     0.128 C 
HETATM    7 CL7  UNL     1     -33.859   3.850   4.121  1.00 20.00    -0.130 Cl
ENDBRANCH   3   6
TORSDOF 1
ENDMDL
MODEL 3
REMARK VINA RESULT:      -0.7      3.060      3.835
REMARK  1 active torsions:
REMARK  status: ('A' for Active; 'I' for Inactive)
REMARK    1  A    between atoms: C3_3  and  C5_5 
ROOT
HETATM    1  C1  UNL     1     -33.036   8.466   1.165  1.00 20.00     0.179 C 
HETATM    2  C2  UNL     1     -31.288   7.908   2.110  1.00 20.00     0.179 C 
HETATM    3  C3  UNL     1     -32.733   7.386   2.221  1.00 20.00     0.011 C 
HETATM    4  C4  UNL     1     -32.916   5.959   1.715  1.00 20.00     0.020 C 
HETATM    5  O6  UNL     1     -31.624   8.705   0.949  1.00 20.00    -0.389 OA
ENDROOT
BRANCH   3   6
HETATM    6  C5  UNL     1     -33.391   7.613   3.574  1.00 20.00     0.128 C 
HETATM    7 CL7  UNL     1     -34.789   6.537   3.765  1.00 20.00    -0.130 Cl
ENDBRANCH   3   6
TORSDOF 1
ENDMDL
MODEL 4
REMARK VINA RESULT:      -0.6      1.090      1.965
REMARK  1 active torsions:
REMARK  status: ('A' for Active; 'I' for Inactive)
REMARK    1  A    between atoms: C3_3  and  C5_5 
ROOT
HETATM    1  C1  UNL     1     -33.288   7.211   4.133  1.00 20.00     0.179 C 
HETATM    2  C2  UNL     1     -35.131   6.782   3.309  1.00 20.00     0.179 C 
HETATM    3  C3  UNL     1     -33.760   6.088   3.192  1.00 20.00     0.011 C 
HETATM    4  C4  UNL     1     -33.716   4.698   3.817  1.00 20.00     0.020 C 
HETATM    5  O6  UNL     1     -34.651   7.631   4.379  1.00 20.00    -0.389 OA
ENDROOT
BRANCH   3   6
HETATM    6  C5  UNL     1     -33.146   6.119   1.800  1.00 20.00     0.128 C 
HETATM    7 CL7  UNL     1     -32.067   7.518   1.635  1.00 20.00    -0.130 Cl
ENDBRANCH   3   6
TORSDOF 1
ENDMDL
MODEL 5
REMARK VINA RESULT:      -0.4      0.542      1.797
REMARK  1 active torsions:
REMARK  status: ('A' for Active; 'I' for Inactive)
REMARK    1  A    between atoms: C3_3  and  C5_5 
ROOT
HETATM    1  C1  UNL     1     -33.867   5.045   4.259  1.00 20.00     0.179 C 
HETATM    2  C2  UNL     1     -35.438   6.253   3.681  1.00 20.00     0.179 C 
HETATM    3  C3  UNL     1     -33.950   6.233   3.283  1.00 20.00     0.011 C 
HETATM    4  C4  UNL     1     -33.706   5.855   1.826  1.00 20.00     0.020 C 
HETATM    5  O6  UNL     1     -35.310   4.985   4.369  1.00 20.00    -0.389 OA
ENDROOT
BRANCH   3   6
HETATM    6  C5  UNL     1     -33.160   7.463   3.705  1.00 20.00     0.128 C 
HETATM    7 CL7  UNL     1     -32.191   8.067   2.346  1.00 20.00    -0.130 Cl
ENDBRANCH   3   6
TORSDOF 1
ENDMDL
MODEL 6
REMARK VINA RESULT:      -0.3      2.579      3.305
REMARK  1 active torsions:
REMARK  status: ('A' for Active; 'I' for Inactive)
REMARK    1  A    between atoms: C3_3  and  C5_5 
ROOT
HETATM    1  C1  UNL     1     -31.903   5.733   1.946  1.00 20.00     0.179 C 
HETATM    2  C2  UNL     1     -33.691   6.357   1.125  1.00 20.00     0.179 C 
HETATM    3  C3  UNL     1     -32.689   7.052   2.067  1.00 20.00     0.011 C 
HETATM    4  C4  UNL     1     -31.984   8.251   1.442  1.00 20.00     0.020 C 
HETATM    5  O6  UNL     1     -32.763   5.273   0.876  1.00 20.00    -0.389 OA
ENDROOT
BRANCH   3   6
HETATM    6  C5  UNL     1     -33.224   7.352   3.459  1.00 20.00     0.128 C 
HETATM    7 CL7  UNL     1     -34.766   6.512   3.718  1.00 20.00    -0.130 Cl
ENDBRANCH   3   6
TORSDOF 1
ENDMDL
MODEL 7
REMARK VINA RESULT:      -0.1      2.486      3.034
REMARK  1 active torsions:
REMARK  status: ('A' for Active; 'I' for Inactive)
REMARK    1  A    between atoms: C3_3  and  C5_5 
ROOT
HETATM    1  C1  UNL     1     -33.501   7.617   2.353  1.00 20.00     0.179 C 
HETATM    2  C2  UNL     1     -32.046   6.404   1.534  1.00 20.00     0.179 C 
HETATM    3  C3  UNL     1     -32.124   7.929   1.737  1.00 20.00     0.011 C 
HETATM    4  C4  UNL     1     -31.109   8.472   2.736  1.00 20.00     0.020 C 
HETATM    5  O6  UNL     1     -33.222   6.196   2.352  1.00 20.00    -0.389 OA
ENDROOT
BRANCH   3   6
HETATM    6  C5  UNL     1     -32.168   8.742   0.452  1.00 20.00     0.128 C 
HETATM    7 CL7  UNL     1     -32.698  10.401   0.792  1.00 20.00    -0.130 Cl
ENDBRANCH   3   6
TORSDOF 1
ENDMDL
MODEL 8
REMARK VINA RESULT:      -0.1      2.222      2.864
REMARK  1 active torsions:
REMARK  status: ('A' for Active; 'I' for Inactive)
REMARK    1  A    between atoms: C3_3  and  C5_5 
ROOT
HETATM    1  C1  UNL     1     -33.444   6.483   0.679  1.00 20.00     0.179 C 
HETATM    2  C2  UNL     1     -32.009   5.517   1.805  1.00 20.00     0.179 C 
HETATM    3  C3  UNL     1     -32.788   6.827   2.029  1.00 20.00     0.011 C 
HETATM    4  C4  UNL     1     -33.748   6.780   3.213  1.00 20.00     0.020 C 
HETATM    5  O6  UNL     1     -32.859   5.159   0.688  1.00 20.00    -0.389 OA
ENDROOT
BRANCH   3   6
HETATM    6  C5  UNL     1     -31.934   8.087   2.022  1.00 20.00     0.128 C 
HETATM    7 CL7  UNL     1     -32.353   9.105   0.631  1.00 20.00    -0.130 Cl
ENDBRANCH   3   6
TORSDOF 1
ENDMDL
MODEL 9
REMARK VINA RESULT:       0.0      2.318      2.885
REMARK  1 active torsions:
REMARK  status: ('A' for Active; 'I' for Inactive)
REMARK    1  A    between atoms: C3_3  and  C5_5 
ROOT
HETATM    1  C1  UNL     1     -35.454   6.929   3.325  1.00 20.00     0.179 C 
HETATM    2  C2  UNL     1     -33.717   7.115   4.422  1.00 20.00     0.179 C 
HETATM    3  C3  UNL     1     -34.309   5.942   3.617  1.00 20.00     0.011 C 
HETATM    4  C4  UNL     1     -33.491   5.562   2.388  1.00 20.00     0.020 C 
HETATM    5  O6  UNL     1     -34.700   8.031   3.883  1.00 20.00    -0.389 OA
ENDROOT
BRANCH   3   6
HETATM    6  C5  UNL     1     -34.705   4.732   4.450  1.00 20.00     0.128 C 
HETATM    7 CL7  UNL     1     -33.528   3.423   4.230  1.00 20.00    -0.130 Cl
ENDBRANCH   3   6
TORSDOF 1
ENDMDL
