MODEL 1
REMARK VINA RESULT:      -1.7      0.000      0.000
REMARK  6 active torsions:
REMARK  status: ('A' for Active; 'I' for Inactive)
REMARK    1  A    between atoms: C1_1  and  C5_5 
REMARK    2  A    between atoms: C1_1  and  C8_8 
REMARK    3  A    between atoms: C6_6  and  O10_10 
REMARK    4  A    between atoms: C7_7  and  O11_11 
REMARK    5  A    between atoms: C8_8  and  O10_10 
REMARK    6  A    between atoms: C8_8  and  O11_11 
ROOT
HETATM    1  C8  UNL     1     -33.517   5.715   3.207  1.00 20.00     0.329 C 
ENDROOT
BRANCH   1   2
HETATM    2  C1  UNL     1     -34.643   6.576   3.769  1.00 20.00     0.181 C 
HETATM    3  O9  UNL     1     -35.783   6.136   3.911  1.00 20.00    -0.293 OA
BRANCH   2   4
HETATM    4  C5  UNL     1     -34.277   8.009   4.126  1.00 20.00     0.079 C 
HETATM    5  C2  UNL     1     -33.099   8.092   5.080  1.00 20.00     0.013 C 
ENDBRANCH   2   4
ENDBRANCH   1   2
BRANCH   1   6
HETATM    6  O10 UNL     1     -33.983   4.375   3.354  1.00 20.00    -0.355 OA
BRANCH   6   7
HETATM    7  C6  UNL     1     -33.881   3.916   4.696  1.00 20.00     0.167 C 
HETATM    8  C3  UNL     1     -32.985   2.696   4.732  1.00 20.00     0.033 C 
ENDBRANCH   6   7
ENDBRANCH   1   6
BRANCH   1   9
HETATM    9  O11 UNL     1     -33.292   6.043   1.843  1.00 20.00    -0.355 OA
BRANCH   9  10
HETATM   10  C7  UNL     1     -31.949   6.433   1.588  1.00 20.00     0.167 C 
HETATM   11  C4  UNL     1     -31.871   7.944   1.558  1.00 20.00     0.033 C 
ENDBRANCH   9  10
ENDBRANCH   1   9
TORSDOF 6
ENDMDL
MODEL 2
REMARK VINA RESULT:      -1.5      2.094      3.035
REMARK  6 active torsions:
REMARK  status: ('A' for Active; 'I' for Inactive)
REMARK    1  A    between atoms: C1_1  and  C5_5 
REMARK    2  A    between atoms: C1_1  and  C8_8 
REMARK    3  A    between atoms: C6_6  and  O10_10 
REMARK    4  A    between atoms: C7_7  and  O11_11 
REMARK    5  A    between atoms: C8_8  and  O10_10 
REMARK    6  A    between atoms: C8_8  and  O11_11 
ROOT
HETATM    1  C8  UNL     1     -32.495   7.609   2.627  1.00 20.00     0.329 C 
ENDROOT
BRANCH   1   2
HETATM    2  C1  UNL     1     -33.522   7.549   3.752  1.00 20.00     0.181 C 
HETATM    3  O9  UNL     1     -33.283   8.002   4.871  1.00 20.00    -0.293 OA
BRANCH   2   4
HETATM    4  C5  UNL     1     -34.848   6.883   3.415  1.00 20.00     0.079 C 
HETATM    5  C2  UNL     1     -35.161   5.709   4.325  1.00 20.00     0.013 C 
ENDBRANCH   2   4
ENDBRANCH   1   2
BRANCH   1   6
HETATM    6  O10 UNL     1     -32.951   6.651   1.674  1.00 20.00    -0.355 OA
BRANCH   6   7
HETATM    7  C6  UNL     1     -32.057   5.551   1.551  1.00 20.00     0.167 C 
HETATM    8  C3  UNL     1     -32.557   4.630   0.459  1.00 20.00     0.033 C 
ENDBRANCH   6   7
ENDBRANCH   1   6
BRANCH   1   9
HETATM    9  O11 UNL     1     -32.460   8.918   2.075  1.00 20.00    -0.355 OA
BRANCH   9  10
HETATM   10  C7  UNL     1     -32.030   8.928   0.720  1.00 20.00     0.167 C 
HETATM   11  C4  UNL     1     -32.597  10.151   0.031  1.00 20.00     0.033 C 
ENDBRANCH   9  10
ENDBRANCH   1   9
TORSDOF 6
ENDMDL
MODEL 3
REMARK VINA RESULT:      -1.4      1.993      4.140
REMARK  6 active torsions:
REMARK  status: ('A' for Active; 'I' for Inactive)
REMARK    1  A    between atoms: C1_1  and  C5_5 
REMARK    2  A    between atoms: C1_1  and  C8_8 
REMARK    3  A    between atoms: C6_6  and  O10_10 
REMARK    4  A    between atoms: C7_7  and  O11_11 
REMARK    5  A    between atoms: C8_8  and  O10_10 
REMARK    6  A    between atoms: C8_8  and  O11_11 
ROOT
HETATM    1  C8  UNL     1     -33.121   7.391   2.182  1.00 20.00     0.329 C 
ENDROOT
BRANCH   1   2
HETATM    2  C1  UNL     1     -33.697   7.370   3.594  1.00 20.00     0.181 C 
HETATM    3  O9  UNL     1     -33.118   7.909   4.536  1.00 20.00    -0.293 OA
BRANCH   2   4
HETATM    4  C5  UNL     1     -35.016   6.630   3.769  1.00 20.00     0.079 C 
HETATM    5  C2  UNL     1     -34.825   5.198   4.236  1.00 20.00     0.013 C 
ENDBRANCH   2   4
ENDBRANCH   1   2
BRANCH   1   6
HETATM    6  O10 UNL     1     -32.404   8.622   2.107  1.00 20.00    -0.355 OA
BRANCH   6   7
HETATM    7  C6  UNL     1     -31.927   8.885   0.793  1.00 20.00     0.167 C 
HETATM    8  C3  UNL     1     -32.565  10.159   0.283  1.00 20.00     0.033 C 
ENDBRANCH   6   7
ENDBRANCH   1   6
BRANCH   1   9
HETATM    9  O11 UNL     1     -32.263   6.274   1.994  1.00 20.00    -0.355 OA
BRANCH   9  10
HETATM   10  C7  UNL     1     -32.801   5.318   1.090  1.00 20.00     0.167 C 
HETATM   11  C4  UNL     1     -31.666   4.529   0.474  1.00 20.00     0.033 C 
ENDBRANCH   9  10
ENDBRANCH   1   9
TORSDOF 6
ENDMDL
MODEL 4
REMARK VINA RESULT:      -1.3      0.902      3.613
REMARK  6 active torsions:
REMARK  status: ('A' for Active; 'I' for Inactive)
REMARK    1  A    between atoms: C1_1  and  C5_5 
REMARK    2  A    between atoms: C1_1  and  C8_8 
REMARK    3  A    between atoms: C6_6  and  O10_10 
REMARK    4  A    between atoms: C7_7  and  O11_11 
REMARK    5  A    between atoms: C8_8  and  O10_10 
REMARK    6  A    between atoms: C8_8  and  O11_11 
ROOT
HETATM    1  C8  UNL     1     -33.841   6.031   3.523  1.00 20.00     0.329 C 
ENDROOT
BRANCH   1   2
HETATM    2  C1  UNL     1     -34.382   4.715   4.071  1.00 20.00     0.181 C 
HETATM    3  O9  UNL     1     -35.455   4.658   4.672  1.00 20.00    -0.293 OA
BRANCH   2   4
HETATM    4  C5  UNL     1     -33.513   3.487   3.847  1.00 20.00     0.079 C 
HETATM    5  C2  UNL     1     -32.986   2.899   5.143  1.00 20.00     0.013 C 
ENDBRANCH   2   4
ENDBRANCH   1   2
BRANCH   1   6
HETATM    6  O10 UNL     1     -33.627   5.779   2.136  1.00 20.00    -0.355 OA
BRANCH   6   7
HETATM    7  C6  UNL     1     -32.273   5.994   1.755  1.00 20.00     0.167 C 
HETATM    8  C3  UNL     1     -32.040   7.479   1.578  1.00 20.00     0.033 C 
ENDBRANCH   6   7
ENDBRANCH   1   6
BRANCH   1   9
HETATM    9  O11 UNL     1     -34.794   7.066   3.725  1.00 20.00    -0.355 OA
BRANCH   9  10
HETATM   10  C7  UNL     1     -34.193   8.291   4.124  1.00 20.00     0.167 C 
HETATM   11  C4  UNL     1     -33.080   7.997   5.108  1.00 20.00     0.033 C 
ENDBRANCH   9  10
ENDBRANCH   1   9
TORSDOF 6
ENDMDL
MODEL 5
REMARK VINA RESULT:      -1.3      0.827      3.845
REMARK  6 active torsions:
REMARK  status: ('A' for Active; 'I' for Inactive)
REMARK    1  A    between atoms: C1_1  and  C5_5 
REMARK    2  A    between atoms: C1_1  and  C8_8 
REMARK    3  A    between atoms: C6_6  and  O10_10 
REMARK    4  A    between atoms: C7_7  and  O11_11 
REMARK    5  A    between atoms: C8_8  and  O10_10 
REMARK    6  A    between atoms: C8_8  and  O11_11 
ROOT
HETATM    1  C8  UNL     1     -33.355   5.819   3.058  1.00 20.00     0.329 C 
ENDROOT
BRANCH   1   2
HETATM    2  C1  UNL     1     -32.697   6.159   1.726  1.00 20.00     0.181 C 
HETATM    3  O9  UNL     1     -32.939   5.519   0.703  1.00 20.00    -0.293 OA
BRANCH   2   4
HETATM    4  C5  UNL     1     -31.713   7.320   1.740  1.00 20.00     0.079 C 
HETATM    5  C2  UNL     1     -32.309   8.598   1.177  1.00 20.00     0.013 C 
ENDBRANCH   2   4
ENDBRANCH   1   2
BRANCH   1   6
HETATM    6  O10 UNL     1     -34.561   6.583   3.066  1.00 20.00    -0.355 OA
BRANCH   6   7
HETATM    7  C6  UNL     1     -34.773   7.235   4.312  1.00 20.00     0.167 C 
HETATM    8  C3  UNL     1     -33.531   8.021   4.676  1.00 20.00     0.033 C 
ENDBRANCH   6   7
ENDBRANCH   1   6
BRANCH   1   9
HETATM    9  O11 UNL     1     -33.621   4.425   3.124  1.00 20.00    -0.355 OA
BRANCH   9  10
HETATM   10  C7  UNL     1     -33.967   3.996   4.434  1.00 20.00     0.167 C 
HETATM   11  C4  UNL     1     -33.102   2.812   4.810  1.00 20.00     0.033 C 
ENDBRANCH   9  10
ENDBRANCH   1   9
TORSDOF 6
ENDMDL
MODEL 6
REMARK VINA RESULT:      -1.3      2.123      4.047
REMARK  6 active torsions:
REMARK  status: ('A' for Active; 'I' for Inactive)
REMARK    1  A    between atoms: C1_1  and  C5_5 
REMARK    2  A    between atoms: C1_1  and  C8_8 
REMARK    3  A    between atoms: C6_6  and  O10_10 
REMARK    4  A    between atoms: C7_7  and  O11_11 
REMARK    5  A    between atoms: C8_8  and  O10_10 
REMARK    6  A    between atoms: C8_8  and  O11_11 
ROOT
HETATM    1  C8  UNL     1     -33.255   7.505   2.112  1.00 20.00     0.329 C 
ENDROOT
BRANCH   1   2
HETATM    2  C1  UNL     1     -31.990   8.285   1.773  1.00 20.00     0.181 C 
HETATM    3  O9  UNL     1     -31.092   8.449   2.597  1.00 20.00    -0.293 OA
BRANCH   2   4
HETATM    4  C5  UNL     1     -31.913   8.859   0.366  1.00 20.00     0.079 C 
HETATM    5  C2  UNL     1     -32.582  10.217   0.251  1.00 20.00     0.013 C 
ENDBRANCH   2   4
ENDBRANCH   1   2
BRANCH   1   6
HETATM    6  O10 UNL     1     -33.220   6.371   1.247  1.00 20.00    -0.355 OA
BRANCH   6   7
HETATM    7  C6  UNL     1     -32.368   5.346   1.743  1.00 20.00     0.167 C 
HETATM    8  C3  UNL     1     -31.665   4.683   0.578  1.00 20.00     0.033 C 
ENDBRANCH   6   7
ENDBRANCH   1   6
BRANCH   1   9
HETATM    9  O11 UNL     1     -33.233   7.119   3.480  1.00 20.00    -0.355 OA
BRANCH   9  10
HETATM   10  C7  UNL     1     -34.469   7.367   4.137  1.00 20.00     0.167 C 
HETATM   11  C4  UNL     1     -35.326   6.122   4.062  1.00 20.00     0.033 C 
ENDBRANCH   9  10
ENDBRANCH   1   9
TORSDOF 6
ENDMDL
MODEL 7
REMARK VINA RESULT:      -1.1      1.204      3.030
REMARK  6 active torsions:
REMARK  status: ('A' for Active; 'I' for Inactive)
REMARK    1  A    between atoms: C1_1  and  C5_5 
REMARK    2  A    between atoms: C1_1  and  C8_8 
REMARK    3  A    between atoms: C6_6  and  O10_10 
REMARK    4  A    between atoms: C7_7  and  O11_11 
REMARK    5  A    between atoms: C8_8  and  O10_10 
REMARK    6  A    between atoms: C8_8  and  O11_11 
ROOT
HETATM    1  C8  UNL     1     -33.504   5.845   2.855  1.00 20.00     0.329 C 
ENDROOT
BRANCH   1   2
HETATM    2  C1  UNL     1     -32.705   6.173   1.599  1.00 20.00     0.181 C 
HETATM    3  O9  UNL     1     -32.801   5.496   0.577  1.00 20.00    -0.293 OA
BRANCH   2   4
HETATM    4  C5  UNL     1     -31.773   7.373   1.691  1.00 20.00     0.079 C 
HETATM    5  C2  UNL     1     -32.358   8.618   1.047  1.00 20.00     0.013 C 
ENDBRANCH   2   4
ENDBRANCH   1   2
BRANCH   1   6
HETATM    6  O10 UNL     1     -32.970   4.600   3.304  1.00 20.00    -0.355 OA
BRANCH   6   7
HETATM    7  C6  UNL     1     -33.883   3.894   4.134  1.00 20.00     0.167 C 
HETATM    8  C3  UNL     1     -33.133   2.814   4.885  1.00 20.00     0.033 C 
ENDBRANCH   6   7
ENDBRANCH   1   6
BRANCH   1   9
HETATM    9  O11 UNL     1     -33.323   6.869   3.824  1.00 20.00    -0.355 OA
BRANCH   9  10
HETATM   10  C7  UNL     1     -34.547   7.488   4.199  1.00 20.00     0.167 C 
HETATM   11  C4  UNL     1     -35.698   6.602   3.774  1.00 20.00     0.033 C 
ENDBRANCH   9  10
ENDBRANCH   1   9
TORSDOF 6
ENDMDL
MODEL 8
REMARK VINA RESULT:      -1.0      0.583      3.304
REMARK  6 active torsions:
REMARK  status: ('A' for Active; 'I' for Inactive)
REMARK    1  A    between atoms: C1_1  and  C5_5 
REMARK    2  A    between atoms: C1_1  and  C8_8 
REMARK    3  A    between atoms: C6_6  and  O10_10 
REMARK    4  A    between atoms: C7_7  and  O11_11 
REMARK    5  A    between atoms: C8_8  and  O10_10 
REMARK    6  A    between atoms: C8_8  and  O11_11 
ROOT
HETATM    1  C8  UNL     1     -34.108   5.511   2.817  1.00 20.00     0.329 C 
ENDROOT
BRANCH   1   2
HETATM    2  C1  UNL     1     -34.790   6.402   3.849  1.00 20.00     0.181 C 
HETATM    3  O9  UNL     1     -35.710   5.989   4.552  1.00 20.00    -0.293 OA
BRANCH   2   4
HETATM    4  C5  UNL     1     -34.276   7.832   3.945  1.00 20.00     0.079 C 
HETATM    5  C2  UNL     1     -33.273   8.019   5.068  1.00 20.00     0.013 C 
ENDBRANCH   2   4
ENDBRANCH   1   2
BRANCH   1   6
HETATM    6  O10 UNL     1     -33.527   6.422   1.885  1.00 20.00    -0.355 OA
BRANCH   6   7
HETATM    7  C6  UNL     1     -32.122   6.237   1.760  1.00 20.00     0.167 C 
HETATM    8  C3  UNL     1     -31.458   7.589   1.608  1.00 20.00     0.033 C 
ENDBRANCH   6   7
ENDBRANCH   1   6
BRANCH   1   9
HETATM    9  O11 UNL     1     -33.119   4.709   3.448  1.00 20.00    -0.355 OA
BRANCH   9  10
HETATM   10  C7  UNL     1     -33.643   3.483   3.941  1.00 20.00     0.167 C 
HETATM   11  C4  UNL     1     -32.841   3.055   5.151  1.00 20.00     0.033 C 
ENDBRANCH   9  10
ENDBRANCH   1   9
TORSDOF 6
ENDMDL
MODEL 9
REMARK VINA RESULT:      -0.9      2.104      3.643
REMARK  6 active torsions:
REMARK  status: ('A' for Active; 'I' for Inactive)
REMARK    1  A    between atoms: C1_1  and  C5_5 
REMARK    2  A    between atoms: C1_1  and  C8_8 
REMARK    3  A    between atoms: C6_6  and  O10_10 
REMARK    4  A    between atoms: C7_7  and  O11_11 
REMARK    5  A    between atoms: C8_8  and  O10_10 
REMARK    6  A    between atoms: C8_8  and  O11_11 
ROOT
HETATM    1  C8  UNL     1     -32.811   7.112   2.471  1.00 20.00     0.329 C 
ENDROOT
BRANCH   1   2
HETATM    2  C1  UNL     1     -31.865   8.233   2.057  1.00 20.00     0.181 C 
HETATM    3  O9  UNL     1     -31.112   8.775   2.866  1.00 20.00    -0.293 OA
BRANCH   2   4
HETATM    4  C5  UNL     1     -31.919   8.652   0.595  1.00 20.00     0.079 C 
HETATM    5  C2  UNL     1     -32.508  10.039   0.406  1.00 20.00     0.013 C 
ENDBRANCH   2   4
ENDBRANCH   1   2
BRANCH   1   6
HETATM    6  O10 UNL     1     -33.947   7.784   3.012  1.00 20.00    -0.355 OA
BRANCH   6   7
HETATM    7  C6  UNL     1     -34.325   7.261   4.280  1.00 20.00     0.167 C 
HETATM    8  C3  UNL     1     -35.319   6.139   4.074  1.00 20.00     0.033 C 
ENDBRANCH   6   7
ENDBRANCH   1   6
BRANCH   1   9
HETATM    9  O11 UNL     1     -33.159   6.330   1.336  1.00 20.00    -0.355 OA
BRANCH   9  10
HETATM   10  C7  UNL     1     -32.736   4.978   1.453  1.00 20.00     0.167 C 
HETATM   11  C4  UNL     1     -31.511   4.769   0.588  1.00 20.00     0.033 C 
ENDBRANCH   9  10
ENDBRANCH   1   9
TORSDOF 6
ENDMDL
