MODEL 1
REMARK VINA RESULT:      -0.5      0.000      0.000
REMARK  1 active torsions:
REMARK  status: ('A' for Active; 'I' for Inactive)
REMARK    1  A    between atoms: C3_3  and  C7_7 
ROOT
HETATM    1  C1  UNL     1     -32.584   7.593   2.200  1.00 20.00    -0.082 C 
HETATM    2  C2  UNL     1     -32.831   6.295   1.916  1.00 20.00    -0.081 C 
HETATM    3  C4  UNL     1     -33.219   8.292   3.384  1.00 20.00     0.035 C 
HETATM    4  C5  UNL     1     -33.802   5.464   2.735  1.00 20.00     0.050 C 
HETATM    5  C6  UNL     1     -33.929   7.360   4.367  1.00 20.00     0.021 C 
HETATM    6  C7  UNL     1     -34.739   6.272   3.654  1.00 20.00     0.013 C 
HETATM    7  C8  UNL     1     -31.687   8.494   1.392  1.00 20.00     0.043 C 
HETATM    8  C9  UNL     1     -32.181   5.521   0.800  1.00 20.00     0.043 C 
HETATM    9  C10 UNL     1     -35.916   6.864   2.863  1.00 20.00     0.023 C 
ENDROOT
BRANCH   6  10
HETATM   10  C3  UNL     1     -35.308   5.356   4.708  1.00 20.00     0.240 C 
HETATM   11  O11 UNL     1     -34.988   4.178   4.824  1.00 20.00    -0.306 OA
ENDBRANCH   6  10
TORSDOF 1
ENDMDL
MODEL 2
REMARK VINA RESULT:       0.3      2.587      4.053
REMARK  1 active torsions:
REMARK  status: ('A' for Active; 'I' for Inactive)
REMARK    1  A    between atoms: C3_3  and  C7_7 
ROOT
HETATM    1  C1  UNL     1     -33.508   5.864   2.940  1.00 20.00    -0.082 C 
HETATM    2  C2  UNL     1     -32.762   5.863   1.814  1.00 20.00    -0.081 C 
HETATM    3  C4  UNL     1     -33.979   7.148   3.591  1.00 20.00     0.035 C 
HETATM    4  C5  UNL     1     -32.301   7.150   1.153  1.00 20.00     0.050 C 
HETATM    5  C6  UNL     1     -33.779   8.403   2.740  1.00 20.00     0.021 C 
HETATM    6  C7  UNL     1     -32.422   8.412   2.028  1.00 20.00     0.013 C 
HETATM    7  C8  UNL     1     -33.942   4.628   3.684  1.00 20.00     0.043 C 
HETATM    8  C9  UNL     1     -32.321   4.626   1.076  1.00 20.00     0.043 C 
HETATM    9  C10 UNL     1     -31.257   8.509   3.026  1.00 20.00     0.023 C 
ENDROOT
BRANCH   6  10
HETATM   10  C3  UNL     1     -32.374   9.634   1.145  1.00 20.00     0.240 C 
HETATM   11  O11 UNL     1     -32.388   9.582  -0.080  1.00 20.00    -0.306 OA
ENDBRANCH   6  10
TORSDOF 1
ENDMDL
MODEL 3
REMARK VINA RESULT:       1.4      2.496      4.355
REMARK  1 active torsions:
REMARK  status: ('A' for Active; 'I' for Inactive)
REMARK    1  A    between atoms: C3_3  and  C7_7 
ROOT
HETATM    1  C1  UNL     1     -33.490   5.035   3.279  1.00 20.00    -0.082 C 
HETATM    2  C2  UNL     1     -34.080   6.235   3.476  1.00 20.00    -0.081 C 
HETATM    3  C4  UNL     1     -32.293   4.868   2.365  1.00 20.00     0.035 C 
HETATM    4  C5  UNL     1     -33.616   7.488   2.754  1.00 20.00     0.050 C 
HETATM    5  C6  UNL     1     -31.653   6.180   1.909  1.00 20.00     0.021 C 
HETATM    6  C7  UNL     1     -32.698   7.239   1.542  1.00 20.00     0.013 C 
HETATM    7  C8  UNL     1     -33.940   3.743   3.909  1.00 20.00     0.043 C 
HETATM    8  C9  UNL     1     -35.224   6.484   4.423  1.00 20.00     0.043 C 
HETATM    9  C10 UNL     1     -33.512   6.830   0.304  1.00 20.00     0.023 C 
ENDROOT
BRANCH   6  10
HETATM   10  C3  UNL     1     -31.963   8.514   1.208  1.00 20.00     0.240 C 
HETATM   11  O11 UNL     1     -32.366   9.330   0.387  1.00 20.00    -0.306 OA
ENDBRANCH   6  10
TORSDOF 1
ENDMDL
MODEL 4
REMARK VINA RESULT:       1.6      1.844      3.647
REMARK  1 active torsions:
REMARK  status: ('A' for Active; 'I' for Inactive)
REMARK    1  A    between atoms: C3_3  and  C7_7 
ROOT
HETATM    1  C1  UNL     1     -33.408   7.491   3.728  1.00 20.00    -0.082 C 
HETATM    2  C2  UNL     1     -34.199   6.423   3.479  1.00 20.00    -0.081 C 
HETATM    3  C4  UNL     1     -32.327   7.932   2.763  1.00 20.00     0.035 C 
HETATM    4  C5  UNL     1     -34.023   5.563   2.240  1.00 20.00     0.050 C 
HETATM    5  C6  UNL     1     -32.382   7.256   1.393  1.00 20.00     0.021 C 
HETATM    6  C7  UNL     1     -32.688   5.758   1.495  1.00 20.00     0.013 C 
HETATM    7  C8  UNL     1     -33.483   8.345   4.966  1.00 20.00     0.043 C 
HETATM    8  C9  UNL     1     -35.336   5.973   4.358  1.00 20.00     0.043 C 
HETATM    9  C10 UNL     1     -31.549   4.991   2.187  1.00 20.00     0.023 C 
ENDROOT
BRANCH   6  10
HETATM   10  C3  UNL     1     -32.820   5.218   0.093  1.00 20.00     0.240 C 
HETATM   11  O11 UNL     1     -33.362   4.151  -0.171  1.00 20.00    -0.306 OA
ENDBRANCH   6  10
TORSDOF 1
ENDMDL
MODEL 5
REMARK VINA RESULT:       2.1      1.358      2.785
REMARK  1 active torsions:
REMARK  status: ('A' for Active; 'I' for Inactive)
REMARK    1  A    between atoms: C3_3  and  C7_7 
ROOT
HETATM    1  C1  UNL     1     -31.904   8.142   1.090  1.00 20.00    -0.082 C 
HETATM    2  C2  UNL     1     -32.825   9.070   1.433  1.00 20.00    -0.081 C 
HETATM    3  C4  UNL     1     -31.914   6.746   1.677  1.00 20.00     0.035 C 
HETATM    4  C5  UNL     1     -33.900   8.793   2.468  1.00 20.00     0.050 C 
HETATM    5  C6  UNL     1     -33.180   6.394   2.461  1.00 20.00     0.021 C 
HETATM    6  C7  UNL     1     -33.655   7.550   3.346  1.00 20.00     0.013 C 
HETATM    7  C8  UNL     1     -30.772   8.371   0.124  1.00 20.00     0.043 C 
HETATM    8  C9  UNL     1     -32.916  10.450   0.837  1.00 20.00     0.043 C 
HETATM    9  C10 UNL     1     -32.653   7.854   4.471  1.00 20.00     0.023 C 
ENDROOT
BRANCH   6  10
HETATM   10  C3  UNL     1     -34.955   7.134   3.988  1.00 20.00     0.240 C 
HETATM   11  O11 UNL     1     -35.324   5.967   4.073  1.00 20.00    -0.306 OA
ENDBRANCH   6  10
TORSDOF 1
ENDMDL
MODEL 6
REMARK VINA RESULT:       2.3      1.001      2.374
REMARK  1 active torsions:
REMARK  status: ('A' for Active; 'I' for Inactive)
REMARK    1  A    between atoms: C3_3  and  C7_7 
ROOT
HETATM    1  C1  UNL     1     -32.251   7.564   1.817  1.00 20.00    -0.082 C 
HETATM    2  C2  UNL     1     -32.469   7.976   3.086  1.00 20.00    -0.081 C 
HETATM    3  C4  UNL     1     -33.114   6.510   1.156  1.00 20.00     0.035 C 
HETATM    4  C5  UNL     1     -33.561   7.372   3.952  1.00 20.00     0.050 C 
HETATM    5  C6  UNL     1     -34.388   6.156   1.924  1.00 20.00     0.021 C 
HETATM    6  C7  UNL     1     -34.145   6.044   3.433  1.00 20.00     0.013 C 
HETATM    7  C8  UNL     1     -31.147   8.070   0.928  1.00 20.00     0.043 C 
HETATM    8  C9  UNL     1     -31.697   9.067   3.780  1.00 20.00     0.043 C 
HETATM    9  C10 UNL     1     -33.223   4.862   3.774  1.00 20.00     0.023 C 
ENDROOT
BRANCH   6  10
HETATM   10  C3  UNL     1     -35.476   5.795   4.097  1.00 20.00     0.240 C 
HETATM   11  O11 UNL     1     -35.715   4.807   4.782  1.00 20.00    -0.306 OA
ENDBRANCH   6  10
TORSDOF 1
ENDMDL
MODEL 7
REMARK VINA RESULT:       2.4      2.251      3.789
REMARK  1 active torsions:
REMARK  status: ('A' for Active; 'I' for Inactive)
REMARK    1  A    between atoms: C3_3  and  C7_7 
ROOT
HETATM    1  C1  UNL     1     -33.603   7.113   3.255  1.00 20.00    -0.082 C 
HETATM    2  C2  UNL     1     -32.671   7.599   2.405  1.00 20.00    -0.081 C 
HETATM    3  C4  UNL     1     -33.875   5.629   3.385  1.00 20.00     0.035 C 
HETATM    4  C5  UNL     1     -31.870   6.694   1.486  1.00 20.00     0.050 C 
HETATM    5  C6  UNL     1     -32.847   4.730   2.696  1.00 20.00     0.021 C 
HETATM    6  C7  UNL     1     -32.432   5.268   1.323  1.00 20.00     0.013 C 
HETATM    7  C8  UNL     1     -34.478   7.957   4.144  1.00 20.00     0.043 C 
HETATM    8  C9  UNL     1     -32.300   9.053   2.277  1.00 20.00     0.043 C 
HETATM    9  C10 UNL     1     -33.602   5.244   0.326  1.00 20.00     0.023 C 
ENDROOT
BRANCH   6  10
HETATM   10  C3  UNL     1     -31.349   4.368   0.784  1.00 20.00     0.240 C 
HETATM   11  O11 UNL     1     -31.373   3.882  -0.341  1.00 20.00    -0.306 OA
ENDBRANCH   6  10
TORSDOF 1
ENDMDL
MODEL 8
REMARK VINA RESULT:       2.5      2.281      4.027
REMARK  1 active torsions:
REMARK  status: ('A' for Active; 'I' for Inactive)
REMARK    1  A    between atoms: C3_3  and  C7_7 
ROOT
HETATM    1  C1  UNL     1     -34.889   5.416   4.201  1.00 20.00    -0.082 C 
HETATM    2  C2  UNL     1     -33.764   4.838   3.723  1.00 20.00    -0.081 C 
HETATM    3  C4  UNL     1     -35.306   6.815   3.798  1.00 20.00     0.035 C 
HETATM    4  C5  UNL     1     -32.817   5.571   2.790  1.00 20.00     0.050 C 
HETATM    5  C6  UNL     1     -34.519   7.401   2.625  1.00 20.00     0.021 C 
HETATM    6  C7  UNL     1     -33.020   7.097   2.721  1.00 20.00     0.013 C 
HETATM    7  C8  UNL     1     -35.836   4.774   5.180  1.00 20.00     0.043 C 
HETATM    8  C9  UNL     1     -33.328   3.428   4.026  1.00 20.00     0.043 C 
HETATM    9  C10 UNL     1     -32.373   7.798   3.927  1.00 20.00     0.023 C 
ENDROOT
BRANCH   6  10
HETATM   10  C3  UNL     1     -32.361   7.628   1.473  1.00 20.00     0.240 C 
HETATM   11  O11 UNL     1     -32.222   8.823   1.239  1.00 20.00    -0.306 OA
ENDBRANCH   6  10
TORSDOF 1
ENDMDL
