MODEL 1
REMARK VINA RESULT:      -0.5      0.000      0.000
REMARK  4 active torsions:
REMARK  status: ('A' for Active; 'I' for Inactive)
REMARK    1  A    between atoms: C2_2  and  C6_6 
REMARK    2  A    between atoms: C2_2  and  C7_7 
REMARK    3  A    between atoms: C6_6  and  C8_8 
REMARK    4  A    between atoms: C7_7  and  O10_10 
ROOT
HETATM    1  C1  UNL     1     -33.766   7.768   4.688  1.00 20.00     0.209 A 
HETATM    2  C2  UNL     1     -34.208   6.654   3.769  1.00 20.00     0.104 A 
HETATM    3  O9  UNL     1     -34.152   8.017   3.327  1.00 20.00    -0.373 OA
ENDROOT
BRANCH   2   4
HETATM    4  C6  UNL     1     -33.162   5.756   3.121  1.00 20.00     0.051 C 
BRANCH   4   5
HETATM    5  C8  UNL     1     -32.727   6.149   1.686  1.00 20.00    -0.049 C 
HETATM    6  C3  UNL     1     -31.730   5.089   1.178  1.00 20.00     0.014 C 
HETATM    7  C4  UNL     1     -32.033   7.521   1.671  1.00 20.00     0.014 C 
HETATM    8  C5  UNL     1     -33.932   6.183   0.731  1.00 20.00     0.014 C 
ENDBRANCH   4   5
ENDBRANCH   2   4
BRANCH   2   9
HETATM    9  C7  UNL     1     -35.596   6.114   3.880  1.00 20.00     0.204 C 
BRANCH   9  10
HETATM   10  O10 UNL     1     -35.576   4.874   4.585  1.00 20.00    -0.398 OA
HETATM   11  H26 UNL     1     -35.206   5.062   5.461  1.00 20.00     0.209 HD
ENDBRANCH   9  10
ENDBRANCH   2   9
TORSDOF 4
ENDMDL
MODEL 2
REMARK VINA RESULT:      -0.2      1.903      3.611
REMARK  4 active torsions:
REMARK  status: ('A' for Active; 'I' for Inactive)
REMARK    1  A    between atoms: C2_2  and  C6_6 
REMARK    2  A    between atoms: C2_2  and  C7_7 
REMARK    3  A    between atoms: C6_6  and  C8_8 
REMARK    4  A    between atoms: C7_7  and  O10_10 
ROOT
HETATM    1  C1  UNL     1     -32.026   8.409   1.260  1.00 20.00     0.209 A 
HETATM    2  C2  UNL     1     -32.539   7.083   1.770  1.00 20.00     0.104 A 
HETATM    3  O9  UNL     1     -31.819   7.988   2.618  1.00 20.00    -0.373 OA
ENDROOT
BRANCH   2   4
HETATM    4  C6  UNL     1     -34.010   6.938   2.136  1.00 20.00     0.051 C 
BRANCH   4   5
HETATM    5  C8  UNL     1     -34.305   6.525   3.601  1.00 20.00    -0.049 C 
HETATM    6  C3  UNL     1     -35.832   6.393   3.766  1.00 20.00     0.014 C 
HETATM    7  C4  UNL     1     -33.796   7.586   4.591  1.00 20.00     0.014 C 
HETATM    8  C5  UNL     1     -33.659   5.170   3.937  1.00 20.00     0.014 C 
ENDBRANCH   4   5
ENDBRANCH   2   4
BRANCH   2   9
HETATM    9  C7  UNL     1     -31.788   5.831   1.452  1.00 20.00     0.204 C 
BRANCH   9  10
HETATM   10  O10 UNL     1     -32.605   4.965   0.665  1.00 20.00    -0.398 OA
HETATM   11  H26 UNL     1     -32.147   4.112   0.629  1.00 20.00     0.209 HD
ENDBRANCH   9  10
ENDBRANCH   2   9
TORSDOF 4
ENDMDL
MODEL 3
REMARK VINA RESULT:      -0.1      1.906      3.609
REMARK  4 active torsions:
REMARK  status: ('A' for Active; 'I' for Inactive)
REMARK    1  A    between atoms: C2_2  and  C6_6 
REMARK    2  A    between atoms: C2_2  and  C7_7 
REMARK    3  A    between atoms: C6_6  and  C8_8 
REMARK    4  A    between atoms: C7_7  and  O10_10 
ROOT
HETATM    1  C1  UNL     1     -31.982   8.410   1.226  1.00 20.00     0.209 A 
HETATM    2  C2  UNL     1     -32.537   7.111   1.760  1.00 20.00     0.104 A 
HETATM    3  O9  UNL     1     -31.759   7.992   2.581  1.00 20.00    -0.373 OA
ENDROOT
BRANCH   2   4
HETATM    4  C6  UNL     1     -34.003   7.029   2.163  1.00 20.00     0.051 C 
BRANCH   4   5
HETATM    5  C8  UNL     1     -34.282   6.522   3.601  1.00 20.00    -0.049 C 
HETATM    6  C3  UNL     1     -33.764   7.582   4.593  1.00 20.00     0.014 C 
HETATM    7  C4  UNL     1     -33.551   5.197   3.875  1.00 20.00     0.014 C 
HETATM    8  C5  UNL     1     -35.789   6.327   3.839  1.00 20.00     0.014 C 
ENDBRANCH   4   5
ENDBRANCH   2   4
BRANCH   2   9
HETATM    9  C7  UNL     1     -31.846   5.826   1.434  1.00 20.00     0.204 C 
BRANCH   9  10
HETATM   10  O10 UNL     1     -32.692   5.017   0.619  1.00 20.00    -0.398 OA
HETATM   11  H26 UNL     1     -33.602   5.292   0.809  1.00 20.00     0.209 HD
ENDBRANCH   9  10
ENDBRANCH   2   9
TORSDOF 4
ENDMDL
MODEL 4
REMARK VINA RESULT:       0.0      0.865      1.935
REMARK  4 active torsions:
REMARK  status: ('A' for Active; 'I' for Inactive)
REMARK    1  A    between atoms: C2_2  and  C6_6 
REMARK    2  A    between atoms: C2_2  and  C7_7 
REMARK    3  A    between atoms: C6_6  and  C8_8 
REMARK    4  A    between atoms: C7_7  and  O10_10 
ROOT
HETATM    1  C1  UNL     1     -35.806   6.503   3.321  1.00 20.00     0.209 A 
HETATM    2  C2  UNL     1     -34.335   6.687   3.611  1.00 20.00     0.104 A 
HETATM    3  O9  UNL     1     -35.221   6.082   4.563  1.00 20.00    -0.373 OA
ENDROOT
BRANCH   2   4
HETATM    4  C6  UNL     1     -33.324   5.719   3.011  1.00 20.00     0.051 C 
BRANCH   4   5
HETATM    5  C8  UNL     1     -32.733   6.125   1.637  1.00 20.00    -0.049 C 
HETATM    6  C3  UNL     1     -31.652   5.094   1.255  1.00 20.00     0.014 C 
HETATM    7  C4  UNL     1     -32.081   7.516   1.701  1.00 20.00     0.014 C 
HETATM    8  C5  UNL     1     -33.815   6.124   0.544  1.00 20.00     0.014 C 
ENDBRANCH   4   5
ENDBRANCH   2   4
BRANCH   2   9
HETATM    9  C7  UNL     1     -33.830   8.030   4.029  1.00 20.00     0.204 C 
BRANCH   9  10
HETATM   10  O10 UNL     1     -32.910   7.884   5.110  1.00 20.00    -0.398 OA
HETATM   11  H26 UNL     1     -33.438   7.673   5.894  1.00 20.00     0.209 HD
ENDBRANCH   9  10
ENDBRANCH   2   9
TORSDOF 4
ENDMDL
MODEL 5
REMARK VINA RESULT:       0.1      1.324      1.831
REMARK  4 active torsions:
REMARK  status: ('A' for Active; 'I' for Inactive)
REMARK    1  A    between atoms: C2_2  and  C6_6 
REMARK    2  A    between atoms: C2_2  and  C7_7 
REMARK    3  A    between atoms: C6_6  and  C8_8 
REMARK    4  A    between atoms: C7_7  and  O10_10 
ROOT
HETATM    1  C1  UNL     1     -34.422   7.265   4.518  1.00 20.00     0.209 A 
HETATM    2  C2  UNL     1     -34.052   6.389   3.345  1.00 20.00     0.104 A 
HETATM    3  O9  UNL     1     -35.413   6.545   3.768  1.00 20.00    -0.373 OA
ENDROOT
BRANCH   2   4
HETATM    4  C6  UNL     1     -33.751   7.030   1.996  1.00 20.00     0.051 C 
BRANCH   4   5
HETATM    5  C8  UNL     1     -32.372   7.726   1.869  1.00 20.00    -0.049 C 
HETATM    6  C3  UNL     1     -31.347   6.678   1.394  1.00 20.00     0.014 C 
HETATM    7  C4  UNL     1     -31.907   8.288   3.223  1.00 20.00     0.014 C 
HETATM    8  C5  UNL     1     -32.417   8.866   0.838  1.00 20.00     0.014 C 
ENDBRANCH   4   5
ENDBRANCH   2   4
BRANCH   2   9
HETATM    9  C7  UNL     1     -33.497   5.024   3.590  1.00 20.00     0.204 C 
BRANCH   9  10
HETATM   10  O10 UNL     1     -34.495   4.199   4.190  1.00 20.00    -0.398 OA
HETATM   11  H26 UNL     1     -34.910   4.732   4.886  1.00 20.00     0.209 HD
ENDBRANCH   9  10
ENDBRANCH   2   9
TORSDOF 4
ENDMDL
MODEL 6
REMARK VINA RESULT:       0.1      1.333      2.223
REMARK  4 active torsions:
REMARK  status: ('A' for Active; 'I' for Inactive)
REMARK    1  A    between atoms: C2_2  and  C6_6 
REMARK    2  A    between atoms: C2_2  and  C7_7 
REMARK    3  A    between atoms: C6_6  and  C8_8 
REMARK    4  A    between atoms: C7_7  and  O10_10 
ROOT
HETATM    1  C1  UNL     1     -34.426   7.252   4.532  1.00 20.00     0.209 A 
HETATM    2  C2  UNL     1     -34.053   6.402   3.341  1.00 20.00     0.104 A 
HETATM    3  O9  UNL     1     -35.414   6.547   3.766  1.00 20.00    -0.373 OA
ENDROOT
BRANCH   2   4
HETATM    4  C6  UNL     1     -33.752   7.072   2.006  1.00 20.00     0.051 C 
BRANCH   4   5
HETATM    5  C8  UNL     1     -32.349   7.717   1.874  1.00 20.00    -0.049 C 
HETATM    6  C3  UNL     1     -32.440   8.859   0.842  1.00 20.00     0.014 C 
HETATM    7  C4  UNL     1     -31.311   6.695   1.383  1.00 20.00     0.014 C 
HETATM    8  C5  UNL     1     -31.881   8.308   3.214  1.00 20.00     0.014 C 
ENDBRANCH   4   5
ENDBRANCH   2   4
BRANCH   2   9
HETATM    9  C7  UNL     1     -33.496   5.033   3.558  1.00 20.00     0.204 C 
BRANCH   9  10
HETATM   10  O10 UNL     1     -34.478   4.207   4.182  1.00 20.00    -0.398 OA
HETATM   11  H26 UNL     1     -34.577   3.424   3.619  1.00 20.00     0.209 HD
ENDBRANCH   9  10
ENDBRANCH   2   9
TORSDOF 4
ENDMDL
MODEL 7
REMARK VINA RESULT:       0.2      1.327      2.068
REMARK  4 active torsions:
REMARK  status: ('A' for Active; 'I' for Inactive)
REMARK    1  A    between atoms: C2_2  and  C6_6 
REMARK    2  A    between atoms: C2_2  and  C7_7 
REMARK    3  A    between atoms: C6_6  and  C8_8 
REMARK    4  A    between atoms: C7_7  and  O10_10 
ROOT
HETATM    1  C1  UNL     1     -34.422   7.268   4.522  1.00 20.00     0.209 A 
HETATM    2  C2  UNL     1     -34.051   6.398   3.344  1.00 20.00     0.104 A 
HETATM    3  O9  UNL     1     -35.411   6.542   3.777  1.00 20.00    -0.373 OA
ENDROOT
BRANCH   2   4
HETATM    4  C6  UNL     1     -33.764   7.044   1.995  1.00 20.00     0.051 C 
BRANCH   4   5
HETATM    5  C8  UNL     1     -32.370   7.702   1.843  1.00 20.00    -0.049 C 
HETATM    6  C3  UNL     1     -31.950   8.261   3.217  1.00 20.00     0.014 C 
HETATM    7  C4  UNL     1     -32.409   8.862   0.834  1.00 20.00     0.014 C 
HETATM    8  C5  UNL     1     -31.317   6.676   1.392  1.00 20.00     0.014 C 
ENDBRANCH   4   5
ENDBRANCH   2   4
BRANCH   2   9
HETATM    9  C7  UNL     1     -33.484   5.037   3.584  1.00 20.00     0.204 C 
BRANCH   9  10
HETATM   10  O10 UNL     1     -34.478   4.197   4.170  1.00 20.00    -0.398 OA
HETATM   11  H26 UNL     1     -34.010   3.589   4.762  1.00 20.00     0.209 HD
ENDBRANCH   9  10
ENDBRANCH   2   9
TORSDOF 4
ENDMDL
MODEL 8
REMARK VINA RESULT:       0.2      2.071      3.995
REMARK  4 active torsions:
REMARK  status: ('A' for Active; 'I' for Inactive)
REMARK    1  A    between atoms: C2_2  and  C6_6 
REMARK    2  A    between atoms: C2_2  and  C7_7 
REMARK    3  A    between atoms: C6_6  and  C8_8 
REMARK    4  A    between atoms: C7_7  and  O10_10 
ROOT
HETATM    1  C1  UNL     1     -31.704   5.152   1.858  1.00 20.00     0.209 A 
HETATM    2  C2  UNL     1     -32.453   6.459   1.753  1.00 20.00     0.104 A 
HETATM    3  O9  UNL     1     -32.104   5.695   0.591  1.00 20.00    -0.373 OA
ENDROOT
BRANCH   2   4
HETATM    4  C6  UNL     1     -33.948   6.493   2.040  1.00 20.00     0.051 C 
BRANCH   4   5
HETATM    5  C8  UNL     1     -34.354   6.365   3.530  1.00 20.00    -0.049 C 
HETATM    6  C3  UNL     1     -35.885   6.519   3.626  1.00 20.00     0.014 C 
HETATM    7  C4  UNL     1     -33.697   7.463   4.382  1.00 20.00     0.014 C 
HETATM    8  C5  UNL     1     -33.967   4.988   4.095  1.00 20.00     0.014 C 
ENDBRANCH   4   5
ENDBRANCH   2   4
BRANCH   2   9
HETATM    9  C7  UNL     1     -31.705   7.748   1.873  1.00 20.00     0.204 C 
BRANCH   9  10
HETATM   10  O10 UNL     1     -32.336   8.747   1.073  1.00 20.00    -0.398 OA
HETATM   11  H26 UNL     1     -33.008   8.291   0.544  1.00 20.00     0.209 HD
ENDBRANCH   9  10
ENDBRANCH   2   9
TORSDOF 4
ENDMDL
MODEL 9
REMARK VINA RESULT:       0.7      2.511      3.972
REMARK  4 active torsions:
REMARK  status: ('A' for Active; 'I' for Inactive)
REMARK    1  A    between atoms: C2_2  and  C6_6 
REMARK    2  A    between atoms: C2_2  and  C7_7 
REMARK    3  A    between atoms: C6_6  and  C8_8 
REMARK    4  A    between atoms: C7_7  and  O10_10 
ROOT
HETATM    1  C1  UNL     1     -31.240   8.115   2.832  1.00 20.00     0.209 A 
HETATM    2  C2  UNL     1     -32.456   7.932   1.955  1.00 20.00     0.104 A 
HETATM    3  O9  UNL     1     -31.136   7.629   1.485  1.00 20.00    -0.373 OA
ENDROOT
BRANCH   2   4
HETATM    4  C6  UNL     1     -33.338   6.704   2.142  1.00 20.00     0.051 C 
BRANCH   4   5
HETATM    5  C8  UNL     1     -34.213   6.689   3.422  1.00 20.00    -0.049 C 
HETATM    6  C3  UNL     1     -34.109   5.288   4.058  1.00 20.00     0.014 C 
HETATM    7  C4  UNL     1     -35.688   6.968   3.091  1.00 20.00     0.014 C 
HETATM    8  C5  UNL     1     -33.719   7.726   4.445  1.00 20.00     0.014 C 
ENDBRANCH   4   5
ENDBRANCH   2   4
BRANCH   2   9
HETATM    9  C7  UNL     1     -33.073   9.121   1.293  1.00 20.00     0.204 C 
BRANCH   9  10
HETATM   10  O10 UNL     1     -32.290   9.504   0.164  1.00 20.00    -0.398 OA
HETATM   11  H26 UNL     1     -31.444   9.826   0.512  1.00 20.00     0.209 HD
ENDBRANCH   9  10
ENDBRANCH   2   9
TORSDOF 4
ENDMDL
