MODEL 1
REMARK VINA RESULT:      -0.7      0.000      0.000
REMARK  0 active torsions:
REMARK  status: ('A' for Active; 'I' for Inactive)
ROOT
HETATM    1  C1  UNL     1     -34.186   5.008   4.016  1.00 20.00     0.084 C 
HETATM    2  C2  UNL     1     -33.795   7.377   4.575  1.00 20.00     0.048 C 
HETATM    3  C3  UNL     1     -35.777   6.700   3.182  1.00 20.00     0.048 C 
HETATM    4  C4  UNL     1     -34.321   6.392   3.532  1.00 20.00     0.118 C 
HETATM    5  N5  UNL     1     -34.083   3.918   4.400  1.00 20.00    -0.195 NA
HETATM    6 CL6  UNL     1     -33.326   6.531   2.048  1.00 20.00    -0.104 Cl
ENDROOT
TORSDOF 0
ENDMDL
MODEL 2
REMARK VINA RESULT:      -0.6      1.354      1.856
REMARK  0 active torsions:
REMARK  status: ('A' for Active; 'I' for Inactive)
ROOT
HETATM    1  C1  UNL     1     -34.247   5.055   4.021  1.00 20.00     0.084 C 
HETATM    2  C2  UNL     1     -33.488   6.600   2.255  1.00 20.00     0.048 C 
HETATM    3  C3  UNL     1     -33.915   7.432   4.590  1.00 20.00     0.048 C 
HETATM    4  C4  UNL     1     -34.339   6.434   3.513  1.00 20.00     0.118 C 
HETATM    5  N5  UNL     1     -34.169   3.969   4.422  1.00 20.00    -0.195 NA
HETATM    6 CL6  UNL     1     -36.057   6.727   3.094  1.00 20.00    -0.104 Cl
ENDROOT
TORSDOF 0
ENDMDL
MODEL 3
REMARK VINA RESULT:      -0.6      2.115      2.637
REMARK  0 active torsions:
REMARK  status: ('A' for Active; 'I' for Inactive)
ROOT
HETATM    1  C1  UNL     1     -33.520   6.238   2.474  1.00 20.00     0.084 C 
HETATM    2  C2  UNL     1     -35.842   6.711   3.154  1.00 20.00     0.048 C 
HETATM    3  C3  UNL     1     -33.911   7.452   4.586  1.00 20.00     0.048 C 
HETATM    4  C4  UNL     1     -34.427   6.381   3.625  1.00 20.00     0.118 C 
HETATM    5  N5  UNL     1     -32.806   6.131   1.566  1.00 20.00    -0.195 NA
HETATM    6 CL6  UNL     1     -34.452   4.803   4.475  1.00 20.00    -0.104 Cl
ENDROOT
TORSDOF 0
ENDMDL
MODEL 4
REMARK VINA RESULT:      -0.6      2.067      2.355
REMARK  0 active torsions:
REMARK  status: ('A' for Active; 'I' for Inactive)
ROOT
HETATM    1  C1  UNL     1     -33.537   6.227   2.506  1.00 20.00     0.084 C 
HETATM    2  C2  UNL     1     -34.549   5.024   4.405  1.00 20.00     0.048 C 
HETATM    3  C3  UNL     1     -35.856   6.770   3.152  1.00 20.00     0.048 C 
HETATM    4  C4  UNL     1     -34.471   6.343   3.639  1.00 20.00     0.118 C 
HETATM    5  N5  UNL     1     -32.804   6.132   1.612  1.00 20.00    -0.195 NA
HETATM    6 CL6  UNL     1     -33.823   7.610   4.728  1.00 20.00    -0.104 Cl
ENDROOT
TORSDOF 0
ENDMDL
MODEL 5
REMARK VINA RESULT:      -0.6      2.049      2.334
REMARK  0 active torsions:
REMARK  status: ('A' for Active; 'I' for Inactive)
ROOT
HETATM    1  C1  UNL     1     -33.572   6.210   2.484  1.00 20.00     0.084 C 
HETATM    2  C2  UNL     1     -33.983   7.480   4.557  1.00 20.00     0.048 C 
HETATM    3  C3  UNL     1     -34.589   5.043   4.405  1.00 20.00     0.048 C 
HETATM    4  C4  UNL     1     -34.472   6.361   3.639  1.00 20.00     0.118 C 
HETATM    5  N5  UNL     1     -32.859   6.090   1.576  1.00 20.00    -0.195 NA
HETATM    6 CL6  UNL     1     -36.086   6.803   2.995  1.00 20.00    -0.104 Cl
ENDROOT
TORSDOF 0
ENDMDL
MODEL 6
REMARK VINA RESULT:      -0.5      1.360      1.876
REMARK  0 active torsions:
REMARK  status: ('A' for Active; 'I' for Inactive)
ROOT
HETATM    1  C1  UNL     1     -34.191   5.034   4.030  1.00 20.00     0.084 C 
HETATM    2  C2  UNL     1     -35.766   6.746   3.214  1.00 20.00     0.048 C 
HETATM    3  C3  UNL     1     -33.440   6.590   2.269  1.00 20.00     0.048 C 
HETATM    4  C4  UNL     1     -34.307   6.408   3.515  1.00 20.00     0.118 C 
HETATM    5  N5  UNL     1     -34.101   3.949   4.432  1.00 20.00    -0.195 NA
HETATM    6 CL6  UNL     1     -33.710   7.505   4.801  1.00 20.00    -0.104 Cl
ENDROOT
TORSDOF 0
ENDMDL
MODEL 7
REMARK VINA RESULT:      -0.3      4.218      4.555
REMARK  0 active torsions:
REMARK  status: ('A' for Active; 'I' for Inactive)
ROOT
HETATM    1  C1  UNL     1     -32.434   8.978   0.951  1.00 20.00     0.084 C 
HETATM    2  C2  UNL     1     -31.017   8.334   2.863  1.00 20.00     0.048 C 
HETATM    3  C3  UNL     1     -31.991   6.583   1.343  1.00 20.00     0.048 C 
HETATM    4  C4  UNL     1     -32.207   7.953   1.984  1.00 20.00     0.118 C 
HETATM    5  N5  UNL     1     -32.609   9.784   0.135  1.00 20.00    -0.195 NA
HETATM    6 CL6  UNL     1     -33.682   7.893   3.000  1.00 20.00    -0.104 Cl
ENDROOT
TORSDOF 0
ENDMDL
MODEL 8
REMARK VINA RESULT:      -0.2      4.171      4.526
REMARK  0 active torsions:
REMARK  status: ('A' for Active; 'I' for Inactive)
ROOT
HETATM    1  C1  UNL     1     -32.411   8.950   0.966  1.00 20.00     0.084 C 
HETATM    2  C2  UNL     1     -31.926   6.568   1.378  1.00 20.00     0.048 C 
HETATM    3  C3  UNL     1     -33.520   7.826   2.862  1.00 20.00     0.048 C 
HETATM    4  C4  UNL     1     -32.256   7.920   2.008  1.00 20.00     0.118 C 
HETATM    5  N5  UNL     1     -32.536   9.759   0.145  1.00 20.00    -0.195 NA
HETATM    6 CL6  UNL     1     -30.888   8.425   3.050  1.00 20.00    -0.104 Cl
ENDROOT
TORSDOF 0
ENDMDL
MODEL 9
REMARK VINA RESULT:      -0.2      2.974      3.235
REMARK  0 active torsions:
REMARK  status: ('A' for Active; 'I' for Inactive)
ROOT
HETATM    1  C1  UNL     1     -33.331   7.616   3.079  1.00 20.00     0.084 C 
HETATM    2  C2  UNL     1     -30.986   8.321   2.791  1.00 20.00     0.048 C 
HETATM    3  C3  UNL     1     -32.697   8.805   1.012  1.00 20.00     0.048 C 
HETATM    4  C4  UNL     1     -32.253   7.825   2.097  1.00 20.00     0.118 C 
HETATM    5  N5  UNL     1     -34.181   7.457   3.853  1.00 20.00    -0.195 NA
HETATM    6 CL6  UNL     1     -31.915   6.235   1.340  1.00 20.00    -0.104 Cl
ENDROOT
TORSDOF 0
ENDMDL
