MODEL 1
REMARK VINA RESULT:      -0.6      0.000      0.000
REMARK  1 active torsions:
REMARK  status: ('A' for Active; 'I' for Inactive)
REMARK    1  A    between atoms: C6_6  and  C10_10 
ROOT
HETATM    1  C1  UNL     1     -33.643   6.322   2.543  1.00 20.00     0.052 C 
HETATM    2  C2  UNL     1     -33.442   7.378   3.345  1.00 20.00    -0.080 C 
HETATM    3  C3  UNL     1     -32.720   6.043   1.415  1.00 20.00     0.149 C 
HETATM    4  C4  UNL     1     -32.322   8.366   3.135  1.00 20.00     0.039 C 
HETATM    5  C5  UNL     1     -31.501   6.923   1.241  1.00 20.00     0.088 C 
HETATM    6  C6  UNL     1     -31.751   8.355   1.710  1.00 20.00     0.000 C 
HETATM    7  C7  UNL     1     -34.331   7.639   4.527  1.00 20.00     0.043 C 
HETATM    8  O11 UNL     1     -32.926   5.075   0.686  1.00 20.00    -0.293 OA
ENDROOT
BRANCH   6   9
HETATM    9  C10 UNL     1     -32.658   9.113   0.733  1.00 20.00    -0.018 C 
HETATM   10  C8  UNL     1     -32.800  10.574   1.154  1.00 20.00     0.010 C 
HETATM   11  C9  UNL     1     -32.113   9.015  -0.691  1.00 20.00     0.010 C 
ENDBRANCH   6   9
TORSDOF 1
ENDMDL
MODEL 2
REMARK VINA RESULT:       0.9      2.375      3.825
REMARK  1 active torsions:
REMARK  status: ('A' for Active; 'I' for Inactive)
REMARK    1  A    between atoms: C6_6  and  C10_10 
ROOT
HETATM    1  C1  UNL     1     -33.423   4.693   2.886  1.00 20.00     0.052 C 
HETATM    2  C2  UNL     1     -32.951   5.562   1.979  1.00 20.00    -0.080 C 
HETATM    3  C3  UNL     1     -34.445   5.114   3.876  1.00 20.00     0.149 C 
HETATM    4  C4  UNL     1     -33.375   7.008   1.931  1.00 20.00     0.039 C 
HETATM    5  C5  UNL     1     -35.006   6.516   3.787  1.00 20.00     0.088 C 
HETATM    6  C6  UNL     1     -33.984   7.515   3.247  1.00 20.00     0.000 C 
HETATM    7  C7  UNL     1     -31.962   5.136   0.933  1.00 20.00     0.043 C 
HETATM    8  O11 UNL     1     -34.858   4.305   4.704  1.00 20.00    -0.293 OA
ENDROOT
BRANCH   6   9
HETATM    9  C10 UNL     1     -32.902   7.824   4.288  1.00 20.00    -0.018 C 
HETATM   10  C8  UNL     1     -31.829   8.734   3.695  1.00 20.00     0.010 C 
HETATM   11  C9  UNL     1     -33.519   8.460   5.531  1.00 20.00     0.010 C 
ENDBRANCH   6   9
TORSDOF 1
ENDMDL
MODEL 3
REMARK VINA RESULT:       1.5      1.828      3.860
REMARK  1 active torsions:
REMARK  status: ('A' for Active; 'I' for Inactive)
REMARK    1  A    between atoms: C6_6  and  C10_10 
ROOT
HETATM    1  C1  UNL     1     -32.926   7.259   0.459  1.00 20.00     0.052 C 
HETATM    2  C2  UNL     1     -33.079   6.038   0.994  1.00 20.00    -0.080 C 
HETATM    3  C3  UNL     1     -32.367   8.372   1.264  1.00 20.00     0.149 C 
HETATM    4  C4  UNL     1     -32.752   5.727   2.433  1.00 20.00     0.039 C 
HETATM    5  C5  UNL     1     -31.893   8.083   2.672  1.00 20.00     0.088 C 
HETATM    6  C6  UNL     1     -32.701   6.968   3.335  1.00 20.00     0.000 C 
HETATM    7  C7  UNL     1     -33.587   4.887   0.175  1.00 20.00     0.043 C 
HETATM    8  O11 UNL     1     -32.242   9.486   0.758  1.00 20.00    -0.293 OA
ENDROOT
BRANCH   6   9
HETATM    9  C10 UNL     1     -34.107   7.448   3.716  1.00 20.00    -0.018 C 
HETATM   10  C8  UNL     1     -35.052   6.261   3.889  1.00 20.00     0.010 C 
HETATM   11  C9  UNL     1     -34.060   8.288   4.990  1.00 20.00     0.010 C 
ENDBRANCH   6   9
TORSDOF 1
ENDMDL
MODEL 4
REMARK VINA RESULT:       1.9      1.919      3.847
REMARK  1 active torsions:
REMARK  status: ('A' for Active; 'I' for Inactive)
REMARK    1  A    between atoms: C6_6  and  C10_10 
ROOT
HETATM    1  C1  UNL     1     -32.596   8.189   3.335  1.00 20.00     0.052 C 
HETATM    2  C2  UNL     1     -33.606   7.823   4.139  1.00 20.00    -0.080 C 
HETATM    3  C3  UNL     1     -32.387   7.515   2.030  1.00 20.00     0.149 C 
HETATM    4  C4  UNL     1     -34.548   6.693   3.809  1.00 20.00     0.039 C 
HETATM    5  C5  UNL     1     -33.385   6.468   1.586  1.00 20.00     0.088 C 
HETATM    6  C6  UNL     1     -33.993   5.712   2.766  1.00 20.00     0.000 C 
HETATM    7  C7  UNL     1     -33.867   8.534   5.435  1.00 20.00     0.043 C 
HETATM    8  O11 UNL     1     -31.451   7.859   1.311  1.00 20.00    -0.293 OA
ENDROOT
BRANCH   6   9
HETATM    9  C10 UNL     1     -32.982   4.741   3.388  1.00 20.00    -0.018 C 
HETATM   10  C8  UNL     1     -33.701   3.596   4.096  1.00 20.00     0.010 C 
HETATM   11  C9  UNL     1     -32.031   4.201   2.321  1.00 20.00     0.010 C 
ENDBRANCH   6   9
TORSDOF 1
ENDMDL
MODEL 5
REMARK VINA RESULT:       2.3      2.079      3.489
REMARK  1 active torsions:
REMARK  status: ('A' for Active; 'I' for Inactive)
REMARK    1  A    between atoms: C6_6  and  C10_10 
ROOT
HETATM    1  C1  UNL     1     -33.308   7.634   3.946  1.00 20.00     0.052 C 
HETATM    2  C2  UNL     1     -34.245   6.827   3.424  1.00 20.00    -0.080 C 
HETATM    3  C3  UNL     1     -32.213   8.168   3.100  1.00 20.00     0.149 C 
HETATM    4  C4  UNL     1     -34.226   6.373   1.986  1.00 20.00     0.039 C 
HETATM    5  C5  UNL     1     -32.222   7.856   1.620  1.00 20.00     0.088 C 
HETATM    6  C6  UNL     1     -32.847   6.494   1.320  1.00 20.00     0.000 C 
HETATM    7  C7  UNL     1     -35.393   6.327   4.252  1.00 20.00     0.043 C 
HETATM    8  O11 UNL     1     -31.360   8.899   3.600  1.00 20.00    -0.293 OA
ENDROOT
BRANCH   6   9
HETATM    9  C10 UNL     1     -31.917   5.349   1.737  1.00 20.00    -0.018 C 
HETATM   10  C8  UNL     1     -32.635   4.387   2.681  1.00 20.00     0.010 C 
HETATM   11  C9  UNL     1     -31.395   4.606   0.509  1.00 20.00     0.010 C 
ENDBRANCH   6   9
TORSDOF 1
ENDMDL
