MODEL 1
REMARK VINA RESULT:      -0.2      0.000      0.000
REMARK  1 active torsions:
REMARK  status: ('A' for Active; 'I' for Inactive)
REMARK    1  A    between atoms: C3_3  and  C7_7 
ROOT
HETATM    1  C1  UNL     1     -33.444   5.381   2.990  1.00 20.00    -0.082 C 
HETATM    2  C2  UNL     1     -34.124   6.498   3.332  1.00 20.00    -0.081 C 
HETATM    3  C4  UNL     1     -32.366   5.392   1.927  1.00 20.00     0.035 C 
HETATM    4  C5  UNL     1     -33.817   7.849   2.712  1.00 20.00     0.050 C 
HETATM    5  C6  UNL     1     -32.304   6.675   1.098  1.00 20.00     0.021 C 
HETATM    6  C7  UNL     1     -32.476   7.931   1.958  1.00 20.00     0.013 C 
HETATM    7  C8  UNL     1     -33.651   4.025   3.613  1.00 20.00     0.043 C 
HETATM    8  C9  UNL     1     -35.256   6.543   4.325  1.00 20.00     0.043 C 
HETATM    9  C10 UNL     1     -31.299   8.122   2.927  1.00 20.00     0.023 C 
ENDROOT
BRANCH   6  10
HETATM   10  C3  UNL     1     -32.525   9.138   1.055  1.00 20.00     0.240 C 
HETATM   11  O11 UNL     1     -31.912   9.216  -0.004  1.00 20.00    -0.306 OA
ENDBRANCH   6  10
TORSDOF 1
ENDMDL
MODEL 2
REMARK VINA RESULT:       1.0      2.460      4.147
REMARK  1 active torsions:
REMARK  status: ('A' for Active; 'I' for Inactive)
REMARK    1  A    between atoms: C3_3  and  C7_7 
ROOT
HETATM    1  C1  UNL     1     -32.491   7.693   1.965  1.00 20.00    -0.082 C 
HETATM    2  C2  UNL     1     -32.569   7.909   3.297  1.00 20.00    -0.081 C 
HETATM    3  C4  UNL     1     -33.126   6.484   1.310  1.00 20.00     0.035 C 
HETATM    4  C5  UNL     1     -33.343   6.985   4.219  1.00 20.00     0.050 C 
HETATM    5  C6  UNL     1     -33.611   5.413   2.287  1.00 20.00     0.021 C 
HETATM    6  C7  UNL     1     -34.309   6.016   3.511  1.00 20.00     0.013 C 
HETATM    7  C8  UNL     1     -31.799   8.605   0.986  1.00 20.00     0.043 C 
HETATM    8  C9  UNL     1     -31.900   9.047   4.022  1.00 20.00     0.043 C 
HETATM    9  C10 UNL     1     -35.623   6.715   3.127  1.00 20.00     0.023 C 
ENDROOT
BRANCH   6  10
HETATM   10  C3  UNL     1     -34.645   4.907   4.476  1.00 20.00     0.240 C 
HETATM   11  O11 UNL     1     -34.207   3.766   4.375  1.00 20.00    -0.306 OA
ENDBRANCH   6  10
TORSDOF 1
ENDMDL
MODEL 3
REMARK VINA RESULT:       1.0      1.232      2.690
REMARK  1 active torsions:
REMARK  status: ('A' for Active; 'I' for Inactive)
REMARK    1  A    between atoms: C3_3  and  C7_7 
ROOT
HETATM    1  C1  UNL     1     -34.688   5.386   4.134  1.00 20.00    -0.082 C 
HETATM    2  C2  UNL     1     -33.650   4.628   3.717  1.00 20.00    -0.081 C 
HETATM    3  C4  UNL     1     -34.838   6.836   3.724  1.00 20.00     0.035 C 
HETATM    4  C5  UNL     1     -32.594   5.162   2.766  1.00 20.00     0.050 C 
HETATM    5  C6  UNL     1     -33.608   7.435   3.045  1.00 20.00     0.021 C 
HETATM    6  C7  UNL     1     -32.969   6.469   2.042  1.00 20.00     0.013 C 
HETATM    7  C8  UNL     1     -35.805   4.900   5.020  1.00 20.00     0.043 C 
HETATM    8  C9  UNL     1     -33.400   3.205   4.144  1.00 20.00     0.043 C 
HETATM    9  C10 UNL     1     -33.894   6.201   0.845  1.00 20.00     0.023 C 
ENDROOT
BRANCH   6  10
HETATM   10  C3  UNL     1     -31.699   7.085   1.511  1.00 20.00     0.240 C 
HETATM   11  O11 UNL     1     -31.605   8.263   1.182  1.00 20.00    -0.306 OA
ENDBRANCH   6  10
TORSDOF 1
ENDMDL
MODEL 4
REMARK VINA RESULT:       1.6      1.912      3.163
REMARK  1 active torsions:
REMARK  status: ('A' for Active; 'I' for Inactive)
REMARK    1  A    between atoms: C3_3  and  C7_7 
ROOT
HETATM    1  C1  UNL     1     -33.721   7.363   3.528  1.00 20.00    -0.082 C 
HETATM    2  C2  UNL     1     -34.048   6.053   3.481  1.00 20.00    -0.081 C 
HETATM    3  C4  UNL     1     -32.653   7.956   2.632  1.00 20.00     0.035 C 
HETATM    4  C5  UNL     1     -33.408   5.097   2.491  1.00 20.00     0.050 C 
HETATM    5  C6  UNL     1     -31.806   6.926   1.886  1.00 20.00     0.021 C 
HETATM    6  C7  UNL     1     -32.648   5.771   1.332  1.00 20.00     0.013 C 
HETATM    7  C8  UNL     1     -34.364   8.378   4.437  1.00 20.00     0.043 C 
HETATM    8  C9  UNL     1     -35.044   5.384   4.392  1.00 20.00     0.043 C 
HETATM    9  C10 UNL     1     -33.610   6.247   0.233  1.00 20.00     0.023 C 
ENDROOT
BRANCH   6  10
HETATM   10  C3  UNL     1     -31.728   4.745   0.722  1.00 20.00     0.240 C 
HETATM   11  O11 UNL     1     -32.040   4.036  -0.228  1.00 20.00    -0.306 OA
ENDBRANCH   6  10
TORSDOF 1
ENDMDL
MODEL 5
REMARK VINA RESULT:       1.6      2.373      4.151
REMARK  1 active torsions:
REMARK  status: ('A' for Active; 'I' for Inactive)
REMARK    1  A    between atoms: C3_3  and  C7_7 
ROOT
HETATM    1  C1  UNL     1     -32.314   7.791   1.541  1.00 20.00    -0.082 C 
HETATM    2  C2  UNL     1     -32.436   6.467   1.785  1.00 20.00    -0.081 C 
HETATM    3  C4  UNL     1     -33.234   8.812   2.179  1.00 20.00     0.035 C 
HETATM    4  C5  UNL     1     -33.466   5.917   2.755  1.00 20.00     0.050 C 
HETATM    5  C6  UNL     1     -34.453   8.216   2.883  1.00 20.00     0.021 C 
HETATM    6  C7  UNL     1     -34.102   6.962   3.691  1.00 20.00     0.013 C 
HETATM    7  C8  UNL     1     -31.272   8.408   0.645  1.00 20.00     0.043 C 
HETATM    8  C9  UNL     1     -31.605   5.395   1.130  1.00 20.00     0.043 C 
HETATM    9  C10 UNL     1     -33.179   7.290   4.875  1.00 20.00     0.023 C 
ENDROOT
BRANCH   6  10
HETATM   10  C3  UNL     1     -35.372   6.371   4.251  1.00 20.00     0.240 C 
HETATM   11  O11 UNL     1     -35.517   5.176   4.482  1.00 20.00    -0.306 OA
ENDBRANCH   6  10
TORSDOF 1
ENDMDL
MODEL 6
REMARK VINA RESULT:       1.8      2.075      3.584
REMARK  1 active torsions:
REMARK  status: ('A' for Active; 'I' for Inactive)
REMARK    1  A    between atoms: C3_3  and  C7_7 
ROOT
HETATM    1  C1  UNL     1     -32.716   5.709   1.619  1.00 20.00    -0.082 C 
HETATM    2  C2  UNL     1     -32.479   7.033   1.758  1.00 20.00    -0.081 C 
HETATM    3  C4  UNL     1     -33.464   4.913   2.668  1.00 20.00     0.035 C 
HETATM    4  C5  UNL     1     -32.992   7.822   2.949  1.00 20.00     0.050 C 
HETATM    5  C6  UNL     1     -33.679   5.649   3.990  1.00 20.00     0.021 C 
HETATM    6  C7  UNL     1     -34.078   7.114   3.781  1.00 20.00     0.013 C 
HETATM    7  C8  UNL     1     -32.296   4.881   0.433  1.00 20.00     0.043 C 
HETATM    8  C9  UNL     1     -31.680   7.867   0.792  1.00 20.00     0.043 C 
HETATM    9  C10 UNL     1     -35.459   7.237   3.120  1.00 20.00     0.023 C 
ENDROOT
BRANCH   6  10
HETATM   10  C3  UNL     1     -34.151   7.796   5.124  1.00 20.00     0.240 C 
HETATM   11  O11 UNL     1     -33.225   8.436   5.610  1.00 20.00    -0.306 OA
ENDBRANCH   6  10
TORSDOF 1
ENDMDL
MODEL 7
REMARK VINA RESULT:       2.7      1.008      2.342
REMARK  1 active torsions:
REMARK  status: ('A' for Active; 'I' for Inactive)
REMARK    1  A    between atoms: C3_3  and  C7_7 
ROOT
HETATM    1  C1  UNL     1     -34.105   6.477   3.523  1.00 20.00    -0.082 C 
HETATM    2  C2  UNL     1     -33.426   5.805   2.566  1.00 20.00    -0.081 C 
HETATM    3  C4  UNL     1     -33.774   7.909   3.886  1.00 20.00     0.035 C 
HETATM    4  C5  UNL     1     -32.321   6.457   1.754  1.00 20.00     0.050 C 
HETATM    5  C6  UNL     1     -32.464   8.428   3.294  1.00 20.00     0.021 C 
HETATM    6  C7  UNL     1     -32.272   7.995   1.837  1.00 20.00     0.013 C 
HETATM    7  C8  UNL     1     -35.254   5.913   4.317  1.00 20.00     0.043 C 
HETATM    8  C9  UNL     1     -33.653   4.360   2.207  1.00 20.00     0.043 C 
HETATM    9  C10 UNL     1     -33.317   8.639   0.912  1.00 20.00     0.023 C 
ENDROOT
BRANCH   6  10
HETATM   10  C3  UNL     1     -30.910   8.441   1.370  1.00 20.00     0.240 C 
HETATM   11  O11 UNL     1     -30.706   8.962   0.279  1.00 20.00    -0.306 OA
ENDBRANCH   6  10
TORSDOF 1
ENDMDL
