MODEL 1
REMARK VINA RESULT:      -0.5      0.000      0.000
REMARK  0 active torsions:
REMARK  status: ('A' for Active; 'I' for Inactive)
ROOT
HETATM    1  C1  UNL     1     -32.462   5.545   1.464  1.00 20.00    -0.002 A 
HETATM    2  C2  UNL     1     -33.546   5.329   2.381  1.00 20.00     0.010 A 
HETATM    3  C3  UNL     1     -31.872   6.739   1.346  1.00 20.00    -0.010 A 
HETATM    4  C4  UNL     1     -34.044   6.287   3.174  1.00 20.00    -0.015 A 
HETATM    5  C5  UNL     1     -33.450   7.661   3.114  1.00 20.00     0.166 A 
HETATM    6  C6  UNL     1     -32.281   7.951   2.147  1.00 20.00     0.035 A 
HETATM    7  C7  UNL     1     -35.174   6.058   4.127  1.00 20.00     0.052 C 
HETATM    8  C8  UNL     1     -31.082   8.427   2.978  1.00 20.00     0.027 C 
HETATM    9  C9  UNL     1     -32.726   9.059   1.182  1.00 20.00     0.027 C 
HETATM   10  O10 UNL     1     -33.904   8.547   3.841  1.00 20.00    -0.292 OA
ENDROOT
TORSDOF 0
ENDMDL
MODEL 2
REMARK VINA RESULT:      -0.0      1.672      3.804
REMARK  0 active torsions:
REMARK  status: ('A' for Active; 'I' for Inactive)
ROOT
HETATM    1  C1  UNL     1     -33.206   8.299   4.671  1.00 20.00    -0.002 A 
HETATM    2  C2  UNL     1     -32.339   8.435   3.534  1.00 20.00     0.010 A 
HETATM    3  C3  UNL     1     -34.152   7.357   4.722  1.00 20.00    -0.010 A 
HETATM    4  C4  UNL     1     -32.409   7.644   2.454  1.00 20.00    -0.015 A 
HETATM    5  C5  UNL     1     -33.440   6.558   2.416  1.00 20.00     0.166 A 
HETATM    6  C6  UNL     1     -34.398   6.366   3.611  1.00 20.00     0.035 A 
HETATM    7  C7  UNL     1     -31.505   7.790   1.271  1.00 20.00     0.052 C 
HETATM    8  C8  UNL     1     -34.199   4.945   4.157  1.00 20.00     0.027 C 
HETATM    9  C9  UNL     1     -35.836   6.536   3.100  1.00 20.00     0.027 C 
HETATM   10  O10 UNL     1     -33.510   5.828   1.425  1.00 20.00    -0.292 OA
ENDROOT
TORSDOF 0
ENDMDL
MODEL 3
REMARK VINA RESULT:       0.1      1.478      2.932
REMARK  0 active torsions:
REMARK  status: ('A' for Active; 'I' for Inactive)
ROOT
HETATM    1  C1  UNL     1     -31.962   8.233   1.649  1.00 20.00    -0.002 A 
HETATM    2  C2  UNL     1     -32.721   8.393   2.858  1.00 20.00     0.010 A 
HETATM    3  C3  UNL     1     -31.903   7.060   1.010  1.00 20.00    -0.010 A 
HETATM    4  C4  UNL     1     -33.413   7.399   3.432  1.00 20.00    -0.015 A 
HETATM    5  C5  UNL     1     -33.407   6.046   2.790  1.00 20.00     0.166 A 
HETATM    6  C6  UNL     1     -32.610   5.816   1.488  1.00 20.00     0.035 A 
HETATM    7  C7  UNL     1     -34.201   7.570   4.692  1.00 20.00     0.052 C 
HETATM    8  C8  UNL     1     -33.592   5.352   0.403  1.00 20.00     0.027 C 
HETATM    9  C9  UNL     1     -31.567   4.721   1.755  1.00 20.00     0.027 C 
HETATM   10  O10 UNL     1     -34.042   5.127   3.313  1.00 20.00    -0.292 OA
ENDROOT
TORSDOF 0
ENDMDL
MODEL 4
REMARK VINA RESULT:       0.5      1.505      3.020
REMARK  0 active torsions:
REMARK  status: ('A' for Active; 'I' for Inactive)
ROOT
HETATM    1  C1  UNL     1     -34.672   5.336   3.846  1.00 20.00    -0.002 A 
HETATM    2  C2  UNL     1     -33.781   4.990   2.774  1.00 20.00     0.010 A 
HETATM    3  C3  UNL     1     -34.726   6.578   4.339  1.00 20.00    -0.010 A 
HETATM    4  C4  UNL     1     -32.948   5.866   2.195  1.00 20.00    -0.015 A 
HETATM    5  C5  UNL     1     -32.934   7.283   2.679  1.00 20.00     0.166 A 
HETATM    6  C6  UNL     1     -33.872   7.712   3.829  1.00 20.00     0.035 A 
HETATM    7  C7  UNL     1     -32.021   5.500   1.079  1.00 20.00     0.052 C 
HETATM    8  C8  UNL     1     -34.786   8.829   3.306  1.00 20.00     0.027 C 
HETATM    9  C9  UNL     1     -33.004   8.239   4.980  1.00 20.00     0.027 C 
HETATM   10  O10 UNL     1     -32.170   8.093   2.151  1.00 20.00    -0.292 OA
ENDROOT
TORSDOF 0
ENDMDL
MODEL 5
REMARK VINA RESULT:       0.8      1.001      3.238
REMARK  0 active torsions:
REMARK  status: ('A' for Active; 'I' for Inactive)
ROOT
HETATM    1  C1  UNL     1     -32.813   6.040   1.289  1.00 20.00    -0.002 A 
HETATM    2  C2  UNL     1     -32.086   7.194   1.740  1.00 20.00     0.010 A 
HETATM    3  C3  UNL     1     -33.815   5.520   2.004  1.00 20.00    -0.010 A 
HETATM    4  C4  UNL     1     -32.348   7.828   2.891  1.00 20.00    -0.015 A 
HETATM    5  C5  UNL     1     -33.454   7.319   3.764  1.00 20.00     0.166 A 
HETATM    6  C6  UNL     1     -34.269   6.082   3.329  1.00 20.00     0.035 A 
HETATM    7  C7  UNL     1     -31.588   9.029   3.357  1.00 20.00     0.052 C 
HETATM    8  C8  UNL     1     -35.743   6.499   3.215  1.00 20.00     0.027 C 
HETATM    9  C9  UNL     1     -34.110   5.003   4.409  1.00 20.00     0.027 C 
HETATM   10  O10 UNL     1     -33.699   7.897   4.825  1.00 20.00    -0.292 OA
ENDROOT
TORSDOF 0
ENDMDL
MODEL 6
REMARK VINA RESULT:       0.9      1.459      2.526
REMARK  0 active torsions:
REMARK  status: ('A' for Active; 'I' for Inactive)
ROOT
HETATM    1  C1  UNL     1     -32.535   8.585   4.508  1.00 20.00    -0.002 A 
HETATM    2  C2  UNL     1     -33.674   7.721   4.655  1.00 20.00     0.010 A 
HETATM    3  C3  UNL     1     -31.869   8.673   3.353  1.00 20.00    -0.010 A 
HETATM    4  C4  UNL     1     -34.148   6.950   3.667  1.00 20.00    -0.015 A 
HETATM    5  C5  UNL     1     -33.468   6.980   2.333  1.00 20.00     0.166 A 
HETATM    6  C6  UNL     1     -32.239   7.890   2.117  1.00 20.00     0.035 A 
HETATM    7  C7  UNL     1     -35.334   6.052   3.825  1.00 20.00     0.052 C 
HETATM    8  C8  UNL     1     -32.567   8.872   0.983  1.00 20.00     0.027 C 
HETATM    9  C9  UNL     1     -31.053   7.002   1.716  1.00 20.00     0.027 C 
HETATM   10  O10 UNL     1     -33.899   6.272   1.420  1.00 20.00    -0.292 OA
ENDROOT
TORSDOF 0
ENDMDL
MODEL 7
REMARK VINA RESULT:       0.9      2.059      3.003
REMARK  0 active torsions:
REMARK  status: ('A' for Active; 'I' for Inactive)
ROOT
HETATM    1  C1  UNL     1     -32.752   5.907   1.967  1.00 20.00    -0.002 A 
HETATM    2  C2  UNL     1     -32.708   4.603   2.568  1.00 20.00     0.010 A 
HETATM    3  C3  UNL     1     -33.606   6.844   2.392  1.00 20.00    -0.010 A 
HETATM    4  C4  UNL     1     -33.503   4.228   3.579  1.00 20.00    -0.015 A 
HETATM    5  C5  UNL     1     -34.495   5.210   4.124  1.00 20.00     0.166 A 
HETATM    6  C6  UNL     1     -34.586   6.627   3.518  1.00 20.00     0.035 A 
HETATM    7  C7  UNL     1     -33.454   2.868   4.201  1.00 20.00     0.052 C 
HETATM    8  C8  UNL     1     -34.297   7.642   4.633  1.00 20.00     0.027 C 
HETATM    9  C9  UNL     1     -36.011   6.825   2.983  1.00 20.00     0.027 C 
HETATM   10  O10 UNL     1     -35.230   4.871   5.054  1.00 20.00    -0.292 OA
ENDROOT
TORSDOF 0
ENDMDL
MODEL 8
REMARK VINA RESULT:       1.0      2.012      3.154
REMARK  0 active torsions:
REMARK  status: ('A' for Active; 'I' for Inactive)
ROOT
HETATM    1  C1  UNL     1     -35.321   6.406   4.005  1.00 20.00    -0.002 A 
HETATM    2  C2  UNL     1     -34.896   5.098   4.419  1.00 20.00     0.010 A 
HETATM    3  C3  UNL     1     -34.672   7.086   3.056  1.00 20.00    -0.010 A 
HETATM    4  C4  UNL     1     -33.835   4.469   3.897  1.00 20.00    -0.015 A 
HETATM    5  C5  UNL     1     -33.040   5.150   2.826  1.00 20.00     0.166 A 
HETATM    6  C6  UNL     1     -33.452   6.558   2.342  1.00 20.00     0.035 A 
HETATM    7  C7  UNL     1     -33.394   3.106   4.332  1.00 20.00     0.052 C 
HETATM    8  C8  UNL     1     -33.750   6.475   0.838  1.00 20.00     0.027 C 
HETATM    9  C9  UNL     1     -32.275   7.511   2.593  1.00 20.00     0.027 C 
HETATM   10  O10 UNL     1     -32.062   4.576   2.343  1.00 20.00    -0.292 OA
ENDROOT
TORSDOF 0
ENDMDL
MODEL 9
REMARK VINA RESULT:       1.1      1.522      3.058
REMARK  0 active torsions:
REMARK  status: ('A' for Active; 'I' for Inactive)
ROOT
HETATM    1  C1  UNL     1     -32.414   8.425   1.661  1.00 20.00    -0.002 A 
HETATM    2  C2  UNL     1     -31.995   7.146   1.160  1.00 20.00     0.010 A 
HETATM    3  C3  UNL     1     -33.228   8.531   2.716  1.00 20.00    -0.010 A 
HETATM    4  C4  UNL     1     -32.379   5.981   1.697  1.00 20.00    -0.015 A 
HETATM    5  C5  UNL     1     -33.293   5.995   2.884  1.00 20.00     0.166 A 
HETATM    6  C6  UNL     1     -33.775   7.342   3.466  1.00 20.00     0.035 A 
HETATM    7  C7  UNL     1     -31.941   4.651   1.171  1.00 20.00     0.052 C 
HETATM    8  C8  UNL     1     -33.316   7.420   4.929  1.00 20.00     0.027 C 
HETATM    9  C9  UNL     1     -35.309   7.370   3.395  1.00 20.00     0.027 C 
HETATM   10  O10 UNL     1     -33.651   4.926   3.383  1.00 20.00    -0.292 OA
ENDROOT
TORSDOF 0
ENDMDL
