MODEL 1
REMARK VINA RESULT:       1.0      0.000      0.000
REMARK  1 active torsions:
REMARK  status: ('A' for Active; 'I' for Inactive)
REMARK    1  A    between atoms: C7_7  and  C11_11 
ROOT
HETATM    1  C1  UNL     1     -34.330   6.414   3.589  1.00 20.00     0.127 C 
HETATM    2  C2  UNL     1     -33.588   5.353   2.809  1.00 20.00     0.078 C 
HETATM    3  C3  UNL     1     -33.582   7.671   3.975  1.00 20.00     0.079 C 
HETATM    4  C4  UNL     1     -32.958   5.866   1.519  1.00 20.00     0.008 C 
HETATM    5  C5  UNL     1     -33.379   8.566   2.761  1.00 20.00     0.013 C 
HETATM    6  C6  UNL     1     -31.759   6.782   1.769  1.00 20.00     0.006 C 
HETATM    7  C7  UNL     1     -32.095   8.272   1.965  1.00 20.00    -0.007 C 
HETATM    8  O12 UNL     1     -35.500   6.241   3.938  1.00 20.00    -0.298 OA
ENDROOT
BRANCH   7   9
HETATM    9  C11 UNL     1     -32.159   8.997   0.616  1.00 20.00    -0.048 C 
HETATM   10  C8  UNL     1     -30.758   9.037  -0.012  1.00 20.00     0.015 C 
HETATM   11  C9  UNL     1     -32.665  10.431   0.827  1.00 20.00     0.015 C 
HETATM   12  C10 UNL     1     -33.118   8.251  -0.324  1.00 20.00     0.015 C 
ENDBRANCH   7   9
TORSDOF 1
ENDMDL
MODEL 2
REMARK VINA RESULT:       1.4      1.537      2.888
REMARK  1 active torsions:
REMARK  status: ('A' for Active; 'I' for Inactive)
REMARK    1  A    between atoms: C7_7  and  C11_11 
ROOT
HETATM    1  C1  UNL     1     -34.039   4.376   3.845  1.00 20.00     0.127 C 
HETATM    2  C2  UNL     1     -34.981   5.434   4.373  1.00 20.00     0.078 C 
HETATM    3  C3  UNL     1     -33.634   4.443   2.389  1.00 20.00     0.079 C 
HETATM    4  C4  UNL     1     -34.489   6.860   4.151  1.00 20.00     0.008 C 
HETATM    5  C5  UNL     1     -32.644   5.577   2.161  1.00 20.00     0.013 C 
HETATM    6  C6  UNL     1     -34.543   7.283   2.683  1.00 20.00     0.006 C 
HETATM    7  C7  UNL     1     -33.298   6.934   1.848  1.00 20.00    -0.007 C 
HETATM    8  O12 UNL     1     -33.647   3.459   4.569  1.00 20.00    -0.298 OA
ENDROOT
BRANCH   7   9
HETATM    9  C11 UNL     1     -32.242   8.041   1.958  1.00 20.00    -0.048 C 
HETATM   10  C8  UNL     1     -32.638   9.219   1.054  1.00 20.00     0.015 C 
HETATM   11  C9  UNL     1     -30.877   7.495   1.515  1.00 20.00     0.015 C 
HETATM   12  C10 UNL     1     -32.151   8.523   3.413  1.00 20.00     0.015 C 
ENDBRANCH   7   9
TORSDOF 1
ENDMDL
MODEL 3
REMARK VINA RESULT:       1.5      1.534      2.680
REMARK  1 active torsions:
REMARK  status: ('A' for Active; 'I' for Inactive)
REMARK    1  A    between atoms: C7_7  and  C11_11 
ROOT
HETATM    1  C1  UNL     1     -34.031   4.380   3.828  1.00 20.00     0.127 C 
HETATM    2  C2  UNL     1     -34.965   5.435   4.373  1.00 20.00     0.078 C 
HETATM    3  C3  UNL     1     -33.641   4.457   2.368  1.00 20.00     0.079 C 
HETATM    4  C4  UNL     1     -34.473   6.862   4.156  1.00 20.00     0.008 C 
HETATM    5  C5  UNL     1     -32.651   5.590   2.138  1.00 20.00     0.013 C 
HETATM    6  C6  UNL     1     -34.542   7.296   2.691  1.00 20.00     0.006 C 
HETATM    7  C7  UNL     1     -33.305   6.951   1.841  1.00 20.00    -0.007 C 
HETATM    8  O12 UNL     1     -33.633   3.457   4.541  1.00 20.00    -0.298 OA
ENDROOT
BRANCH   7   9
HETATM    9  C11 UNL     1     -32.247   8.055   1.948  1.00 20.00    -0.048 C 
HETATM   10  C8  UNL     1     -30.886   7.507   1.494  1.00 20.00     0.015 C 
HETATM   11  C9  UNL     1     -32.145   8.529   3.405  1.00 20.00     0.015 C 
HETATM   12  C10 UNL     1     -32.644   9.237   1.053  1.00 20.00     0.015 C 
ENDBRANCH   7   9
TORSDOF 1
ENDMDL
MODEL 4
REMARK VINA RESULT:       3.0      0.734      1.510
REMARK  1 active torsions:
REMARK  status: ('A' for Active; 'I' for Inactive)
REMARK    1  A    between atoms: C7_7  and  C11_11 
ROOT
HETATM    1  C1  UNL     1     -33.757   6.978   3.626  1.00 20.00     0.127 C 
HETATM    2  C2  UNL     1     -33.495   5.845   2.661  1.00 20.00     0.078 C 
HETATM    3  C3  UNL     1     -32.678   8.021   3.814  1.00 20.00     0.079 C 
HETATM    4  C4  UNL     1     -33.124   6.309   1.256  1.00 20.00     0.008 C 
HETATM    5  C5  UNL     1     -32.605   8.940   2.603  1.00 20.00     0.013 C 
HETATM    6  C6  UNL     1     -31.731   6.935   1.187  1.00 20.00     0.006 C 
HETATM    7  C7  UNL     1     -31.669   8.444   1.488  1.00 20.00    -0.007 C 
HETATM    8  O12 UNL     1     -34.805   7.028   4.274  1.00 20.00    -0.298 OA
ENDROOT
BRANCH   7   9
HETATM    9  C11 UNL     1     -31.921   9.262   0.215  1.00 20.00    -0.048 C 
HETATM   10  C8  UNL     1     -33.180   8.739  -0.491  1.00 20.00     0.015 C 
HETATM   11  C9  UNL     1     -30.715   9.129  -0.727  1.00 20.00     0.015 C 
HETATM   12  C10 UNL     1     -32.119  10.739   0.584  1.00 20.00     0.015 C 
ENDBRANCH   7   9
TORSDOF 1
ENDMDL
MODEL 5
REMARK VINA RESULT:       3.9      1.926      3.574
REMARK  1 active torsions:
REMARK  status: ('A' for Active; 'I' for Inactive)
REMARK    1  A    between atoms: C7_7  and  C11_11 
ROOT
HETATM    1  C1  UNL     1     -33.051   8.328   4.696  1.00 20.00     0.127 C 
HETATM    2  C2  UNL     1     -31.954   8.917   3.838  1.00 20.00     0.078 C 
HETATM    3  C3  UNL     1     -34.288   7.794   4.007  1.00 20.00     0.079 C 
HETATM    4  C4  UNL     1     -31.445   7.970   2.758  1.00 20.00     0.008 C 
HETATM    5  C5  UNL     1     -33.986   6.473   3.315  1.00 20.00     0.013 C 
HETATM    6  C6  UNL     1     -32.459   7.752   1.634  1.00 20.00     0.006 C 
HETATM    7  C7  UNL     1     -33.474   6.618   1.871  1.00 20.00    -0.007 C 
HETATM    8  O12 UNL     1     -32.959   8.322   5.925  1.00 20.00    -0.298 OA
ENDROOT
BRANCH   7   9
HETATM    9  C11 UNL     1     -32.907   5.274   1.398  1.00 20.00    -0.048 C 
HETATM   10  C8  UNL     1     -33.710   4.778   0.186  1.00 20.00     0.015 C 
HETATM   11  C9  UNL     1     -33.010   4.246   2.533  1.00 20.00     0.015 C 
HETATM   12  C10 UNL     1     -31.435   5.448   0.998  1.00 20.00     0.015 C 
ENDBRANCH   7   9
TORSDOF 1
ENDMDL
MODEL 6
REMARK VINA RESULT:       3.9      2.267      4.372
REMARK  1 active torsions:
REMARK  status: ('A' for Active; 'I' for Inactive)
REMARK    1  A    between atoms: C7_7  and  C11_11 
ROOT
HETATM    1  C1  UNL     1     -32.397  10.112   0.110  1.00 20.00     0.127 C 
HETATM    2  C2  UNL     1     -33.005  10.401   1.463  1.00 20.00     0.078 C 
HETATM    3  C3  UNL     1     -31.267   9.108   0.034  1.00 20.00     0.079 C 
HETATM    4  C4  UNL     1     -33.512   9.158   2.187  1.00 20.00     0.008 C 
HETATM    5  C5  UNL     1     -31.797   7.692   0.208  1.00 20.00     0.013 C 
HETATM    6  C6  UNL     1     -32.379   8.259   2.683  1.00 20.00     0.006 C 
HETATM    7  C7  UNL     1     -31.869   7.218   1.669  1.00 20.00    -0.007 C 
HETATM    8  O12 UNL     1     -32.782  10.708  -0.898  1.00 20.00    -0.298 OA
ENDROOT
BRANCH   7   9
HETATM    9  C11 UNL     1     -32.702   5.933   1.744  1.00 20.00    -0.048 C 
HETATM   10  C8  UNL     1     -31.767   4.714   1.729  1.00 20.00     0.015 C 
HETATM   11  C9  UNL     1     -33.649   5.864   0.537  1.00 20.00     0.015 C 
HETATM   12  C10 UNL     1     -33.526   5.928   3.039  1.00 20.00     0.015 C 
ENDBRANCH   7   9
TORSDOF 1
ENDMDL
