MODEL 1
REMARK VINA RESULT:       3.1      0.000      0.000
REMARK  1 active torsions:
REMARK  status: ('A' for Active; 'I' for Inactive)
REMARK    1  A    between atoms: C1_1  and  S12_12 
ROOT
HETATM    1  C1  UNL     1     -33.289   7.406   3.221  1.00 20.00     0.066 C 
HETATM    2  C2  UNL     1     -32.015   8.183   3.186  1.00 20.00     0.074 C 
HETATM    3  C3  UNL     1     -32.795   7.625   0.021  1.00 20.00     0.042 A 
HETATM    4  C4  UNL     1     -31.510   7.981   1.767  1.00 20.00     0.029 A 
HETATM    5  C5  UNL     1     -32.028   8.858   0.571  1.00 20.00    -0.039 A 
HETATM    6  C6  UNL     1     -32.389   6.807   1.261  1.00 20.00     0.056 A 
HETATM    7  C7  UNL     1     -30.889   9.307  -0.347  1.00 20.00     0.015 C 
HETATM    8  C8  UNL     1     -32.945  10.031   0.910  1.00 20.00     0.015 C 
HETATM    9  C9  UNL     1     -31.703   5.480   1.013  1.00 20.00     0.041 C 
HETATM   10  N11 UNL     1     -33.525   6.658   2.193  1.00 20.00    -0.276 NA
ENDROOT
BRANCH   1  11
HETATM   11  S12 UNL     1     -34.343   7.531   4.585  1.00 20.00    -0.119 SA
HETATM   12  C10 UNL     1     -35.416   6.109   4.271  1.00 20.00     0.097 C 
ENDBRANCH   1  11
TORSDOF 1
ENDMDL
MODEL 2
REMARK VINA RESULT:       3.4      2.195      4.296
REMARK  1 active torsions:
REMARK  status: ('A' for Active; 'I' for Inactive)
REMARK    1  A    between atoms: C1_1  and  S12_12 
ROOT
HETATM    1  C1  UNL     1     -32.386   8.390   1.507  1.00 20.00     0.066 C 
HETATM    2  C2  UNL     1     -31.585   7.180   1.857  1.00 20.00     0.074 C 
HETATM    3  C3  UNL     1     -34.572   6.677   3.185  1.00 20.00     0.042 A 
HETATM    4  C4  UNL     1     -32.391   6.525   2.968  1.00 20.00     0.029 A 
HETATM    5  C5  UNL     1     -33.608   5.580   2.661  1.00 20.00    -0.039 A 
HETATM    6  C6  UNL     1     -33.388   7.646   3.365  1.00 20.00     0.056 A 
HETATM    7  C7  UNL     1     -33.597   4.328   3.540  1.00 20.00     0.015 C 
HETATM    8  C8  UNL     1     -33.856   5.213   1.199  1.00 20.00     0.015 C 
HETATM    9  C9  UNL     1     -33.219   8.278   4.730  1.00 20.00     0.041 C 
HETATM   10  N11 UNL     1     -33.371   8.666   2.297  1.00 20.00    -0.276 NA
ENDROOT
BRANCH   1  11
HETATM   11  S12 UNL     1     -31.968   9.333   0.120  1.00 20.00    -0.119 SA
HETATM   12  C10 UNL     1     -32.824  10.872   0.530  1.00 20.00     0.097 C 
ENDBRANCH   1  11
TORSDOF 1
ENDMDL
MODEL 3
REMARK VINA RESULT:       3.8      2.006      4.113
REMARK  1 active torsions:
REMARK  status: ('A' for Active; 'I' for Inactive)
REMARK    1  A    between atoms: C1_1  and  S12_12 
ROOT
HETATM    1  C1  UNL     1     -32.185   7.878   1.368  1.00 20.00     0.066 C 
HETATM    2  C2  UNL     1     -33.663   8.068   1.459  1.00 20.00     0.074 C 
HETATM    3  C3  UNL     1     -32.983   5.486   3.410  1.00 20.00     0.042 A 
HETATM    4  C4  UNL     1     -34.157   6.763   2.061  1.00 20.00     0.029 A 
HETATM    5  C5  UNL     1     -34.136   6.505   3.611  1.00 20.00    -0.039 A 
HETATM    6  C6  UNL     1     -32.922   5.835   1.911  1.00 20.00     0.056 A 
HETATM    7  C7  UNL     1     -35.430   5.851   4.101  1.00 20.00     0.015 C 
HETATM    8  C8  UNL     1     -33.748   7.678   4.509  1.00 20.00     0.015 C 
HETATM    9  C9  UNL     1     -33.029   4.685   0.933  1.00 20.00     0.041 C 
HETATM   10  N11 UNL     1     -31.752   6.685   1.613  1.00 20.00    -0.276 NA
ENDROOT
BRANCH   1  11
HETATM   11  S12 UNL     1     -31.165   9.208   0.945  1.00 20.00    -0.119 SA
HETATM   12  C10 UNL     1     -32.391  10.302   0.190  1.00 20.00     0.097 C 
ENDBRANCH   1  11
TORSDOF 1
ENDMDL
MODEL 4
REMARK VINA RESULT:       4.5      2.183      3.239
REMARK  1 active torsions:
REMARK  status: ('A' for Active; 'I' for Inactive)
REMARK    1  A    between atoms: C1_1  and  S12_12 
ROOT
HETATM    1  C1  UNL     1     -32.996   4.848   3.115  1.00 20.00     0.066 C 
HETATM    2  C2  UNL     1     -32.985   5.261   1.680  1.00 20.00     0.074 C 
HETATM    3  C3  UNL     1     -33.182   8.074   3.408  1.00 20.00     0.042 A 
HETATM    4  C4  UNL     1     -33.471   6.701   1.718  1.00 20.00     0.029 A 
HETATM    5  C5  UNL     1     -32.498   7.895   2.026  1.00 20.00    -0.039 A 
HETATM    6  C6  UNL     1     -34.046   6.824   3.154  1.00 20.00     0.056 A 
HETATM    7  C7  UNL     1     -32.733   9.082   1.088  1.00 20.00     0.015 C 
HETATM    8  C8  UNL     1     -31.009   7.574   2.131  1.00 20.00     0.015 C 
HETATM    9  C9  UNL     1     -35.545   6.986   3.293  1.00 20.00     0.041 C 
HETATM   10  N11 UNL     1     -33.556   5.674   3.938  1.00 20.00    -0.276 NA
ENDROOT
BRANCH   1  11
HETATM   11  S12 UNL     1     -32.297   3.340   3.587  1.00 20.00    -0.119 SA
HETATM   12  C10 UNL     1     -33.344   2.952   5.010  1.00 20.00     0.097 C 
ENDBRANCH   1  11
TORSDOF 1
ENDMDL
MODEL 5
REMARK VINA RESULT:       5.6      2.245      3.950
REMARK  1 active torsions:
REMARK  status: ('A' for Active; 'I' for Inactive)
REMARK    1  A    between atoms: C1_1  and  S12_12 
ROOT
HETATM    1  C1  UNL     1     -33.022   5.570   1.212  1.00 20.00     0.066 C 
HETATM    2  C2  UNL     1     -32.689   5.269   2.636  1.00 20.00     0.074 C 
HETATM    3  C3  UNL     1     -33.928   8.335   2.649  1.00 20.00     0.042 A 
HETATM    4  C4  UNL     1     -32.702   6.634   3.304  1.00 20.00     0.029 A 
HETATM    5  C5  UNL     1     -34.035   7.300   3.801  1.00 20.00    -0.039 A 
HETATM    6  C6  UNL     1     -32.693   7.602   2.091  1.00 20.00     0.056 A 
HETATM    7  C7  UNL     1     -33.879   7.934   5.185  1.00 20.00     0.015 C 
HETATM    8  C8  UNL     1     -35.306   6.457   3.731  1.00 20.00     0.015 C 
HETATM    9  C9  UNL     1     -31.445   8.430   1.870  1.00 20.00     0.041 C 
HETATM   10  N11 UNL     1     -33.039   6.821   0.887  1.00 20.00    -0.276 NA
ENDROOT
BRANCH   1  11
HETATM   11  S12 UNL     1     -33.346   4.281   0.107  1.00 20.00    -0.119 SA
HETATM   12  C10 UNL     1     -34.763   4.982  -0.769  1.00 20.00     0.097 C 
ENDBRANCH   1  11
TORSDOF 1
ENDMDL
MODEL 6
REMARK VINA RESULT:       6.1      2.056      3.256
REMARK  1 active torsions:
REMARK  status: ('A' for Active; 'I' for Inactive)
REMARK    1  A    between atoms: C1_1  and  S12_12 
ROOT
HETATM    1  C1  UNL     1     -32.546   5.784   1.089  1.00 20.00     0.066 C 
HETATM    2  C2  UNL     1     -33.437   6.724   0.346  1.00 20.00     0.074 C 
HETATM    3  C3  UNL     1     -31.625   8.626   2.357  1.00 20.00     0.042 A 
HETATM    4  C4  UNL     1     -33.359   8.008   1.157  1.00 20.00     0.029 A 
HETATM    5  C5  UNL     1     -32.186   9.036   0.969  1.00 20.00    -0.039 A 
HETATM    6  C6  UNL     1     -32.702   7.531   2.480  1.00 20.00     0.056 A 
HETATM    7  C7  UNL     1     -32.690  10.481   0.936  1.00 20.00     0.015 C 
HETATM    8  C8  UNL     1     -31.207   8.778  -0.173  1.00 20.00     0.015 C 
HETATM    9  C9  UNL     1     -33.558   7.547   3.729  1.00 20.00     0.041 C 
HETATM   10  N11 UNL     1     -32.126   6.192   2.242  1.00 20.00    -0.276 NA
ENDROOT
BRANCH   1  11
HETATM   11  S12 UNL     1     -32.142   4.250   0.403  1.00 20.00    -0.119 SA
HETATM   12  C10 UNL     1     -33.656   3.929  -0.533  1.00 20.00     0.097 C 
ENDBRANCH   1  11
TORSDOF 1
ENDMDL
