MODEL 1
REMARK VINA RESULT:      -1.0      0.000      0.000
REMARK  0 active torsions:
REMARK  status: ('A' for Active; 'I' for Inactive)
ROOT
HETATM    1  C1  UNL     1     -32.633   5.671   1.313  1.00 20.00     0.009 A 
HETATM    2  C2  UNL     1     -31.971   6.823   1.453  1.00 20.00     0.074 A 
HETATM    3  C3  UNL     1     -33.689   5.313   2.217  1.00 20.00     0.043 A 
HETATM    4  C4  UNL     1     -34.024   6.138   3.218  1.00 20.00     0.108 A 
HETATM    5  C5  UNL     1     -32.323   7.761   2.560  1.00 20.00     0.248 A 
HETATM    6  C6  UNL     1     -33.770   8.218   4.521  1.00 20.00     0.160 C 
HETATM    7  N7  UNL     1     -33.367   7.354   3.413  1.00 20.00    -0.309 N 
HETATM    8  O8  UNL     1     -31.691   8.811   2.658  1.00 20.00    -0.268 OA
HETATM    9 CL9  UNL     1     -35.294   5.699   4.299  1.00 20.00    -0.064 Cl
ENDROOT
TORSDOF 0
ENDMDL
MODEL 2
REMARK VINA RESULT:      -0.9      2.673      3.808
REMARK  0 active torsions:
REMARK  status: ('A' for Active; 'I' for Inactive)
ROOT
HETATM    1  C1  UNL     1     -34.587   7.421   4.214  1.00 20.00     0.009 A 
HETATM    2  C2  UNL     1     -34.675   6.088   4.228  1.00 20.00     0.074 A 
HETATM    3  C3  UNL     1     -33.710   8.092   3.296  1.00 20.00     0.043 A 
HETATM    4  C4  UNL     1     -32.966   7.382   2.438  1.00 20.00     0.108 A 
HETATM    5  C5  UNL     1     -33.857   5.272   3.283  1.00 20.00     0.248 A 
HETATM    6  C6  UNL     1     -32.185   5.259   1.452  1.00 20.00     0.160 C 
HETATM    7  N7  UNL     1     -33.018   5.988   2.408  1.00 20.00    -0.309 N 
HETATM    8  O8  UNL     1     -33.963   4.047   3.326  1.00 20.00    -0.268 OA
HETATM    9 CL9  UNL     1     -31.917   8.198   1.339  1.00 20.00    -0.064 Cl
ENDROOT
TORSDOF 0
ENDMDL
MODEL 3
REMARK VINA RESULT:      -0.7      1.908      2.654
REMARK  0 active torsions:
REMARK  status: ('A' for Active; 'I' for Inactive)
ROOT
HETATM    1  C1  UNL     1     -31.780   8.182   1.682  1.00 20.00     0.009 A 
HETATM    2  C2  UNL     1     -31.911   6.993   1.086  1.00 20.00     0.074 A 
HETATM    3  C3  UNL     1     -32.478   8.475   2.903  1.00 20.00     0.043 A 
HETATM    4  C4  UNL     1     -33.273   7.551   3.459  1.00 20.00     0.108 A 
HETATM    5  C5  UNL     1     -32.792   5.947   1.684  1.00 20.00     0.248 A 
HETATM    6  C6  UNL     1     -34.327   5.321   3.528  1.00 20.00     0.160 C 
HETATM    7  N7  UNL     1     -33.447   6.294   2.881  1.00 20.00    -0.309 N 
HETATM    8  O8  UNL     1     -32.889   4.865   1.105  1.00 20.00    -0.268 OA
HETATM    9 CL9  UNL     1     -34.105   7.913   4.926  1.00 20.00    -0.064 Cl
ENDROOT
TORSDOF 0
ENDMDL
MODEL 4
REMARK VINA RESULT:      -0.6      1.316      2.600
REMARK  0 active torsions:
REMARK  status: ('A' for Active; 'I' for Inactive)
ROOT
HETATM    1  C1  UNL     1     -34.270   7.834   4.099  1.00 20.00     0.009 A 
HETATM    2  C2  UNL     1     -33.467   8.375   3.178  1.00 20.00     0.074 A 
HETATM    3  C3  UNL     1     -34.441   6.411   4.185  1.00 20.00     0.043 A 
HETATM    4  C4  UNL     1     -33.791   5.605   3.334  1.00 20.00     0.108 A 
HETATM    5  C5  UNL     1     -32.733   7.501   2.216  1.00 20.00     0.248 A 
HETATM    6  C6  UNL     1     -32.256   5.192   1.446  1.00 20.00     0.160 C 
HETATM    7  N7  UNL     1     -32.941   6.114   2.351  1.00 20.00    -0.309 N 
HETATM    8  O8  UNL     1     -32.005   8.034   1.381  1.00 20.00    -0.268 OA
HETATM    9 CL9  UNL     1     -34.002   3.897   3.445  1.00 20.00    -0.064 Cl
ENDROOT
TORSDOF 0
ENDMDL
MODEL 5
REMARK VINA RESULT:      -0.5      2.064      2.888
REMARK  0 active torsions:
REMARK  status: ('A' for Active; 'I' for Inactive)
ROOT
HETATM    1  C1  UNL     1     -34.702   5.071   3.941  1.00 20.00     0.009 A 
HETATM    2  C2  UNL     1     -34.849   6.344   4.319  1.00 20.00     0.074 A 
HETATM    3  C3  UNL     1     -33.759   4.710   2.919  1.00 20.00     0.043 A 
HETATM    4  C4  UNL     1     -33.013   5.655   2.331  1.00 20.00     0.108 A 
HETATM    5  C5  UNL     1     -34.032   7.417   3.679  1.00 20.00     0.248 A 
HETATM    6  C6  UNL     1     -32.289   7.993   2.013  1.00 20.00     0.160 C 
HETATM    7  N7  UNL     1     -33.126   7.000   2.685  1.00 20.00    -0.309 N 
HETATM    8  O8  UNL     1     -34.197   8.577   4.052  1.00 20.00    -0.268 OA
HETATM    9 CL9  UNL     1     -31.883   5.211   1.105  1.00 20.00    -0.064 Cl
ENDROOT
TORSDOF 0
ENDMDL
MODEL 6
REMARK VINA RESULT:      -0.4      2.065      2.834
REMARK  0 active torsions:
REMARK  status: ('A' for Active; 'I' for Inactive)
ROOT
HETATM    1  C1  UNL     1     -31.978   8.405   1.933  1.00 20.00     0.009 A 
HETATM    2  C2  UNL     1     -32.698   8.574   3.046  1.00 20.00     0.074 A 
HETATM    3  C3  UNL     1     -31.964   7.143   1.249  1.00 20.00     0.043 A 
HETATM    4  C4  UNL     1     -32.679   6.114   1.724  1.00 20.00     0.108 A 
HETATM    5  C5  UNL     1     -33.502   7.445   3.598  1.00 20.00     0.248 A 
HETATM    6  C6  UNL     1     -34.210   5.080   3.360  1.00 20.00     0.160 C 
HETATM    7  N7  UNL     1     -33.448   6.233   2.882  1.00 20.00    -0.309 N 
HETATM    8  O8  UNL     1     -34.151   7.638   4.625  1.00 20.00    -0.268 OA
HETATM    9 CL9  UNL     1     -32.656   4.602   0.895  1.00 20.00    -0.064 Cl
ENDROOT
TORSDOF 0
ENDMDL
MODEL 7
REMARK VINA RESULT:      -0.0      2.382      2.877
REMARK  0 active torsions:
REMARK  status: ('A' for Active; 'I' for Inactive)
ROOT
HETATM    1  C1  UNL     1     -32.822   5.749   1.394  1.00 20.00     0.009 A 
HETATM    2  C2  UNL     1     -33.839   5.385   2.180  1.00 20.00     0.074 A 
HETATM    3  C3  UNL     1     -32.057   6.931   1.678  1.00 20.00     0.043 A 
HETATM    4  C4  UNL     1     -32.360   7.686   2.743  1.00 20.00     0.108 A 
HETATM    5  C5  UNL     1     -34.198   6.208   3.371  1.00 20.00     0.248 A 
HETATM    6  C6  UNL     1     -33.702   8.212   4.746  1.00 20.00     0.160 C 
HETATM    7  N7  UNL     1     -33.412   7.354   3.597  1.00 20.00    -0.309 N 
HETATM    8  O8  UNL     1     -35.142   5.843   4.070  1.00 20.00    -0.268 OA
HETATM    9 CL9  UNL     1     -31.435   9.103   3.075  1.00 20.00    -0.064 Cl
ENDROOT
TORSDOF 0
ENDMDL
MODEL 8
REMARK VINA RESULT:       0.3      1.911      2.679
REMARK  0 active torsions:
REMARK  status: ('A' for Active; 'I' for Inactive)
ROOT
HETATM    1  C1  UNL     1     -34.333   4.713   3.695  1.00 20.00     0.009 A 
HETATM    2  C2  UNL     1     -33.466   4.463   2.710  1.00 20.00     0.074 A 
HETATM    3  C3  UNL     1     -34.575   6.056   4.142  1.00 20.00     0.043 A 
HETATM    4  C4  UNL     1     -33.927   7.080   3.571  1.00 20.00     0.108 A 
HETATM    5  C5  UNL     1     -32.729   5.585   2.057  1.00 20.00     0.248 A 
HETATM    6  C6  UNL     1     -32.328   8.030   1.949  1.00 20.00     0.160 C 
HETATM    7  N7  UNL     1     -33.010   6.878   2.539  1.00 20.00    -0.309 N 
HETATM    8  O8  UNL     1     -31.938   5.317   1.154  1.00 20.00    -0.268 OA
HETATM    9 CL9  UNL     1     -34.224   8.689   4.115  1.00 20.00    -0.064 Cl
ENDROOT
TORSDOF 0
ENDMDL
MODEL 9
REMARK VINA RESULT:       0.7      1.509      1.709
REMARK  0 active torsions:
REMARK  status: ('A' for Active; 'I' for Inactive)
ROOT
HETATM    1  C1  UNL     1     -31.979   6.462   1.476  1.00 20.00     0.009 A 
HETATM    2  C2  UNL     1     -32.534   7.616   1.858  1.00 20.00     0.074 A 
HETATM    3  C3  UNL     1     -32.408   5.214   2.043  1.00 20.00     0.043 A 
HETATM    4  C4  UNL     1     -33.377   5.196   2.968  1.00 20.00     0.108 A 
HETATM    5  C5  UNL     1     -33.615   7.624   2.887  1.00 20.00     0.248 A 
HETATM    6  C6  UNL     1     -35.044   6.296   4.417  1.00 20.00     0.160 C 
HETATM    7  N7  UNL     1     -33.992   6.370   3.405  1.00 20.00    -0.309 N 
HETATM    8  O8  UNL     1     -34.101   8.706   3.215  1.00 20.00    -0.268 OA
HETATM    9 CL9  UNL     1     -33.885   3.692   3.643  1.00 20.00    -0.064 Cl
ENDROOT
TORSDOF 0
ENDMDL
