MODEL 1
REMARK VINA RESULT:      -1.2      0.000      0.000
REMARK  0 active torsions:
REMARK  status: ('A' for Active; 'I' for Inactive)
ROOT
HETATM    1  C1  UNL     1     -34.565   6.184   3.700  1.00 20.00     0.028 C 
HETATM    2  C2  UNL     1     -33.536   5.373   2.914  1.00 20.00     0.017 C 
HETATM    3  C3  UNL     1     -34.007   7.545   4.100  1.00 20.00     0.188 C 
HETATM    4  C4  UNL     1     -33.007   6.154   1.720  1.00 20.00     0.140 C 
HETATM    5  O5  UNL     1     -31.938   8.522   1.050  1.00 20.00    -0.229 OA
HETATM    6  O6  UNL     1     -33.564   8.262   2.948  1.00 20.00    -0.296 OA
HETATM    7  S7  UNL     1     -32.211   7.698   2.274  1.00 20.00     0.152 S 
ENDROOT
TORSDOF 0
ENDMDL
MODEL 2
REMARK VINA RESULT:      -1.0      1.532      2.741
REMARK  0 active torsions:
REMARK  status: ('A' for Active; 'I' for Inactive)
ROOT
HETATM    1  C1  UNL     1     -31.883   6.439   1.347  1.00 20.00     0.028 C 
HETATM    2  C2  UNL     1     -33.158   5.643   1.626  1.00 20.00     0.017 C 
HETATM    3  C3  UNL     1     -32.056   7.908   1.717  1.00 20.00     0.188 C 
HETATM    4  C4  UNL     1     -33.623   5.826   3.063  1.00 20.00     0.140 C 
HETATM    5  O5  UNL     1     -34.175   7.720   4.881  1.00 20.00    -0.229 OA
HETATM    6  O6  UNL     1     -32.448   8.035   3.083  1.00 20.00    -0.296 OA
HETATM    7  S7  UNL     1     -33.964   7.584   3.401  1.00 20.00     0.152 S 
ENDROOT
TORSDOF 0
ENDMDL
MODEL 3
REMARK VINA RESULT:      -0.9      2.156      3.385
REMARK  0 active torsions:
REMARK  status: ('A' for Active; 'I' for Inactive)
ROOT
HETATM    1  C1  UNL     1     -32.050   7.640   1.685  1.00 20.00     0.028 C 
HETATM    2  C2  UNL     1     -32.216   8.238   3.081  1.00 20.00     0.017 C 
HETATM    3  C3  UNL     1     -32.472   6.175   1.657  1.00 20.00     0.188 C 
HETATM    4  C4  UNL     1     -33.628   8.033   3.610  1.00 20.00     0.140 C 
HETATM    5  O5  UNL     1     -35.488   6.137   3.989  1.00 20.00    -0.229 OA
HETATM    6  O6  UNL     1     -33.816   6.033   2.116  1.00 20.00    -0.296 OA
HETATM    7  S7  UNL     1     -34.020   6.255   3.702  1.00 20.00     0.152 S 
ENDROOT
TORSDOF 0
ENDMDL
MODEL 4
REMARK VINA RESULT:      -0.8      1.927      2.875
REMARK  0 active torsions:
REMARK  status: ('A' for Active; 'I' for Inactive)
ROOT
HETATM    1  C1  UNL     1     -31.790   7.160   1.829  1.00 20.00     0.028 C 
HETATM    2  C2  UNL     1     -32.669   6.001   1.364  1.00 20.00     0.017 C 
HETATM    3  C3  UNL     1     -32.616   8.235   2.528  1.00 20.00     0.188 C 
HETATM    4  C4  UNL     1     -33.499   5.438   2.509  1.00 20.00     0.140 C 
HETATM    5  O5  UNL     1     -35.177   6.180   4.465  1.00 20.00    -0.229 OA
HETATM    6  O6  UNL     1     -33.342   7.674   3.621  1.00 20.00    -0.296 OA
HETATM    7  S7  UNL     1     -34.581   6.730   3.203  1.00 20.00     0.152 S 
ENDROOT
TORSDOF 0
ENDMDL
MODEL 5
REMARK VINA RESULT:      -0.8      2.042      2.395
REMARK  0 active torsions:
REMARK  status: ('A' for Active; 'I' for Inactive)
ROOT
HETATM    1  C1  UNL     1     -33.932   7.620   4.053  1.00 20.00     0.028 C 
HETATM    2  C2  UNL     1     -33.243   8.359   2.907  1.00 20.00     0.017 C 
HETATM    3  C3  UNL     1     -34.496   6.282   3.589  1.00 20.00     0.188 C 
HETATM    4  C4  UNL     1     -32.189   7.488   2.239  1.00 20.00     0.140 C 
HETATM    5  O5  UNL     1     -31.833   5.063   1.148  1.00 20.00    -0.229 OA
HETATM    6  O6  UNL     1     -33.467   5.479   3.011  1.00 20.00    -0.296 OA
HETATM    7  S7  UNL     1     -32.950   5.975   1.565  1.00 20.00     0.152 S 
ENDROOT
TORSDOF 0
ENDMDL
MODEL 6
REMARK VINA RESULT:      -0.5      2.283      3.054
REMARK  0 active torsions:
REMARK  status: ('A' for Active; 'I' for Inactive)
ROOT
HETATM    1  C1  UNL     1     -32.451   7.677   2.597  1.00 20.00     0.028 C 
HETATM    2  C2  UNL     1     -32.957   6.504   1.758  1.00 20.00     0.017 C 
HETATM    3  C3  UNL     1     -33.543   8.209   3.518  1.00 20.00     0.188 C 
HETATM    4  C4  UNL     1     -33.557   5.413   2.633  1.00 20.00     0.140 C 
HETATM    5  O5  UNL     1     -35.336   5.024   4.603  1.00 20.00    -0.229 OA
HETATM    6  O6  UNL     1     -34.045   7.165   4.352  1.00 20.00    -0.296 OA
HETATM    7  S7  UNL     1     -34.958   6.071   3.596  1.00 20.00     0.152 S 
ENDROOT
TORSDOF 0
ENDMDL
MODEL 7
REMARK VINA RESULT:      -0.5      1.220      2.024
REMARK  0 active torsions:
REMARK  status: ('A' for Active; 'I' for Inactive)
ROOT
HETATM    1  C1  UNL     1     -34.069   5.468   3.352  1.00 20.00     0.028 C 
HETATM    2  C2  UNL     1     -34.391   6.907   3.752  1.00 20.00     0.017 C 
HETATM    3  C3  UNL     1     -33.482   5.402   1.947  1.00 20.00     0.188 C 
HETATM    4  C4  UNL     1     -33.179   7.813   3.590  1.00 20.00     0.140 C 
HETATM    5  O5  UNL     1     -31.293   8.521   1.819  1.00 20.00    -0.229 OA
HETATM    6  O6  UNL     1     -32.323   6.229   1.851  1.00 20.00    -0.296 OA
HETATM    7  S7  UNL     1     -32.617   7.816   1.856  1.00 20.00     0.152 S 
ENDROOT
TORSDOF 0
ENDMDL
MODEL 8
REMARK VINA RESULT:      -0.1      2.193      3.164
REMARK  0 active torsions:
REMARK  status: ('A' for Active; 'I' for Inactive)
ROOT
HETATM    1  C1  UNL     1     -32.052   6.617   0.919  1.00 20.00     0.028 C 
HETATM    2  C2  UNL     1     -31.640   7.825   1.758  1.00 20.00     0.017 C 
HETATM    3  C3  UNL     1     -32.694   5.537   1.782  1.00 20.00     0.188 C 
HETATM    4  C4  UNL     1     -32.807   8.358   2.577  1.00 20.00     0.140 C 
HETATM    5  O5  UNL     1     -34.717   7.576   4.290  1.00 20.00    -0.229 OA
HETATM    6  O6  UNL     1     -33.810   6.067   2.497  1.00 20.00    -0.296 OA
HETATM    7  S7  UNL     1     -33.432   7.069   3.704  1.00 20.00     0.152 S 
ENDROOT
TORSDOF 0
ENDMDL
MODEL 9
REMARK VINA RESULT:      -0.0      1.851      2.178
REMARK  0 active torsions:
REMARK  status: ('A' for Active; 'I' for Inactive)
ROOT
HETATM    1  C1  UNL     1     -33.769   8.008   3.719  1.00 20.00     0.028 C 
HETATM    2  C2  UNL     1     -34.161   6.557   3.993  1.00 20.00     0.017 C 
HETATM    3  C3  UNL     1     -32.450   8.090   2.958  1.00 20.00     0.188 C 
HETATM    4  C4  UNL     1     -34.181   5.735   2.712  1.00 20.00     0.140 C 
HETATM    5  O5  UNL     1     -32.690   5.130   0.566  1.00 20.00    -0.229 OA
HETATM    6  O6  UNL     1     -32.528   7.344   1.744  1.00 20.00    -0.296 OA
HETATM    7  S7  UNL     1     -32.536   5.741   1.928  1.00 20.00     0.152 S 
ENDROOT
TORSDOF 0
ENDMDL
