MODEL 1
REMARK VINA RESULT:       2.0      0.000      0.000
REMARK  0 active torsions:
REMARK  status: ('A' for Active; 'I' for Inactive)
ROOT
HETATM    1  C1  UNL     1     -33.609   5.465   2.945  1.00 20.00     0.021 A 
HETATM    2  C2  UNL     1     -34.358   6.339   3.644  1.00 20.00     0.004 A 
HETATM    3  C3  UNL     1     -32.723   7.470   2.083  1.00 20.00     0.145 A 
HETATM    4  C4  UNL     1     -33.681   3.972   3.030  1.00 20.00     0.069 C 
HETATM    5  C5  UNL     1     -35.421   6.080   4.656  1.00 20.00     0.058 C 
HETATM    6  C6  UNL     1     -31.806   5.264   1.241  1.00 20.00     0.157 C 
HETATM    7  N7  UNL     1     -32.697   6.071   2.074  1.00 20.00    -0.340 N 
HETATM    8  S8  UNL     1     -31.811   8.555   1.204  1.00 20.00    -0.052 SA
HETATM    9  S9  UNL     1     -33.955   7.989   3.244  1.00 20.00    -0.063 SA
ENDROOT
TORSDOF 0
ENDMDL
MODEL 2
REMARK VINA RESULT:       2.2      1.946      2.598
REMARK  0 active torsions:
REMARK  status: ('A' for Active; 'I' for Inactive)
ROOT
HETATM    1  C1  UNL     1     -33.797   6.939   3.383  1.00 20.00     0.021 A 
HETATM    2  C2  UNL     1     -34.380   5.763   3.683  1.00 20.00     0.004 A 
HETATM    3  C3  UNL     1     -32.657   5.568   1.843  1.00 20.00     0.145 A 
HETATM    4  C4  UNL     1     -34.086   8.260   4.026  1.00 20.00     0.069 C 
HETATM    5  C5  UNL     1     -35.432   5.456   4.694  1.00 20.00     0.058 C 
HETATM    6  C6  UNL     1     -32.112   8.040   1.919  1.00 20.00     0.157 C 
HETATM    7  N7  UNL     1     -32.839   6.853   2.366  1.00 20.00    -0.340 N 
HETATM    8  S8  UNL     1     -31.626   5.046   0.640  1.00 20.00    -0.052 SA
HETATM    9  S9  UNL     1     -33.753   4.468   2.696  1.00 20.00    -0.063 SA
ENDROOT
TORSDOF 0
ENDMDL
MODEL 3
REMARK VINA RESULT:       2.5      2.222      3.999
REMARK  0 active torsions:
REMARK  status: ('A' for Active; 'I' for Inactive)
ROOT
HETATM    1  C1  UNL     1     -32.713   6.869   2.250  1.00 20.00     0.021 A 
HETATM    2  C2  UNL     1     -32.553   5.646   1.711  1.00 20.00     0.004 A 
HETATM    3  C3  UNL     1     -34.250   5.681   3.584  1.00 20.00     0.145 A 
HETATM    4  C4  UNL     1     -32.000   8.119   1.837  1.00 20.00     0.069 C 
HETATM    5  C5  UNL     1     -31.658   5.208   0.602  1.00 20.00     0.058 C 
HETATM    6  C6  UNL     1     -33.943   8.164   3.984  1.00 20.00     0.157 C 
HETATM    7  N7  UNL     1     -33.650   6.911   3.290  1.00 20.00    -0.340 N 
HETATM    8  S8  UNL     1     -35.400   5.309   4.733  1.00 20.00    -0.052 SA
HETATM    9  S9  UNL     1     -33.577   4.465   2.486  1.00 20.00    -0.063 SA
ENDROOT
TORSDOF 0
ENDMDL
MODEL 4
REMARK VINA RESULT:       2.5      1.486      2.596
REMARK  0 active torsions:
REMARK  status: ('A' for Active; 'I' for Inactive)
ROOT
HETATM    1  C1  UNL     1     -34.197   6.119   3.585  1.00 20.00     0.021 A 
HETATM    2  C2  UNL     1     -33.511   5.042   3.159  1.00 20.00     0.004 A 
HETATM    3  C3  UNL     1     -32.681   7.203   2.145  1.00 20.00     0.145 A 
HETATM    4  C4  UNL     1     -35.340   6.115   4.553  1.00 20.00     0.069 C 
HETATM    5  C5  UNL     1     -33.687   3.604   3.513  1.00 20.00     0.058 C 
HETATM    6  C6  UNL     1     -34.392   8.593   3.393  1.00 20.00     0.157 C 
HETATM    7  N7  UNL     1     -33.753   7.327   3.035  1.00 20.00    -0.340 N 
HETATM    8  S8  UNL     1     -31.869   8.383   1.289  1.00 20.00    -0.052 SA
HETATM    9  S9  UNL     1     -32.257   5.487   2.031  1.00 20.00    -0.063 SA
ENDROOT
TORSDOF 0
ENDMDL
MODEL 5
REMARK VINA RESULT:       2.6      1.234      3.270
REMARK  0 active torsions:
REMARK  status: ('A' for Active; 'I' for Inactive)
ROOT
HETATM    1  C1  UNL     1     -32.516   6.085   1.856  1.00 20.00     0.021 A 
HETATM    2  C2  UNL     1     -32.509   7.429   1.922  1.00 20.00     0.004 A 
HETATM    3  C3  UNL     1     -34.196   6.375   3.481  1.00 20.00     0.145 A 
HETATM    4  C4  UNL     1     -31.647   5.237   0.978  1.00 20.00     0.069 C 
HETATM    5  C5  UNL     1     -31.674   8.411   1.172  1.00 20.00     0.058 C 
HETATM    6  C6  UNL     1     -33.579   4.026   2.763  1.00 20.00     0.157 C 
HETATM    7  N7  UNL     1     -33.443   5.481   2.712  1.00 20.00    -0.340 N 
HETATM    8  S8  UNL     1     -35.386   6.067   4.608  1.00 20.00    -0.052 SA
HETATM    9  S9  UNL     1     -33.678   8.019   3.074  1.00 20.00    -0.063 SA
ENDROOT
TORSDOF 0
ENDMDL
MODEL 6
REMARK VINA RESULT:       2.7      2.212      3.969
REMARK  0 active torsions:
REMARK  status: ('A' for Active; 'I' for Inactive)
ROOT
HETATM    1  C1  UNL     1     -33.692   7.402   2.927  1.00 20.00     0.021 A 
HETATM    2  C2  UNL     1     -32.652   7.222   2.091  1.00 20.00     0.004 A 
HETATM    3  C3  UNL     1     -33.413   5.078   3.192  1.00 20.00     0.145 A 
HETATM    4  C4  UNL     1     -34.376   8.700   3.222  1.00 20.00     0.069 C 
HETATM    5  C5  UNL     1     -31.918   8.220   1.261  1.00 20.00     0.058 C 
HETATM    6  C6  UNL     1     -35.250   6.246   4.486  1.00 20.00     0.157 C 
HETATM    7  N7  UNL     1     -34.129   6.226   3.547  1.00 20.00    -0.340 N 
HETATM    8  S8  UNL     1     -33.614   3.501   3.698  1.00 20.00    -0.052 SA
HETATM    9  S9  UNL     1     -32.158   5.549   2.035  1.00 20.00    -0.063 SA
ENDROOT
TORSDOF 0
ENDMDL
MODEL 7
REMARK VINA RESULT:       3.2      1.753      2.608
REMARK  0 active torsions:
REMARK  status: ('A' for Active; 'I' for Inactive)
ROOT
HETATM    1  C1  UNL     1     -33.480   7.544   3.966  1.00 20.00     0.021 A 
HETATM    2  C2  UNL     1     -34.177   6.508   3.463  1.00 20.00     0.004 A 
HETATM    3  C3  UNL     1     -32.408   7.368   1.875  1.00 20.00     0.145 A 
HETATM    4  C4  UNL     1     -33.674   8.172   5.311  1.00 20.00     0.069 C 
HETATM    5  C5  UNL     1     -35.292   5.729   4.074  1.00 20.00     0.058 C 
HETATM    6  C6  UNL     1     -31.646   9.160   3.494  1.00 20.00     0.157 C 
HETATM    7  N7  UNL     1     -32.494   8.035   3.102  1.00 20.00    -0.340 N 
HETATM    8  S8  UNL     1     -31.382   7.638   0.588  1.00 20.00    -0.052 SA
HETATM    9  S9  UNL     1     -33.631   6.087   1.860  1.00 20.00    -0.063 SA
ENDROOT
TORSDOF 0
ENDMDL
MODEL 8
REMARK VINA RESULT:       3.3      2.057      3.082
REMARK  0 active torsions:
REMARK  status: ('A' for Active; 'I' for Inactive)
ROOT
HETATM    1  C1  UNL     1     -33.073   7.074   2.471  1.00 20.00     0.021 A 
HETATM    2  C2  UNL     1     -34.017   7.496   3.332  1.00 20.00     0.004 A 
HETATM    3  C3  UNL     1     -33.618   5.004   3.454  1.00 20.00     0.145 A 
HETATM    4  C4  UNL     1     -32.300   7.929   1.515  1.00 20.00     0.069 C 
HETATM    5  C5  UNL     1     -34.540   8.873   3.566  1.00 20.00     0.058 C 
HETATM    6  C6  UNL     1     -31.841   5.073   1.651  1.00 20.00     0.157 C 
HETATM    7  N7  UNL     1     -32.836   5.695   2.523  1.00 20.00    -0.340 N 
HETATM    8  S8  UNL     1     -33.642   3.377   3.822  1.00 20.00    -0.052 SA
HETATM    9  S9  UNL     1     -34.670   6.175   4.266  1.00 20.00    -0.063 SA
ENDROOT
TORSDOF 0
ENDMDL
MODEL 9
REMARK VINA RESULT:       3.5      1.830      3.285
REMARK  0 active torsions:
REMARK  status: ('A' for Active; 'I' for Inactive)
ROOT
HETATM    1  C1  UNL     1     -33.279   7.367   2.957  1.00 20.00     0.021 A 
HETATM    2  C2  UNL     1     -32.590   8.209   2.164  1.00 20.00     0.004 A 
HETATM    3  C3  UNL     1     -32.413   5.797   1.429  1.00 20.00     0.145 A 
HETATM    4  C4  UNL     1     -34.085   7.745   4.161  1.00 20.00     0.069 C 
HETATM    5  C5  UNL     1     -32.440   9.690   2.256  1.00 20.00     0.058 C 
HETATM    6  C6  UNL     1     -33.884   4.981   3.323  1.00 20.00     0.157 C 
HETATM    7  N7  UNL     1     -33.194   6.026   2.568  1.00 20.00    -0.340 N 
HETATM    8  S8  UNL     1     -32.065   4.364   0.650  1.00 20.00    -0.052 SA
HETATM    9  S9  UNL     1     -31.787   7.357   0.870  1.00 20.00    -0.063 SA
ENDROOT
TORSDOF 0
ENDMDL
