MODEL 1
REMARK VINA RESULT:      -0.2      0.000      0.000
REMARK  0 active torsions:
REMARK  status: ('A' for Active; 'I' for Inactive)
ROOT
HETATM    1  C1  UNL     1     -33.597   5.515   2.980  1.00 20.00     0.149 C 
HETATM    2  C2  UNL     1     -34.419   6.603   3.644  1.00 20.00     0.080 C 
HETATM    3  C3  UNL     1     -33.605   7.872   3.832  1.00 20.00     0.007 C 
HETATM    4  C4  UNL     1     -32.972   8.334   2.524  1.00 20.00     0.003 C 
HETATM    5  C5  UNL     1     -32.077   7.239   1.943  1.00 20.00     0.033 C 
HETATM    6  C6  UNL     1     -32.799   5.900   1.732  1.00 20.00     0.093 C 
HETATM    7  C7  UNL     1     -31.790   4.811   1.361  1.00 20.00     0.041 C 
HETATM    8  O8  UNL     1     -33.654   4.355   3.391  1.00 20.00    -0.296 OA
HETATM    9 CL9  UNL     1     -33.997   6.029   0.402  1.00 20.00    -0.111 Cl
ENDROOT
TORSDOF 0
ENDMDL
MODEL 2
REMARK VINA RESULT:       0.4      1.789      2.965
REMARK  0 active torsions:
REMARK  status: ('A' for Active; 'I' for Inactive)
ROOT
HETATM    1  C1  UNL     1     -33.635   7.471   3.900  1.00 20.00     0.149 C 
HETATM    2  C2  UNL     1     -32.886   8.252   2.837  1.00 20.00     0.080 C 
HETATM    3  C3  UNL     1     -32.074   7.329   1.944  1.00 20.00     0.007 C 
HETATM    4  C4  UNL     1     -32.933   6.216   1.355  1.00 20.00     0.003 C 
HETATM    5  C5  UNL     1     -33.590   5.398   2.467  1.00 20.00     0.033 C 
HETATM    6  C6  UNL     1     -34.422   6.241   3.444  1.00 20.00     0.093 C 
HETATM    7  C7  UNL     1     -34.857   5.387   4.637  1.00 20.00     0.041 C 
HETATM    8  O8  UNL     1     -33.669   7.879   5.062  1.00 20.00    -0.296 OA
HETATM    9 CL9  UNL     1     -35.898   6.871   2.639  1.00 20.00    -0.111 Cl
ENDROOT
TORSDOF 0
ENDMDL
MODEL 3
REMARK VINA RESULT:       0.5      1.670      2.403
REMARK  0 active torsions:
REMARK  status: ('A' for Active; 'I' for Inactive)
ROOT
HETATM    1  C1  UNL     1     -32.556   6.361   1.863  1.00 20.00     0.149 C 
HETATM    2  C2  UNL     1     -33.954   5.888   2.214  1.00 20.00     0.080 C 
HETATM    3  C3  UNL     1     -34.317   6.255   3.644  1.00 20.00     0.007 C 
HETATM    4  C4  UNL     1     -34.119   7.743   3.910  1.00 20.00     0.003 C 
HETATM    5  C5  UNL     1     -32.672   8.152   3.633  1.00 20.00     0.033 C 
HETATM    6  C6  UNL     1     -32.193   7.806   2.216  1.00 20.00     0.093 C 
HETATM    7  C7  UNL     1     -30.687   8.044   2.097  1.00 20.00     0.041 C 
HETATM    8  O8  UNL     1     -31.791   5.627   1.237  1.00 20.00    -0.296 OA
HETATM    9 CL9  UNL     1     -33.022   8.833   0.999  1.00 20.00    -0.111 Cl
ENDROOT
TORSDOF 0
ENDMDL
MODEL 4
REMARK VINA RESULT:       1.1      1.991      3.165
REMARK  0 active torsions:
REMARK  status: ('A' for Active; 'I' for Inactive)
ROOT
HETATM    1  C1  UNL     1     -34.322   6.403   3.476  1.00 20.00     0.149 C 
HETATM    2  C2  UNL     1     -33.416   5.252   3.083  1.00 20.00     0.080 C 
HETATM    3  C3  UNL     1     -32.702   5.535   1.772  1.00 20.00     0.007 C 
HETATM    4  C4  UNL     1     -31.967   6.870   1.809  1.00 20.00     0.003 C 
HETATM    5  C5  UNL     1     -32.938   8.011   2.114  1.00 20.00     0.033 C 
HETATM    6  C6  UNL     1     -33.732   7.814   3.414  1.00 20.00     0.093 C 
HETATM    7  C7  UNL     1     -34.825   8.878   3.528  1.00 20.00     0.041 C 
HETATM    8  O8  UNL     1     -35.453   6.184   3.912  1.00 20.00    -0.296 OA
HETATM    9 CL9  UNL     1     -32.655   7.962   4.842  1.00 20.00    -0.111 Cl
ENDROOT
TORSDOF 0
ENDMDL
MODEL 5
REMARK VINA RESULT:       1.2      2.099      2.702
REMARK  0 active torsions:
REMARK  status: ('A' for Active; 'I' for Inactive)
ROOT
HETATM    1  C1  UNL     1     -32.526   7.650   2.014  1.00 20.00     0.149 C 
HETATM    2  C2  UNL     1     -32.494   8.130   3.452  1.00 20.00     0.080 C 
HETATM    3  C3  UNL     1     -33.818   7.867   4.151  1.00 20.00     0.007 C 
HETATM    4  C4  UNL     1     -34.237   6.406   4.032  1.00 20.00     0.003 C 
HETATM    5  C5  UNL     1     -34.348   5.996   2.563  1.00 20.00     0.033 C 
HETATM    6  C6  UNL     1     -33.066   6.241   1.755  1.00 20.00     0.093 C 
HETATM    7  C7  UNL     1     -33.331   6.014   0.266  1.00 20.00     0.041 C 
HETATM    8  O8  UNL     1     -32.049   8.345   1.116  1.00 20.00    -0.296 OA
HETATM    9 CL9  UNL     1     -31.767   5.114   2.271  1.00 20.00    -0.111 Cl
ENDROOT
TORSDOF 0
ENDMDL
MODEL 6
REMARK VINA RESULT:       1.4      1.987      3.551
REMARK  0 active torsions:
REMARK  status: ('A' for Active; 'I' for Inactive)
ROOT
HETATM    1  C1  UNL     1     -33.157   6.988   2.551  1.00 20.00     0.149 C 
HETATM    2  C2  UNL     1     -33.016   5.823   1.590  1.00 20.00     0.080 C 
HETATM    3  C3  UNL     1     -32.825   4.513   2.335  1.00 20.00     0.007 C 
HETATM    4  C4  UNL     1     -33.923   4.288   3.368  1.00 20.00     0.003 C 
HETATM    5  C5  UNL     1     -33.963   5.441   4.371  1.00 20.00     0.033 C 
HETATM    6  C6  UNL     1     -34.132   6.821   3.719  1.00 20.00     0.093 C 
HETATM    7  C7  UNL     1     -33.941   7.922   4.763  1.00 20.00     0.041 C 
HETATM    8  O8  UNL     1     -32.571   8.049   2.332  1.00 20.00    -0.296 OA
HETATM    9 CL9  UNL     1     -35.775   6.992   3.018  1.00 20.00    -0.111 Cl
ENDROOT
TORSDOF 0
ENDMDL
MODEL 7
REMARK VINA RESULT:       1.8      2.521      3.664
REMARK  0 active torsions:
REMARK  status: ('A' for Active; 'I' for Inactive)
ROOT
HETATM    1  C1  UNL     1     -32.036   7.494   1.459  1.00 20.00     0.149 C 
HETATM    2  C2  UNL     1     -31.317   8.305   0.398  1.00 20.00     0.080 C 
HETATM    3  C3  UNL     1     -32.193   9.433  -0.123  1.00 20.00     0.007 C 
HETATM    4  C4  UNL     1     -32.727  10.299   1.012  1.00 20.00     0.003 C 
HETATM    5  C5  UNL     1     -33.525   9.454   2.005  1.00 20.00     0.033 C 
HETATM    6  C6  UNL     1     -32.737   8.267   2.579  1.00 20.00     0.093 C 
HETATM    7  C7  UNL     1     -33.668   7.357   3.382  1.00 20.00     0.041 C 
HETATM    8  O8  UNL     1     -31.970   6.264   1.452  1.00 20.00    -0.296 OA
HETATM    9 CL9  UNL     1     -31.434   8.842   3.671  1.00 20.00    -0.111 Cl
ENDROOT
TORSDOF 0
ENDMDL
MODEL 8
REMARK VINA RESULT:       1.9      1.903      2.891
REMARK  0 active torsions:
REMARK  status: ('A' for Active; 'I' for Inactive)
ROOT
HETATM    1  C1  UNL     1     -33.554   6.378   1.931  1.00 20.00     0.149 C 
HETATM    2  C2  UNL     1     -32.130   6.879   1.787  1.00 20.00     0.080 C 
HETATM    3  C3  UNL     1     -31.940   8.211   2.493  1.00 20.00     0.007 C 
HETATM    4  C4  UNL     1     -32.392   8.146   3.948  1.00 20.00     0.003 C 
HETATM    5  C5  UNL     1     -33.860   7.729   4.037  1.00 20.00     0.033 C 
HETATM    6  C6  UNL     1     -34.169   6.400   3.333  1.00 20.00     0.093 C 
HETATM    7  C7  UNL     1     -35.680   6.172   3.280  1.00 20.00     0.041 C 
HETATM    8  O8  UNL     1     -34.143   5.893   0.964  1.00 20.00    -0.296 OA
HETATM    9 CL9  UNL     1     -33.425   5.027   4.218  1.00 20.00    -0.111 Cl
ENDROOT
TORSDOF 0
ENDMDL
MODEL 9
REMARK VINA RESULT:       1.9      2.292      3.186
REMARK  0 active torsions:
REMARK  status: ('A' for Active; 'I' for Inactive)
ROOT
HETATM    1  C1  UNL     1     -33.534   7.733   2.842  1.00 20.00     0.149 C 
HETATM    2  C2  UNL     1     -33.594   6.333   3.425  1.00 20.00     0.080 C 
HETATM    3  C3  UNL     1     -33.366   5.279   2.353  1.00 20.00     0.007 C 
HETATM    4  C4  UNL     1     -32.078   5.535   1.578  1.00 20.00     0.003 C 
HETATM    5  C5  UNL     1     -32.105   6.919   0.930  1.00 20.00     0.033 C 
HETATM    6  C6  UNL     1     -32.353   8.062   1.926  1.00 20.00     0.093 C 
HETATM    7  C7  UNL     1     -32.583   9.374   1.174  1.00 20.00     0.041 C 
HETATM    8  O8  UNL     1     -34.362   8.581   3.177  1.00 20.00    -0.296 OA
HETATM    9 CL9  UNL     1     -30.936   8.277   3.007  1.00 20.00    -0.111 Cl
ENDROOT
TORSDOF 0
ENDMDL
