MODEL 1
REMARK VINA RESULT:      -1.0      0.000      0.000
REMARK  0 active torsions:
REMARK  status: ('A' for Active; 'I' for Inactive)
ROOT
HETATM    1  C1  UNL     1     -32.494   7.580   1.948  1.00 20.00     0.061 C 
HETATM    2  C2  UNL     1     -33.604   5.374   2.332  1.00 20.00     0.107 C 
HETATM    3  C3  UNL     1     -33.723   6.412   3.444  1.00 20.00     0.114 C 
HETATM    4  C4  UNL     1     -31.843   8.709   1.223  1.00 20.00     0.078 C 
HETATM    5  C5  UNL     1     -35.146   6.504   3.977  1.00 20.00     0.035 C 
HETATM    6  N6  UNL     1     -33.322   7.742   2.927  1.00 20.00    -0.282 NA
HETATM    7  S7  UNL     1     -32.168   5.954   1.408  1.00 20.00    -0.113 SA
ENDROOT
TORSDOF 0
ENDMDL
MODEL 2
REMARK VINA RESULT:      -0.7      1.742      2.100
REMARK  0 active torsions:
REMARK  status: ('A' for Active; 'I' for Inactive)
ROOT
HETATM    1  C1  UNL     1     -32.671   6.109   1.824  1.00 20.00     0.061 C 
HETATM    2  C2  UNL     1     -33.348   7.773   3.562  1.00 20.00     0.107 C 
HETATM    3  C3  UNL     1     -34.398   6.751   3.135  1.00 20.00     0.114 C 
HETATM    4  C4  UNL     1     -31.791   5.290   0.942  1.00 20.00     0.078 C 
HETATM    5  C5  UNL     1     -35.122   6.154   4.334  1.00 20.00     0.035 C 
HETATM    6  N6  UNL     1     -33.746   5.655   2.380  1.00 20.00    -0.282 NA
HETATM    7  S7  UNL     1     -32.194   7.749   2.176  1.00 20.00    -0.113 SA
ENDROOT
TORSDOF 0
ENDMDL
MODEL 3
REMARK VINA RESULT:      -0.4      1.751      3.349
REMARK  0 active torsions:
REMARK  status: ('A' for Active; 'I' for Inactive)
ROOT
HETATM    1  C1  UNL     1     -34.070   6.397   3.329  1.00 20.00     0.061 C 
HETATM    2  C2  UNL     1     -32.303   7.404   1.876  1.00 20.00     0.107 C 
HETATM    3  C3  UNL     1     -32.332   5.881   1.977  1.00 20.00     0.114 C 
HETATM    4  C4  UNL     1     -35.320   6.284   4.133  1.00 20.00     0.078 C 
HETATM    5  C5  UNL     1     -32.185   5.224   0.612  1.00 20.00     0.035 C 
HETATM    6  N6  UNL     1     -33.615   5.448   2.578  1.00 20.00    -0.282 NA
HETATM    7  S7  UNL     1     -33.205   7.911   3.353  1.00 20.00    -0.113 SA
ENDROOT
TORSDOF 0
ENDMDL
MODEL 4
REMARK VINA RESULT:      -0.3      2.393      2.912
REMARK  0 active torsions:
REMARK  status: ('A' for Active; 'I' for Inactive)
ROOT
HETATM    1  C1  UNL     1     -33.628   6.267   3.101  1.00 20.00     0.061 C 
HETATM    2  C2  UNL     1     -35.067   4.971   4.680  1.00 20.00     0.107 C 
HETATM    3  C3  UNL     1     -34.111   4.172   3.799  1.00 20.00     0.114 C 
HETATM    4  C4  UNL     1     -32.921   7.427   2.486  1.00 20.00     0.078 C 
HETATM    5  C5  UNL     1     -33.374   3.103   4.594  1.00 20.00     0.035 C 
HETATM    6  N6  UNL     1     -33.114   5.085   3.192  1.00 20.00    -0.282 NA
HETATM    7  S7  UNL     1     -35.209   6.531   3.787  1.00 20.00    -0.113 SA
ENDROOT
TORSDOF 0
ENDMDL
MODEL 5
REMARK VINA RESULT:      -0.1      0.974      3.021
REMARK  0 active torsions:
REMARK  status: ('A' for Active; 'I' for Inactive)
ROOT
HETATM    1  C1  UNL     1     -33.984   6.567   3.133  1.00 20.00     0.061 C 
HETATM    2  C2  UNL     1     -32.019   6.312   1.610  1.00 20.00     0.107 C 
HETATM    3  C3  UNL     1     -32.441   7.735   1.965  1.00 20.00     0.114 C 
HETATM    4  C4  UNL     1     -35.036   6.211   4.129  1.00 20.00     0.078 C 
HETATM    5  C5  UNL     1     -31.243   8.602   2.327  1.00 20.00     0.035 C 
HETATM    6  N6  UNL     1     -33.372   7.705   3.118  1.00 20.00    -0.282 NA
HETATM    7  S7  UNL     1     -33.512   5.363   1.963  1.00 20.00    -0.113 SA
ENDROOT
TORSDOF 0
ENDMDL
MODEL 6
REMARK VINA RESULT:       0.1      2.039      2.860
REMARK  0 active torsions:
REMARK  status: ('A' for Active; 'I' for Inactive)
ROOT
HETATM    1  C1  UNL     1     -33.705   7.417   3.853  1.00 20.00     0.061 C 
HETATM    2  C2  UNL     1     -33.923   5.186   2.747  1.00 20.00     0.107 C 
HETATM    3  C3  UNL     1     -33.227   6.288   1.953  1.00 20.00     0.114 C 
HETATM    4  C4  UNL     1     -33.684   8.445   4.933  1.00 20.00     0.078 C 
HETATM    5  C5  UNL     1     -31.953   5.784   1.290  1.00 20.00     0.035 C 
HETATM    6  N6  UNL     1     -32.880   7.410   2.858  1.00 20.00    -0.282 NA
HETATM    7  S7  UNL     1     -34.866   6.121   3.968  1.00 20.00    -0.113 SA
ENDROOT
TORSDOF 0
ENDMDL
MODEL 7
REMARK VINA RESULT:       0.1      1.805      3.550
REMARK  0 active torsions:
REMARK  status: ('A' for Active; 'I' for Inactive)
ROOT
HETATM    1  C1  UNL     1     -34.059   6.863   3.538  1.00 20.00     0.061 C 
HETATM    2  C2  UNL     1     -32.317   8.647   3.361  1.00 20.00     0.107 C 
HETATM    3  C3  UNL     1     -32.211   7.476   2.389  1.00 20.00     0.114 C 
HETATM    4  C4  UNL     1     -35.335   6.189   3.913  1.00 20.00     0.078 C 
HETATM    5  C5  UNL     1     -31.931   7.948   0.968  1.00 20.00     0.035 C 
HETATM    6  N6  UNL     1     -33.479   6.709   2.393  1.00 20.00    -0.282 NA
HETATM    7  S7  UNL     1     -33.340   7.966   4.681  1.00 20.00    -0.113 SA
ENDROOT
TORSDOF 0
ENDMDL
MODEL 8
REMARK VINA RESULT:       0.2      1.753      2.955
REMARK  0 active torsions:
REMARK  status: ('A' for Active; 'I' for Inactive)
ROOT
HETATM    1  C1  UNL     1     -33.211   7.385   3.384  1.00 20.00     0.061 C 
HETATM    2  C2  UNL     1     -31.971   7.526   1.219  1.00 20.00     0.107 C 
HETATM    3  C3  UNL     1     -32.362   6.133   1.704  1.00 20.00     0.114 C 
HETATM    4  C4  UNL     1     -34.017   7.814   4.563  1.00 20.00     0.078 C 
HETATM    5  C5  UNL     1     -32.953   5.292   0.580  1.00 20.00     0.035 C 
HETATM    6  N6  UNL     1     -33.365   6.248   2.789  1.00 20.00    -0.282 NA
HETATM    7  S7  UNL     1     -32.038   8.501   2.735  1.00 20.00    -0.113 SA
ENDROOT
TORSDOF 0
ENDMDL
MODEL 9
REMARK VINA RESULT:       0.3      1.506      2.998
REMARK  0 active torsions:
REMARK  status: ('A' for Active; 'I' for Inactive)
ROOT
HETATM    1  C1  UNL     1     -33.544   7.488   3.718  1.00 20.00     0.061 C 
HETATM    2  C2  UNL     1     -32.853   5.946   1.876  1.00 20.00     0.107 C 
HETATM    3  C3  UNL     1     -32.668   7.441   1.634  1.00 20.00     0.114 C 
HETATM    4  C4  UNL     1     -33.929   7.951   5.082  1.00 20.00     0.078 C 
HETATM    5  C5  UNL     1     -31.305   7.748   1.029  1.00 20.00     0.035 C 
HETATM    6  N6  UNL     1     -32.794   8.173   2.917  1.00 20.00    -0.282 NA
HETATM    7  S7  UNL     1     -34.082   5.914   3.196  1.00 20.00    -0.113 SA
ENDROOT
TORSDOF 0
ENDMDL
