MODEL 1
REMARK VINA RESULT:      -1.9      0.000      0.000
REMARK  3 active torsions:
REMARK  status: ('A' for Active; 'I' for Inactive)
REMARK    1  A    between atoms: C3_3  and  C8_8 
REMARK    2  A    between atoms: C6_6  and  C7_7 
REMARK    3  A    between atoms: C7_7  and  C8_8 
ROOT
HETATM    1  C1  UNL     1     -35.197   6.427   3.796  1.00 20.00     0.197 C 
HETATM    2  C2  UNL     1     -34.513   7.516   4.577  1.00 20.00     0.197 C 
HETATM    3  C3  UNL     1     -33.034   6.596   3.143  1.00 20.00     0.263 C 
HETATM    4  O9  UNL     1     -34.111   5.660   3.275  1.00 20.00    -0.359 OA
HETATM    5  O10 UNL     1     -33.387   7.839   3.763  1.00 20.00    -0.359 OA
ENDROOT
BRANCH   3   6
HETATM    6  C8  UNL     1     -32.731   6.832   1.677  1.00 20.00     0.037 C 
HETATM    7  C5  UNL     1     -32.107   5.575   1.069  1.00 20.00     0.015 C 
BRANCH   6   8
HETATM    8  C7  UNL     1     -31.827   8.071   1.523  1.00 20.00     0.009 C 
BRANCH   8   9
HETATM    9  C6  UNL     1     -32.026   8.809   0.197  1.00 20.00    -0.004 C 
HETATM   10  C4  UNL     1     -32.605  10.199   0.419  1.00 20.00     0.005 C 
ENDBRANCH   8   9
ENDBRANCH   6   8
ENDBRANCH   3   6
TORSDOF 3
ENDMDL
MODEL 2
REMARK VINA RESULT:      -1.5      1.917      4.663
REMARK  3 active torsions:
REMARK  status: ('A' for Active; 'I' for Inactive)
REMARK    1  A    between atoms: C3_3  and  C8_8 
REMARK    2  A    between atoms: C6_6  and  C7_7 
REMARK    3  A    between atoms: C7_7  and  C8_8 
ROOT
HETATM    1  C1  UNL     1     -32.293   8.082   1.809  1.00 20.00     0.197 C 
HETATM    2  C2  UNL     1     -32.028   6.846   0.993  1.00 20.00     0.197 C 
HETATM    3  C3  UNL     1     -32.973   6.248   2.953  1.00 20.00     0.263 C 
HETATM    4  O9  UNL     1     -32.464   7.576   3.133  1.00 20.00    -0.359 OA
HETATM    5  O10 UNL     1     -32.911   5.884   1.568  1.00 20.00    -0.359 OA
ENDROOT
BRANCH   3   6
HETATM    6  C8  UNL     1     -34.410   6.176   3.429  1.00 20.00     0.037 C 
HETATM    7  C5  UNL     1     -34.770   7.461   4.177  1.00 20.00     0.015 C 
BRANCH   6   8
HETATM    8  C7  UNL     1     -34.612   4.916   4.294  1.00 20.00     0.009 C 
BRANCH   8   9
HETATM    9  C6  UNL     1     -33.759   3.727   3.846  1.00 20.00    -0.004 C 
HETATM   10  C4  UNL     1     -33.134   3.014   5.036  1.00 20.00     0.005 C 
ENDBRANCH   8   9
ENDBRANCH   6   8
ENDBRANCH   3   6
TORSDOF 3
ENDMDL
MODEL 3
REMARK VINA RESULT:      -1.1      1.358      4.490
REMARK  3 active torsions:
REMARK  status: ('A' for Active; 'I' for Inactive)
REMARK    1  A    between atoms: C3_3  and  C8_8 
REMARK    2  A    between atoms: C6_6  and  C7_7 
REMARK    3  A    between atoms: C7_7  and  C8_8 
ROOT
HETATM    1  C1  UNL     1     -31.963   8.363   1.330  1.00 20.00     0.197 C 
HETATM    2  C2  UNL     1     -32.036   6.911   0.941  1.00 20.00     0.197 C 
HETATM    3  C3  UNL     1     -32.778   7.145   3.059  1.00 20.00     0.263 C 
HETATM    4  O9  UNL     1     -32.027   8.328   2.756  1.00 20.00    -0.359 OA
HETATM    5  O10 UNL     1     -32.980   6.375   1.867  1.00 20.00    -0.359 OA
ENDROOT
BRANCH   3   6
HETATM    6  C8  UNL     1     -34.122   7.523   3.648  1.00 20.00     0.037 C 
HETATM    7  C5  UNL     1     -33.953   7.905   5.120  1.00 20.00     0.015 C 
BRANCH   6   8
HETATM    8  C7  UNL     1     -35.123   6.367   3.452  1.00 20.00     0.009 C 
BRANCH   8   9
HETATM    9  C6  UNL     1     -35.107   5.348   4.594  1.00 20.00    -0.004 C 
HETATM   10  C4  UNL     1     -34.198   4.171   4.273  1.00 20.00     0.005 C 
ENDBRANCH   8   9
ENDBRANCH   6   8
ENDBRANCH   3   6
TORSDOF 3
ENDMDL
MODEL 4
REMARK VINA RESULT:      -0.6      1.739      4.184
REMARK  3 active torsions:
REMARK  status: ('A' for Active; 'I' for Inactive)
REMARK    1  A    between atoms: C3_3  and  C8_8 
REMARK    2  A    between atoms: C6_6  and  C7_7 
REMARK    3  A    between atoms: C7_7  and  C8_8 
ROOT
HETATM    1  C1  UNL     1     -32.678   9.665   0.359  1.00 20.00     0.197 C 
HETATM    2  C2  UNL     1     -31.428   9.061  -0.220  1.00 20.00     0.197 C 
HETATM    3  C3  UNL     1     -31.743   8.249   1.861  1.00 20.00     0.263 C 
HETATM    4  O9  UNL     1     -32.537   9.438   1.762  1.00 20.00    -0.359 OA
HETATM    5  O10 UNL     1     -31.241   7.887   0.568  1.00 20.00    -0.359 OA
ENDROOT
BRANCH   3   6
HETATM    6  C8  UNL     1     -32.582   7.113   2.412  1.00 20.00     0.037 C 
HETATM    7  C5  UNL     1     -32.695   6.001   1.368  1.00 20.00     0.015 C 
BRANCH   6   8
HETATM    8  C7  UNL     1     -33.958   7.646   2.855  1.00 20.00     0.009 C 
BRANCH   8   9
HETATM    9  C6  UNL     1     -34.383   7.160   4.242  1.00 20.00    -0.004 C 
HETATM   10  C4  UNL     1     -35.321   5.965   4.147  1.00 20.00     0.005 C 
ENDBRANCH   8   9
ENDBRANCH   6   8
ENDBRANCH   3   6
TORSDOF 3
ENDMDL
MODEL 5
REMARK VINA RESULT:      -0.6      1.366      2.279
REMARK  3 active torsions:
REMARK  status: ('A' for Active; 'I' for Inactive)
REMARK    1  A    between atoms: C3_3  and  C8_8 
REMARK    2  A    between atoms: C6_6  and  C7_7 
REMARK    3  A    between atoms: C7_7  and  C8_8 
ROOT
HETATM    1  C1  UNL     1     -35.015   5.008   4.764  1.00 20.00     0.197 C 
HETATM    2  C2  UNL     1     -34.181   3.917   4.148  1.00 20.00     0.197 C 
HETATM    3  C3  UNL     1     -33.942   5.803   2.933  1.00 20.00     0.263 C 
HETATM    4  O9  UNL     1     -35.133   5.968   3.714  1.00 20.00    -0.359 OA
HETATM    5  O10 UNL     1     -33.228   4.639   3.370  1.00 20.00    -0.359 OA
ENDROOT
BRANCH   3   6
HETATM    6  C8  UNL     1     -33.055   7.023   3.081  1.00 20.00     0.037 C 
HETATM    7  C5  UNL     1     -33.833   8.148   3.767  1.00 20.00     0.015 C 
BRANCH   6   8
HETATM    8  C7  UNL     1     -32.508   7.442   1.702  1.00 20.00     0.009 C 
BRANCH   8   9
HETATM    9  C6  UNL     1     -31.995   8.883   1.662  1.00 20.00    -0.004 C 
HETATM   10  C4  UNL     1     -32.380   9.572   0.361  1.00 20.00     0.005 C 
ENDBRANCH   8   9
ENDBRANCH   6   8
ENDBRANCH   3   6
TORSDOF 3
ENDMDL
MODEL 6
REMARK VINA RESULT:      -0.5      1.128      1.933
REMARK  3 active torsions:
REMARK  status: ('A' for Active; 'I' for Inactive)
REMARK    1  A    between atoms: C3_3  and  C8_8 
REMARK    2  A    between atoms: C6_6  and  C7_7 
REMARK    3  A    between atoms: C7_7  and  C8_8 
ROOT
HETATM    1  C1  UNL     1     -34.332   7.058   4.432  1.00 20.00     0.197 C 
HETATM    2  C2  UNL     1     -34.509   5.788   3.644  1.00 20.00     0.197 C 
HETATM    3  C3  UNL     1     -33.462   7.315   2.355  1.00 20.00     0.263 C 
HETATM    4  O9  UNL     1     -34.081   8.040   3.426  1.00 20.00    -0.359 OA
HETATM    5  O10 UNL     1     -33.529   5.907   2.615  1.00 20.00    -0.359 OA
ENDROOT
BRANCH   3   6
HETATM    6  C8  UNL     1     -32.011   7.734   2.220  1.00 20.00     0.037 C 
HETATM    7  C5  UNL     1     -31.628   8.651   3.382  1.00 20.00     0.015 C 
BRANCH   6   8
HETATM    8  C7  UNL     1     -31.785   8.398   0.847  1.00 20.00     0.009 C 
BRANCH   8   9
HETATM    9  C6  UNL     1     -32.353   9.816   0.756  1.00 20.00    -0.004 C 
HETATM   10  C4  UNL     1     -32.778  10.151  -0.666  1.00 20.00     0.005 C 
ENDBRANCH   8   9
ENDBRANCH   6   8
ENDBRANCH   3   6
TORSDOF 3
ENDMDL
MODEL 7
REMARK VINA RESULT:      -0.4      1.848      2.820
REMARK  3 active torsions:
REMARK  status: ('A' for Active; 'I' for Inactive)
REMARK    1  A    between atoms: C3_3  and  C8_8 
REMARK    2  A    between atoms: C6_6  and  C7_7 
REMARK    3  A    between atoms: C7_7  and  C8_8 
ROOT
HETATM    1  C1  UNL     1     -34.160   3.843   5.135  1.00 20.00     0.197 C 
HETATM    2  C2  UNL     1     -33.359   3.084   4.112  1.00 20.00     0.197 C 
HETATM    3  C3  UNL     1     -34.036   5.040   3.215  1.00 20.00     0.263 C 
HETATM    4  O9  UNL     1     -34.874   4.800   4.353  1.00 20.00    -0.359 OA
HETATM    5  O10 UNL     1     -32.952   4.102   3.199  1.00 20.00    -0.359 OA
ENDROOT
BRANCH   3   6
HETATM    6  C8  UNL     1     -33.482   6.450   3.269  1.00 20.00     0.037 C 
HETATM    7  C5  UNL     1     -34.523   7.391   3.877  1.00 20.00     0.015 C 
BRANCH   6   8
HETATM    8  C7  UNL     1     -33.041   6.892   1.860  1.00 20.00     0.009 C 
BRANCH   8   9
HETATM    9  C6  UNL     1     -31.952   7.968   1.872  1.00 20.00    -0.004 C 
HETATM   10  C4  UNL     1     -32.231   9.050   0.839  1.00 20.00     0.005 C 
ENDBRANCH   8   9
ENDBRANCH   6   8
ENDBRANCH   3   6
TORSDOF 3
ENDMDL
MODEL 8
REMARK VINA RESULT:       0.0      2.045      4.229
REMARK  3 active torsions:
REMARK  status: ('A' for Active; 'I' for Inactive)
REMARK    1  A    between atoms: C3_3  and  C8_8 
REMARK    2  A    between atoms: C6_6  and  C7_7 
REMARK    3  A    between atoms: C7_7  and  C8_8 
ROOT
HETATM    1  C1  UNL     1     -31.718   9.876  -0.427  1.00 20.00     0.197 C 
HETATM    2  C2  UNL     1     -32.586  10.833   0.344  1.00 20.00     0.197 C 
HETATM    3  C3  UNL     1     -32.962   8.735   1.084  1.00 20.00     0.263 C 
HETATM    4  O9  UNL     1     -32.336   8.609  -0.199  1.00 20.00    -0.359 OA
HETATM    5  O10 UNL     1     -32.907  10.098   1.524  1.00 20.00    -0.359 OA
ENDROOT
BRANCH   3   6
HETATM    6  C8  UNL     1     -32.254   7.852   2.093  1.00 20.00     0.037 C 
HETATM    7  C5  UNL     1     -31.858   6.530   1.433  1.00 20.00     0.015 C 
BRANCH   6   8
HETATM    8  C7  UNL     1     -33.153   7.647   3.329  1.00 20.00     0.009 C 
BRANCH   8   9
HETATM    9  C6  UNL     1     -33.904   6.314   3.321  1.00 20.00    -0.004 C 
HETATM   10  C4  UNL     1     -35.259   6.438   4.003  1.00 20.00     0.005 C 
ENDBRANCH   8   9
ENDBRANCH   6   8
ENDBRANCH   3   6
TORSDOF 3
ENDMDL
MODEL 9
REMARK VINA RESULT:       0.2      2.149      4.030
REMARK  3 active torsions:
REMARK  status: ('A' for Active; 'I' for Inactive)
REMARK    1  A    between atoms: C3_3  and  C8_8 
REMARK    2  A    between atoms: C6_6  and  C7_7 
REMARK    3  A    between atoms: C7_7  and  C8_8 
ROOT
HETATM    1  C1  UNL     1     -32.871   8.199   4.330  1.00 20.00     0.197 C 
HETATM    2  C2  UNL     1     -34.346   7.951   4.502  1.00 20.00     0.197 C 
HETATM    3  C3  UNL     1     -33.606   6.790   2.714  1.00 20.00     0.263 C 
HETATM    4  O9  UNL     1     -32.622   7.798   2.982  1.00 20.00    -0.359 OA
HETATM    5  O10 UNL     1     -34.554   6.734   3.787  1.00 20.00    -0.359 OA
ENDROOT
BRANCH   3   6
HETATM    6  C8  UNL     1     -32.934   5.439   2.563  1.00 20.00     0.037 C 
HETATM    7  C5  UNL     1     -32.433   5.269   1.128  1.00 20.00     0.015 C 
BRANCH   6   8
HETATM    8  C7  UNL     1     -33.909   4.322   2.982  1.00 20.00     0.009 C 
BRANCH   8   9
HETATM    9  C6  UNL     1     -33.834   3.974   4.471  1.00 20.00    -0.004 C 
HETATM   10  C4  UNL     1     -33.055   2.687   4.700  1.00 20.00     0.005 C 
ENDBRANCH   8   9
ENDBRANCH   6   8
ENDBRANCH   3   6
TORSDOF 3
ENDMDL
