MODEL 1
REMARK VINA RESULT:      -0.6      0.000      0.000
REMARK  2 active torsions:
REMARK  status: ('A' for Active; 'I' for Inactive)
REMARK    1  A    between atoms: C1_1  and  C7_7 
REMARK    2  A    between atoms: C7_7  and  C8_8 
ROOT
HETATM    1  C3  UNL     1     -33.673   8.057   3.954  1.00 20.00     0.018 C 
HETATM    2  C7  UNL     1     -33.301   6.660   3.449  1.00 20.00     0.058 C 
ENDROOT
BRANCH   2   3
HETATM    3  C1  UNL     1     -34.482   5.728   3.738  1.00 20.00     0.127 C 
HETATM    4  C2  UNL     1     -34.161   4.273   3.966  1.00 20.00     0.091 C 
HETATM    5  O9  UNL     1     -35.641   6.136   3.806  1.00 20.00    -0.298 OA
ENDBRANCH   2   3
BRANCH   2   6
HETATM    6  C8  UNL     1     -32.815   6.598   1.964  1.00 20.00    -0.041 C 
HETATM    7  C4  UNL     1     -31.794   5.455   1.785  1.00 20.00     0.015 C 
HETATM    8  C5  UNL     1     -33.965   6.382   0.962  1.00 20.00     0.015 C 
HETATM    9  C6  UNL     1     -32.102   7.918   1.593  1.00 20.00     0.015 C 
ENDBRANCH   2   6
TORSDOF 2
ENDMDL
MODEL 2
REMARK VINA RESULT:      -0.5      0.052      1.429
REMARK  2 active torsions:
REMARK  status: ('A' for Active; 'I' for Inactive)
REMARK    1  A    between atoms: C1_1  and  C7_7 
REMARK    2  A    between atoms: C7_7  and  C8_8 
ROOT
HETATM    1  C3  UNL     1     -33.698   8.049   3.957  1.00 20.00     0.018 C 
HETATM    2  C7  UNL     1     -33.296   6.653   3.470  1.00 20.00     0.058 C 
ENDROOT
BRANCH   2   3
HETATM    3  C1  UNL     1     -34.462   5.703   3.759  1.00 20.00     0.127 C 
HETATM    4  C2  UNL     1     -34.120   4.249   3.965  1.00 20.00     0.091 C 
HETATM    5  O9  UNL     1     -35.626   6.096   3.846  1.00 20.00    -0.298 OA
ENDBRANCH   2   3
BRANCH   2   6
HETATM    6  C8  UNL     1     -32.797   6.585   1.990  1.00 20.00    -0.041 C 
HETATM    7  C4  UNL     1     -32.085   7.899   1.606  1.00 20.00     0.015 C 
HETATM    8  C5  UNL     1     -31.828   5.415   1.734  1.00 20.00     0.015 C 
HETATM    9  C6  UNL     1     -34.004   6.418   1.040  1.00 20.00     0.015 C 
ENDBRANCH   2   6
TORSDOF 2
ENDMDL
MODEL 3
REMARK VINA RESULT:      -0.4      0.043      1.442
REMARK  2 active torsions:
REMARK  status: ('A' for Active; 'I' for Inactive)
REMARK    1  A    between atoms: C1_1  and  C7_7 
REMARK    2  A    between atoms: C7_7  and  C8_8 
ROOT
HETATM    1  C3  UNL     1     -33.676   8.064   3.998  1.00 20.00     0.018 C 
HETATM    2  C7  UNL     1     -33.294   6.678   3.470  1.00 20.00     0.058 C 
ENDROOT
BRANCH   2   3
HETATM    3  C1  UNL     1     -34.470   5.734   3.738  1.00 20.00     0.127 C 
HETATM    4  C2  UNL     1     -34.140   4.278   3.950  1.00 20.00     0.091 C 
HETATM    5  O9  UNL     1     -35.632   6.133   3.803  1.00 20.00    -0.298 OA
ENDBRANCH   2   3
BRANCH   2   6
HETATM    6  C8  UNL     1     -32.802   6.645   1.986  1.00 20.00    -0.041 C 
HETATM    7  C4  UNL     1     -33.995   6.409   1.035  1.00 20.00     0.015 C 
HETATM    8  C5  UNL     1     -32.090   7.942   1.558  1.00 20.00     0.015 C 
HETATM    9  C6  UNL     1     -31.815   5.473   1.790  1.00 20.00     0.015 C 
ENDBRANCH   2   6
TORSDOF 2
ENDMDL
MODEL 4
REMARK VINA RESULT:      -0.4      1.838      3.245
REMARK  2 active torsions:
REMARK  status: ('A' for Active; 'I' for Inactive)
REMARK    1  A    between atoms: C1_1  and  C7_7 
REMARK    2  A    between atoms: C7_7  and  C8_8 
ROOT
HETATM    1  C3  UNL     1     -32.221   8.018   2.294  1.00 20.00     0.018 C 
HETATM    2  C7  UNL     1     -33.348   6.994   2.121  1.00 20.00     0.058 C 
ENDROOT
BRANCH   2   3
HETATM    3  C1  UNL     1     -32.770   5.783   1.382  1.00 20.00     0.127 C 
HETATM    4  C2  UNL     1     -33.665   5.112   0.371  1.00 20.00     0.091 C 
HETATM    5  O9  UNL     1     -31.624   5.378   1.576  1.00 20.00    -0.298 OA
ENDBRANCH   2   3
BRANCH   2   6
HETATM    6  C8  UNL     1     -34.104   6.611   3.435  1.00 20.00    -0.041 C 
HETATM    7  C4  UNL     1     -35.628   6.755   3.234  1.00 20.00     0.015 C 
HETATM    8  C5  UNL     1     -33.811   5.173   3.903  1.00 20.00     0.015 C 
HETATM    9  C6  UNL     1     -33.694   7.574   4.572  1.00 20.00     0.015 C 
ENDBRANCH   2   6
TORSDOF 2
ENDMDL
MODEL 5
REMARK VINA RESULT:      -0.3      1.834      3.230
REMARK  2 active torsions:
REMARK  status: ('A' for Active; 'I' for Inactive)
REMARK    1  A    between atoms: C1_1  and  C7_7 
REMARK    2  A    between atoms: C7_7  and  C8_8 
ROOT
HETATM    1  C3  UNL     1     -32.204   8.038   2.284  1.00 20.00     0.018 C 
HETATM    2  C7  UNL     1     -33.337   7.020   2.116  1.00 20.00     0.058 C 
ENDROOT
BRANCH   2   3
HETATM    3  C1  UNL     1     -32.766   5.802   1.382  1.00 20.00     0.127 C 
HETATM    4  C2  UNL     1     -33.670   5.125   0.383  1.00 20.00     0.091 C 
HETATM    5  O9  UNL     1     -31.620   5.397   1.571  1.00 20.00    -0.298 OA
ENDBRANCH   2   3
BRANCH   2   6
HETATM    6  C8  UNL     1     -34.096   6.648   3.431  1.00 20.00    -0.041 C 
HETATM    7  C4  UNL     1     -33.665   7.585   4.579  1.00 20.00     0.015 C 
HETATM    8  C5  UNL     1     -35.628   6.729   3.288  1.00 20.00     0.015 C 
HETATM    9  C6  UNL     1     -33.734   5.206   3.851  1.00 20.00     0.015 C 
ENDBRANCH   2   6
TORSDOF 2
ENDMDL
MODEL 6
REMARK VINA RESULT:      -0.0      1.852      3.707
REMARK  2 active torsions:
REMARK  status: ('A' for Active; 'I' for Inactive)
REMARK    1  A    between atoms: C1_1  and  C7_7 
REMARK    2  A    between atoms: C7_7  and  C8_8 
ROOT
HETATM    1  C3  UNL     1     -33.037   5.836   1.291  1.00 20.00     0.018 C 
HETATM    2  C7  UNL     1     -32.860   6.535   2.642  1.00 20.00     0.058 C 
ENDROOT
BRANCH   2   3
HETATM    3  C1  UNL     1     -32.228   7.906   2.380  1.00 20.00     0.127 C 
HETATM    4  C2  UNL     1     -32.459   8.513   1.019  1.00 20.00     0.091 C 
HETATM    5  O9  UNL     1     -31.579   8.506   3.236  1.00 20.00    -0.298 OA
ENDBRANCH   2   3
BRANCH   2   6
HETATM    6  C8  UNL     1     -34.149   6.609   3.525  1.00 20.00    -0.041 C 
HETATM    7  C4  UNL     1     -33.958   7.636   4.662  1.00 20.00     0.015 C 
HETATM    8  C5  UNL     1     -35.407   7.000   2.725  1.00 20.00     0.015 C 
HETATM    9  C6  UNL     1     -34.411   5.235   4.181  1.00 20.00     0.015 C 
ENDBRANCH   2   6
TORSDOF 2
ENDMDL
MODEL 7
REMARK VINA RESULT:       0.0      1.860      3.688
REMARK  2 active torsions:
REMARK  status: ('A' for Active; 'I' for Inactive)
REMARK    1  A    between atoms: C1_1  and  C7_7 
REMARK    2  A    between atoms: C7_7  and  C8_8 
ROOT
HETATM    1  C3  UNL     1     -33.056   5.889   1.233  1.00 20.00     0.018 C 
HETATM    2  C7  UNL     1     -32.836   6.558   2.594  1.00 20.00     0.058 C 
ENDROOT
BRANCH   2   3
HETATM    3  C1  UNL     1     -32.206   7.931   2.343  1.00 20.00     0.127 C 
HETATM    4  C2  UNL     1     -32.469   8.566   1.001  1.00 20.00     0.091 C 
HETATM    5  O9  UNL     1     -31.535   8.513   3.195  1.00 20.00    -0.298 OA
ENDBRANCH   2   3
BRANCH   2   6
HETATM    6  C8  UNL     1     -34.097   6.616   3.517  1.00 20.00    -0.041 C 
HETATM    7  C4  UNL     1     -34.369   5.228   4.134  1.00 20.00     0.015 C 
HETATM    8  C5  UNL     1     -33.959   7.638   4.662  1.00 20.00     0.015 C 
HETATM    9  C6  UNL     1     -35.337   7.003   2.681  1.00 20.00     0.015 C 
ENDBRANCH   2   6
TORSDOF 2
ENDMDL
MODEL 8
REMARK VINA RESULT:       0.0      1.347      2.645
REMARK  2 active torsions:
REMARK  status: ('A' for Active; 'I' for Inactive)
REMARK    1  A    between atoms: C1_1  and  C7_7 
REMARK    2  A    between atoms: C7_7  and  C8_8 
ROOT
HETATM    1  C3  UNL     1     -32.610   5.407   1.087  1.00 20.00     0.018 C 
HETATM    2  C7  UNL     1     -33.275   6.569   1.833  1.00 20.00     0.058 C 
ENDROOT
BRANCH   2   3
HETATM    3  C1  UNL     1     -33.882   6.011   3.123  1.00 20.00     0.127 C 
HETATM    4  C2  UNL     1     -34.984   6.818   3.762  1.00 20.00     0.091 C 
HETATM    5  O9  UNL     1     -33.514   4.945   3.617  1.00 20.00    -0.298 OA
ENDBRANCH   2   3
BRANCH   2   6
HETATM    6  C8  UNL     1     -32.361   7.816   2.070  1.00 20.00    -0.041 C 
HETATM    7  C4  UNL     1     -32.796   8.978   1.152  1.00 20.00     0.015 C 
HETATM    8  C5  UNL     1     -32.386   8.314   3.528  1.00 20.00     0.015 C 
HETATM    9  C6  UNL     1     -30.899   7.465   1.712  1.00 20.00     0.015 C 
ENDBRANCH   2   6
TORSDOF 2
ENDMDL
MODEL 9
REMARK VINA RESULT:       0.1      1.907      3.415
REMARK  2 active torsions:
REMARK  status: ('A' for Active; 'I' for Inactive)
REMARK    1  A    between atoms: C1_1  and  C7_7 
REMARK    2  A    between atoms: C7_7  and  C8_8 
ROOT
HETATM    1  C3  UNL     1     -33.843   7.426   3.658  1.00 20.00     0.018 C 
HETATM    2  C7  UNL     1     -33.348   7.237   2.220  1.00 20.00     0.058 C 
ENDROOT
BRANCH   2   3
HETATM    3  C1  UNL     1     -32.176   8.197   1.998  1.00 20.00     0.127 C 
HETATM    4  C2  UNL     1     -32.126   8.915   0.673  1.00 20.00     0.091 C 
HETATM    5  O9  UNL     1     -31.321   8.402   2.859  1.00 20.00    -0.298 OA
ENDBRANCH   2   3
BRANCH   2   6
HETATM    6  C8  UNL     1     -33.021   5.761   1.819  1.00 20.00    -0.041 C 
HETATM    7  C4  UNL     1     -33.753   5.389   0.512  1.00 20.00     0.015 C 
HETATM    8  C5  UNL     1     -31.514   5.511   1.619  1.00 20.00     0.015 C 
HETATM    9  C6  UNL     1     -33.521   4.799   2.919  1.00 20.00     0.015 C 
ENDBRANCH   2   6
TORSDOF 2
ENDMDL
