MODEL 1
REMARK VINA RESULT:      -1.0      0.000      0.000
REMARK  1 active torsions:
REMARK  status: ('A' for Active; 'I' for Inactive)
REMARK    1  A    between atoms: C1_1  and  C7_7 
ROOT
HETATM    1  C2  UNL     1     -34.625   6.744   4.294  1.00 20.00     0.001 C 
HETATM    2  C3  UNL     1     -31.450   6.772   1.805  1.00 20.00     0.016 C 
HETATM    3  C4  UNL     1     -34.133   5.682   3.327  1.00 20.00     0.005 C 
HETATM    4  C5  UNL     1     -33.672   7.900   4.031  1.00 20.00     0.006 C 
HETATM    5  C6  UNL     1     -32.623   5.957   1.271  1.00 20.00     0.006 C 
HETATM    6  C7  UNL     1     -32.035   8.155   2.075  1.00 20.00     0.091 C 
HETATM    7  C8  UNL     1     -33.831   6.467   2.049  1.00 20.00    -0.010 C 
HETATM    8  C9  UNL     1     -33.481   7.900   2.509  1.00 20.00     0.004 C 
ENDROOT
BRANCH   6   9
HETATM    9  C1  UNL     1     -32.002   8.997   0.833  1.00 20.00     0.177 C 
HETATM   10  O10 UNL     1     -32.911   9.869   0.748  1.00 20.00    -0.648 OA
HETATM   11  O11 UNL     1     -31.065   8.722   0.031  1.00 20.00    -0.648 OA
ENDBRANCH   6   9
TORSDOF 1
ENDMDL
MODEL 2
REMARK VINA RESULT:       0.6      2.246      3.790
REMARK  1 active torsions:
REMARK  status: ('A' for Active; 'I' for Inactive)
REMARK    1  A    between atoms: C1_1  and  C7_7 
ROOT
HETATM    1  C2  UNL     1     -31.741   9.597   0.336  1.00 20.00     0.001 C 
HETATM    2  C3  UNL     1     -33.412   6.149   1.601  1.00 20.00     0.016 C 
HETATM    3  C4  UNL     1     -31.193   8.181   0.316  1.00 20.00     0.005 C 
HETATM    4  C5  UNL     1     -33.071   9.428   1.055  1.00 20.00     0.006 C 
HETATM    5  C6  UNL     1     -31.893   6.167   1.742  1.00 20.00     0.006 C 
HETATM    6  C7  UNL     1     -33.883   7.381   2.368  1.00 20.00     0.091 C 
HETATM    7  C8  UNL     1     -31.522   7.646   1.711  1.00 20.00    -0.010 C 
HETATM    8  C9  UNL     1     -32.775   8.421   2.174  1.00 20.00     0.004 C 
ENDROOT
BRANCH   6   9
HETATM    9  C1  UNL     1     -34.055   7.066   3.826  1.00 20.00     0.177 C 
HETATM   10  O10 UNL     1     -33.451   7.839   4.620  1.00 20.00    -0.648 OA
HETATM   11  O11 UNL     1     -34.785   6.064   4.068  1.00 20.00    -0.648 OA
ENDBRANCH   6   9
TORSDOF 1
ENDMDL
MODEL 3
REMARK VINA RESULT:       0.7      2.735      4.303
REMARK  1 active torsions:
REMARK  status: ('A' for Active; 'I' for Inactive)
REMARK    1  A    between atoms: C1_1  and  C7_7 
ROOT
HETATM    1  C2  UNL     1     -31.683   6.901   0.995  1.00 20.00     0.001 C 
HETATM    2  C3  UNL     1     -33.405   7.181   4.633  1.00 20.00     0.016 C 
HETATM    3  C4  UNL     1     -31.968   8.124   1.850  1.00 20.00     0.005 C 
HETATM    4  C5  UNL     1     -32.303   5.776   1.809  1.00 20.00     0.006 C 
HETATM    5  C6  UNL     1     -33.671   8.395   3.749  1.00 20.00     0.006 C 
HETATM    6  C7  UNL     1     -33.891   5.992   3.810  1.00 20.00     0.091 C 
HETATM    7  C8  UNL     1     -33.404   7.903   2.331  1.00 20.00    -0.010 C 
HETATM    8  C9  UNL     1     -33.608   6.372   2.353  1.00 20.00     0.004 C 
ENDROOT
BRANCH   6   9
HETATM    9  C1  UNL     1     -35.361   5.769   4.015  1.00 20.00     0.177 C 
HETATM   10  O10 UNL     1     -36.119   6.578   3.413  1.00 20.00    -0.648 OA
HETATM   11  O11 UNL     1     -35.649   4.795   4.768  1.00 20.00    -0.648 OA
ENDBRANCH   6   9
TORSDOF 1
ENDMDL
MODEL 4
REMARK VINA RESULT:       1.5      2.528      3.781
REMARK  1 active torsions:
REMARK  status: ('A' for Active; 'I' for Inactive)
REMARK    1  A    between atoms: C1_1  and  C7_7 
ROOT
HETATM    1  C2  UNL     1     -31.941   9.396   0.933  1.00 20.00     0.001 C 
HETATM    2  C3  UNL     1     -33.248   5.585   1.144  1.00 20.00     0.016 C 
HETATM    3  C4  UNL     1     -31.206   8.095   0.662  1.00 20.00     0.005 C 
HETATM    4  C5  UNL     1     -33.302   8.915   1.413  1.00 20.00     0.006 C 
HETATM    5  C6  UNL     1     -31.768   5.731   1.485  1.00 20.00     0.006 C 
HETATM    6  C7  UNL     1     -33.958   6.535   2.104  1.00 20.00     0.091 C 
HETATM    7  C8  UNL     1     -31.600   7.204   1.842  1.00 20.00    -0.010 C 
HETATM    8  C9  UNL     1     -32.988   7.704   2.300  1.00 20.00     0.004 C 
ENDROOT
BRANCH   6   9
HETATM    9  C1  UNL     1     -34.234   5.858   3.415  1.00 20.00     0.177 C 
HETATM   10  O10 UNL     1     -35.092   6.427   4.145  1.00 20.00    -0.648 OA
HETATM   11  O11 UNL     1     -33.569   4.803   3.616  1.00 20.00    -0.648 OA
ENDBRANCH   6   9
TORSDOF 1
ENDMDL
MODEL 5
REMARK VINA RESULT:       1.6      2.238      3.029
REMARK  1 active torsions:
REMARK  status: ('A' for Active; 'I' for Inactive)
REMARK    1  A    between atoms: C1_1  and  C7_7 
ROOT
HETATM    1  C2  UNL     1     -34.632   7.258   4.497  1.00 20.00     0.001 C 
HETATM    2  C3  UNL     1     -32.922   7.269   0.843  1.00 20.00     0.016 C 
HETATM    3  C4  UNL     1     -33.702   8.274   3.857  1.00 20.00     0.005 C 
HETATM    4  C5  UNL     1     -34.697   6.159   3.448  1.00 20.00     0.006 C 
HETATM    5  C6  UNL     1     -32.067   7.949   1.907  1.00 20.00     0.006 C 
HETATM    6  C7  UNL     1     -33.184   5.871   1.398  1.00 20.00     0.091 C 
HETATM    7  C8  UNL     1     -32.602   7.413   3.231  1.00 20.00    -0.010 C 
HETATM    8  C9  UNL     1     -33.262   6.052   2.917  1.00 20.00     0.004 C 
ENDROOT
BRANCH   6   9
HETATM    9  C1  UNL     1     -32.065   4.938   1.038  1.00 20.00     0.177 C 
HETATM   10  O10 UNL     1     -31.101   4.913   1.852  1.00 20.00    -0.648 OA
HETATM   11  O11 UNL     1     -32.236   4.296  -0.036  1.00 20.00    -0.648 OA
ENDBRANCH   6   9
TORSDOF 1
ENDMDL
