MODEL 1
REMARK VINA RESULT:      -1.3      0.000      0.000
REMARK  3 active torsions:
REMARK  status: ('A' for Active; 'I' for Inactive)
REMARK    1  A    between atoms: C3_3  and  C9_9 
REMARK    2  A    between atoms: C8_8  and  O11_11 
REMARK    3  A    between atoms: N10_10  and  O11_11 
ROOT
HETATM    1  C1  UNL     1     -33.066  10.309  -0.454  1.00 20.00     0.014 C 
HETATM    2  C2  UNL     1     -32.261   9.704   0.199  1.00 20.00    -0.089 C 
HETATM    3  C8  UNL     1     -31.278   8.968   0.995  1.00 20.00     0.296 C 
ENDROOT
BRANCH   3   4
HETATM    4  O11 UNL     1     -31.750   7.660   1.282  1.00 20.00    -0.244 OA
BRANCH   4   5
HETATM    5  N10 UNL     1     -32.652   7.746   2.350  1.00 20.00    -0.142 NA
HETATM    6  C3  UNL     1     -33.323   6.642   2.499  1.00 20.00     0.043 C 
HETATM    7  C4  UNL     1     -33.111   5.440   1.597  1.00 20.00     0.069 C 
BRANCH   6   8
HETATM    8  C9  UNL     1     -34.374   6.552   3.630  1.00 20.00    -0.009 C 
HETATM    9  C5  UNL     1     -34.022   7.557   4.736  1.00 20.00     0.021 C 
HETATM   10  C6  UNL     1     -34.397   5.122   4.191  1.00 20.00     0.021 C 
HETATM   11  C7  UNL     1     -35.784   6.886   3.106  1.00 20.00     0.021 C 
ENDBRANCH   6   8
ENDBRANCH   4   5
ENDBRANCH   3   4
TORSDOF 3
ENDMDL
MODEL 2
REMARK VINA RESULT:      -1.2      0.046      1.314
REMARK  3 active torsions:
REMARK  status: ('A' for Active; 'I' for Inactive)
REMARK    1  A    between atoms: C3_3  and  C9_9 
REMARK    2  A    between atoms: C8_8  and  O11_11 
REMARK    3  A    between atoms: N10_10  and  O11_11 
ROOT
HETATM    1  C1  UNL     1     -33.061  10.310  -0.440  1.00 20.00     0.014 C 
HETATM    2  C2  UNL     1     -32.265   9.707   0.226  1.00 20.00    -0.089 C 
HETATM    3  C8  UNL     1     -31.294   8.973   1.038  1.00 20.00     0.296 C 
ENDROOT
BRANCH   3   4
HETATM    4  O11 UNL     1     -31.768   7.664   1.318  1.00 20.00    -0.244 OA
BRANCH   4   5
HETATM    5  N10 UNL     1     -32.668   7.747   2.388  1.00 20.00    -0.142 NA
HETATM    6  C3  UNL     1     -33.351   6.649   2.523  1.00 20.00     0.043 C 
HETATM    7  C4  UNL     1     -33.155   5.456   1.606  1.00 20.00     0.069 C 
BRANCH   6   8
HETATM    8  C9  UNL     1     -34.403   6.556   3.654  1.00 20.00    -0.009 C 
HETATM    9  C5  UNL     1     -35.796   6.856   3.081  1.00 20.00     0.021 C 
HETATM   10  C6  UNL     1     -34.051   7.560   4.761  1.00 20.00     0.021 C 
HETATM   11  C7  UNL     1     -34.430   5.145   4.273  1.00 20.00     0.021 C 
ENDBRANCH   6   8
ENDBRANCH   4   5
ENDBRANCH   3   4
TORSDOF 3
ENDMDL
MODEL 3
REMARK VINA RESULT:      -0.8      2.058      4.995
REMARK  3 active torsions:
REMARK  status: ('A' for Active; 'I' for Inactive)
REMARK    1  A    between atoms: C3_3  and  C9_9 
REMARK    2  A    between atoms: C8_8  and  O11_11 
REMARK    3  A    between atoms: N10_10  and  O11_11 
ROOT
HETATM    1  C1  UNL     1     -33.408   3.458   4.396  1.00 20.00     0.014 C 
HETATM    2  C2  UNL     1     -34.319   4.238   4.369  1.00 20.00    -0.089 C 
HETATM    3  C8  UNL     1     -35.432   5.189   4.336  1.00 20.00     0.296 C 
ENDROOT
BRANCH   3   4
HETATM    4  O11 UNL     1     -34.945   6.521   4.265  1.00 20.00    -0.244 OA
BRANCH   4   5
HETATM    5  N10 UNL     1     -34.140   6.630   3.124  1.00 20.00    -0.142 NA
HETATM    6  C3  UNL     1     -33.213   7.529   3.278  1.00 20.00     0.043 C 
HETATM    7  C4  UNL     1     -33.068   8.330   4.560  1.00 20.00     0.069 C 
BRANCH   6   8
HETATM    8  C9  UNL     1     -32.227   7.795   2.117  1.00 20.00    -0.009 C 
HETATM    9  C5  UNL     1     -31.988   6.491   1.342  1.00 20.00     0.021 C 
HETATM   10  C6  UNL     1     -30.905   8.333   2.684  1.00 20.00     0.021 C 
HETATM   11  C7  UNL     1     -32.793   8.841   1.136  1.00 20.00     0.021 C 
ENDBRANCH   6   8
ENDBRANCH   4   5
ENDBRANCH   3   4
TORSDOF 3
ENDMDL
MODEL 4
REMARK VINA RESULT:      -0.7      2.070      4.992
REMARK  3 active torsions:
REMARK  status: ('A' for Active; 'I' for Inactive)
REMARK    1  A    between atoms: C3_3  and  C9_9 
REMARK    2  A    between atoms: C8_8  and  O11_11 
REMARK    3  A    between atoms: N10_10  and  O11_11 
ROOT
HETATM    1  C1  UNL     1     -33.367   3.456   4.401  1.00 20.00     0.014 C 
HETATM    2  C2  UNL     1     -34.291   4.222   4.383  1.00 20.00    -0.089 C 
HETATM    3  C8  UNL     1     -35.419   5.154   4.360  1.00 20.00     0.296 C 
ENDROOT
BRANCH   3   4
HETATM    4  O11 UNL     1     -34.955   6.493   4.270  1.00 20.00    -0.244 OA
BRANCH   4   5
HETATM    5  N10 UNL     1     -34.154   6.600   3.127  1.00 20.00    -0.142 NA
HETATM    6  C3  UNL     1     -33.230   7.504   3.273  1.00 20.00     0.043 C 
HETATM    7  C4  UNL     1     -33.085   8.311   4.550  1.00 20.00     0.069 C 
BRANCH   6   8
HETATM    8  C9  UNL     1     -32.248   7.767   2.108  1.00 20.00    -0.009 C 
HETATM    9  C5  UNL     1     -32.830   8.848   1.185  1.00 20.00     0.021 C 
HETATM   10  C6  UNL     1     -32.019   6.463   1.330  1.00 20.00     0.021 C 
HETATM   11  C7  UNL     1     -30.885   8.262   2.631  1.00 20.00     0.021 C 
ENDBRANCH   6   8
ENDBRANCH   4   5
ENDBRANCH   3   4
TORSDOF 3
ENDMDL
MODEL 5
REMARK VINA RESULT:      -0.6      2.073      4.994
REMARK  3 active torsions:
REMARK  status: ('A' for Active; 'I' for Inactive)
REMARK    1  A    between atoms: C3_3  and  C9_9 
REMARK    2  A    between atoms: C8_8  and  O11_11 
REMARK    3  A    between atoms: N10_10  and  O11_11 
ROOT
HETATM    1  C1  UNL     1     -33.389   3.456   4.405  1.00 20.00     0.014 C 
HETATM    2  C2  UNL     1     -34.306   4.230   4.378  1.00 20.00    -0.089 C 
HETATM    3  C8  UNL     1     -35.425   5.173   4.344  1.00 20.00     0.296 C 
ENDROOT
BRANCH   3   4
HETATM    4  O11 UNL     1     -34.947   6.509   4.272  1.00 20.00    -0.244 OA
BRANCH   4   5
HETATM    5  N10 UNL     1     -34.142   6.622   3.132  1.00 20.00    -0.142 NA
HETATM    6  C3  UNL     1     -33.219   7.524   3.287  1.00 20.00     0.043 C 
HETATM    7  C4  UNL     1     -33.078   8.325   4.569  1.00 20.00     0.069 C 
BRANCH   6   8
HETATM    8  C9  UNL     1     -32.233   7.795   2.126  1.00 20.00    -0.009 C 
HETATM    9  C5  UNL     1     -30.896   8.290   2.697  1.00 20.00     0.021 C 
HETATM   10  C6  UNL     1     -32.835   8.845   1.181  1.00 20.00     0.021 C 
HETATM   11  C7  UNL     1     -31.965   6.512   1.314  1.00 20.00     0.021 C 
ENDBRANCH   6   8
ENDBRANCH   4   5
ENDBRANCH   3   4
TORSDOF 3
ENDMDL
MODEL 6
REMARK VINA RESULT:      -0.1      2.038      4.879
REMARK  3 active torsions:
REMARK  status: ('A' for Active; 'I' for Inactive)
REMARK    1  A    between atoms: C3_3  and  C9_9 
REMARK    2  A    between atoms: C8_8  and  O11_11 
REMARK    3  A    between atoms: N10_10  and  O11_11 
ROOT
HETATM    1  C1  UNL     1     -33.206   2.874   4.493  1.00 20.00     0.014 C 
HETATM    2  C2  UNL     1     -33.898   3.854   4.498  1.00 20.00    -0.089 C 
HETATM    3  C8  UNL     1     -34.743   5.049   4.507  1.00 20.00     0.296 C 
ENDROOT
BRANCH   3   4
HETATM    4  O11 UNL     1     -34.793   5.632   3.213  1.00 20.00    -0.244 OA
BRANCH   4   5
HETATM    5  N10 UNL     1     -34.004   6.789   3.226  1.00 20.00    -0.142 NA
HETATM    6  C3  UNL     1     -33.141   6.790   2.253  1.00 20.00     0.043 C 
HETATM    7  C4  UNL     1     -33.048   5.650   1.255  1.00 20.00     0.069 C 
BRANCH   6   8
HETATM    8  C9  UNL     1     -32.175   7.989   2.109  1.00 20.00    -0.009 C 
HETATM    9  C5  UNL     1     -30.843   7.503   1.520  1.00 20.00     0.021 C 
HETATM   10  C6  UNL     1     -31.951   8.630   3.486  1.00 20.00     0.021 C 
HETATM   11  C7  UNL     1     -32.757   9.061   1.167  1.00 20.00     0.021 C 
ENDBRANCH   6   8
ENDBRANCH   4   5
ENDBRANCH   3   4
TORSDOF 3
ENDMDL
MODEL 7
REMARK VINA RESULT:       0.6      1.055      1.994
REMARK  3 active torsions:
REMARK  status: ('A' for Active; 'I' for Inactive)
REMARK    1  A    between atoms: C3_3  and  C9_9 
REMARK    2  A    between atoms: C8_8  and  O11_11 
REMARK    3  A    between atoms: N10_10  and  O11_11 
ROOT
HETATM    1  C1  UNL     1     -32.759  10.401  -0.118  1.00 20.00     0.014 C 
HETATM    2  C2  UNL     1     -32.230   9.486   0.450  1.00 20.00    -0.089 C 
HETATM    3  C8  UNL     1     -31.583   8.369   1.141  1.00 20.00     0.296 C 
ENDROOT
BRANCH   3   4
HETATM    4  O11 UNL     1     -32.072   8.257   2.470  1.00 20.00    -0.244 OA
BRANCH   4   5
HETATM    5  N10 UNL     1     -33.046   7.250   2.492  1.00 20.00    -0.142 NA
HETATM    6  C3  UNL     1     -33.690   7.233   3.622  1.00 20.00     0.043 C 
HETATM    7  C4  UNL     1     -33.382   8.209   4.742  1.00 20.00     0.069 C 
BRANCH   6   8
HETATM    8  C9  UNL     1     -34.804   6.181   3.833  1.00 20.00    -0.009 C 
HETATM    9  C5  UNL     1     -34.256   4.785   3.505  1.00 20.00     0.021 C 
HETATM   10  C6  UNL     1     -35.998   6.516   2.927  1.00 20.00     0.021 C 
HETATM   11  C7  UNL     1     -35.293   6.176   5.294  1.00 20.00     0.021 C 
ENDBRANCH   6   8
ENDBRANCH   4   5
ENDBRANCH   3   4
TORSDOF 3
ENDMDL
MODEL 8
REMARK VINA RESULT:       0.9      0.837      2.030
REMARK  3 active torsions:
REMARK  status: ('A' for Active; 'I' for Inactive)
REMARK    1  A    between atoms: C3_3  and  C9_9 
REMARK    2  A    between atoms: C8_8  and  O11_11 
REMARK    3  A    between atoms: N10_10  and  O11_11 
ROOT
HETATM    1  C1  UNL     1     -33.030  10.583  -0.130  1.00 20.00     0.014 C 
HETATM    2  C2  UNL     1     -32.265   9.786   0.340  1.00 20.00    -0.089 C 
HETATM    3  C8  UNL     1     -31.332   8.814   0.910  1.00 20.00     0.296 C 
ENDROOT
BRANCH   3   4
HETATM    4  O11 UNL     1     -31.740   8.441   2.218  1.00 20.00    -0.244 OA
BRANCH   4   5
HETATM    5  N10 UNL     1     -32.477   7.254   2.123  1.00 20.00    -0.142 NA
HETATM    6  C3  UNL     1     -33.219   7.066   3.174  1.00 20.00     0.043 C 
HETATM    7  C4  UNL     1     -33.243   8.048   4.332  1.00 20.00     0.069 C 
BRANCH   6   8
HETATM    8  C9  UNL     1     -34.103   5.799   3.251  1.00 20.00    -0.009 C 
HETATM    9  C5  UNL     1     -34.187   5.151   1.861  1.00 20.00     0.021 C 
HETATM   10  C6  UNL     1     -35.504   6.185   3.748  1.00 20.00     0.021 C 
HETATM   11  C7  UNL     1     -33.511   4.767   4.230  1.00 20.00     0.021 C 
ENDBRANCH   6   8
ENDBRANCH   4   5
ENDBRANCH   3   4
TORSDOF 3
ENDMDL
MODEL 9
REMARK VINA RESULT:       1.0      1.387      4.783
REMARK  3 active torsions:
REMARK  status: ('A' for Active; 'I' for Inactive)
REMARK    1  A    between atoms: C3_3  and  C9_9 
REMARK    2  A    between atoms: C8_8  and  O11_11 
REMARK    3  A    between atoms: N10_10  and  O11_11 
ROOT
HETATM    1  C1  UNL     1     -35.376   5.350   4.173  1.00 20.00     0.014 C 
HETATM    2  C2  UNL     1     -34.807   6.407   4.189  1.00 20.00    -0.089 C 
HETATM    3  C8  UNL     1     -34.116   7.697   4.210  1.00 20.00     0.296 C 
ENDROOT
BRANCH   3   4
HETATM    4  O11 UNL     1     -32.828   7.580   3.623  1.00 20.00    -0.244 OA
BRANCH   4   5
HETATM    5  N10 UNL     1     -32.674   8.621   2.700  1.00 20.00    -0.142 NA
HETATM    6  C3  UNL     1     -32.284   8.179   1.541  1.00 20.00     0.043 C 
HETATM    7  C4  UNL     1     -32.042   6.703   1.279  1.00 20.00     0.069 C 
BRANCH   6   8
HETATM    8  C9  UNL     1     -32.055   9.188   0.392  1.00 20.00    -0.009 C 
HETATM    9  C5  UNL     1     -30.569   9.191   0.003  1.00 20.00     0.021 C 
HETATM   10  C6  UNL     1     -32.493  10.588   0.848  1.00 20.00     0.021 C 
HETATM   11  C7  UNL     1     -32.878   8.808  -0.854  1.00 20.00     0.021 C 
ENDBRANCH   6   8
ENDBRANCH   4   5
ENDBRANCH   3   4
TORSDOF 3
ENDMDL
