MODEL 1
REMARK VINA RESULT:      -0.8      0.000      0.000
REMARK  3 active torsions:
REMARK  status: ('A' for Active; 'I' for Inactive)
REMARK    1  A    between atoms: C4_4  and  C11_11 
REMARK    2  A    between atoms: C5_5  and  C9_9 
REMARK    3  A    between atoms: C8_8  and  C11_11 
ROOT
HETATM    1  C1  UNL     1     -33.241   8.232   4.163  1.00 20.00    -0.030 C 
HETATM    2  C2  UNL     1     -34.185   7.292   4.023  1.00 20.00    -0.025 C 
HETATM    3  C6  UNL     1     -32.064   8.357   3.246  1.00 20.00     0.027 C 
HETATM    4  C7  UNL     1     -32.236   7.564   1.950  1.00 20.00     0.016 C 
HETATM    5  C8  UNL     1     -34.151   6.226   2.953  1.00 20.00     0.025 C 
HETATM    6  C9  UNL     1     -32.789   6.163   2.227  1.00 20.00     0.055 C 
ENDROOT
BRANCH   5   7
HETATM    7  C11 UNL     1     -34.496   4.863   3.565  1.00 20.00     0.011 C 
HETATM    8  C10 UNL     1     -35.422   5.039   4.766  1.00 20.00     0.015 C 
BRANCH   7   9
HETATM    9  C4  UNL     1     -33.238   4.146   3.972  1.00 20.00    -0.032 C 
HETATM   10  C3  UNL     1     -33.221   3.020   4.695  1.00 20.00     0.007 C 
ENDBRANCH   7   9
ENDBRANCH   5   7
BRANCH   6  11
HETATM   11  C5  UNL     1     -32.922   5.441   0.919  1.00 20.00     0.236 C 
HETATM   12  O12 UNL     1     -32.061   4.692   0.470  1.00 20.00    -0.306 OA
ENDBRANCH   6  11
TORSDOF 3
ENDMDL
MODEL 2
REMARK VINA RESULT:      -0.6      1.583      4.324
REMARK  3 active torsions:
REMARK  status: ('A' for Active; 'I' for Inactive)
REMARK    1  A    between atoms: C4_4  and  C11_11 
REMARK    2  A    between atoms: C5_5  and  C9_9 
REMARK    3  A    between atoms: C8_8  and  C11_11 
ROOT
HETATM    1  C1  UNL     1     -33.911   7.900   4.042  1.00 20.00    -0.030 C 
HETATM    2  C2  UNL     1     -32.918   8.296   3.236  1.00 20.00    -0.025 C 
HETATM    3  C6  UNL     1     -34.585   6.568   3.923  1.00 20.00     0.027 C 
HETATM    4  C7  UNL     1     -33.799   5.584   3.055  1.00 20.00     0.016 C 
HETATM    5  C8  UNL     1     -32.391   7.467   2.089  1.00 20.00     0.025 C 
HETATM    6  C9  UNL     1     -33.295   6.255   1.774  1.00 20.00     0.055 C 
ENDROOT
BRANCH   5   7
HETATM    7  C11 UNL     1     -32.220   8.346   0.845  1.00 20.00     0.011 C 
HETATM    8  C10 UNL     1     -30.753   8.394   0.425  1.00 20.00     0.015 C 
BRANCH   7   9
HETATM    9  C4  UNL     1     -32.733   9.734   1.120  1.00 20.00    -0.032 C 
HETATM   10  C3  UNL     1     -32.696  10.733   0.231  1.00 20.00     0.007 C 
ENDBRANCH   7   9
ENDBRANCH   5   7
BRANCH   6  11
HETATM   11  C5  UNL     1     -32.547   5.234   0.970  1.00 20.00     0.236 C 
HETATM   12  O12 UNL     1     -31.370   4.948   1.166  1.00 20.00    -0.306 OA
ENDBRANCH   6  11
TORSDOF 3
ENDMDL
MODEL 3
REMARK VINA RESULT:      -0.6      2.001      2.853
REMARK  3 active torsions:
REMARK  status: ('A' for Active; 'I' for Inactive)
REMARK    1  A    between atoms: C4_4  and  C11_11 
REMARK    2  A    between atoms: C5_5  and  C9_9 
REMARK    3  A    between atoms: C8_8  and  C11_11 
ROOT
HETATM    1  C1  UNL     1     -32.125   6.482   1.004  1.00 20.00    -0.030 C 
HETATM    2  C2  UNL     1     -32.574   5.609   1.916  1.00 20.00    -0.025 C 
HETATM    3  C6  UNL     1     -32.140   7.965   1.208  1.00 20.00     0.027 C 
HETATM    4  C7  UNL     1     -32.366   8.358   2.668  1.00 20.00     0.016 C 
HETATM    5  C8  UNL     1     -33.184   6.019   3.236  1.00 20.00     0.025 C 
HETATM    6  C9  UNL     1     -33.491   7.532   3.298  1.00 20.00     0.055 C 
ENDROOT
BRANCH   5   7
HETATM    7  C11 UNL     1     -34.455   5.203   3.497  1.00 20.00     0.011 C 
HETATM    8  C10 UNL     1     -35.610   6.124   3.880  1.00 20.00     0.015 C 
BRANCH   7   9
HETATM    9  C4  UNL     1     -34.205   4.194   4.586  1.00 20.00    -0.032 C 
HETATM   10  C3  UNL     1     -33.415   3.123   4.444  1.00 20.00     0.007 C 
ENDBRANCH   7   9
ENDBRANCH   5   7
BRANCH   6  11
HETATM   11  C5  UNL     1     -33.664   7.976   4.720  1.00 20.00     0.236 C 
HETATM   12  O12 UNL     1     -32.740   8.371   5.422  1.00 20.00    -0.306 OA
ENDBRANCH   6  11
TORSDOF 3
ENDMDL
MODEL 4
REMARK VINA RESULT:       0.6      1.703      3.655
REMARK  3 active torsions:
REMARK  status: ('A' for Active; 'I' for Inactive)
REMARK    1  A    between atoms: C4_4  and  C11_11 
REMARK    2  A    between atoms: C5_5  and  C9_9 
REMARK    3  A    between atoms: C8_8  and  C11_11 
ROOT
HETATM    1  C1  UNL     1     -35.000   7.317   3.818  1.00 20.00    -0.030 C 
HETATM    2  C2  UNL     1     -33.747   7.230   3.352  1.00 20.00    -0.025 C 
HETATM    3  C6  UNL     1     -35.779   6.136   4.307  1.00 20.00     0.027 C 
HETATM    4  C7  UNL     1     -34.899   4.912   4.563  1.00 20.00     0.016 C 
HETATM    5  C8  UNL     1     -32.991   5.928   3.226  1.00 20.00     0.025 C 
HETATM    6  C9  UNL     1     -33.903   4.696   3.421  1.00 20.00     0.055 C 
ENDROOT
BRANCH   5   7
HETATM    7  C11 UNL     1     -32.287   5.865   1.866  1.00 20.00     0.011 C 
HETATM    8  C10 UNL     1     -31.720   7.234   1.496  1.00 20.00     0.015 C 
BRANCH   7   9
HETATM    9  C4  UNL     1     -33.247   5.391   0.809  1.00 20.00    -0.032 C 
HETATM   10  C3  UNL     1     -33.007   4.359  -0.008  1.00 20.00     0.007 C 
ENDBRANCH   7   9
ENDBRANCH   5   7
BRANCH   6  11
HETATM   11  C5  UNL     1     -33.084   3.479   3.733  1.00 20.00     0.236 C 
HETATM   12  O12 UNL     1     -33.111   2.905   4.816  1.00 20.00    -0.306 OA
ENDBRANCH   6  11
TORSDOF 3
ENDMDL
MODEL 5
REMARK VINA RESULT:       0.7      2.252      4.851
REMARK  3 active torsions:
REMARK  status: ('A' for Active; 'I' for Inactive)
REMARK    1  A    between atoms: C4_4  and  C11_11 
REMARK    2  A    between atoms: C5_5  and  C9_9 
REMARK    3  A    between atoms: C8_8  and  C11_11 
ROOT
HETATM    1  C1  UNL     1     -32.851   4.640   1.711  1.00 20.00    -0.030 C 
HETATM    2  C2  UNL     1     -32.742   5.857   1.163  1.00 20.00    -0.025 C 
HETATM    3  C6  UNL     1     -33.382   4.405   3.092  1.00 20.00     0.027 C 
HETATM    4  C7  UNL     1     -34.115   5.622   3.658  1.00 20.00     0.016 C 
HETATM    5  C8  UNL     1     -33.101   7.134   1.885  1.00 20.00     0.025 C 
HETATM    6  C9  UNL     1     -33.333   6.912   3.396  1.00 20.00     0.055 C 
ENDROOT
BRANCH   5   7
HETATM    7  C11 UNL     1     -32.007   8.184   1.659  1.00 20.00     0.011 C 
HETATM    8  C10 UNL     1     -31.286   8.492   2.969  1.00 20.00     0.015 C 
BRANCH   7   9
HETATM    9  C4  UNL     1     -32.606   9.439   1.082  1.00 20.00    -0.032 C 
HETATM   10  C3  UNL     1     -32.401   9.855  -0.174  1.00 20.00     0.007 C 
ENDBRANCH   7   9
ENDBRANCH   5   7
BRANCH   6  11
HETATM   11  C5  UNL     1     -34.101   8.058   3.984  1.00 20.00     0.236 C 
HETATM   12  O12 UNL     1     -34.010   8.401   5.158  1.00 20.00    -0.306 OA
ENDBRANCH   6  11
TORSDOF 3
ENDMDL
MODEL 6
REMARK VINA RESULT:       0.8      1.724      3.869
REMARK  3 active torsions:
REMARK  status: ('A' for Active; 'I' for Inactive)
REMARK    1  A    between atoms: C4_4  and  C11_11 
REMARK    2  A    between atoms: C5_5  and  C9_9 
REMARK    3  A    between atoms: C8_8  and  C11_11 
ROOT
HETATM    1  C1  UNL     1     -35.064   7.132   3.929  1.00 20.00    -0.030 C 
HETATM    2  C2  UNL     1     -33.883   7.017   3.307  1.00 20.00    -0.025 C 
HETATM    3  C6  UNL     1     -35.782   5.974   4.550  1.00 20.00     0.027 C 
HETATM    4  C7  UNL     1     -34.885   4.749   4.727  1.00 20.00     0.016 C 
HETATM    5  C8  UNL     1     -33.160   5.703   3.123  1.00 20.00     0.025 C 
HETATM    6  C9  UNL     1     -34.048   4.488   3.472  1.00 20.00     0.055 C 
ENDROOT
BRANCH   5   7
HETATM    7  C11 UNL     1     -32.640   5.593   1.685  1.00 20.00     0.011 C 
HETATM    8  C10 UNL     1     -31.311   4.842   1.656  1.00 20.00     0.015 C 
BRANCH   7   9
HETATM    9  C4  UNL     1     -32.482   6.965   1.087  1.00 20.00    -0.032 C 
HETATM   10  C3  UNL     1     -31.593   7.869   1.518  1.00 20.00     0.007 C 
ENDBRANCH   7   9
ENDBRANCH   5   7
BRANCH   6  11
HETATM   11  C5  UNL     1     -33.205   3.271   3.711  1.00 20.00     0.236 C 
HETATM   12  O12 UNL     1     -33.022   2.782   4.821  1.00 20.00    -0.306 OA
ENDBRANCH   6  11
TORSDOF 3
ENDMDL
MODEL 7
REMARK VINA RESULT:       1.1      1.959      3.214
REMARK  3 active torsions:
REMARK  status: ('A' for Active; 'I' for Inactive)
REMARK    1  A    between atoms: C4_4  and  C11_11 
REMARK    2  A    between atoms: C5_5  and  C9_9 
REMARK    3  A    between atoms: C8_8  and  C11_11 
ROOT
HETATM    1  C1  UNL     1     -32.816   4.603   2.032  1.00 20.00    -0.030 C 
HETATM    2  C2  UNL     1     -33.101   5.393   3.076  1.00 20.00    -0.025 C 
HETATM    3  C6  UNL     1     -32.300   5.123   0.725  1.00 20.00     0.027 C 
HETATM    4  C7  UNL     1     -31.790   6.561   0.821  1.00 20.00     0.016 C 
HETATM    5  C8  UNL     1     -32.975   6.898   3.045  1.00 20.00     0.025 C 
HETATM    6  C9  UNL     1     -32.759   7.441   1.615  1.00 20.00     0.055 C 
ENDROOT
BRANCH   5   7
HETATM    7  C11 UNL     1     -34.215   7.537   3.681  1.00 20.00     0.011 C 
HETATM    8  C10 UNL     1     -33.896   8.029   5.091  1.00 20.00     0.015 C 
BRANCH   7   9
HETATM    9  C4  UNL     1     -35.347   6.545   3.714  1.00 20.00    -0.032 C 
HETATM   10  C3  UNL     1     -35.420   5.525   4.578  1.00 20.00     0.007 C 
ENDBRANCH   7   9
ENDBRANCH   5   7
BRANCH   6  11
HETATM   11  C5  UNL     1     -32.204   8.834   1.660  1.00 20.00     0.236 C 
HETATM   12  O12 UNL     1     -32.315   9.636   0.739  1.00 20.00    -0.306 OA
ENDBRANCH   6  11
TORSDOF 3
ENDMDL
MODEL 8
REMARK VINA RESULT:       1.3      1.844      3.664
REMARK  3 active torsions:
REMARK  status: ('A' for Active; 'I' for Inactive)
REMARK    1  A    between atoms: C4_4  and  C11_11 
REMARK    2  A    between atoms: C5_5  and  C9_9 
REMARK    3  A    between atoms: C8_8  and  C11_11 
ROOT
HETATM    1  C1  UNL     1     -32.349   8.252   2.089  1.00 20.00    -0.030 C 
HETATM    2  C2  UNL     1     -31.947   7.027   1.722  1.00 20.00    -0.025 C 
HETATM    3  C6  UNL     1     -33.444   8.494   3.081  1.00 20.00     0.027 C 
HETATM    4  C7  UNL     1     -33.794   7.245   3.892  1.00 20.00     0.016 C 
HETATM    5  C8  UNL     1     -32.576   5.753   2.234  1.00 20.00     0.025 C 
HETATM    6  C9  UNL     1     -33.897   6.011   2.992  1.00 20.00     0.055 C 
ENDROOT
BRANCH   5   7
HETATM    7  C11 UNL     1     -32.806   4.783   1.070  1.00 20.00     0.011 C 
HETATM    8  C10 UNL     1     -31.486   4.470   0.369  1.00 20.00     0.015 C 
BRANCH   7   9
HETATM    9  C4  UNL     1     -33.791   5.370   0.095  1.00 20.00    -0.032 C 
HETATM   10  C3  UNL     1     -34.551   4.639  -0.729  1.00 20.00     0.007 C 
ENDBRANCH   7   9
ENDBRANCH   5   7
BRANCH   6  11
HETATM   11  C5  UNL     1     -34.251   4.831   3.848  1.00 20.00     0.236 C 
HETATM   12  O12 UNL     1     -35.276   4.766   4.519  1.00 20.00    -0.306 OA
ENDBRANCH   6  11
TORSDOF 3
ENDMDL
MODEL 9
REMARK VINA RESULT:       1.4      1.505      2.306
REMARK  3 active torsions:
REMARK  status: ('A' for Active; 'I' for Inactive)
REMARK    1  A    between atoms: C4_4  and  C11_11 
REMARK    2  A    between atoms: C5_5  and  C9_9 
REMARK    3  A    between atoms: C8_8  and  C11_11 
ROOT
HETATM    1  C1  UNL     1     -34.361   7.437   4.705  1.00 20.00    -0.030 C 
HETATM    2  C2  UNL     1     -34.464   6.575   3.685  1.00 20.00    -0.025 C 
HETATM    3  C6  UNL     1     -33.326   8.517   4.767  1.00 20.00     0.027 C 
HETATM    4  C7  UNL     1     -32.654   8.770   3.417  1.00 20.00     0.016 C 
HETATM    5  C8  UNL     1     -33.526   6.565   2.501  1.00 20.00     0.025 C 
HETATM    6  C9  UNL     1     -32.283   7.455   2.727  1.00 20.00     0.055 C 
ENDROOT
BRANCH   5   7
HETATM    7  C11 UNL     1     -33.105   5.126   2.184  1.00 20.00     0.011 C 
HETATM    8  C10 UNL     1     -33.338   4.817   0.707  1.00 20.00     0.015 C 
BRANCH   7   9
HETATM    9  C4  UNL     1     -33.870   4.161   3.049  1.00 20.00    -0.032 C 
HETATM   10  C3  UNL     1     -33.333   3.491   4.075  1.00 20.00     0.007 C 
ENDBRANCH   7   9
ENDBRANCH   5   7
BRANCH   6  11
HETATM   11  C5  UNL     1     -31.623   7.777   1.420  1.00 20.00     0.236 C 
HETATM   12  O12 UNL     1     -31.956   8.718   0.707  1.00 20.00    -0.306 OA
ENDBRANCH   6  11
TORSDOF 3
ENDMDL
