MODEL 1
REMARK VINA RESULT:      -1.9      0.000      0.000
REMARK  0 active torsions:
REMARK  status: ('A' for Active; 'I' for Inactive)
ROOT
HETATM    1  C1  UNL     1     -33.053   7.107   2.741  1.00 20.00    -0.014 A 
HETATM    2  C2  UNL     1     -33.251   5.827   2.394  1.00 20.00    -0.070 A 
HETATM    3  C3  UNL     1     -33.988   7.371   3.851  1.00 20.00     0.156 A 
HETATM    4  C4  UNL     1     -34.845   6.180   4.158  1.00 20.00     0.092 A 
HETATM    5  C5  UNL     1     -34.291   5.105   3.219  1.00 20.00     0.018 A 
HETATM    6  C6  UNL     1     -32.141   8.150   2.217  1.00 20.00     0.052 C 
HETATM    7  C7  UNL     1     -32.569   5.093   1.285  1.00 20.00     0.044 C 
HETATM    8  C8  UNL     1     -33.713   3.927   4.001  1.00 20.00     0.015 C 
HETATM    9  O9  UNL     1     -34.063   8.444   4.432  1.00 20.00    -0.293 OA
ENDROOT
TORSDOF 0
ENDMDL
MODEL 2
REMARK VINA RESULT:      -1.7      1.059      2.971
REMARK  0 active torsions:
REMARK  status: ('A' for Active; 'I' for Inactive)
ROOT
HETATM    1  C1  UNL     1     -33.838   6.710   3.314  1.00 20.00    -0.014 A 
HETATM    2  C2  UNL     1     -33.040   6.639   2.239  1.00 20.00    -0.070 A 
HETATM    3  C3  UNL     1     -33.381   7.887   4.077  1.00 20.00     0.156 A 
HETATM    4  C4  UNL     1     -32.190   8.539   3.443  1.00 20.00     0.092 A 
HETATM    5  C5  UNL     1     -32.004   7.737   2.152  1.00 20.00     0.018 A 
HETATM    6  C6  UNL     1     -34.966   5.866   3.772  1.00 20.00     0.052 C 
HETATM    7  C7  UNL     1     -33.074   5.590   1.176  1.00 20.00     0.044 C 
HETATM    8  C8  UNL     1     -32.181   8.620   0.918  1.00 20.00     0.015 C 
HETATM    9  O9  UNL     1     -33.906   8.266   5.114  1.00 20.00    -0.293 OA
ENDROOT
TORSDOF 0
ENDMDL
MODEL 3
REMARK VINA RESULT:      -1.5      1.838      2.835
REMARK  0 active torsions:
REMARK  status: ('A' for Active; 'I' for Inactive)
ROOT
HETATM    1  C1  UNL     1     -32.748   7.191   2.418  1.00 20.00    -0.014 A 
HETATM    2  C2  UNL     1     -33.445   7.239   3.562  1.00 20.00    -0.070 A 
HETATM    3  C3  UNL     1     -32.917   5.819   1.901  1.00 20.00     0.156 A 
HETATM    4  C4  UNL     1     -33.729   4.967   2.829  1.00 20.00     0.092 A 
HETATM    5  C5  UNL     1     -34.154   5.952   3.921  1.00 20.00     0.018 A 
HETATM    6  C6  UNL     1     -31.936   8.204   1.705  1.00 20.00     0.052 C 
HETATM    7  C7  UNL     1     -33.553   8.407   4.487  1.00 20.00     0.044 C 
HETATM    8  C8  UNL     1     -35.672   6.108   3.971  1.00 20.00     0.015 C 
HETATM    9  O9  UNL     1     -32.430   5.427   0.851  1.00 20.00    -0.293 OA
ENDROOT
TORSDOF 0
ENDMDL
MODEL 4
REMARK VINA RESULT:      -1.1      1.755      3.198
REMARK  0 active torsions:
REMARK  status: ('A' for Active; 'I' for Inactive)
ROOT
HETATM    1  C1  UNL     1     -33.080   6.392   2.229  1.00 20.00    -0.014 A 
HETATM    2  C2  UNL     1     -33.895   6.700   3.248  1.00 20.00    -0.070 A 
HETATM    3  C3  UNL     1     -32.240   7.585   2.011  1.00 20.00     0.156 A 
HETATM    4  C4  UNL     1     -32.614   8.709   2.930  1.00 20.00     0.092 A 
HETATM    5  C5  UNL     1     -33.686   8.082   3.824  1.00 20.00     0.018 A 
HETATM    6  C6  UNL     1     -32.939   5.171   1.402  1.00 20.00     0.052 C 
HETATM    7  C7  UNL     1     -34.966   5.830   3.821  1.00 20.00     0.044 C 
HETATM    8  C8  UNL     1     -33.246   8.053   5.286  1.00 20.00     0.015 C 
HETATM    9  O9  UNL     1     -31.360   7.649   1.164  1.00 20.00    -0.293 OA
ENDROOT
TORSDOF 0
ENDMDL
MODEL 5
REMARK VINA RESULT:      -1.0      1.413      2.531
REMARK  0 active torsions:
REMARK  status: ('A' for Active; 'I' for Inactive)
ROOT
HETATM    1  C1  UNL     1     -33.530   7.277   3.508  1.00 20.00    -0.014 A 
HETATM    2  C2  UNL     1     -32.770   7.279   2.403  1.00 20.00    -0.070 A 
HETATM    3  C3  UNL     1     -34.293   6.015   3.467  1.00 20.00     0.156 A 
HETATM    4  C4  UNL     1     -34.011   5.228   2.223  1.00 20.00     0.092 A 
HETATM    5  C5  UNL     1     -32.918   6.050   1.535  1.00 20.00     0.018 A 
HETATM    6  C6  UNL     1     -33.682   8.252   4.611  1.00 20.00     0.052 C 
HETATM    7  C7  UNL     1     -31.845   8.367   1.965  1.00 20.00     0.044 C 
HETATM    8  C8  UNL     1     -31.620   5.255   1.410  1.00 20.00     0.015 C 
HETATM    9  O9  UNL     1     -35.077   5.670   4.340  1.00 20.00    -0.293 OA
ENDROOT
TORSDOF 0
ENDMDL
MODEL 6
REMARK VINA RESULT:      -0.8      1.271      2.723
REMARK  0 active torsions:
REMARK  status: ('A' for Active; 'I' for Inactive)
ROOT
HETATM    1  C1  UNL     1     -33.399   7.119   3.140  1.00 20.00    -0.014 A 
HETATM    2  C2  UNL     1     -33.380   5.816   2.822  1.00 20.00    -0.070 A 
HETATM    3  C3  UNL     1     -32.527   7.785   2.154  1.00 20.00     0.156 A 
HETATM    4  C4  UNL     1     -31.898   6.806   1.209  1.00 20.00     0.092 A 
HETATM    5  C5  UNL     1     -32.538   5.476   1.613  1.00 20.00     0.018 A 
HETATM    6  C6  UNL     1     -34.087   7.870   4.214  1.00 20.00     0.052 C 
HETATM    7  C7  UNL     1     -34.078   4.715   3.552  1.00 20.00     0.044 C 
HETATM    8  C8  UNL     1     -33.358   4.882   0.470  1.00 20.00     0.015 C 
HETATM    9  O9  UNL     1     -32.330   8.992   2.131  1.00 20.00    -0.293 OA
ENDROOT
TORSDOF 0
ENDMDL
MODEL 7
REMARK VINA RESULT:      -0.7      1.936      3.880
REMARK  0 active torsions:
REMARK  status: ('A' for Active; 'I' for Inactive)
ROOT
HETATM    1  C1  UNL     1     -33.471   5.931   2.930  1.00 20.00    -0.014 A 
HETATM    2  C2  UNL     1     -33.451   7.214   3.318  1.00 20.00    -0.070 A 
HETATM    3  C3  UNL     1     -32.646   5.869   1.708  1.00 20.00     0.156 A 
HETATM    4  C4  UNL     1     -32.140   7.221   1.304  1.00 20.00     0.092 A 
HETATM    5  C5  UNL     1     -32.622   8.125   2.441  1.00 20.00     0.018 A 
HETATM    6  C6  UNL     1     -34.131   4.732   3.494  1.00 20.00     0.052 C 
HETATM    7  C7  UNL     1     -34.175   7.798   4.487  1.00 20.00     0.044 C 
HETATM    8  C8  UNL     1     -31.449   8.756   3.186  1.00 20.00     0.015 C 
HETATM    9  O9  UNL     1     -32.426   4.836   1.092  1.00 20.00    -0.293 OA
ENDROOT
TORSDOF 0
ENDMDL
MODEL 8
REMARK VINA RESULT:       0.4      1.604      2.992
REMARK  0 active torsions:
REMARK  status: ('A' for Active; 'I' for Inactive)
ROOT
HETATM    1  C1  UNL     1     -32.955   5.977   2.250  1.00 20.00    -0.014 A 
HETATM    2  C2  UNL     1     -32.868   7.295   2.482  1.00 20.00    -0.070 A 
HETATM    3  C3  UNL     1     -33.815   5.437   3.320  1.00 20.00     0.156 A 
HETATM    4  C4  UNL     1     -34.230   6.498   4.295  1.00 20.00     0.092 A 
HETATM    5  C5  UNL     1     -33.651   7.776   3.682  1.00 20.00     0.018 A 
HETATM    6  C6  UNL     1     -32.371   5.112   1.199  1.00 20.00     0.052 C 
HETATM    7  C7  UNL     1     -32.072   8.284   1.694  1.00 20.00     0.044 C 
HETATM    8  C8  UNL     1     -34.754   8.765   3.312  1.00 20.00     0.015 C 
HETATM    9  O9  UNL     1     -34.128   4.259   3.406  1.00 20.00    -0.293 OA
ENDROOT
TORSDOF 0
ENDMDL
