MODEL 1
REMARK VINA RESULT:       0.6      0.000      0.000
REMARK  3 active torsions:
REMARK  status: ('A' for Active; 'I' for Inactive)
REMARK    1  A    between atoms: C3_3  and  C10_10 
REMARK    2  A    between atoms: C7_7  and  C11_11 
REMARK    3  A    between atoms: C10_10  and  C11_11 
ROOT
HETATM    1  C1  UNL     1     -32.601  10.035   1.717  1.00 20.00    -0.024 C 
HETATM    2  C2  UNL     1     -32.478   9.655   0.433  1.00 20.00    -0.087 C 
HETATM    3  C4  UNL     1     -32.254   9.156   2.883  1.00 20.00     0.032 C 
HETATM    4  C5  UNL     1     -31.945   8.298   0.047  1.00 20.00     0.034 C 
HETATM    5  C6  UNL     1     -31.297   7.538   1.211  1.00 20.00     0.009 C 
HETATM    6  C7  UNL     1     -32.087   7.671   2.519  1.00 20.00    -0.007 C 
HETATM    7  C8  UNL     1     -32.868  10.557  -0.701  1.00 20.00     0.043 C 
ENDROOT
BRANCH   6   8
HETATM    8  C11 UNL     1     -33.439   6.954   2.439  1.00 20.00    -0.008 C 
HETATM    9  C9  UNL     1     -33.236   5.515   1.954  1.00 20.00     0.011 C 
BRANCH   8  10
HETATM   10  C10 UNL     1     -34.138   6.989   3.806  1.00 20.00     0.074 C 
BRANCH  10  11
HETATM   11  C3  UNL     1     -35.364   6.109   3.894  1.00 20.00     0.231 C 
HETATM   12  O12 UNL     1     -35.429   5.055   4.519  1.00 20.00    -0.307 OA
ENDBRANCH  10  11
ENDBRANCH   8  10
ENDBRANCH   6   8
TORSDOF 3
ENDMDL
MODEL 2
REMARK VINA RESULT:       0.8      2.513      4.937
REMARK  3 active torsions:
REMARK  status: ('A' for Active; 'I' for Inactive)
REMARK    1  A    between atoms: C3_3  and  C10_10 
REMARK    2  A    between atoms: C7_7  and  C11_11 
REMARK    3  A    between atoms: C10_10  and  C11_11 
ROOT
HETATM    1  C1  UNL     1     -33.496   5.926   2.457  1.00 20.00    -0.024 C 
HETATM    2  C2  UNL     1     -34.166   6.584   3.419  1.00 20.00    -0.087 C 
HETATM    3  C4  UNL     1     -32.213   6.416   1.851  1.00 20.00     0.032 C 
HETATM    4  C5  UNL     1     -33.663   7.881   4.002  1.00 20.00     0.034 C 
HETATM    5  C6  UNL     1     -32.214   8.206   3.619  1.00 20.00     0.009 C 
HETATM    6  C7  UNL     1     -31.904   7.893   2.150  1.00 20.00    -0.007 C 
HETATM    7  C8  UNL     1     -35.463   6.072   3.973  1.00 20.00     0.043 C 
ENDROOT
BRANCH   6   8
HETATM    8  C11 UNL     1     -32.657   8.830   1.201  1.00 20.00    -0.008 C 
HETATM    9  C9  UNL     1     -32.707  10.241   1.795  1.00 20.00     0.011 C 
BRANCH   8  10
HETATM   10  C10 UNL     1     -31.991   8.830  -0.183  1.00 20.00     0.074 C 
BRANCH  10  11
HETATM   11  C3  UNL     1     -32.220  10.095  -0.979  1.00 20.00     0.231 C 
HETATM   12  O12 UNL     1     -33.320  10.582  -1.222  1.00 20.00    -0.307 OA
ENDBRANCH  10  11
ENDBRANCH   8  10
ENDBRANCH   6   8
TORSDOF 3
ENDMDL
MODEL 3
REMARK VINA RESULT:       1.0      2.339      5.012
REMARK  3 active torsions:
REMARK  status: ('A' for Active; 'I' for Inactive)
REMARK    1  A    between atoms: C3_3  and  C10_10 
REMARK    2  A    between atoms: C7_7  and  C11_11 
REMARK    3  A    between atoms: C10_10  and  C11_11 
ROOT
HETATM    1  C1  UNL     1     -34.900   5.095   4.474  1.00 20.00    -0.024 C 
HETATM    2  C2  UNL     1     -33.821   4.430   4.026  1.00 20.00    -0.087 C 
HETATM    3  C4  UNL     1     -35.484   6.296   3.788  1.00 20.00     0.032 C 
HETATM    4  C5  UNL     1     -33.108   4.825   2.757  1.00 20.00     0.034 C 
HETATM    5  C6  UNL     1     -33.885   5.832   1.901  1.00 20.00     0.009 C 
HETATM    6  C7  UNL     1     -34.555   6.929   2.738  1.00 20.00    -0.007 C 
HETATM    7  C8  UNL     1     -33.254   3.252   4.762  1.00 20.00     0.043 C 
ENDROOT
BRANCH   6   8
HETATM    8  C11 UNL     1     -33.521   7.857   3.386  1.00 20.00    -0.008 C 
HETATM    9  C9  UNL     1     -33.544   7.679   4.907  1.00 20.00     0.011 C 
BRANCH   8  10
HETATM   10  C10 UNL     1     -32.124   7.575   2.812  1.00 20.00     0.074 C 
BRANCH  10  11
HETATM   11  C3  UNL     1     -31.851   8.259   1.491  1.00 20.00     0.231 C 
HETATM   12  O12 UNL     1     -32.433   9.258   1.083  1.00 20.00    -0.307 OA
ENDBRANCH  10  11
ENDBRANCH   8  10
ENDBRANCH   6   8
TORSDOF 3
ENDMDL
MODEL 4
REMARK VINA RESULT:       1.1      2.284      3.631
REMARK  3 active torsions:
REMARK  status: ('A' for Active; 'I' for Inactive)
REMARK    1  A    between atoms: C3_3  and  C10_10 
REMARK    2  A    between atoms: C7_7  and  C11_11 
REMARK    3  A    between atoms: C10_10  and  C11_11 
ROOT
HETATM    1  C1  UNL     1     -32.233   6.706   1.905  1.00 20.00    -0.024 C 
HETATM    2  C2  UNL     1     -32.343   7.754   2.740  1.00 20.00    -0.087 C 
HETATM    3  C4  UNL     1     -33.323   5.697   1.685  1.00 20.00     0.032 C 
HETATM    4  C5  UNL     1     -33.604   8.025   3.521  1.00 20.00     0.034 C 
HETATM    5  C6  UNL     1     -34.807   7.195   3.058  1.00 20.00     0.009 C 
HETATM    6  C7  UNL     1     -34.437   5.739   2.744  1.00 20.00    -0.007 C 
HETATM    7  C8  UNL     1     -31.216   8.720   2.952  1.00 20.00     0.043 C 
ENDROOT
BRANCH   6   8
HETATM    8  C11 UNL     1     -34.042   4.971   4.010  1.00 20.00    -0.008 C 
HETATM    9  C9  UNL     1     -35.244   4.874   4.955  1.00 20.00     0.011 C 
BRANCH   8  10
HETATM   10  C10 UNL     1     -33.509   3.579   3.639  1.00 20.00     0.074 C 
BRANCH  10  11
HETATM   11  C3  UNL     1     -33.169   2.712   4.830  1.00 20.00     0.231 C 
HETATM   12  O12 UNL     1     -32.444   3.048   5.761  1.00 20.00    -0.307 OA
ENDBRANCH  10  11
ENDBRANCH   8  10
ENDBRANCH   6   8
TORSDOF 3
ENDMDL
MODEL 5
REMARK VINA RESULT:       1.1      2.561      4.977
REMARK  3 active torsions:
REMARK  status: ('A' for Active; 'I' for Inactive)
REMARK    1  A    between atoms: C3_3  and  C10_10 
REMARK    2  A    between atoms: C7_7  and  C11_11 
REMARK    3  A    between atoms: C10_10  and  C11_11 
ROOT
HETATM    1  C1  UNL     1     -34.418   5.667   4.121  1.00 20.00    -0.024 C 
HETATM    2  C2  UNL     1     -33.718   4.585   3.739  1.00 20.00    -0.087 C 
HETATM    3  C4  UNL     1     -34.644   6.866   3.247  1.00 20.00     0.032 C 
HETATM    4  C5  UNL     1     -33.112   4.470   2.363  1.00 20.00     0.034 C 
HETATM    5  C6  UNL     1     -33.611   5.535   1.379  1.00 20.00     0.009 C 
HETATM    6  C7  UNL     1     -33.723   6.925   2.016  1.00 20.00    -0.007 C 
HETATM    7  C8  UNL     1     -33.490   3.423   4.659  1.00 20.00     0.043 C 
ENDROOT
BRANCH   6   8
HETATM    8  C11 UNL     1     -32.346   7.499   2.369  1.00 20.00    -0.008 C 
HETATM    9  C9  UNL     1     -31.261   6.775   1.567  1.00 20.00     0.011 C 
BRANCH   8  10
HETATM   10  C10 UNL     1     -32.320   9.012   2.106  1.00 20.00     0.074 C 
BRANCH  10  11
HETATM   11  C3  UNL     1     -32.357   9.383   0.641  1.00 20.00     0.231 C 
HETATM   12  O12 UNL     1     -32.393  10.530   0.208  1.00 20.00    -0.307 OA
ENDBRANCH  10  11
ENDBRANCH   8  10
ENDBRANCH   6   8
TORSDOF 3
ENDMDL
MODEL 6
REMARK VINA RESULT:       1.2      1.766      3.308
REMARK  3 active torsions:
REMARK  status: ('A' for Active; 'I' for Inactive)
REMARK    1  A    between atoms: C3_3  and  C10_10 
REMARK    2  A    between atoms: C7_7  and  C11_11 
REMARK    3  A    between atoms: C10_10  and  C11_11 
ROOT
HETATM    1  C1  UNL     1     -33.310   5.423   0.893  1.00 20.00    -0.024 C 
HETATM    2  C2  UNL     1     -31.988   5.458   1.133  1.00 20.00    -0.087 C 
HETATM    3  C4  UNL     1     -34.260   6.513   1.295  1.00 20.00     0.032 C 
HETATM    4  C5  UNL     1     -31.330   6.631   1.816  1.00 20.00     0.034 C 
HETATM    5  C6  UNL     1     -32.235   7.863   1.932  1.00 20.00     0.009 C 
HETATM    6  C7  UNL     1     -33.677   7.506   2.314  1.00 20.00    -0.007 C 
HETATM    7  C8  UNL     1     -31.081   4.329   0.741  1.00 20.00     0.043 C 
ENDROOT
BRANCH   6   8
HETATM    8  C11 UNL     1     -33.764   6.964   3.745  1.00 20.00    -0.008 C 
HETATM    9  C9  UNL     1     -33.536   8.100   4.746  1.00 20.00     0.011 C 
BRANCH   8  10
HETATM   10  C10 UNL     1     -35.124   6.285   3.971  1.00 20.00     0.074 C 
BRANCH  10  11
HETATM   11  C3  UNL     1     -35.027   4.872   4.498  1.00 20.00     0.231 C 
HETATM   12  O12 UNL     1     -34.197   4.042   4.138  1.00 20.00    -0.307 OA
ENDBRANCH  10  11
ENDBRANCH   8  10
ENDBRANCH   6   8
TORSDOF 3
ENDMDL
MODEL 7
REMARK VINA RESULT:       2.0      2.364      4.915
REMARK  3 active torsions:
REMARK  status: ('A' for Active; 'I' for Inactive)
REMARK    1  A    between atoms: C3_3  and  C10_10 
REMARK    2  A    between atoms: C7_7  and  C11_11 
REMARK    3  A    between atoms: C10_10  and  C11_11 
ROOT
HETATM    1  C1  UNL     1     -34.692   4.745   4.386  1.00 20.00    -0.024 C 
HETATM    2  C2  UNL     1     -33.626   3.994   4.061  1.00 20.00    -0.087 C 
HETATM    3  C4  UNL     1     -35.159   5.922   3.580  1.00 20.00     0.032 C 
HETATM    4  C5  UNL     1     -32.809   4.258   2.820  1.00 20.00     0.034 C 
HETATM    5  C6  UNL     1     -33.470   5.239   1.845  1.00 20.00     0.009 C 
HETATM    6  C7  UNL     1     -34.129   6.428   2.556  1.00 20.00    -0.007 C 
HETATM    7  C8  UNL     1     -33.176   2.845   4.914  1.00 20.00     0.043 C 
ENDROOT
BRANCH   6   8
HETATM    8  C11 UNL     1     -33.089   7.345   3.207  1.00 20.00    -0.008 C 
HETATM    9  C9  UNL     1     -32.308   8.097   2.125  1.00 20.00     0.011 C 
BRANCH   8  10
HETATM   10  C10 UNL     1     -33.775   8.317   4.179  1.00 20.00     0.074 C 
BRANCH  10  11
HETATM   11  C3  UNL     1     -33.054   8.484   5.497  1.00 20.00     0.231 C 
HETATM   12  O12 UNL     1     -31.917   8.927   5.625  1.00 20.00    -0.307 OA
ENDBRANCH  10  11
ENDBRANCH   8  10
ENDBRANCH   6   8
TORSDOF 3
ENDMDL
MODEL 8
REMARK VINA RESULT:       2.8      1.656      1.967
REMARK  3 active torsions:
REMARK  status: ('A' for Active; 'I' for Inactive)
REMARK    1  A    between atoms: C3_3  and  C10_10 
REMARK    2  A    between atoms: C7_7  and  C11_11 
REMARK    3  A    between atoms: C10_10  and  C11_11 
ROOT
HETATM    1  C1  UNL     1     -31.901   8.864   1.739  1.00 20.00    -0.024 C 
HETATM    2  C2  UNL     1     -32.496   8.730   0.541  1.00 20.00    -0.087 C 
HETATM    3  C4  UNL     1     -31.757   7.744   2.728  1.00 20.00     0.032 C 
HETATM    4  C5  UNL     1     -33.055   7.412   0.068  1.00 20.00     0.034 C 
HETATM    5  C6  UNL     1     -32.625   6.217   0.927  1.00 20.00     0.009 C 
HETATM    6  C7  UNL     1     -32.649   6.527   2.429  1.00 20.00    -0.007 C 
HETATM    7  C8  UNL     1     -32.645   9.887  -0.403  1.00 20.00     0.043 C 
ENDROOT
BRANCH   6   8
HETATM    8  C11 UNL     1     -34.078   6.736   2.941  1.00 20.00    -0.008 C 
HETATM    9  C9  UNL     1     -34.498   5.544   3.807  1.00 20.00     0.011 C 
BRANCH   8  10
HETATM   10  C10 UNL     1     -34.174   8.055   3.721  1.00 20.00     0.074 C 
BRANCH  10  11
HETATM   11  C3  UNL     1     -33.828   7.931   5.188  1.00 20.00     0.231 C 
HETATM   12  O12 UNL     1     -32.820   8.390   5.714  1.00 20.00    -0.307 OA
ENDBRANCH  10  11
ENDBRANCH   8  10
ENDBRANCH   6   8
TORSDOF 3
ENDMDL
MODEL 9
REMARK VINA RESULT:       2.8      1.897      3.127
REMARK  3 active torsions:
REMARK  status: ('A' for Active; 'I' for Inactive)
REMARK    1  A    between atoms: C3_3  and  C10_10 
REMARK    2  A    between atoms: C7_7  and  C11_11 
REMARK    3  A    between atoms: C10_10  and  C11_11 
ROOT
HETATM    1  C1  UNL     1     -31.382   6.370   1.587  1.00 20.00    -0.024 C 
HETATM    2  C2  UNL     1     -31.887   7.616   1.578  1.00 20.00    -0.087 C 
HETATM    3  C4  UNL     1     -32.223   5.130   1.674  1.00 20.00     0.032 C 
HETATM    4  C5  UNL     1     -33.371   7.878   1.628  1.00 20.00     0.034 C 
HETATM    5  C6  UNL     1     -34.226   6.627   1.392  1.00 20.00     0.009 C 
HETATM    6  C7  UNL     1     -33.675   5.389   2.111  1.00 20.00    -0.007 C 
HETATM    7  C8  UNL     1     -31.005   8.828   1.522  1.00 20.00     0.043 C 
ENDROOT
BRANCH   6   8
HETATM    8  C11 UNL     1     -33.792   5.520   3.633  1.00 20.00    -0.008 C 
HETATM    9  C9  UNL     1     -34.675   6.721   3.985  1.00 20.00     0.011 C 
BRANCH   8  10
HETATM   10  C10 UNL     1     -34.348   4.221   4.235  1.00 20.00     0.074 C 
BRANCH  10  11
HETATM   11  C3  UNL     1     -33.317   3.129   4.405  1.00 20.00     0.231 C 
HETATM   12  O12 UNL     1     -32.673   2.923   5.429  1.00 20.00    -0.307 OA
ENDBRANCH  10  11
ENDBRANCH   8  10
ENDBRANCH   6   8
TORSDOF 3
ENDMDL
