MODEL 1
REMARK VINA RESULT:      -2.8      0.000      0.000
REMARK  1 active torsions:
REMARK  status: ('A' for Active; 'I' for Inactive)
REMARK    1  A    between atoms: C2_2  and  O3_3 
ROOT
HETATM    1  C2  UNL     1     -35.058   6.225   3.895  1.00 20.00     0.524 C 
HETATM    2  F4  UNL     1     -34.076   6.200   2.969  1.00 20.00    -0.144 F 
HETATM    3  F5  UNL     1     -36.213   6.568   3.284  1.00 20.00    -0.144 F 
HETATM    4  F6  UNL     1     -34.751   7.155   4.822  1.00 20.00    -0.144 F 
ENDROOT
BRANCH   1   5
HETATM    5  O3  UNL     1     -35.169   4.942   4.489  1.00 20.00    -0.303 OA
HETATM    6  C1  UNL     1     -34.056   4.113   4.187  1.00 20.00     0.211 C 
ENDBRANCH   1   5
TORSDOF 1
ENDMDL
MODEL 2
REMARK VINA RESULT:      -2.7      1.617      2.133
REMARK  1 active torsions:
REMARK  status: ('A' for Active; 'I' for Inactive)
REMARK    1  A    between atoms: C2_2  and  O3_3 
ROOT
HETATM    1  C2  UNL     1     -35.072   6.299   3.909  1.00 20.00     0.524 C 
HETATM    2  F4  UNL     1     -34.788   7.252   4.821  1.00 20.00    -0.144 F 
HETATM    3  F5  UNL     1     -36.181   6.670   3.233  1.00 20.00    -0.144 F 
HETATM    4  F6  UNL     1     -35.312   5.142   4.558  1.00 20.00    -0.144 F 
ENDROOT
BRANCH   1   5
HETATM    5  O3  UNL     1     -33.972   6.159   3.026  1.00 20.00    -0.303 OA
HETATM    6  C1  UNL     1     -33.195   7.345   2.945  1.00 20.00     0.211 C 
ENDBRANCH   1   5
TORSDOF 1
ENDMDL
MODEL 3
REMARK VINA RESULT:      -2.7      1.619      2.330
REMARK  1 active torsions:
REMARK  status: ('A' for Active; 'I' for Inactive)
REMARK    1  A    between atoms: C2_2  and  O3_3 
ROOT
HETATM    1  C2  UNL     1     -35.060   6.316   3.907  1.00 20.00     0.524 C 
HETATM    2  F4  UNL     1     -35.294   5.149   4.544  1.00 20.00    -0.144 F 
HETATM    3  F5  UNL     1     -34.782   7.260   4.831  1.00 20.00    -0.144 F 
HETATM    4  F6  UNL     1     -36.174   6.667   3.233  1.00 20.00    -0.144 F 
ENDROOT
BRANCH   1   5
HETATM    5  O3  UNL     1     -33.968   6.149   3.019  1.00 20.00    -0.303 OA
HETATM    6  C1  UNL     1     -33.185   7.328   2.903  1.00 20.00     0.211 C 
ENDBRANCH   1   5
TORSDOF 1
ENDMDL
MODEL 4
REMARK VINA RESULT:      -2.7      1.613      2.119
REMARK  1 active torsions:
REMARK  status: ('A' for Active; 'I' for Inactive)
REMARK    1  A    between atoms: C2_2  and  O3_3 
ROOT
HETATM    1  C2  UNL     1     -35.054   6.306   3.918  1.00 20.00     0.524 C 
HETATM    2  F4  UNL     1     -36.157   6.672   3.230  1.00 20.00    -0.144 F 
HETATM    3  F5  UNL     1     -35.311   5.143   4.552  1.00 20.00    -0.144 F 
HETATM    4  F6  UNL     1     -34.783   7.261   4.831  1.00 20.00    -0.144 F 
ENDROOT
BRANCH   1   5
HETATM    5  O3  UNL     1     -33.973   6.156   3.014  1.00 20.00    -0.303 OA
HETATM    6  C1  UNL     1     -33.190   7.336   2.911  1.00 20.00     0.211 C 
ENDBRANCH   1   5
TORSDOF 1
ENDMDL
MODEL 5
REMARK VINA RESULT:      -2.5      5.388      5.641
REMARK  1 active torsions:
REMARK  status: ('A' for Active; 'I' for Inactive)
REMARK    1  A    between atoms: C2_2  and  O3_3 
ROOT
HETATM    1  C2  UNL     1     -32.286   9.679   0.265  1.00 20.00     0.524 C 
HETATM    2  F4  UNL     1     -31.056   9.243  -0.080  1.00 20.00    -0.144 F 
HETATM    3  F5  UNL     1     -33.107   9.527  -0.796  1.00 20.00    -0.144 F 
HETATM    4  F6  UNL     1     -32.205  10.987   0.582  1.00 20.00    -0.144 F 
ENDROOT
BRANCH   1   5
HETATM    5  O3  UNL     1     -32.752   8.923   1.370  1.00 20.00    -0.303 OA
HETATM    6  C1  UNL     1     -31.890   7.837   1.680  1.00 20.00     0.211 C 
ENDBRANCH   1   5
TORSDOF 1
ENDMDL
MODEL 6
REMARK VINA RESULT:      -2.4      3.203      3.949
REMARK  1 active torsions:
REMARK  status: ('A' for Active; 'I' for Inactive)
REMARK    1  A    between atoms: C2_2  and  O3_3 
ROOT
HETATM    1  C2  UNL     1     -32.813   5.861   1.702  1.00 20.00     0.524 C 
HETATM    2  F4  UNL     1     -33.274   4.998   2.632  1.00 20.00    -0.144 F 
HETATM    3  F5  UNL     1     -33.596   5.768   0.606  1.00 20.00    -0.144 F 
HETATM    4  F6  UNL     1     -31.552   5.511   1.380  1.00 20.00    -0.144 F 
ENDROOT
BRANCH   1   5
HETATM    5  O3  UNL     1     -32.849   7.176   2.232  1.00 20.00    -0.303 OA
HETATM    6  C1  UNL     1     -31.861   8.016   1.652  1.00 20.00     0.211 C 
ENDBRANCH   1   5
TORSDOF 1
ENDMDL
MODEL 7
REMARK VINA RESULT:      -2.4      3.187      3.940
REMARK  1 active torsions:
REMARK  status: ('A' for Active; 'I' for Inactive)
REMARK    1  A    between atoms: C2_2  and  O3_3 
ROOT
HETATM    1  C2  UNL     1     -32.838   5.887   1.730  1.00 20.00     0.524 C 
HETATM    2  F4  UNL     1     -31.574   5.552   1.394  1.00 20.00    -0.144 F 
HETATM    3  F5  UNL     1     -33.284   5.006   2.651  1.00 20.00    -0.144 F 
HETATM    4  F6  UNL     1     -33.610   5.809   0.627  1.00 20.00    -0.144 F 
ENDROOT
BRANCH   1   5
HETATM    5  O3  UNL     1     -32.844   7.204   2.254  1.00 20.00    -0.303 OA
HETATM    6  C1  UNL     1     -31.858   8.028   1.648  1.00 20.00     0.211 C 
ENDBRANCH   1   5
TORSDOF 1
ENDMDL
MODEL 8
REMARK VINA RESULT:      -2.3      3.621      3.886
REMARK  1 active torsions:
REMARK  status: ('A' for Active; 'I' for Inactive)
REMARK    1  A    between atoms: C2_2  and  O3_3 
ROOT
HETATM    1  C2  UNL     1     -32.185   7.996   2.157  1.00 20.00     0.524 C 
HETATM    2  F4  UNL     1     -32.453   8.934   1.224  1.00 20.00    -0.144 F 
HETATM    3  F5  UNL     1     -33.300   7.787   2.889  1.00 20.00    -0.144 F 
HETATM    4  F6  UNL     1     -31.205   8.458   2.960  1.00 20.00    -0.144 F 
ENDROOT
BRANCH   1   5
HETATM    5  O3  UNL     1     -31.781   6.801   1.509  1.00 20.00    -0.303 OA
HETATM    6  C1  UNL     1     -32.783   5.796   1.561  1.00 20.00     0.211 C 
ENDBRANCH   1   5
TORSDOF 1
ENDMDL
MODEL 9
REMARK VINA RESULT:      -2.3      3.553      3.806
REMARK  1 active torsions:
REMARK  status: ('A' for Active; 'I' for Inactive)
REMARK    1  A    between atoms: C2_2  and  O3_3 
ROOT
HETATM    1  C2  UNL     1     -32.156   7.906   2.115  1.00 20.00     0.524 C 
HETATM    2  F4  UNL     1     -31.257   7.128   1.475  1.00 20.00    -0.144 F 
HETATM    3  F5  UNL     1     -32.539   8.895   1.279  1.00 20.00    -0.144 F 
HETATM    4  F6  UNL     1     -31.562   8.445   3.199  1.00 20.00    -0.144 F 
ENDROOT
BRANCH   1   5
HETATM    5  O3  UNL     1     -33.268   7.113   2.494  1.00 20.00    -0.303 OA
HETATM    6  C1  UNL     1     -33.805   7.505   3.748  1.00 20.00     0.211 C 
ENDBRANCH   1   5
TORSDOF 1
ENDMDL
