MODEL 1
REMARK VINA RESULT:      -0.0      0.000      0.000
REMARK  2 active torsions:
REMARK  status: ('A' for Active; 'I' for Inactive)
REMARK    1  A    between atoms: C1_1  and  C5_5 
REMARK    2  A    between atoms: C2_2  and  C6_6 
ROOT
HETATM    1  C1  UNL     1     -32.665   8.548   1.556  1.00 20.00    -0.063 C 
HETATM    2  C2  UNL     1     -33.127   7.973   2.503  1.00 20.00    -0.063 C 
ENDROOT
BRANCH   1   3
HETATM    3  C5  UNL     1     -32.114   9.234   0.426  1.00 20.00     0.141 A 
HETATM    4  C3  UNL     1     -32.507  10.670   0.180  1.00 20.00     0.221 A 
HETATM    5  O9  UNL     1     -33.102   9.590  -0.550  1.00 20.00    -0.362 OA
HETATM    6  C7  UNL     1     -30.850   8.701  -0.167  1.00 20.00     0.063 C 
ENDBRANCH   1   3
BRANCH   2   7
HETATM    7  C6  UNL     1     -33.691   7.274   3.656  1.00 20.00     0.141 A 
HETATM    8  C4  UNL     1     -33.987   5.814   3.515  1.00 20.00     0.221 A 
HETATM    9  O10 UNL     1     -35.012   6.810   3.401  1.00 20.00    -0.362 OA
HETATM   10  C8  UNL     1     -33.487   7.899   4.982  1.00 20.00     0.063 C 
ENDBRANCH   2   7
TORSDOF 2
ENDMDL
MODEL 2
REMARK VINA RESULT:      -0.0      0.034      4.822
REMARK  2 active torsions:
REMARK  status: ('A' for Active; 'I' for Inactive)
REMARK    1  A    between atoms: C1_1  and  C5_5 
REMARK    2  A    between atoms: C2_2  and  C6_6 
ROOT
HETATM    1  C1  UNL     1     -33.105   7.974   2.493  1.00 20.00    -0.063 C 
HETATM    2  C2  UNL     1     -32.648   8.547   1.542  1.00 20.00    -0.063 C 
ENDROOT
BRANCH   1   3
HETATM    3  C5  UNL     1     -33.650   7.291   3.627  1.00 20.00     0.141 A 
HETATM    4  C3  UNL     1     -33.956   5.817   3.515  1.00 20.00     0.221 A 
HETATM    5  O9  UNL     1     -34.983   6.811   3.405  1.00 20.00    -0.362 OA
HETATM    6  C7  UNL     1     -33.451   7.905   4.975  1.00 20.00     0.063 C 
ENDBRANCH   1   3
BRANCH   2   7
HETATM    7  C6  UNL     1     -32.093   9.244   0.383  1.00 20.00     0.141 A 
HETATM    8  C4  UNL     1     -32.487  10.671   0.168  1.00 20.00     0.221 A 
HETATM    9  O10 UNL     1     -33.102   9.597  -0.557  1.00 20.00    -0.362 OA
HETATM   10  C8  UNL     1     -30.854   8.686  -0.203  1.00 20.00     0.063 C 
ENDBRANCH   2   7
TORSDOF 2
ENDMDL
MODEL 3
REMARK VINA RESULT:       0.2      0.974      4.761
REMARK  2 active torsions:
REMARK  status: ('A' for Active; 'I' for Inactive)
REMARK    1  A    between atoms: C1_1  and  C5_5 
REMARK    2  A    between atoms: C2_2  and  C6_6 
ROOT
HETATM    1  C1  UNL     1     -33.145   7.563   2.172  1.00 20.00    -0.063 C 
HETATM    2  C2  UNL     1     -32.670   8.317   1.368  1.00 20.00    -0.063 C 
ENDROOT
BRANCH   1   3
HETATM    3  C5  UNL     1     -33.711   6.664   3.132  1.00 20.00     0.141 A 
HETATM    4  C3  UNL     1     -35.042   7.006   3.757  1.00 20.00     0.221 A 
HETATM    5  O9  UNL     1     -33.805   7.231   4.445  1.00 20.00    -0.362 OA
HETATM    6  C7  UNL     1     -33.241   5.245   3.124  1.00 20.00     0.063 C 
ENDBRANCH   1   3
BRANCH   2   7
HETATM    7  C6  UNL     1     -32.093   9.235   0.388  1.00 20.00     0.141 A 
HETATM    8  C4  UNL     1     -32.593  10.645   0.370  1.00 20.00     0.221 A 
HETATM    9  O10 UNL     1     -33.056   9.664  -0.568  1.00 20.00    -0.362 OA
HETATM   10  C8  UNL     1     -30.770   8.875  -0.168  1.00 20.00     0.063 C 
ENDBRANCH   2   7
TORSDOF 2
ENDMDL
MODEL 4
REMARK VINA RESULT:       0.2      0.974      1.295
REMARK  2 active torsions:
REMARK  status: ('A' for Active; 'I' for Inactive)
REMARK    1  A    between atoms: C1_1  and  C5_5 
REMARK    2  A    between atoms: C2_2  and  C6_6 
ROOT
HETATM    1  C1  UNL     1     -32.683   8.308   1.370  1.00 20.00    -0.063 C 
HETATM    2  C2  UNL     1     -33.158   7.556   2.176  1.00 20.00    -0.063 C 
ENDROOT
BRANCH   1   3
HETATM    3  C5  UNL     1     -32.115   9.203   0.408  1.00 20.00     0.141 A 
HETATM    4  C3  UNL     1     -32.574  10.641   0.387  1.00 20.00     0.221 A 
HETATM    5  O9  UNL     1     -33.071   9.677  -0.551  1.00 20.00    -0.362 OA
HETATM    6  C7  UNL     1     -30.795   8.840  -0.192  1.00 20.00     0.063 C 
ENDBRANCH   1   3
BRANCH   2   7
HETATM    7  C6  UNL     1     -33.739   6.642   3.158  1.00 20.00     0.141 A 
HETATM    8  C4  UNL     1     -35.072   6.993   3.739  1.00 20.00     0.221 A 
HETATM    9  O10 UNL     1     -33.848   7.245   4.443  1.00 20.00    -0.362 OA
HETATM   10  C8  UNL     1     -33.236   5.250   3.156  1.00 20.00     0.063 C 
ENDBRANCH   2   7
TORSDOF 2
ENDMDL
MODEL 5
REMARK VINA RESULT:       1.7      1.916      2.664
REMARK  2 active torsions:
REMARK  status: ('A' for Active; 'I' for Inactive)
REMARK    1  A    between atoms: C1_1  and  C5_5 
REMARK    2  A    between atoms: C2_2  and  C6_6 
ROOT
HETATM    1  C1  UNL     1     -32.936   7.025   2.910  1.00 20.00    -0.063 C 
HETATM    2  C2  UNL     1     -33.574   6.134   3.401  1.00 20.00    -0.063 C 
ENDROOT
BRANCH   1   3
HETATM    3  C5  UNL     1     -32.176   8.087   2.324  1.00 20.00     0.141 A 
HETATM    4  C3  UNL     1     -32.577   8.610   0.966  1.00 20.00     0.221 A 
HETATM    5  O9  UNL     1     -31.488   7.692   1.130  1.00 20.00    -0.362 OA
HETATM    6  C7  UNL     1     -31.355   8.943   3.233  1.00 20.00     0.063 C 
ENDBRANCH   1   3
BRANCH   2   7
HETATM    7  C6  UNL     1     -34.350   5.048   3.998  1.00 20.00     0.141 A 
HETATM    8  C4  UNL     1     -33.605   3.878   4.556  1.00 20.00     0.221 A 
HETATM    9  O10 UNL     1     -34.220   3.837   3.262  1.00 20.00    -0.362 OA
HETATM   10  C8  UNL     1     -35.725   5.373   4.438  1.00 20.00     0.063 C 
ENDBRANCH   2   7
TORSDOF 2
ENDMDL
MODEL 6
REMARK VINA RESULT:       1.7      1.922      5.160
REMARK  2 active torsions:
REMARK  status: ('A' for Active; 'I' for Inactive)
REMARK    1  A    between atoms: C1_1  and  C5_5 
REMARK    2  A    between atoms: C2_2  and  C6_6 
ROOT
HETATM    1  C1  UNL     1     -33.577   6.121   3.409  1.00 20.00    -0.063 C 
HETATM    2  C2  UNL     1     -32.940   7.014   2.920  1.00 20.00    -0.063 C 
ENDROOT
BRANCH   1   3
HETATM    3  C5  UNL     1     -34.337   5.058   3.993  1.00 20.00     0.141 A 
HETATM    4  C3  UNL     1     -33.607   3.864   4.559  1.00 20.00     0.221 A 
HETATM    5  O9  UNL     1     -34.227   3.826   3.267  1.00 20.00    -0.362 OA
HETATM    6  C7  UNL     1     -35.726   5.361   4.452  1.00 20.00     0.063 C 
ENDBRANCH   1   3
BRANCH   2   7
HETATM    7  C6  UNL     1     -32.164   8.099   2.322  1.00 20.00     0.141 A 
HETATM    8  C4  UNL     1     -32.575   8.594   0.972  1.00 20.00     0.221 A 
HETATM    9  O10 UNL     1     -31.484   7.680   1.144  1.00 20.00    -0.362 OA
HETATM   10  C8  UNL     1     -31.366   8.938   3.245  1.00 20.00     0.063 C 
ENDBRANCH   2   7
TORSDOF 2
ENDMDL
MODEL 7
REMARK VINA RESULT:       2.1      2.266      5.447
REMARK  2 active torsions:
REMARK  status: ('A' for Active; 'I' for Inactive)
REMARK    1  A    between atoms: C1_1  and  C5_5 
REMARK    2  A    between atoms: C2_2  and  C6_6 
ROOT
HETATM    1  C1  UNL     1     -33.513   5.640   3.326  1.00 20.00    -0.063 C 
HETATM    2  C2  UNL     1     -32.917   6.434   2.651  1.00 20.00    -0.063 C 
ENDROOT
BRANCH   1   3
HETATM    3  C5  UNL     1     -34.223   4.694   4.131  1.00 20.00     0.141 A 
HETATM    4  C3  UNL     1     -33.450   3.597   4.823  1.00 20.00     0.221 A 
HETATM    5  O9  UNL     1     -34.171   3.360   3.607  1.00 20.00    -0.362 OA
HETATM    6  C7  UNL     1     -35.572   5.083   4.643  1.00 20.00     0.063 C 
ENDBRANCH   1   3
BRANCH   2   7
HETATM    7  C6  UNL     1     -32.192   7.402   1.828  1.00 20.00     0.141 A 
HETATM    8  C4  UNL     1     -31.554   8.567   2.516  1.00 20.00     0.221 A 
HETATM    9  O10 UNL     1     -32.815   8.682   1.843  1.00 20.00    -0.362 OA
HETATM   10  C8  UNL     1     -31.734   6.939   0.499  1.00 20.00     0.063 C 
ENDBRANCH   2   7
TORSDOF 2
ENDMDL
MODEL 8
REMARK VINA RESULT:       2.9      2.488      3.067
REMARK  2 active torsions:
REMARK  status: ('A' for Active; 'I' for Inactive)
REMARK    1  A    between atoms: C1_1  and  C5_5 
REMARK    2  A    between atoms: C2_2  and  C6_6 
ROOT
HETATM    1  C1  UNL     1     -32.917   6.235   2.128  1.00 20.00    -0.063 C 
HETATM    2  C2  UNL     1     -33.694   6.419   3.024  1.00 20.00    -0.063 C 
ENDROOT
BRANCH   1   3
HETATM    3  C5  UNL     1     -31.991   6.015   1.058  1.00 20.00     0.141 A 
HETATM    4  C3  UNL     1     -32.071   4.726   0.276  1.00 20.00     0.221 A 
HETATM    5  O9  UNL     1     -31.096   4.923   1.308  1.00 20.00    -0.362 OA
HETATM    6  C7  UNL     1     -31.326   7.208   0.452  1.00 20.00     0.063 C 
ENDBRANCH   1   3
BRANCH   2   7
HETATM    7  C6  UNL     1     -34.640   6.645   4.116  1.00 20.00     0.141 A 
HETATM    8  C4  UNL     1     -35.464   5.486   4.580  1.00 20.00     0.221 A 
HETATM    9  O10 UNL     1     -35.989   6.481   3.691  1.00 20.00    -0.362 OA
HETATM   10  C8  UNL     1     -34.392   7.817   4.984  1.00 20.00     0.063 C 
ENDBRANCH   2   7
TORSDOF 2
ENDMDL
MODEL 9
REMARK VINA RESULT:       3.0      2.484      4.938
REMARK  2 active torsions:
REMARK  status: ('A' for Active; 'I' for Inactive)
REMARK    1  A    between atoms: C1_1  and  C5_5 
REMARK    2  A    between atoms: C2_2  and  C6_6 
ROOT
HETATM    1  C1  UNL     1     -33.696   6.425   3.029  1.00 20.00    -0.063 C 
HETATM    2  C2  UNL     1     -32.920   6.241   2.131  1.00 20.00    -0.063 C 
ENDROOT
BRANCH   1   3
HETATM    3  C5  UNL     1     -34.622   6.644   4.098  1.00 20.00     0.141 A 
HETATM    4  C3  UNL     1     -35.465   5.489   4.583  1.00 20.00     0.221 A 
HETATM    5  O9  UNL     1     -35.990   6.487   3.697  1.00 20.00    -0.362 OA
HETATM    6  C7  UNL     1     -34.392   7.818   4.993  1.00 20.00     0.063 C 
ENDBRANCH   1   3
BRANCH   2   7
HETATM    7  C6  UNL     1     -31.974   6.016   1.040  1.00 20.00     0.141 A 
HETATM    8  C4  UNL     1     -32.073   4.732   0.279  1.00 20.00     0.221 A 
HETATM    9  O10 UNL     1     -31.098   4.927   1.313  1.00 20.00    -0.362 OA
HETATM   10  C8  UNL     1     -31.327   7.214   0.458  1.00 20.00     0.063 C 
ENDBRANCH   2   7
TORSDOF 2
ENDMDL
