MODEL 1
REMARK VINA RESULT:      -0.8      0.000      0.000
REMARK  4 active torsions:
REMARK  status: ('A' for Active; 'I' for Inactive)
REMARK    1  A    between atoms: C2_2  and  C7_7 
REMARK    2  A    between atoms: C7_7  and  C9_9 
REMARK    3  A    between atoms: C8_8  and  C9_9 
REMARK    4  A    between atoms: C9_9  and  O10_10 
ROOT
HETATM    1  C6  UNL     1     -31.972   6.452   1.629  1.00 20.00     0.047 C 
HETATM    2  C9  UNL     1     -32.294   7.884   2.099  1.00 20.00     0.064 C 
ENDROOT
BRANCH   2   3
HETATM    3  C7  UNL     1     -33.487   7.871   3.124  1.00 20.00     0.037 C 
HETATM    4  C3  UNL     1     -33.081   8.263   4.554  1.00 20.00     0.017 C 
BRANCH   3   5
HETATM    5  C2  UNL     1     -34.168   6.521   3.206  1.00 20.00    -0.030 C 
HETATM    6  C1  UNL     1     -35.224   6.259   3.985  1.00 20.00     0.007 C 
ENDBRANCH   3   5
ENDBRANCH   2   3
BRANCH   2   7
HETATM    7  C8  UNL     1     -32.554   8.841   0.881  1.00 20.00     0.012 C 
HETATM    8  C4  UNL     1     -32.859  10.290   1.300  1.00 20.00     0.012 C 
HETATM    9  C5  UNL     1     -31.423   8.854  -0.153  1.00 20.00     0.012 C 
ENDBRANCH   2   7
BRANCH   2  10
HETATM   10  O10 UNL     1     -31.124   8.380   2.769  1.00 20.00    -0.389 OA
HETATM   11  H28 UNL     1     -31.445   8.836   3.558  1.00 20.00     0.210 HD
ENDBRANCH   2  10
TORSDOF 4
ENDMDL
MODEL 2
REMARK VINA RESULT:      -0.4      1.617      3.800
REMARK  4 active torsions:
REMARK  status: ('A' for Active; 'I' for Inactive)
REMARK    1  A    between atoms: C2_2  and  C7_7 
REMARK    2  A    between atoms: C7_7  and  C9_9 
REMARK    3  A    between atoms: C8_8  and  C9_9 
REMARK    4  A    between atoms: C9_9  and  O10_10 
ROOT
HETATM    1  C6  UNL     1     -31.993   5.115   1.388  1.00 20.00     0.047 C 
HETATM    2  C9  UNL     1     -32.825   6.339   1.821  1.00 20.00     0.064 C 
ENDROOT
BRANCH   2   3
HETATM    3  C7  UNL     1     -31.956   7.647   1.753  1.00 20.00     0.037 C 
HETATM    4  C3  UNL     1     -32.023   8.505   3.026  1.00 20.00     0.017 C 
BRANCH   3   5
HETATM    5  C2  UNL     1     -32.339   8.540   0.591  1.00 20.00    -0.030 C 
HETATM    6  C1  UNL     1     -32.374   9.877   0.651  1.00 20.00     0.007 C 
ENDBRANCH   3   5
ENDBRANCH   2   3
BRANCH   2   7
HETATM    7  C8  UNL     1     -33.475   6.117   3.233  1.00 20.00     0.012 C 
HETATM    8  C4  UNL     1     -34.779   6.910   3.433  1.00 20.00     0.012 C 
HETATM    9  C5  UNL     1     -33.735   4.646   3.575  1.00 20.00     0.012 C 
ENDBRANCH   2   7
BRANCH   2  10
HETATM   10  O10 UNL     1     -33.908   6.464   0.884  1.00 20.00    -0.389 OA
HETATM   11  H28 UNL     1     -33.554   6.961   0.136  1.00 20.00     0.210 HD
ENDBRANCH   2  10
TORSDOF 4
ENDMDL
MODEL 3
REMARK VINA RESULT:      -0.3      1.600      2.798
REMARK  4 active torsions:
REMARK  status: ('A' for Active; 'I' for Inactive)
REMARK    1  A    between atoms: C2_2  and  C7_7 
REMARK    2  A    between atoms: C7_7  and  C9_9 
REMARK    3  A    between atoms: C8_8  and  C9_9 
REMARK    4  A    between atoms: C9_9  and  O10_10 
ROOT
HETATM    1  C6  UNL     1     -32.989   7.732   4.660  1.00 20.00     0.047 C 
HETATM    2  C9  UNL     1     -33.491   7.319   3.263  1.00 20.00     0.064 C 
ENDROOT
BRANCH   2   3
HETATM    3  C7  UNL     1     -34.293   5.968   3.343  1.00 20.00     0.037 C 
HETATM    4  C3  UNL     1     -35.503   6.019   4.290  1.00 20.00     0.017 C 
BRANCH   3   5
HETATM    5  C2  UNL     1     -33.428   4.805   3.784  1.00 20.00    -0.030 C 
HETATM    6  C1  UNL     1     -33.896   3.712   4.399  1.00 20.00     0.007 C 
ENDBRANCH   3   5
ENDBRANCH   2   3
BRANCH   2   7
HETATM    7  C8  UNL     1     -32.313   7.263   2.226  1.00 20.00     0.012 C 
HETATM    8  C4  UNL     1     -32.446   6.108   1.217  1.00 20.00     0.012 C 
HETATM    9  C5  UNL     1     -32.099   8.569   1.455  1.00 20.00     0.012 C 
ENDBRANCH   2   7
BRANCH   2  10
HETATM   10  O10 UNL     1     -34.384   8.352   2.815  1.00 20.00    -0.389 OA
HETATM   11  H28 UNL     1     -34.382   8.303   1.850  1.00 20.00     0.210 HD
ENDBRANCH   2  10
TORSDOF 4
ENDMDL
MODEL 4
REMARK VINA RESULT:      -0.1      1.539      2.307
REMARK  4 active torsions:
REMARK  status: ('A' for Active; 'I' for Inactive)
REMARK    1  A    between atoms: C2_2  and  C7_7 
REMARK    2  A    between atoms: C7_7  and  C9_9 
REMARK    3  A    between atoms: C8_8  and  C9_9 
REMARK    4  A    between atoms: C9_9  and  O10_10 
ROOT
HETATM    1  C6  UNL     1     -33.782   6.397   0.714  1.00 20.00     0.047 C 
HETATM    2  C9  UNL     1     -32.662   6.400   1.773  1.00 20.00     0.064 C 
ENDROOT
BRANCH   2   3
HETATM    3  C7  UNL     1     -33.246   6.059   3.193  1.00 20.00     0.037 C 
HETATM    4  C3  UNL     1     -33.539   4.564   3.402  1.00 20.00     0.017 C 
BRANCH   3   5
HETATM    5  C2  UNL     1     -34.527   6.811   3.490  1.00 20.00    -0.030 C 
HETATM    6  C1  UNL     1     -35.597   6.268   4.083  1.00 20.00     0.007 C 
ENDBRANCH   3   5
ENDBRANCH   2   3
BRANCH   2   7
HETATM    7  C8  UNL     1     -31.863   7.752   1.757  1.00 20.00     0.012 C 
HETATM    8  C4  UNL     1     -32.392   8.757   0.719  1.00 20.00     0.012 C 
HETATM    9  C5  UNL     1     -31.785   8.446   3.121  1.00 20.00     0.012 C 
ENDBRANCH   2   7
BRANCH   2  10
HETATM   10  O10 UNL     1     -31.732   5.368   1.405  1.00 20.00    -0.389 OA
HETATM   11  H28 UNL     1     -32.235   4.544   1.413  1.00 20.00     0.210 HD
ENDBRANCH   2  10
TORSDOF 4
ENDMDL
MODEL 5
REMARK VINA RESULT:       0.2      1.600      2.052
REMARK  4 active torsions:
REMARK  status: ('A' for Active; 'I' for Inactive)
REMARK    1  A    between atoms: C2_2  and  C7_7 
REMARK    2  A    between atoms: C7_7  and  C9_9 
REMARK    3  A    between atoms: C8_8  and  C9_9 
REMARK    4  A    between atoms: C9_9  and  O10_10 
ROOT
HETATM    1  C6  UNL     1     -33.526   6.326   0.290  1.00 20.00     0.047 C 
HETATM    2  C9  UNL     1     -32.923   6.569   1.688  1.00 20.00     0.064 C 
ENDROOT
BRANCH   2   3
HETATM    3  C7  UNL     1     -33.925   6.104   2.808  1.00 20.00     0.037 C 
HETATM    4  C3  UNL     1     -34.194   7.170   3.882  1.00 20.00     0.017 C 
BRANCH   3   5
HETATM    5  C2  UNL     1     -33.457   4.855   3.524  1.00 20.00    -0.030 C 
HETATM    6  C1  UNL     1     -34.216   4.144   4.368  1.00 20.00     0.007 C 
ENDBRANCH   3   5
ENDBRANCH   2   3
BRANCH   2   7
HETATM    7  C8  UNL     1     -32.469   8.062   1.863  1.00 20.00     0.012 C 
HETATM    8  C4  UNL     1     -31.122   8.206   2.593  1.00 20.00     0.012 C 
HETATM    9  C5  UNL     1     -32.407   8.851   0.551  1.00 20.00     0.012 C 
ENDBRANCH   2   7
BRANCH   2  10
HETATM   10  O10 UNL     1     -31.735   5.765   1.779  1.00 20.00    -0.389 OA
HETATM   11  H28 UNL     1     -31.062   6.332   2.178  1.00 20.00     0.210 HD
ENDBRANCH   2  10
TORSDOF 4
ENDMDL
MODEL 6
REMARK VINA RESULT:       0.3      1.117      4.022
REMARK  4 active torsions:
REMARK  status: ('A' for Active; 'I' for Inactive)
REMARK    1  A    between atoms: C2_2  and  C7_7 
REMARK    2  A    between atoms: C7_7  and  C9_9 
REMARK    3  A    between atoms: C8_8  and  C9_9 
REMARK    4  A    between atoms: C9_9  and  O10_10 
ROOT
HETATM    1  C6  UNL     1     -31.337   8.489   3.097  1.00 20.00     0.047 C 
HETATM    2  C9  UNL     1     -32.245   7.734   2.105  1.00 20.00     0.064 C 
ENDROOT
BRANCH   2   3
HETATM    3  C7  UNL     1     -32.439   8.575   0.790  1.00 20.00     0.037 C 
HETATM    4  C3  UNL     1     -31.210   8.577  -0.134  1.00 20.00     0.017 C 
BRANCH   3   5
HETATM    5  C2  UNL     1     -32.790  10.021   1.071  1.00 20.00    -0.030 C 
HETATM    6  C1  UNL     1     -32.717  11.002   0.163  1.00 20.00     0.007 C 
ENDBRANCH   3   5
ENDBRANCH   2   3
BRANCH   2   7
HETATM    7  C8  UNL     1     -33.608   7.329   2.771  1.00 20.00     0.012 C 
HETATM    8  C4  UNL     1     -33.805   5.807   2.875  1.00 20.00     0.012 C 
HETATM    9  C5  UNL     1     -33.834   7.951   4.153  1.00 20.00     0.012 C 
ENDBRANCH   2   7
BRANCH   2  10
HETATM   10  O10 UNL     1     -31.572   6.510   1.767  1.00 20.00    -0.389 OA
HETATM   11  H28 UNL     1     -31.412   6.551   0.815  1.00 20.00     0.210 HD
ENDBRANCH   2  10
TORSDOF 4
ENDMDL
MODEL 7
REMARK VINA RESULT:       0.4      1.433      4.447
REMARK  4 active torsions:
REMARK  status: ('A' for Active; 'I' for Inactive)
REMARK    1  A    between atoms: C2_2  and  C7_7 
REMARK    2  A    between atoms: C7_7  and  C9_9 
REMARK    3  A    between atoms: C8_8  and  C9_9 
REMARK    4  A    between atoms: C9_9  and  O10_10 
ROOT
HETATM    1  C6  UNL     1     -34.750   7.930   3.509  1.00 20.00     0.047 C 
HETATM    2  C9  UNL     1     -33.747   6.781   3.285  1.00 20.00     0.064 C 
ENDROOT
BRANCH   2   3
HETATM    3  C7  UNL     1     -33.102   6.886   1.854  1.00 20.00     0.037 C 
HETATM    4  C3  UNL     1     -32.467   5.576   1.361  1.00 20.00     0.017 C 
BRANCH   3   5
HETATM    5  C2  UNL     1     -32.034   7.958   1.775  1.00 20.00    -0.030 C 
HETATM    6  C1  UNL     1     -32.077   9.001   0.937  1.00 20.00     0.007 C 
ENDBRANCH   3   5
ENDBRANCH   2   3
BRANCH   2   7
HETATM    7  C8  UNL     1     -34.411   5.383   3.548  1.00 20.00     0.012 C 
HETATM    8  C4  UNL     1     -33.421   4.329   4.075  1.00 20.00     0.012 C 
HETATM    9  C5  UNL     1     -35.621   5.436   4.486  1.00 20.00     0.012 C 
ENDBRANCH   2   7
BRANCH   2  10
HETATM   10  O10 UNL     1     -32.706   6.934   4.264  1.00 20.00    -0.389 OA
HETATM   11  H28 UNL     1     -32.686   7.874   4.484  1.00 20.00     0.210 HD
ENDBRANCH   2  10
TORSDOF 4
ENDMDL
MODEL 8
REMARK VINA RESULT:       0.4      2.156      3.599
REMARK  4 active torsions:
REMARK  status: ('A' for Active; 'I' for Inactive)
REMARK    1  A    between atoms: C2_2  and  C7_7 
REMARK    2  A    between atoms: C7_7  and  C9_9 
REMARK    3  A    between atoms: C8_8  and  C9_9 
REMARK    4  A    between atoms: C9_9  and  O10_10 
ROOT
HETATM    1  C6  UNL     1     -35.445   6.188   4.205  1.00 20.00     0.047 C 
HETATM    2  C9  UNL     1     -34.240   6.414   3.271  1.00 20.00     0.064 C 
ENDROOT
BRANCH   2   3
HETATM    3  C7  UNL     1     -33.234   5.209   3.370  1.00 20.00     0.037 C 
HETATM    4  C3  UNL     1     -32.643   4.779   2.018  1.00 20.00     0.017 C 
BRANCH   3   5
HETATM    5  C2  UNL     1     -33.859   3.980   3.996  1.00 20.00    -0.030 C 
HETATM    6  C1  UNL     1     -33.177   3.060   4.690  1.00 20.00     0.007 C 
ENDBRANCH   3   5
ENDBRANCH   2   3
BRANCH   2   7
HETATM    7  C8  UNL     1     -33.555   7.799   3.547  1.00 20.00     0.012 C 
HETATM    8  C4  UNL     1     -33.172   8.004   5.024  1.00 20.00     0.012 C 
HETATM    9  C5  UNL     1     -32.323   8.070   2.676  1.00 20.00     0.012 C 
ENDBRANCH   2   7
BRANCH   2  10
HETATM   10  O10 UNL     1     -34.752   6.469   1.929  1.00 20.00    -0.389 OA
HETATM   11  H28 UNL     1     -34.219   7.130   1.470  1.00 20.00     0.210 HD
ENDBRANCH   2  10
TORSDOF 4
ENDMDL
MODEL 9
REMARK VINA RESULT:       0.4      1.980      4.282
REMARK  4 active torsions:
REMARK  status: ('A' for Active; 'I' for Inactive)
REMARK    1  A    between atoms: C2_2  and  C7_7 
REMARK    2  A    between atoms: C7_7  and  C9_9 
REMARK    3  A    between atoms: C8_8  and  C9_9 
REMARK    4  A    between atoms: C9_9  and  O10_10 
ROOT
HETATM    1  C6  UNL     1     -33.427   5.478   1.865  1.00 20.00     0.047 C 
HETATM    2  C9  UNL     1     -33.942   6.144   3.157  1.00 20.00     0.064 C 
ENDROOT
BRANCH   2   3
HETATM    3  C7  UNL     1     -32.997   7.328   3.580  1.00 20.00     0.037 C 
HETATM    4  C3  UNL     1     -33.558   8.195   4.719  1.00 20.00     0.017 C 
BRANCH   3   5
HETATM    5  C2  UNL     1     -32.679   8.257   2.427  1.00 20.00    -0.030 C 
HETATM    6  C1  UNL     1     -31.604   8.135   1.638  1.00 20.00     0.007 C 
ENDBRANCH   3   5
ENDBRANCH   2   3
BRANCH   2   7
HETATM    7  C8  UNL     1     -34.141   5.090   4.303  1.00 20.00     0.012 C 
HETATM    8  C4  UNL     1     -35.595   4.996   4.797  1.00 20.00     0.012 C 
HETATM    9  C5  UNL     1     -33.649   3.683   3.948  1.00 20.00     0.012 C 
ENDBRANCH   2   7
BRANCH   2  10
HETATM   10  O10 UNL     1     -35.242   6.682   2.863  1.00 20.00    -0.389 OA
HETATM   11  H28 UNL     1     -35.143   7.173   2.037  1.00 20.00     0.210 HD
ENDBRANCH   2  10
TORSDOF 4
ENDMDL
