MODEL 1
REMARK VINA RESULT:       2.3      0.000      0.000
REMARK  0 active torsions:
REMARK  status: ('A' for Active; 'I' for Inactive)
ROOT
HETATM    1  C1  UNL     1     -31.753   8.709   1.779  1.00 20.00     0.002 A 
HETATM    2  C2  UNL     1     -31.460   7.510   1.118  1.00 20.00     0.016 A 
HETATM    3  C3  UNL     1     -32.745   8.765   2.781  1.00 20.00     0.007 A 
HETATM    4  C4  UNL     1     -32.209   6.405   1.461  1.00 20.00     0.017 A 
HETATM    5  C5  UNL     1     -33.490   7.627   3.110  1.00 20.00    -0.051 A 
HETATM    6  C6  UNL     1     -33.226   6.469   2.399  1.00 20.00    -0.033 A 
HETATM    7  C7  UNL     1     -32.063   5.002   1.089  1.00 20.00     0.160 C 
HETATM    8  C8  UNL     1     -34.446   7.583   4.271  1.00 20.00     0.039 C 
HETATM    9  C9  UNL     1     -32.956   4.157   1.988  1.00 20.00     0.093 C 
HETATM   10  C10 UNL     1     -35.229   6.257   4.397  1.00 20.00     0.005 C 
HETATM   11  C11 UNL     1     -34.400   5.019   4.002  1.00 20.00     0.010 C 
HETATM   12  C12 UNL     1     -33.958   5.175   2.553  1.00 20.00     0.027 C 
HETATM   13  O13 UNL     1     -31.293   4.592   0.240  1.00 20.00    -0.292 OA
ENDROOT
TORSDOF 0
ENDMDL
MODEL 2
REMARK VINA RESULT:       2.7      1.589      3.110
REMARK  0 active torsions:
REMARK  status: ('A' for Active; 'I' for Inactive)
ROOT
HETATM    1  C1  UNL     1     -31.556   5.050   1.066  1.00 20.00     0.002 A 
HETATM    2  C2  UNL     1     -31.604   6.448   1.011  1.00 20.00     0.016 A 
HETATM    3  C3  UNL     1     -32.380   4.327   1.954  1.00 20.00     0.007 A 
HETATM    4  C4  UNL     1     -32.460   7.081   1.887  1.00 20.00     0.017 A 
HETATM    5  C5  UNL     1     -33.240   4.995   2.831  1.00 20.00    -0.051 A 
HETATM    6  C6  UNL     1     -33.225   6.379   2.804  1.00 20.00    -0.033 A 
HETATM    7  C7  UNL     1     -32.860   8.481   1.985  1.00 20.00     0.160 C 
HETATM    8  C8  UNL     1     -34.253   4.282   3.687  1.00 20.00     0.039 C 
HETATM    9  C9  UNL     1     -34.058   8.587   2.919  1.00 20.00     0.093 C 
HETATM   10  C10 UNL     1     -35.034   5.205   4.647  1.00 20.00     0.005 C 
HETATM   11  C11 UNL     1     -35.336   6.593   4.049  1.00 20.00     0.010 C 
HETATM   12  C12 UNL     1     -34.014   7.270   3.707  1.00 20.00     0.027 C 
HETATM   13  O13 UNL     1     -32.347   9.388   1.357  1.00 20.00    -0.292 OA
ENDROOT
TORSDOF 0
ENDMDL
MODEL 3
REMARK VINA RESULT:       3.3      1.744      3.820
REMARK  0 active torsions:
REMARK  status: ('A' for Active; 'I' for Inactive)
ROOT
HETATM    1  C1  UNL     1     -32.431   4.381   1.223  1.00 20.00     0.002 A 
HETATM    2  C2  UNL     1     -33.398   4.241   2.225  1.00 20.00     0.016 A 
HETATM    3  C3  UNL     1     -31.858   5.637   0.933  1.00 20.00     0.007 A 
HETATM    4  C4  UNL     1     -33.791   5.387   2.882  1.00 20.00     0.017 A 
HETATM    5  C5  UNL     1     -32.274   6.784   1.616  1.00 20.00    -0.051 A 
HETATM    6  C6  UNL     1     -33.278   6.632   2.559  1.00 20.00    -0.033 A 
HETATM    7  C7  UNL     1     -34.642   5.571   4.053  1.00 20.00     0.160 C 
HETATM    8  C8  UNL     1     -31.595   8.119   1.466  1.00 20.00     0.039 C 
HETATM    9  C9  UNL     1     -34.496   7.003   4.549  1.00 20.00     0.093 C 
HETATM   10  C10 UNL     1     -32.276   9.267   2.243  1.00 20.00     0.005 C 
HETATM   11  C11 UNL     1     -32.865   8.824   3.596  1.00 20.00     0.010 C 
HETATM   12  C12 UNL     1     -33.905   7.741   3.340  1.00 20.00     0.027 C 
HETATM   13  O13 UNL     1     -35.297   4.686   4.572  1.00 20.00    -0.292 OA
ENDROOT
TORSDOF 0
ENDMDL
MODEL 4
REMARK VINA RESULT:       3.6      1.425      3.116
REMARK  0 active torsions:
REMARK  status: ('A' for Active; 'I' for Inactive)
ROOT
HETATM    1  C1  UNL     1     -32.165   4.812   0.972  1.00 20.00     0.002 A 
HETATM    2  C2  UNL     1     -31.623   6.059   0.638  1.00 20.00     0.016 A 
HETATM    3  C3  UNL     1     -33.092   4.680   2.027  1.00 20.00     0.007 A 
HETATM    4  C4  UNL     1     -32.005   7.136   1.408  1.00 20.00     0.017 A 
HETATM    5  C5  UNL     1     -33.464   5.791   2.792  1.00 20.00    -0.051 A 
HETATM    6  C6  UNL     1     -32.867   7.002   2.484  1.00 20.00    -0.033 A 
HETATM    7  C7  UNL     1     -31.757   8.564   1.240  1.00 20.00     0.160 C 
HETATM    8  C8  UNL     1     -34.561   5.746   3.822  1.00 20.00     0.039 C 
HETATM    9  C9  UNL     1     -32.661   9.337   2.190  1.00 20.00     0.093 C 
HETATM   10  C10 UNL     1     -34.742   7.061   4.612  1.00 20.00     0.005 C 
HETATM   11  C11 UNL     1     -34.503   8.323   3.760  1.00 20.00     0.010 C 
HETATM   12  C12 UNL     1     -33.077   8.282   3.225  1.00 20.00     0.027 C 
HETATM   13  O13 UNL     1     -30.995   9.037   0.417  1.00 20.00    -0.292 OA
ENDROOT
TORSDOF 0
ENDMDL
MODEL 5
REMARK VINA RESULT:       3.7      1.359      2.639
REMARK  0 active torsions:
REMARK  status: ('A' for Active; 'I' for Inactive)
ROOT
HETATM    1  C1  UNL     1     -34.544   8.340   3.974  1.00 20.00     0.002 A 
HETATM    2  C2  UNL     1     -33.626   8.528   2.934  1.00 20.00     0.016 A 
HETATM    3  C3  UNL     1     -34.842   7.049   4.459  1.00 20.00     0.007 A 
HETATM    4  C4  UNL     1     -33.060   7.397   2.385  1.00 20.00     0.017 A 
HETATM    5  C5  UNL     1     -34.252   5.919   3.884  1.00 20.00    -0.051 A 
HETATM    6  C6  UNL     1     -33.395   6.124   2.816  1.00 20.00    -0.033 A 
HETATM    7  C7  UNL     1     -31.977   7.246   1.419  1.00 20.00     0.160 C 
HETATM    8  C8  UNL     1     -34.405   4.535   4.456  1.00 20.00     0.039 C 
HETATM    9  C9  UNL     1     -31.538   5.788   1.394  1.00 20.00     0.093 C 
HETATM   10  C10 UNL     1     -33.745   3.423   3.611  1.00 20.00     0.005 C 
HETATM   11  C11 UNL     1     -32.429   3.865   2.941  1.00 20.00     0.010 C 
HETATM   12  C12 UNL     1     -32.725   5.047   2.026  1.00 20.00     0.027 C 
HETATM   13  O13 UNL     1     -31.477   8.165   0.798  1.00 20.00    -0.292 OA
ENDROOT
TORSDOF 0
ENDMDL
MODEL 6
REMARK VINA RESULT:       4.0      1.935      3.498
REMARK  0 active torsions:
REMARK  status: ('A' for Active; 'I' for Inactive)
ROOT
HETATM    1  C1  UNL     1     -34.056   8.623   3.964  1.00 20.00     0.002 A 
HETATM    2  C2  UNL     1     -34.620   7.444   4.463  1.00 20.00     0.016 A 
HETATM    3  C3  UNL     1     -33.102   8.592   2.924  1.00 20.00     0.007 A 
HETATM    4  C4  UNL     1     -34.173   6.257   3.923  1.00 20.00     0.017 A 
HETATM    5  C5  UNL     1     -32.667   7.373   2.394  1.00 20.00    -0.051 A 
HETATM    6  C6  UNL     1     -33.191   6.217   2.947  1.00 20.00    -0.033 A 
HETATM    7  C7  UNL     1     -34.649   4.889   4.100  1.00 20.00     0.160 C 
HETATM    8  C8  UNL     1     -31.776   7.278   1.184  1.00 20.00     0.039 C 
HETATM    9  C9  UNL     1     -34.011   4.003   3.040  1.00 20.00     0.093 C 
HETATM   10  C10 UNL     1     -31.345   5.839   0.826  1.00 20.00     0.005 C 
HETATM   11  C11 UNL     1     -32.443   4.790   1.088  1.00 20.00     0.010 C 
HETATM   12  C12 UNL     1     -32.803   4.825   2.568  1.00 20.00     0.027 C 
HETATM   13  O13 UNL     1     -35.478   4.552   4.926  1.00 20.00    -0.292 OA
ENDROOT
TORSDOF 0
ENDMDL
MODEL 7
REMARK VINA RESULT:       4.2      2.178      4.581
REMARK  0 active torsions:
REMARK  status: ('A' for Active; 'I' for Inactive)
ROOT
HETATM    1  C1  UNL     1     -34.806   4.588   4.153  1.00 20.00     0.002 A 
HETATM    2  C2  UNL     1     -34.799   5.871   4.713  1.00 20.00     0.016 A 
HETATM    3  C3  UNL     1     -34.052   4.293   2.998  1.00 20.00     0.007 A 
HETATM    4  C4  UNL     1     -34.058   6.835   4.063  1.00 20.00     0.017 A 
HETATM    5  C5  UNL     1     -33.308   5.290   2.359  1.00 20.00    -0.051 A 
HETATM    6  C6  UNL     1     -33.366   6.566   2.893  1.00 20.00    -0.033 A 
HETATM    7  C7  UNL     1     -33.717   8.199   4.453  1.00 20.00     0.160 C 
HETATM    8  C8  UNL     1     -32.363   5.005   1.222  1.00 20.00     0.039 C 
HETATM    9  C9  UNL     1     -32.623   8.717   3.528  1.00 20.00     0.093 C 
HETATM   10  C10 UNL     1     -31.714   6.265   0.607  1.00 20.00     0.005 C 
HETATM   11  C11 UNL     1     -31.400   7.359   1.645  1.00 20.00     0.010 C 
HETATM   12  C12 UNL     1     -32.702   7.775   2.319  1.00 20.00     0.027 C 
HETATM   13  O13 UNL     1     -34.194   8.780   5.410  1.00 20.00    -0.292 OA
ENDROOT
TORSDOF 0
ENDMDL
MODEL 8
REMARK VINA RESULT:       4.5      1.566      3.382
REMARK  0 active torsions:
REMARK  status: ('A' for Active; 'I' for Inactive)
ROOT
HETATM    1  C1  UNL     1     -34.698   7.977   4.442  1.00 20.00     0.002 A 
HETATM    2  C2  UNL     1     -34.699   6.580   4.534  1.00 20.00     0.016 A 
HETATM    3  C3  UNL     1     -33.904   8.644   3.486  1.00 20.00     0.007 A 
HETATM    4  C4  UNL     1     -33.863   5.895   3.679  1.00 20.00     0.017 A 
HETATM    5  C5  UNL     1     -33.065   7.923   2.630  1.00 20.00    -0.051 A 
HETATM    6  C6  UNL     1     -33.034   6.547   2.781  1.00 20.00    -0.033 A 
HETATM    7  C7  UNL     1     -33.737   4.466   3.411  1.00 20.00     0.160 C 
HETATM    8  C8  UNL     1     -32.316   8.560   1.489  1.00 20.00     0.039 C 
HETATM    9  C9  UNL     1     -32.890   4.272   2.160  1.00 20.00     0.093 C 
HETATM   10  C10 UNL     1     -31.379   7.595   0.730  1.00 20.00     0.005 C 
HETATM   11  C11 UNL     1     -31.940   6.165   0.612  1.00 20.00     0.010 C 
HETATM   12  C12 UNL     1     -32.156   5.612   2.015  1.00 20.00     0.027 C 
HETATM   13  O13 UNL     1     -34.288   3.594   4.056  1.00 20.00    -0.292 OA
ENDROOT
TORSDOF 0
ENDMDL
MODEL 9
REMARK VINA RESULT:       4.9      1.067      3.208
REMARK  0 active torsions:
REMARK  status: ('A' for Active; 'I' for Inactive)
ROOT
HETATM    1  C1  UNL     1     -35.170   5.766   4.138  1.00 20.00     0.002 A 
HETATM    2  C2  UNL     1     -34.735   5.123   2.973  1.00 20.00     0.016 A 
HETATM    3  C3  UNL     1     -34.532   6.934   4.608  1.00 20.00     0.007 A 
HETATM    4  C4  UNL     1     -33.637   5.658   2.334  1.00 20.00     0.017 A 
HETATM    5  C5  UNL     1     -33.420   7.456   3.939  1.00 20.00    -0.051 A 
HETATM    6  C6  UNL     1     -32.969   6.767   2.825  1.00 20.00    -0.033 A 
HETATM    7  C7  UNL     1     -33.034   5.336   1.045  1.00 20.00     0.160 C 
HETATM    8  C8  UNL     1     -32.796   8.778   4.296  1.00 20.00     0.039 C 
HETATM    9  C9  UNL     1     -32.040   6.430   0.679  1.00 20.00     0.093 C 
HETATM   10  C10 UNL     1     -31.524   9.117   3.488  1.00 20.00     0.005 C 
HETATM   11  C11 UNL     1     -31.583   8.636   2.025  1.00 20.00     0.010 C 
HETATM   12  C12 UNL     1     -31.761   7.122   2.020  1.00 20.00     0.027 C 
HETATM   13  O13 UNL     1     -33.345   4.379   0.361  1.00 20.00    -0.292 OA
ENDROOT
TORSDOF 0
ENDMDL
