MODEL 1
REMARK VINA RESULT:      -2.3      0.000      0.000
REMARK  1 active torsions:
REMARK  status: ('A' for Active; 'I' for Inactive)
REMARK    1  A    between atoms: C6_6  and  O11_11 
ROOT
HETATM    1  C1  UNL     1     -33.920   7.860   3.600  1.00 20.00     0.011 A 
HETATM    2  C2  UNL     1     -34.809   7.030   4.287  1.00 20.00     0.037 A 
HETATM    3  C3  UNL     1     -33.963   5.076   3.114  1.00 20.00     0.044 A 
HETATM    4  C4  UNL     1     -33.069   7.289   2.666  1.00 20.00    -0.048 A 
HETATM    5  C5  UNL     1     -33.093   5.908   2.428  1.00 20.00    -0.049 A 
HETATM    6  C6  UNL     1     -34.830   5.648   4.045  1.00 20.00     0.066 A 
HETATM    7  C7  UNL     1     -32.059   5.520   1.418  1.00 20.00     0.040 C 
HETATM    8  C8  UNL     1     -31.777   6.873   0.751  1.00 20.00     0.014 C 
HETATM    9  C9  UNL     1     -32.003   7.948   1.834  1.00 20.00     0.015 C 
HETATM   10  C10 UNL     1     -32.388   9.293   1.238  1.00 20.00     0.015 C 
ENDROOT
BRANCH   6  11
HETATM   11  O11 UNL     1     -35.702   4.857   4.732  1.00 20.00    -0.361 OA
HETATM   12  H23 UNL     1     -35.217   4.250   5.312  1.00 20.00     0.217 HD
ENDBRANCH   6  11
TORSDOF 1
ENDMDL
MODEL 2
REMARK VINA RESULT:       0.3      2.300      4.407
REMARK  1 active torsions:
REMARK  status: ('A' for Active; 'I' for Inactive)
REMARK    1  A    between atoms: C6_6  and  O11_11 
ROOT
HETATM    1  C1  UNL     1     -32.165   5.871   1.946  1.00 20.00     0.011 A 
HETATM    2  C2  UNL     1     -31.739   6.925   1.135  1.00 20.00     0.037 A 
HETATM    3  C3  UNL     1     -33.247   8.463   2.262  1.00 20.00     0.044 A 
HETATM    4  C4  UNL     1     -33.140   6.122   2.900  1.00 20.00    -0.048 A 
HETATM    5  C5  UNL     1     -33.674   7.410   3.053  1.00 20.00    -0.049 A 
HETATM    6  C6  UNL     1     -32.276   8.212   1.291  1.00 20.00     0.066 A 
HETATM    7  C7  UNL     1     -34.669   7.448   4.170  1.00 20.00     0.040 C 
HETATM    8  C8  UNL     1     -35.005   5.957   4.315  1.00 20.00     0.014 C 
HETATM    9  C9  UNL     1     -33.733   5.183   3.914  1.00 20.00     0.015 C 
HETATM   10  C10 UNL     1     -34.048   3.788   3.396  1.00 20.00     0.015 C 
ENDROOT
BRANCH   6  11
HETATM   11  O11 UNL     1     -31.839   9.225   0.493  1.00 20.00    -0.361 OA
HETATM   12  H23 UNL     1     -31.965   8.994  -0.441  1.00 20.00     0.217 HD
ENDBRANCH   6  11
TORSDOF 1
ENDMDL
