MODEL 1
REMARK VINA RESULT:      -1.3      0.000      0.000
REMARK  2 active torsions:
REMARK  status: ('A' for Active; 'I' for Inactive)
REMARK    1  A    between atoms: C2_2  and  C3_3 
REMARK    2  A    between atoms: C3_3  and  N4_4 
ROOT
HETATM    1  C1  UNL     1     -33.820   7.579   4.492  1.00 20.00     0.055 C 
HETATM    2  C3  UNL     1     -34.230   6.455   3.534  1.00 20.00     0.145 C 
HETATM    3 CL7  UNL     1     -35.967   6.711   3.109  1.00 20.00    -0.097 Cl
ENDROOT
BRANCH   2   4
HETATM    4  C2  UNL     1     -33.430   6.469   2.222  1.00 20.00     0.160 C 
HETATM    5 CL6  UNL     1     -32.297   7.845   2.099  1.00 20.00    -0.127 Cl
ENDBRANCH   2   4
BRANCH   2   6
HETATM    6  N4  UNL     1     -34.154   5.081   4.153  1.00 20.00    -0.036 NA
HETATM    7  O5  UNL     1     -35.238   4.649   4.561  1.00 20.00    -0.099 OA
ENDBRANCH   2   6
TORSDOF 2
ENDMDL
MODEL 2
REMARK VINA RESULT:      -0.8      2.641      3.099
REMARK  2 active torsions:
REMARK  status: ('A' for Active; 'I' for Inactive)
REMARK    1  A    between atoms: C2_2  and  C3_3 
REMARK    2  A    between atoms: C3_3  and  N4_4 
ROOT
HETATM    1  C1  UNL     1     -35.926   6.876   3.052  1.00 20.00     0.055 C 
HETATM    2  C3  UNL     1     -34.630   6.316   3.647  1.00 20.00     0.145 C 
HETATM    3 CL7  UNL     1     -33.912   7.604   4.691  1.00 20.00    -0.097 Cl
ENDROOT
BRANCH   2   4
HETATM    4  C2  UNL     1     -34.868   5.084   4.536  1.00 20.00     0.160 C 
HETATM    5 CL6  UNL     1     -33.780   3.719   4.159  1.00 20.00    -0.127 Cl
ENDBRANCH   2   4
BRANCH   2   6
HETATM    6  N4  UNL     1     -33.584   5.991   2.611  1.00 20.00    -0.036 NA
HETATM    7  O5  UNL     1     -32.934   6.970   2.224  1.00 20.00    -0.099 OA
ENDBRANCH   2   6
TORSDOF 2
ENDMDL
MODEL 3
REMARK VINA RESULT:      -0.7      2.157      2.229
REMARK  2 active torsions:
REMARK  status: ('A' for Active; 'I' for Inactive)
REMARK    1  A    between atoms: C2_2  and  C3_3 
REMARK    2  A    between atoms: C3_3  and  N4_4 
ROOT
HETATM    1  C1  UNL     1     -35.515   6.584   3.376  1.00 20.00     0.055 C 
HETATM    2  C3  UNL     1     -34.007   6.312   3.375  1.00 20.00     0.145 C 
HETATM    3 CL7  UNL     1     -33.755   4.649   4.035  1.00 20.00    -0.097 Cl
ENDROOT
BRANCH   2   4
HETATM    4  C2  UNL     1     -33.398   6.343   1.964  1.00 20.00     0.160 C 
HETATM    5 CL6  UNL     1     -32.135   7.590   1.766  1.00 20.00    -0.127 Cl
ENDBRANCH   2   4
BRANCH   2   6
HETATM    6  N4  UNL     1     -33.229   7.237   4.277  1.00 20.00    -0.036 NA
HETATM    7  O5  UNL     1     -33.918   8.106   4.826  1.00 20.00    -0.099 OA
ENDBRANCH   2   6
TORSDOF 2
ENDMDL
MODEL 4
REMARK VINA RESULT:      -0.7      3.136      3.633
REMARK  2 active torsions:
REMARK  status: ('A' for Active; 'I' for Inactive)
REMARK    1  A    between atoms: C2_2  and  C3_3 
REMARK    2  A    between atoms: C3_3  and  N4_4 
ROOT
HETATM    1  C1  UNL     1     -31.715   5.240   1.648  1.00 20.00     0.055 C 
HETATM    2  C3  UNL     1     -32.939   6.159   1.728  1.00 20.00     0.145 C 
HETATM    3 CL7  UNL     1     -33.947   5.850   0.261  1.00 20.00    -0.097 Cl
ENDROOT
BRANCH   2   4
HETATM    4  C2  UNL     1     -33.818   5.873   2.957  1.00 20.00     0.160 C 
HETATM    5 CL6  UNL     1     -34.169   7.328   3.931  1.00 20.00    -0.127 Cl
ENDBRANCH   2   4
BRANCH   2   6
HETATM    6  N4  UNL     1     -32.593   7.626   1.691  1.00 20.00    -0.036 NA
HETATM    7  O5  UNL     1     -31.379   7.860   1.717  1.00 20.00    -0.099 OA
ENDBRANCH   2   6
TORSDOF 2
ENDMDL
MODEL 5
REMARK VINA RESULT:      -0.6      2.431      2.949
REMARK  2 active torsions:
REMARK  status: ('A' for Active; 'I' for Inactive)
REMARK    1  A    between atoms: C2_2  and  C3_3 
REMARK    2  A    between atoms: C3_3  and  N4_4 
ROOT
HETATM    1  C1  UNL     1     -33.631   6.046   2.554  1.00 20.00     0.055 C 
HETATM    2  C3  UNL     1     -34.625   6.305   3.691  1.00 20.00     0.145 C 
HETATM    3 CL7  UNL     1     -36.175   6.852   2.943  1.00 20.00    -0.097 Cl
ENDROOT
BRANCH   2   4
HETATM    4  C2  UNL     1     -34.933   5.042   4.512  1.00 20.00     0.160 C 
HETATM    5 CL6  UNL     1     -33.781   3.708   4.217  1.00 20.00    -0.127 Cl
ENDBRANCH   2   4
BRANCH   2   6
HETATM    6  N4  UNL     1     -34.200   7.415   4.620  1.00 20.00    -0.036 NA
HETATM    7  O5  UNL     1     -33.134   7.958   4.305  1.00 20.00    -0.099 OA
ENDBRANCH   2   6
TORSDOF 2
ENDMDL
MODEL 6
REMARK VINA RESULT:      -0.6      1.348      1.590
REMARK  2 active torsions:
REMARK  status: ('A' for Active; 'I' for Inactive)
REMARK    1  A    between atoms: C2_2  and  C3_3 
REMARK    2  A    between atoms: C3_3  and  N4_4 
ROOT
HETATM    1  C1  UNL     1     -35.463   6.478   3.515  1.00 20.00     0.055 C 
HETATM    2  C3  UNL     1     -33.983   6.178   3.252  1.00 20.00     0.145 C 
HETATM    3 CL7  UNL     1     -33.791   5.904   1.477  1.00 20.00    -0.097 Cl
ENDROOT
BRANCH   2   4
HETATM    4  C2  UNL     1     -33.061   7.346   3.639  1.00 20.00     0.160 C 
HETATM    5 CL6  UNL     1     -32.169   8.033   2.253  1.00 20.00    -0.127 Cl
ENDBRANCH   2   4
BRANCH   2   6
HETATM    6  N4  UNL     1     -33.498   4.915   3.920  1.00 20.00    -0.036 NA
HETATM    7  O5  UNL     1     -34.402   4.139   4.253  1.00 20.00    -0.099 OA
ENDBRANCH   2   6
TORSDOF 2
ENDMDL
MODEL 7
REMARK VINA RESULT:      -0.6      2.836      3.602
REMARK  2 active torsions:
REMARK  status: ('A' for Active; 'I' for Inactive)
REMARK    1  A    between atoms: C2_2  and  C3_3 
REMARK    2  A    between atoms: C3_3  and  N4_4 
ROOT
HETATM    1  C1  UNL     1     -32.460   8.902   0.893  1.00 20.00     0.055 C 
HETATM    2  C3  UNL     1     -32.380   7.847   2.002  1.00 20.00     0.145 C 
HETATM    3 CL7  UNL     1     -31.347   8.523   3.320  1.00 20.00    -0.097 Cl
ENDROOT
BRANCH   2   4
HETATM    4  C2  UNL     1     -33.753   7.523   2.614  1.00 20.00     0.160 C 
HETATM    5 CL6  UNL     1     -33.822   7.792   4.379  1.00 20.00    -0.127 Cl
ENDBRANCH   2   4
BRANCH   2   6
HETATM    6  N4  UNL     1     -31.711   6.567   1.567  1.00 20.00    -0.036 NA
HETATM    7  O5  UNL     1     -32.480   5.605   1.460  1.00 20.00    -0.099 OA
ENDBRANCH   2   6
TORSDOF 2
ENDMDL
MODEL 8
REMARK VINA RESULT:      -0.5      3.645      4.140
REMARK  2 active torsions:
REMARK  status: ('A' for Active; 'I' for Inactive)
REMARK    1  A    between atoms: C2_2  and  C3_3 
REMARK    2  A    between atoms: C3_3  and  N4_4 
ROOT
HETATM    1  C1  UNL     1     -30.900   7.900   2.213  1.00 20.00     0.055 C 
HETATM    2  C3  UNL     1     -32.415   7.753   2.030  1.00 20.00     0.145 C 
HETATM    3 CL7  UNL     1     -32.727   6.089   1.402  1.00 20.00    -0.097 Cl
ENDROOT
BRANCH   2   4
HETATM    4  C2  UNL     1     -33.190   7.898   3.350  1.00 20.00     0.160 C 
HETATM    5 CL6  UNL     1     -34.378   6.592   3.621  1.00 20.00    -0.127 Cl
ENDBRANCH   2   4
BRANCH   2   6
HETATM    6  N4  UNL     1     -32.991   8.698   1.005  1.00 20.00    -0.036 NA
HETATM    7  O5  UNL     1     -32.153   9.427   0.462  1.00 20.00    -0.099 OA
ENDBRANCH   2   6
TORSDOF 2
ENDMDL
MODEL 9
REMARK VINA RESULT:      -0.5      2.953      3.203
REMARK  2 active torsions:
REMARK  status: ('A' for Active; 'I' for Inactive)
REMARK    1  A    between atoms: C2_2  and  C3_3 
REMARK    2  A    between atoms: C3_3  and  N4_4 
ROOT
HETATM    1  C1  UNL     1     -31.117   8.567   2.617  1.00 20.00     0.055 C 
HETATM    2  C3  UNL     1     -32.232   7.800   1.897  1.00 20.00     0.145 C 
HETATM    3 CL7  UNL     1     -33.616   7.648   3.048  1.00 20.00    -0.097 Cl
ENDROOT
BRANCH   2   4
HETATM    4  C2  UNL     1     -32.749   8.534   0.650  1.00 20.00     0.160 C 
HETATM    5 CL6  UNL     1     -32.487  10.300   0.708  1.00 20.00    -0.127 Cl
ENDBRANCH   2   4
BRANCH   2   6
HETATM    6  N4  UNL     1     -31.847   6.390   1.525  1.00 20.00    -0.036 NA
HETATM    7  O5  UNL     1     -32.787   5.587   1.542  1.00 20.00    -0.099 OA
ENDBRANCH   2   6
TORSDOF 2
ENDMDL
