MODEL 1
REMARK VINA RESULT:       0.2      0.000      0.000
REMARK  2 active torsions:
REMARK  status: ('A' for Active; 'I' for Inactive)
REMARK    1  A    between atoms: C3_3  and  C6_6 
REMARK    2  A    between atoms: C6_6  and  C7_7 
ROOT
HETATM    1  C1  UNL     1     -33.790   7.231   3.704  1.00 20.00     0.281 C 
HETATM    2  C2  UNL     1     -34.051   6.133   2.685  1.00 20.00     0.106 C 
HETATM    3  C3  UNL     1     -31.987   7.718   2.274  1.00 20.00     0.282 C 
HETATM    4  N8  UNL     1     -33.099   8.329   3.015  1.00 20.00     0.098 N 
HETATM    5  S9  UNL     1     -32.524   6.068   1.722  1.00 20.00    -0.132 SA
HETATM    6  H24 UNL     1     -33.749   8.748   2.349  1.00 20.00     0.317 HD
ENDROOT
BRANCH   3   7
HETATM    7  C6  UNL     1     -31.577   8.577   1.087  1.00 20.00     0.050 C 
BRANCH   7   8
HETATM    8  C7  UNL     1     -32.687   9.528   0.604  1.00 20.00    -0.020 C 
HETATM    9  C4  UNL     1     -32.509  10.950   1.138  1.00 20.00     0.009 C 
HETATM   10  C5  UNL     1     -32.723   9.549  -0.926  1.00 20.00     0.009 C 
ENDBRANCH   7   8
ENDBRANCH   3   7
TORSDOF 2
ENDMDL
MODEL 2
REMARK VINA RESULT:       0.3      2.156      3.066
REMARK  2 active torsions:
REMARK  status: ('A' for Active; 'I' for Inactive)
REMARK    1  A    between atoms: C3_3  and  C6_6 
REMARK    2  A    between atoms: C6_6  and  C7_7 
ROOT
HETATM    1  C1  UNL     1     -34.179   4.145   3.921  1.00 20.00     0.281 C 
HETATM    2  C2  UNL     1     -35.187   4.911   4.762  1.00 20.00     0.106 C 
HETATM    3  C3  UNL     1     -33.834   6.257   2.946  1.00 20.00     0.282 C 
HETATM    4  N8  UNL     1     -33.135   5.089   3.498  1.00 20.00     0.098 N 
HETATM    5  S9  UNL     1     -35.381   6.476   3.882  1.00 20.00    -0.132 SA
HETATM    6  H24 UNL     1     -32.611   5.376   4.326  1.00 20.00     0.317 HD
ENDROOT
BRANCH   3   7
HETATM    7  C6  UNL     1     -32.970   7.507   3.033  1.00 20.00     0.050 C 
BRANCH   7   8
HETATM    8  C7  UNL     1     -31.963   7.640   1.877  1.00 20.00    -0.020 C 
HETATM    9  C4  UNL     1     -31.957   6.412   0.966  1.00 20.00     0.009 C 
HETATM   10  C5  UNL     1     -32.278   8.893   1.056  1.00 20.00     0.009 C 
ENDBRANCH   7   8
ENDBRANCH   3   7
TORSDOF 2
ENDMDL
MODEL 3
REMARK VINA RESULT:       0.4      1.782      4.240
REMARK  2 active torsions:
REMARK  status: ('A' for Active; 'I' for Inactive)
REMARK    1  A    between atoms: C3_3  and  C6_6 
REMARK    2  A    between atoms: C6_6  and  C7_7 
ROOT
HETATM    1  C1  UNL     1     -31.133   8.913   0.196  1.00 20.00     0.281 C 
HETATM    2  C2  UNL     1     -32.391   9.762   0.104  1.00 20.00     0.106 C 
HETATM    3  C3  UNL     1     -32.189   8.088   2.129  1.00 20.00     0.282 C 
HETATM    4  N8  UNL     1     -31.475   7.677   0.913  1.00 20.00     0.098 N 
HETATM    5  S9  UNL     1     -33.150   9.584   1.733  1.00 20.00    -0.132 SA
HETATM    6  H24 UNL     1     -32.108   7.133   0.325  1.00 20.00     0.317 HD
ENDROOT
BRANCH   3   7
HETATM    7  C6  UNL     1     -33.101   6.979   2.634  1.00 20.00     0.050 C 
BRANCH   7   8
HETATM    8  C7  UNL     1     -34.143   7.458   3.658  1.00 20.00    -0.020 C 
HETATM    9  C4  UNL     1     -35.155   6.368   4.014  1.00 20.00     0.009 C 
HETATM   10  C5  UNL     1     -33.439   7.945   4.927  1.00 20.00     0.009 C 
ENDBRANCH   7   8
ENDBRANCH   3   7
TORSDOF 2
ENDMDL
MODEL 4
REMARK VINA RESULT:       0.4      1.475      2.006
REMARK  2 active torsions:
REMARK  status: ('A' for Active; 'I' for Inactive)
REMARK    1  A    between atoms: C3_3  and  C6_6 
REMARK    2  A    between atoms: C6_6  and  C7_7 
ROOT
HETATM    1  C1  UNL     1     -33.563   5.265   2.267  1.00 20.00     0.281 C 
HETATM    2  C2  UNL     1     -33.823   5.857   3.643  1.00 20.00     0.106 C 
HETATM    3  C3  UNL     1     -32.984   7.485   1.749  1.00 20.00     0.282 C 
HETATM    4  N8  UNL     1     -32.543   6.091   1.606  1.00 20.00     0.098 N 
HETATM    5  S9  UNL     1     -33.841   7.640   3.348  1.00 20.00    -0.132 SA
HETATM    6  H24 UNL     1     -31.662   5.970   2.107  1.00 20.00     0.317 HD
ENDROOT
BRANCH   3   7
HETATM    7  C6  UNL     1     -31.805   8.446   1.674  1.00 20.00     0.050 C 
BRANCH   7   8
HETATM    8  C7  UNL     1     -31.949   9.511   0.573  1.00 20.00    -0.020 C 
HETATM    9  C4  UNL     1     -32.551   8.942  -0.713  1.00 20.00     0.009 C 
HETATM   10  C5  UNL     1     -32.811  10.669   1.080  1.00 20.00     0.009 C 
ENDBRANCH   7   8
ENDBRANCH   3   7
TORSDOF 2
ENDMDL
MODEL 5
REMARK VINA RESULT:       0.5      1.669      2.487
REMARK  2 active torsions:
REMARK  status: ('A' for Active; 'I' for Inactive)
REMARK    1  A    between atoms: C3_3  and  C6_6 
REMARK    2  A    between atoms: C6_6  and  C7_7 
ROOT
HETATM    1  C1  UNL     1     -35.317   6.127   4.441  1.00 20.00     0.281 C 
HETATM    2  C2  UNL     1     -34.937   4.674   4.206  1.00 20.00     0.106 C 
HETATM    3  C3  UNL     1     -33.404   6.528   3.132  1.00 20.00     0.282 C 
HETATM    4  N8  UNL     1     -34.811   6.913   3.307  1.00 20.00     0.098 N 
HETATM    5  S9  UNL     1     -33.248   4.767   3.571  1.00 20.00    -0.132 SA
HETATM    6  H24 UNL     1     -35.335   6.643   2.473  1.00 20.00     0.317 HD
ENDROOT
BRANCH   3   7
HETATM    7  C6  UNL     1     -32.941   6.770   1.702  1.00 20.00     0.050 C 
BRANCH   7   8
HETATM    8  C7  UNL     1     -31.879   7.876   1.578  1.00 20.00    -0.020 C 
HETATM    9  C4  UNL     1     -32.297   8.979   0.605  1.00 20.00     0.009 C 
HETATM   10  C5  UNL     1     -31.595   8.480   2.956  1.00 20.00     0.009 C 
ENDBRANCH   7   8
ENDBRANCH   3   7
TORSDOF 2
ENDMDL
MODEL 6
REMARK VINA RESULT:       0.7      1.507      4.241
REMARK  2 active torsions:
REMARK  status: ('A' for Active; 'I' for Inactive)
REMARK    1  A    between atoms: C3_3  and  C6_6 
REMARK    2  A    between atoms: C6_6  and  C7_7 
ROOT
HETATM    1  C1  UNL     1     -31.873   8.435   1.308  1.00 20.00     0.281 C 
HETATM    2  C2  UNL     1     -31.376   7.004   1.179  1.00 20.00     0.106 C 
HETATM    3  C3  UNL     1     -33.503   7.430   2.674  1.00 20.00     0.282 C 
HETATM    4  N8  UNL     1     -32.564   8.557   2.599  1.00 20.00     0.098 N 
HETATM    5  S9  UNL     1     -32.745   6.013   1.817  1.00 20.00    -0.132 SA
HETATM    6  H24 UNL     1     -31.870   8.459   3.342  1.00 20.00     0.317 HD
ENDROOT
BRANCH   3   7
HETATM    7  C6  UNL     1     -33.825   7.076   4.119  1.00 20.00     0.050 C 
BRANCH   7   8
HETATM    8  C7  UNL     1     -35.160   6.329   4.287  1.00 20.00    -0.020 C 
HETATM    9  C4  UNL     1     -36.134   6.611   3.142  1.00 20.00     0.009 C 
HETATM   10  C5  UNL     1     -34.902   4.823   4.388  1.00 20.00     0.009 C 
ENDBRANCH   7   8
ENDBRANCH   3   7
TORSDOF 2
ENDMDL
MODEL 7
REMARK VINA RESULT:       0.8      1.955      4.832
REMARK  2 active torsions:
REMARK  status: ('A' for Active; 'I' for Inactive)
REMARK    1  A    between atoms: C3_3  and  C6_6 
REMARK    2  A    between atoms: C6_6  and  C7_7 
ROOT
HETATM    1  C1  UNL     1     -32.834   8.334   2.813  1.00 20.00     0.281 C 
HETATM    2  C2  UNL     1     -31.637   7.955   1.956  1.00 20.00     0.106 C 
HETATM    3  C3  UNL     1     -33.544   6.162   2.257  1.00 20.00     0.282 C 
HETATM    4  N8  UNL     1     -33.392   7.098   3.379  1.00 20.00     0.098 N 
HETATM    5  S9  UNL     1     -32.185   6.470   1.084  1.00 20.00    -0.132 SA
HETATM    6  H24 UNL     1     -32.715   6.716   4.040  1.00 20.00     0.317 HD
ENDROOT
BRANCH   3   7
HETATM    7  C6  UNL     1     -33.523   4.718   2.738  1.00 20.00     0.050 C 
BRANCH   7   8
HETATM    8  C7  UNL     1     -33.825   4.566   4.239  1.00 20.00    -0.020 C 
HETATM    9  C4  UNL     1     -35.287   4.863   4.573  1.00 20.00     0.009 C 
HETATM   10  C5  UNL     1     -33.465   3.152   4.701  1.00 20.00     0.009 C 
ENDBRANCH   7   8
ENDBRANCH   3   7
TORSDOF 2
ENDMDL
MODEL 8
REMARK VINA RESULT:       1.0      1.928      2.554
REMARK  2 active torsions:
REMARK  status: ('A' for Active; 'I' for Inactive)
REMARK    1  A    between atoms: C3_3  and  C6_6 
REMARK    2  A    between atoms: C6_6  and  C7_7 
ROOT
HETATM    1  C1  UNL     1     -34.178   4.386   3.766  1.00 20.00     0.281 C 
HETATM    2  C2  UNL     1     -34.639   5.669   4.439  1.00 20.00     0.106 C 
HETATM    3  C3  UNL     1     -33.404   5.879   2.121  1.00 20.00     0.282 C 
HETATM    4  N8  UNL     1     -33.018   4.711   2.924  1.00 20.00     0.098 N 
HETATM    5  S9  UNL     1     -34.514   6.910   3.132  1.00 20.00    -0.132 SA
HETATM    6  H24 UNL     1     -32.243   4.971   3.536  1.00 20.00     0.317 HD
ENDROOT
BRANCH   3   7
HETATM    7  C6  UNL     1     -32.182   6.673   1.682  1.00 20.00     0.050 C 
BRANCH   7   8
HETATM    8  C7  UNL     1     -32.293   8.181   1.968  1.00 20.00    -0.020 C 
HETATM    9  C4  UNL     1     -31.267   8.656   2.997  1.00 20.00     0.009 C 
HETATM   10  C5  UNL     1     -32.126   8.970   0.667  1.00 20.00     0.009 C 
ENDBRANCH   7   8
ENDBRANCH   3   7
TORSDOF 2
ENDMDL
MODEL 9
REMARK VINA RESULT:       1.0      2.004      2.897
REMARK  2 active torsions:
REMARK  status: ('A' for Active; 'I' for Inactive)
REMARK    1  A    between atoms: C3_3  and  C6_6 
REMARK    2  A    between atoms: C6_6  and  C7_7 
ROOT
HETATM    1  C1  UNL     1     -33.751   4.162   3.377  1.00 20.00     0.281 C 
HETATM    2  C2  UNL     1     -34.600   4.600   4.559  1.00 20.00     0.106 C 
HETATM    3  C3  UNL     1     -33.984   6.419   2.756  1.00 20.00     0.282 C 
HETATM    4  N8  UNL     1     -33.003   5.334   2.901  1.00 20.00     0.098 N 
HETATM    5  S9  UNL     1     -35.243   6.211   4.056  1.00 20.00    -0.132 SA
HETATM    6  H24 UNL     1     -32.326   5.593   3.619  1.00 20.00     0.317 HD
ENDROOT
BRANCH   3   7
HETATM    7  C6  UNL     1     -33.316   7.782   2.866  1.00 20.00     0.050 C 
BRANCH   7   8
HETATM    8  C7  UNL     1     -32.165   7.986   1.865  1.00 20.00    -0.020 C 
HETATM    9  C4  UNL     1     -32.495   9.035   0.802  1.00 20.00     0.009 C 
HETATM   10  C5  UNL     1     -30.891   8.388   2.613  1.00 20.00     0.009 C 
ENDBRANCH   7   8
ENDBRANCH   3   7
TORSDOF 2
ENDMDL
