MODEL 1
REMARK VINA RESULT:       0.3      0.000      0.000
REMARK  2 active torsions:
REMARK  status: ('A' for Active; 'I' for Inactive)
REMARK    1  A    between atoms: C1_1  and  C5_5 
REMARK    2  A    between atoms: C2_2  and  C6_6 
ROOT
HETATM    1  C1  UNL     1     -32.721   8.532   1.637  1.00 20.00    -0.063 C 
HETATM    2  C2  UNL     1     -33.216   8.007   2.597  1.00 20.00    -0.063 C 
ENDROOT
BRANCH   1   3
HETATM    3  C5  UNL     1     -32.132   9.157   0.492  1.00 20.00     0.141 A 
HETATM    4  C3  UNL     1     -33.018   9.934  -0.453  1.00 20.00     0.221 A 
HETATM    5  O9  UNL     1     -32.210  10.589   0.535  1.00 20.00    -0.362 OA
HETATM    6  C7  UNL     1     -30.814   8.642   0.015  1.00 20.00     0.063 C 
ENDBRANCH   1   3
BRANCH   2   7
HETATM    7  C6  UNL     1     -33.818   7.368   3.767  1.00 20.00     0.141 A 
HETATM    8  C4  UNL     1     -35.104   6.628   3.577  1.00 20.00     0.221 A 
HETATM    9  O10 UNL     1     -33.842   5.950   3.642  1.00 20.00    -0.362 OA
HETATM   10  C8  UNL     1     -33.405   7.877   5.093  1.00 20.00     0.063 C 
ENDBRANCH   2   7
TORSDOF 2
ENDMDL
MODEL 2
REMARK VINA RESULT:       0.3      0.015      4.831
REMARK  2 active torsions:
REMARK  status: ('A' for Active; 'I' for Inactive)
REMARK    1  A    between atoms: C1_1  and  C5_5 
REMARK    2  A    between atoms: C2_2  and  C6_6 
ROOT
HETATM    1  C1  UNL     1     -33.215   8.000   2.598  1.00 20.00    -0.063 C 
HETATM    2  C2  UNL     1     -32.722   8.525   1.637  1.00 20.00    -0.063 C 
ENDROOT
BRANCH   1   3
HETATM    3  C5  UNL     1     -33.801   7.374   3.744  1.00 20.00     0.141 A 
HETATM    4  C3  UNL     1     -35.098   6.618   3.581  1.00 20.00     0.221 A 
HETATM    5  O9  UNL     1     -33.835   5.943   3.644  1.00 20.00    -0.362 OA
HETATM    6  C7  UNL     1     -33.399   7.871   5.094  1.00 20.00     0.063 C 
ENDBRANCH   1   3
BRANCH   2   7
HETATM    7  C6  UNL     1     -32.124   9.166   0.467  1.00 20.00     0.141 A 
HETATM    8  C4  UNL     1     -33.024   9.936  -0.447  1.00 20.00     0.221 A 
HETATM    9  O10 UNL     1     -32.209  10.586   0.538  1.00 20.00    -0.362 OA
HETATM   10  C8  UNL     1     -30.822   8.635   0.006  1.00 20.00     0.063 C 
ENDBRANCH   2   7
TORSDOF 2
ENDMDL
MODEL 3
REMARK VINA RESULT:       0.5      0.975      1.290
REMARK  2 active torsions:
REMARK  status: ('A' for Active; 'I' for Inactive)
REMARK    1  A    between atoms: C1_1  and  C5_5 
REMARK    2  A    between atoms: C2_2  and  C6_6 
ROOT
HETATM    1  C1  UNL     1     -32.659   8.304   1.435  1.00 20.00    -0.063 C 
HETATM    2  C2  UNL     1     -33.141   7.588   2.270  1.00 20.00    -0.063 C 
ENDROOT
BRANCH   1   3
HETATM    3  C5  UNL     1     -32.083   9.157   0.440  1.00 20.00     0.141 A 
HETATM    4  C3  UNL     1     -32.998   9.986  -0.430  1.00 20.00     0.221 A 
HETATM    5  O9  UNL     1     -32.312  10.550   0.696  1.00 20.00    -0.362 OA
HETATM    6  C7  UNL     1     -30.697   8.852  -0.025  1.00 20.00     0.063 C 
ENDBRANCH   1   3
BRANCH   2   7
HETATM    7  C6  UNL     1     -33.729   6.717   3.286  1.00 20.00     0.141 A 
HETATM    8  C4  UNL     1     -34.176   7.340   4.570  1.00 20.00     0.221 A 
HETATM    9  O10 UNL     1     -35.100   7.026   3.520  1.00 20.00    -0.362 OA
HETATM   10  C8  UNL     1     -33.416   5.274   3.193  1.00 20.00     0.063 C 
ENDBRANCH   2   7
TORSDOF 2
ENDMDL
MODEL 4
REMARK VINA RESULT:       0.5      0.977      4.762
REMARK  2 active torsions:
REMARK  status: ('A' for Active; 'I' for Inactive)
REMARK    1  A    between atoms: C1_1  and  C5_5 
REMARK    2  A    between atoms: C2_2  and  C6_6 
ROOT
HETATM    1  C1  UNL     1     -33.131   7.586   2.258  1.00 20.00    -0.063 C 
HETATM    2  C2  UNL     1     -32.651   8.302   1.422  1.00 20.00    -0.063 C 
ENDROOT
BRANCH   1   3
HETATM    3  C5  UNL     1     -33.703   6.734   3.255  1.00 20.00     0.141 A 
HETATM    4  C3  UNL     1     -34.168   7.341   4.558  1.00 20.00     0.221 A 
HETATM    5  O9  UNL     1     -35.087   7.015   3.506  1.00 20.00    -0.362 OA
HETATM    6  C7  UNL     1     -33.390   5.275   3.190  1.00 20.00     0.063 C 
ENDBRANCH   1   3
BRANCH   2   7
HETATM    7  C6  UNL     1     -32.068   9.174   0.403  1.00 20.00     0.141 A 
HETATM    8  C4  UNL     1     -32.998   9.988  -0.439  1.00 20.00     0.221 A 
HETATM    9  O10 UNL     1     -32.305  10.550   0.683  1.00 20.00    -0.362 OA
HETATM   10  C8  UNL     1     -30.697   8.851  -0.049  1.00 20.00     0.063 C 
ENDBRANCH   2   7
TORSDOF 2
ENDMDL
MODEL 5
REMARK VINA RESULT:       1.0      1.317      1.831
REMARK  2 active torsions:
REMARK  status: ('A' for Active; 'I' for Inactive)
REMARK    1  A    between atoms: C1_1  and  C5_5 
REMARK    2  A    between atoms: C2_2  and  C6_6 
ROOT
HETATM    1  C1  UNL     1     -32.819   8.593   1.416  1.00 20.00    -0.063 C 
HETATM    2  C2  UNL     1     -33.198   7.767   2.200  1.00 20.00    -0.063 C 
ENDROOT
BRANCH   1   3
HETATM    3  C5  UNL     1     -32.367   9.579   0.481  1.00 20.00     0.141 A 
HETATM    4  C3  UNL     1     -31.341   9.187  -0.555  1.00 20.00     0.221 A 
HETATM    5  O9  UNL     1     -32.737   9.277  -0.872  1.00 20.00    -0.362 OA
HETATM    6  C7  UNL     1     -32.540  11.017   0.844  1.00 20.00     0.063 C 
ENDBRANCH   1   3
BRANCH   2   7
HETATM    7  C6  UNL     1     -33.659   6.760   3.155  1.00 20.00     0.141 A 
HETATM    8  C4  UNL     1     -34.118   7.228   4.500  1.00 20.00     0.221 A 
HETATM    9  O10 UNL     1     -35.044   6.907   3.453  1.00 20.00    -0.362 OA
HETATM   10  C8  UNL     1     -33.208   5.369   2.931  1.00 20.00     0.063 C 
ENDBRANCH   2   7
TORSDOF 2
ENDMDL
MODEL 6
REMARK VINA RESULT:       1.2      1.953      4.728
REMARK  2 active torsions:
REMARK  status: ('A' for Active; 'I' for Inactive)
REMARK    1  A    between atoms: C1_1  and  C5_5 
REMARK    2  A    between atoms: C2_2  and  C6_6 
ROOT
HETATM    1  C1  UNL     1     -32.716   7.509   1.385  1.00 20.00    -0.063 C 
HETATM    2  C2  UNL     1     -32.599   8.616   0.933  1.00 20.00    -0.063 C 
ENDROOT
BRANCH   1   3
HETATM    3  C5  UNL     1     -32.856   6.191   1.925  1.00 20.00     0.141 A 
HETATM    4  C3  UNL     1     -32.680   5.004   1.008  1.00 20.00     0.221 A 
HETATM    5  O9  UNL     1     -31.634   5.439   1.887  1.00 20.00    -0.362 OA
HETATM    6  C7  UNL     1     -33.618   6.035   3.200  1.00 20.00     0.063 C 
ENDBRANCH   1   3
BRANCH   2   7
HETATM    7  C6  UNL     1     -32.457   9.963   0.381  1.00 20.00     0.141 A 
HETATM    8  C4  UNL     1     -31.629  10.130  -0.853  1.00 20.00     0.221 A 
HETATM    9  O10 UNL     1     -33.061  10.076  -0.903  1.00 20.00    -0.362 OA
HETATM   10  C8  UNL     1     -32.715  11.092   1.300  1.00 20.00     0.063 C 
ENDBRANCH   2   7
TORSDOF 2
ENDMDL
MODEL 7
REMARK VINA RESULT:       1.2      1.947      2.354
REMARK  2 active torsions:
REMARK  status: ('A' for Active; 'I' for Inactive)
REMARK    1  A    between atoms: C1_1  and  C5_5 
REMARK    2  A    between atoms: C2_2  and  C6_6 
ROOT
HETATM    1  C1  UNL     1     -32.600   8.635   0.927  1.00 20.00    -0.063 C 
HETATM    2  C2  UNL     1     -32.718   7.530   1.382  1.00 20.00    -0.063 C 
ENDROOT
BRANCH   1   3
HETATM    3  C5  UNL     1     -32.458   9.952   0.383  1.00 20.00     0.141 A 
HETATM    4  C3  UNL     1     -31.637  10.141  -0.870  1.00 20.00     0.221 A 
HETATM    5  O9  UNL     1     -33.070  10.094  -0.906  1.00 20.00    -0.362 OA
HETATM    6  C7  UNL     1     -32.698  11.112   1.293  1.00 20.00     0.063 C 
ENDBRANCH   1   3
BRANCH   2   7
HETATM    7  C6  UNL     1     -32.864   6.185   1.936  1.00 20.00     0.141 A 
HETATM    8  C4  UNL     1     -32.695   5.023   1.009  1.00 20.00     0.221 A 
HETATM    9  O10 UNL     1     -31.642   5.455   1.882  1.00 20.00    -0.362 OA
HETATM   10  C8  UNL     1     -33.616   6.061   3.204  1.00 20.00     0.063 C 
ENDBRANCH   2   7
TORSDOF 2
ENDMDL
MODEL 8
REMARK VINA RESULT:       1.9      0.934      4.875
REMARK  2 active torsions:
REMARK  status: ('A' for Active; 'I' for Inactive)
REMARK    1  A    between atoms: C1_1  and  C5_5 
REMARK    2  A    between atoms: C2_2  and  C6_6 
ROOT
HETATM    1  C1  UNL     1     -33.195   7.364   2.253  1.00 20.00    -0.063 C 
HETATM    2  C2  UNL     1     -32.683   8.128   1.480  1.00 20.00    -0.063 C 
ENDROOT
BRANCH   1   3
HETATM    3  C5  UNL     1     -33.806   6.454   3.173  1.00 20.00     0.141 A 
HETATM    4  C3  UNL     1     -33.947   5.003   2.782  1.00 20.00     0.221 A 
HETATM    5  O9  UNL     1     -32.900   5.451   3.654  1.00 20.00    -0.362 OA
HETATM    6  C7  UNL     1     -34.690   7.023   4.235  1.00 20.00     0.063 C 
ENDBRANCH   1   3
BRANCH   2   7
HETATM    7  C6  UNL     1     -32.058   9.057   0.539  1.00 20.00     0.141 A 
HETATM    8  C4  UNL     1     -32.951   9.830  -0.378  1.00 20.00     0.221 A 
HETATM    9  O10 UNL     1     -32.410  10.408   0.817  1.00 20.00    -0.362 OA
HETATM   10  C8  UNL     1     -30.631   8.830   0.222  1.00 20.00     0.063 C 
ENDBRANCH   2   7
TORSDOF 2
ENDMDL
MODEL 9
REMARK VINA RESULT:       1.9      1.725      2.408
REMARK  2 active torsions:
REMARK  status: ('A' for Active; 'I' for Inactive)
REMARK    1  A    between atoms: C1_1  and  C5_5 
REMARK    2  A    between atoms: C2_2  and  C6_6 
ROOT
HETATM    1  C1  UNL     1     -32.955   7.448   2.371  1.00 20.00    -0.063 C 
HETATM    2  C2  UNL     1     -33.659   6.711   3.005  1.00 20.00    -0.063 C 
ENDROOT
BRANCH   1   3
HETATM    3  C5  UNL     1     -32.115   8.327   1.615  1.00 20.00     0.141 A 
HETATM    4  C3  UNL     1     -30.671   8.491   2.026  1.00 20.00     0.221 A 
HETATM    5  O9  UNL     1     -31.053   7.640   0.937  1.00 20.00    -0.362 OA
HETATM    6  C7  UNL     1     -32.772   9.381   0.787  1.00 20.00     0.063 C 
ENDBRANCH   1   3
BRANCH   2   7
HETATM    7  C6  UNL     1     -34.517   5.813   3.777  1.00 20.00     0.141 A 
HETATM    8  C4  UNL     1     -35.383   6.413   4.839  1.00 20.00     0.221 A 
HETATM    9  O10 UNL     1     -35.898   6.071   3.545  1.00 20.00    -0.362 OA
HETATM   10  C8  UNL     1     -34.139   4.383   3.802  1.00 20.00     0.063 C 
ENDBRANCH   2   7
TORSDOF 2
ENDMDL
