MODEL 1
REMARK VINA RESULT:      -0.3      0.000      0.000
REMARK  1 active torsions:
REMARK  status: ('A' for Active; 'I' for Inactive)
REMARK    1  A    between atoms: C4_4  and  C11_11 
ROOT
HETATM    1  C1  UNL     1     -32.708   8.437   2.749  1.00 20.00     0.053 C 
HETATM    2  C2  UNL     1     -32.352   7.747   1.660  1.00 20.00    -0.072 C 
HETATM    3  C3  UNL     1     -33.305   7.470   3.674  1.00 20.00     0.155 C 
HETATM    4  C4  UNL     1     -33.135   6.055   3.179  1.00 20.00     0.075 C 
HETATM    5  C5  UNL     1     -32.708   6.266   1.696  1.00 20.00    -0.013 C 
HETATM    6  C6  UNL     1     -31.693   8.369   0.472  1.00 20.00     0.044 C 
HETATM    7  C7  UNL     1     -31.495   5.377   1.380  1.00 20.00     0.020 C 
HETATM    8  C8  UNL     1     -33.826   5.976   0.680  1.00 20.00     0.020 C 
HETATM    9  O12 UNL     1     -33.827   7.798   4.730  1.00 20.00    -0.293 OA
ENDROOT
BRANCH   4  10
HETATM   10  C11 UNL     1     -34.374   5.212   3.436  1.00 20.00    -0.010 C 
HETATM   11  C9  UNL     1     -34.034   3.996   4.299  1.00 20.00     0.010 C 
HETATM   12  C10 UNL     1     -35.470   6.045   4.101  1.00 20.00     0.010 C 
ENDBRANCH   4  10
TORSDOF 1
ENDMDL
MODEL 2
REMARK VINA RESULT:       1.2      0.977      3.630
REMARK  1 active torsions:
REMARK  status: ('A' for Active; 'I' for Inactive)
REMARK    1  A    between atoms: C4_4  and  C11_11 
ROOT
HETATM    1  C1  UNL     1     -34.051   6.202   3.900  1.00 20.00     0.053 C 
HETATM    2  C2  UNL     1     -33.663   5.219   3.081  1.00 20.00    -0.072 C 
HETATM    3  C3  UNL     1     -33.690   7.458   3.237  1.00 20.00     0.155 C 
HETATM    4  C4  UNL     1     -33.208   7.221   1.827  1.00 20.00     0.075 C 
HETATM    5  C5  UNL     1     -32.958   5.683   1.812  1.00 20.00    -0.013 C 
HETATM    6  C6  UNL     1     -33.859   3.769   3.385  1.00 20.00     0.044 C 
HETATM    7  C7  UNL     1     -33.588   5.074   0.550  1.00 20.00     0.020 C 
HETATM    8  C8  UNL     1     -31.470   5.295   1.873  1.00 20.00     0.020 C 
HETATM    9  O12 UNL     1     -33.819   8.550   3.772  1.00 20.00    -0.293 OA
ENDROOT
BRANCH   4  10
HETATM   10  C11 UNL     1     -32.037   8.122   1.469  1.00 20.00    -0.010 C 
HETATM   11  C9  UNL     1     -32.512   9.335   0.667  1.00 20.00     0.010 C 
HETATM   12  C10 UNL     1     -31.294   8.574   2.727  1.00 20.00     0.010 C 
ENDBRANCH   4  10
TORSDOF 1
ENDMDL
MODEL 3
REMARK VINA RESULT:       1.3      1.559      3.538
REMARK  1 active torsions:
REMARK  status: ('A' for Active; 'I' for Inactive)
REMARK    1  A    between atoms: C4_4  and  C11_11 
ROOT
HETATM    1  C1  UNL     1     -32.453   8.259   3.301  1.00 20.00     0.053 C 
HETATM    2  C2  UNL     1     -33.424   7.698   4.030  1.00 20.00    -0.072 C 
HETATM    3  C3  UNL     1     -32.414   7.526   2.032  1.00 20.00     0.155 C 
HETATM    4  C4  UNL     1     -33.570   6.564   1.914  1.00 20.00     0.075 C 
HETATM    5  C5  UNL     1     -34.110   6.506   3.374  1.00 20.00    -0.013 C 
HETATM    6  C6  UNL     1     -33.795   8.163   5.401  1.00 20.00     0.044 C 
HETATM    7  C7  UNL     1     -35.638   6.660   3.362  1.00 20.00     0.020 C 
HETATM    8  C8  UNL     1     -33.737   5.216   4.124  1.00 20.00     0.020 C 
HETATM    9  O12 UNL     1     -31.564   7.728   1.177  1.00 20.00    -0.293 OA
ENDROOT
BRANCH   4  10
HETATM   10  C11 UNL     1     -33.151   5.251   1.272  1.00 20.00    -0.010 C 
HETATM   11  C9  UNL     1     -33.818   5.077  -0.093  1.00 20.00     0.010 C 
HETATM   12  C10 UNL     1     -31.630   5.174   1.134  1.00 20.00     0.010 C 
ENDBRANCH   4  10
TORSDOF 1
ENDMDL
MODEL 4
REMARK VINA RESULT:       2.3      1.683      2.853
REMARK  1 active torsions:
REMARK  status: ('A' for Active; 'I' for Inactive)
REMARK    1  A    between atoms: C4_4  and  C11_11 
ROOT
HETATM    1  C1  UNL     1     -32.122   6.868   1.447  1.00 20.00     0.053 C 
HETATM    2  C2  UNL     1     -32.528   7.936   2.141  1.00 20.00    -0.072 C 
HETATM    3  C3  UNL     1     -32.869   5.723   1.974  1.00 20.00     0.155 C 
HETATM    4  C4  UNL     1     -33.941   6.162   2.941  1.00 20.00     0.075 C 
HETATM    5  C5  UNL     1     -33.543   7.638   3.238  1.00 20.00    -0.013 C 
HETATM    6  C6  UNL     1     -32.010   9.317   1.904  1.00 20.00     0.044 C 
HETATM    7  C7  UNL     1     -34.785   8.536   3.129  1.00 20.00     0.020 C 
HETATM    8  C8  UNL     1     -32.891   7.840   4.617  1.00 20.00     0.020 C 
HETATM    9  O12 UNL     1     -32.657   4.573   1.619  1.00 20.00    -0.293 OA
ENDROOT
BRANCH   4  10
HETATM   10  C11 UNL     1     -34.056   5.217   4.127  1.00 20.00    -0.010 C 
HETATM   11  C9  UNL     1     -35.480   5.218   4.685  1.00 20.00     0.010 C 
HETATM   12  C10 UNL     1     -33.639   3.799   3.735  1.00 20.00     0.010 C 
ENDBRANCH   4  10
TORSDOF 1
ENDMDL
MODEL 5
REMARK VINA RESULT:       2.5      1.738      4.313
REMARK  1 active torsions:
REMARK  status: ('A' for Active; 'I' for Inactive)
REMARK    1  A    between atoms: C4_4  and  C11_11 
ROOT
HETATM    1  C1  UNL     1     -33.682   5.080   2.728  1.00 20.00     0.053 C 
HETATM    2  C2  UNL     1     -34.250   5.904   3.615  1.00 20.00    -0.072 C 
HETATM    3  C3  UNL     1     -32.749   5.895   1.945  1.00 20.00     0.155 C 
HETATM    4  C4  UNL     1     -32.610   7.282   2.522  1.00 20.00     0.075 C 
HETATM    5  C5  UNL     1     -33.815   7.360   3.506  1.00 20.00    -0.013 C 
HETATM    6  C6  UNL     1     -35.265   5.460   4.617  1.00 20.00     0.044 C 
HETATM    7  C7  UNL     1     -33.340   7.919   4.855  1.00 20.00     0.020 C 
HETATM    8  C8  UNL     1     -34.986   8.214   2.988  1.00 20.00     0.020 C 
HETATM    9  O12 UNL     1     -32.139   5.461   0.979  1.00 20.00    -0.293 OA
ENDROOT
BRANCH   4  10
HETATM   10  C11 UNL     1     -32.526   8.342   1.435  1.00 20.00    -0.010 C 
HETATM   11  C9  UNL     1     -32.481   9.744   2.046  1.00 20.00     0.010 C 
HETATM   12  C10 UNL     1     -31.304   8.112   0.544  1.00 20.00     0.010 C 
ENDBRANCH   4  10
TORSDOF 1
ENDMDL
