MODEL 1
REMARK VINA RESULT:      -0.1      0.000      0.000
REMARK  2 active torsions:
REMARK  status: ('A' for Active; 'I' for Inactive)
REMARK    1  A    between atoms: C3_3  and  C6_6 
REMARK    2  A    between atoms: C6_6  and  C7_7 
ROOT
HETATM    1  C1  UNL     1     -31.752   7.190   1.502  1.00 20.00     0.281 C 
HETATM    2  C2  UNL     1     -32.325   8.372   2.268  1.00 20.00     0.106 C 
HETATM    3  C3  UNL     1     -33.531   6.046   2.562  1.00 20.00     0.282 C 
HETATM    4  N8  UNL     1     -32.835   6.221   1.278  1.00 20.00     0.098 N 
HETATM    5  S9  UNL     1     -33.417   7.609   3.486  1.00 20.00    -0.132 SA
HETATM    6  H24 UNL     1     -33.480   6.561   0.569  1.00 20.00     0.317 HD
ENDROOT
BRANCH   3   7
HETATM    7  C6  UNL     1     -32.914   4.906   3.366  1.00 20.00     0.050 C 
BRANCH   7   8
HETATM    8  C7  UNL     1     -33.952   3.926   3.939  1.00 20.00    -0.020 C 
HETATM    9  C4  UNL     1     -33.322   2.894   4.877  1.00 20.00     0.009 C 
HETATM   10  C5  UNL     1     -35.044   4.699   4.681  1.00 20.00     0.009 C 
ENDBRANCH   7   8
ENDBRANCH   3   7
TORSDOF 2
ENDMDL
MODEL 2
REMARK VINA RESULT:       0.6      1.746      4.946
REMARK  2 active torsions:
REMARK  status: ('A' for Active; 'I' for Inactive)
REMARK    1  A    between atoms: C3_3  and  C6_6 
REMARK    2  A    between atoms: C6_6  and  C7_7 
ROOT
HETATM    1  C1  UNL     1     -33.255   5.529   1.874  1.00 20.00     0.281 C 
HETATM    2  C2  UNL     1     -33.777   5.686   3.293  1.00 20.00     0.106 C 
HETATM    3  C3  UNL     1     -32.428   7.709   2.275  1.00 20.00     0.282 C 
HETATM    4  N8  UNL     1     -32.074   6.393   1.723  1.00 20.00     0.098 N 
HETATM    5  S9  UNL     1     -33.634   7.457   3.613  1.00 20.00    -0.132 SA
HETATM    6  H24 UNL     1     -31.278   6.001   2.220  1.00 20.00     0.317 HD
ENDROOT
BRANCH   3   7
HETATM    7  C6  UNL     1     -33.010   8.615   1.196  1.00 20.00     0.050 C 
BRANCH   7   8
HETATM    8  C7  UNL     1     -31.986   9.591   0.592  1.00 20.00    -0.020 C 
HETATM    9  C4  UNL     1     -31.046   8.907  -0.401  1.00 20.00     0.009 C 
HETATM   10  C5  UNL     1     -32.714  10.747  -0.097  1.00 20.00     0.009 C 
ENDBRANCH   7   8
ENDBRANCH   3   7
TORSDOF 2
ENDMDL
MODEL 3
REMARK VINA RESULT:       0.9      1.587      4.374
REMARK  2 active torsions:
REMARK  status: ('A' for Active; 'I' for Inactive)
REMARK    1  A    between atoms: C3_3  and  C6_6 
REMARK    2  A    between atoms: C6_6  and  C7_7 
ROOT
HETATM    1  C1  UNL     1     -34.512   4.821   3.475  1.00 20.00     0.281 C 
HETATM    2  C2  UNL     1     -35.284   5.792   4.354  1.00 20.00     0.106 C 
HETATM    3  C3  UNL     1     -33.079   6.685   3.219  1.00 20.00     0.282 C 
HETATM    4  N8  UNL     1     -33.102   5.235   3.463  1.00 20.00     0.098 N 
HETATM    5  S9  UNL     1     -34.591   7.404   3.929  1.00 20.00    -0.132 SA
HETATM    6  H24 UNL     1     -32.657   5.017   4.352  1.00 20.00     0.317 HD
ENDROOT
BRANCH   3   7
HETATM    7  C6  UNL     1     -32.997   6.985   1.726  1.00 20.00     0.050 C 
BRANCH   7   8
HETATM    8  C7  UNL     1     -31.912   8.013   1.363  1.00 20.00    -0.020 C 
HETATM    9  C4  UNL     1     -32.474   9.202   0.583  1.00 20.00     0.009 C 
HETATM   10  C5  UNL     1     -31.220   8.509   2.634  1.00 20.00     0.009 C 
ENDBRANCH   7   8
ENDBRANCH   3   7
TORSDOF 2
ENDMDL
MODEL 4
REMARK VINA RESULT:       1.0      1.850      4.292
REMARK  2 active torsions:
REMARK  status: ('A' for Active; 'I' for Inactive)
REMARK    1  A    between atoms: C3_3  and  C6_6 
REMARK    2  A    between atoms: C6_6  and  C7_7 
ROOT
HETATM    1  C1  UNL     1     -35.386   6.100   4.585  1.00 20.00     0.281 C 
HETATM    2  C2  UNL     1     -34.851   4.679   4.506  1.00 20.00     0.106 C 
HETATM    3  C3  UNL     1     -33.982   6.396   2.705  1.00 20.00     0.282 C 
HETATM    4  N8  UNL     1     -35.320   6.690   3.240  1.00 20.00     0.098 N 
HETATM    5  S9  UNL     1     -33.423   4.815   3.411  1.00 20.00    -0.132 SA
HETATM    6  H24 UNL     1     -36.038   6.292   2.639  1.00 20.00     0.317 HD
ENDROOT
BRANCH   3   7
HETATM    7  C6  UNL     1     -32.999   7.510   3.051  1.00 20.00     0.050 C 
BRANCH   7   8
HETATM    8  C7  UNL     1     -31.950   7.767   1.956  1.00 20.00    -0.020 C 
HETATM    9  C4  UNL     1     -31.756   6.559   1.040  1.00 20.00     0.009 C 
HETATM   10  C5  UNL     1     -32.354   8.987   1.125  1.00 20.00     0.009 C 
ENDBRANCH   7   8
ENDBRANCH   3   7
TORSDOF 2
ENDMDL
MODEL 5
REMARK VINA RESULT:       1.0      2.461      3.072
REMARK  2 active torsions:
REMARK  status: ('A' for Active; 'I' for Inactive)
REMARK    1  A    between atoms: C3_3  and  C6_6 
REMARK    2  A    between atoms: C6_6  and  C7_7 
ROOT
HETATM    1  C1  UNL     1     -32.665   9.464   0.511  1.00 20.00     0.281 C 
HETATM    2  C2  UNL     1     -31.347   8.828   0.100  1.00 20.00     0.106 C 
HETATM    3  C3  UNL     1     -32.383   8.073   2.403  1.00 20.00     0.282 C 
HETATM    4  N8  UNL     1     -32.752   9.431   1.979  1.00 20.00     0.098 N 
HETATM    5  S9  UNL     1     -31.190   7.407   1.202  1.00 20.00    -0.132 SA
HETATM    6  H24 UNL     1     -32.121  10.116   2.390  1.00 20.00     0.317 HD
ENDROOT
BRANCH   3   7
HETATM    7  C6  UNL     1     -33.612   7.174   2.486  1.00 20.00     0.050 C 
BRANCH   7   8
HETATM    8  C7  UNL     1     -34.452   7.396   3.756  1.00 20.00    -0.020 C 
HETATM    9  C4  UNL     1     -35.228   6.143   4.166  1.00 20.00     0.009 C 
HETATM   10  C5  UNL     1     -33.549   7.844   4.906  1.00 20.00     0.009 C 
ENDBRANCH   7   8
ENDBRANCH   3   7
TORSDOF 2
ENDMDL
MODEL 6
REMARK VINA RESULT:       1.1      1.601      2.314
REMARK  2 active torsions:
REMARK  status: ('A' for Active; 'I' for Inactive)
REMARK    1  A    between atoms: C3_3  and  C6_6 
REMARK    2  A    between atoms: C6_6  and  C7_7 
ROOT
HETATM    1  C1  UNL     1     -31.728   5.961   1.642  1.00 20.00     0.281 C 
HETATM    2  C2  UNL     1     -31.233   7.330   1.203  1.00 20.00     0.106 C 
HETATM    3  C3  UNL     1     -33.596   7.219   2.366  1.00 20.00     0.282 C 
HETATM    4  N8  UNL     1     -33.198   5.990   1.663  1.00 20.00     0.098 N 
HETATM    5  S9  UNL     1     -32.321   8.481   2.069  1.00 20.00    -0.132 SA
HETATM    6  H24 UNL     1     -33.569   5.987   0.716  1.00 20.00     0.317 HD
ENDROOT
BRANCH   3   7
HETATM    7  C6  UNL     1     -33.756   6.964   3.861  1.00 20.00     0.050 C 
BRANCH   7   8
HETATM    8  C7  UNL     1     -35.112   6.346   4.239  1.00 20.00    -0.020 C 
HETATM    9  C4  UNL     1     -36.190   6.619   3.189  1.00 20.00     0.009 C 
HETATM   10  C5  UNL     1     -34.958   4.837   4.441  1.00 20.00     0.009 C 
ENDBRANCH   7   8
ENDBRANCH   3   7
TORSDOF 2
ENDMDL
MODEL 7
REMARK VINA RESULT:       1.1      2.074      4.961
REMARK  2 active torsions:
REMARK  status: ('A' for Active; 'I' for Inactive)
REMARK    1  A    between atoms: C3_3  and  C6_6 
REMARK    2  A    between atoms: C6_6  and  C7_7 
ROOT
HETATM    1  C1  UNL     1     -33.830   6.953   3.886  1.00 20.00     0.281 C 
HETATM    2  C2  UNL     1     -33.702   5.538   3.346  1.00 20.00     0.106 C 
HETATM    3  C3  UNL     1     -33.259   7.515   1.661  1.00 20.00     0.282 C 
HETATM    4  N8  UNL     1     -34.173   7.841   2.766  1.00 20.00     0.098 N 
HETATM    5  S9  UNL     1     -32.835   5.750   1.777  1.00 20.00    -0.132 SA
HETATM    6  H24 UNL     1     -35.139   7.702   2.481  1.00 20.00     0.317 HD
ENDROOT
BRANCH   3   7
HETATM    7  C6  UNL     1     -31.999   8.371   1.724  1.00 20.00     0.050 C 
BRANCH   7   8
HETATM    8  C7  UNL     1     -31.939   9.460   0.639  1.00 20.00    -0.020 C 
HETATM    9  C4  UNL     1     -32.450   8.964  -0.714  1.00 20.00     0.009 C 
HETATM   10  C5  UNL     1     -32.749  10.680   1.082  1.00 20.00     0.009 C 
ENDBRANCH   7   8
ENDBRANCH   3   7
TORSDOF 2
ENDMDL
MODEL 8
REMARK VINA RESULT:       1.3      2.046      2.889
REMARK  2 active torsions:
REMARK  status: ('A' for Active; 'I' for Inactive)
REMARK    1  A    between atoms: C3_3  and  C6_6 
REMARK    2  A    between atoms: C6_6  and  C7_7 
ROOT
HETATM    1  C1  UNL     1     -32.985   9.681   1.585  1.00 20.00     0.281 C 
HETATM    2  C2  UNL     1     -32.123   9.716   0.333  1.00 20.00     0.106 C 
HETATM    3  C3  UNL     1     -31.980   7.555   1.836  1.00 20.00     0.282 C 
HETATM    4  N8  UNL     1     -32.344   8.783   2.558  1.00 20.00     0.098 N 
HETATM    5  S9  UNL     1     -31.617   7.997   0.109  1.00 20.00    -0.132 SA
HETATM    6  H24 UNL     1     -31.517   9.219   2.957  1.00 20.00     0.317 HD
ENDROOT
BRANCH   3   7
HETATM    7  C6  UNL     1     -33.108   6.530   1.898  1.00 20.00     0.050 C 
BRANCH   7   8
HETATM    8  C7  UNL     1     -33.556   6.192   3.330  1.00 20.00    -0.020 C 
HETATM    9  C4  UNL     1     -34.868   6.881   3.707  1.00 20.00     0.009 C 
HETATM   10  C5  UNL     1     -33.703   4.677   3.485  1.00 20.00     0.009 C 
ENDBRANCH   7   8
ENDBRANCH   3   7
TORSDOF 2
ENDMDL
MODEL 9
REMARK VINA RESULT:       1.3      2.031      2.508
REMARK  2 active torsions:
REMARK  status: ('A' for Active; 'I' for Inactive)
REMARK    1  A    between atoms: C3_3  and  C6_6 
REMARK    2  A    between atoms: C6_6  and  C7_7 
ROOT
HETATM    1  C1  UNL     1     -32.296   8.605   1.533  1.00 20.00     0.281 C 
HETATM    2  C2  UNL     1     -31.976   7.281   0.858  1.00 20.00     0.106 C 
HETATM    3  C3  UNL     1     -32.727   7.196   3.383  1.00 20.00     0.282 C 
HETATM    4  N8  UNL     1     -32.072   8.448   2.978  1.00 20.00     0.098 N 
HETATM    5  S9  UNL     1     -32.675   6.046   1.975  1.00 20.00    -0.132 SA
HETATM    6  H24 UNL     1     -31.077   8.412   3.184  1.00 20.00     0.317 HD
ENDROOT
BRANCH   3   7
HETATM    7  C6  UNL     1     -34.169   7.448   3.812  1.00 20.00     0.050 C 
BRANCH   7   8
HETATM    8  C7  UNL     1     -35.126   6.297   3.461  1.00 20.00    -0.020 C 
HETATM    9  C4  UNL     1     -35.298   5.309   4.615  1.00 20.00     0.009 C 
HETATM   10  C5  UNL     1     -36.490   6.860   3.055  1.00 20.00     0.009 C 
ENDBRANCH   7   8
ENDBRANCH   3   7
TORSDOF 2
ENDMDL
