MODEL 1
REMARK VINA RESULT:      -0.7      0.000      0.000
REMARK  0 active torsions:
REMARK  status: ('A' for Active; 'I' for Inactive)
ROOT
HETATM    1  C1  UNL     1     -33.515   7.323   3.550  1.00 20.00    -0.002 A 
HETATM    2  C2  UNL     1     -34.180   6.163   3.413  1.00 20.00    -0.064 A 
HETATM    3  C3  UNL     1     -32.487   7.498   2.498  1.00 20.00     0.215 A 
HETATM    4  C4  UNL     1     -33.794   5.272   2.271  1.00 20.00     0.117 A 
HETATM    5  C5  UNL     1     -33.673   8.395   4.572  1.00 20.00     0.053 C 
HETATM    6  C6  UNL     1     -35.282   5.660   4.295  1.00 20.00     0.045 C 
HETATM    7  O7  UNL     1     -31.748   8.464   2.397  1.00 20.00    -0.280 OA
HETATM    8  S8  UNL     1     -32.460   6.133   1.403  1.00 20.00    -0.083 SA
ENDROOT
TORSDOF 0
ENDMDL
MODEL 2
REMARK VINA RESULT:      -0.7      2.341      3.699
REMARK  0 active torsions:
REMARK  status: ('A' for Active; 'I' for Inactive)
ROOT
HETATM    1  C1  UNL     1     -32.881   6.163   2.199  1.00 20.00    -0.002 A 
HETATM    2  C2  UNL     1     -32.777   7.502   2.250  1.00 20.00    -0.064 A 
HETATM    3  C3  UNL     1     -33.789   5.638   3.244  1.00 20.00     0.215 A 
HETATM    4  C4  UNL     1     -33.562   8.219   3.307  1.00 20.00     0.117 A 
HETATM    5  C5  UNL     1     -32.229   5.193   1.274  1.00 20.00     0.053 C 
HETATM    6  C6  UNL     1     -31.949   8.365   1.348  1.00 20.00     0.045 C 
HETATM    7  O7  UNL     1     -34.054   4.458   3.412  1.00 20.00    -0.280 OA
HETATM    8  S8  UNL     1     -34.446   6.932   4.223  1.00 20.00    -0.083 SA
ENDROOT
TORSDOF 0
ENDMDL
MODEL 3
REMARK VINA RESULT:      -0.7      1.645      2.616
REMARK  0 active torsions:
REMARK  status: ('A' for Active; 'I' for Inactive)
ROOT
HETATM    1  C1  UNL     1     -33.548   6.326   3.094  1.00 20.00    -0.002 A 
HETATM    2  C2  UNL     1     -33.333   7.539   3.632  1.00 20.00    -0.064 A 
HETATM    3  C3  UNL     1     -32.824   6.152   1.814  1.00 20.00     0.215 A 
HETATM    4  C4  UNL     1     -32.435   8.479   2.886  1.00 20.00     0.117 A 
HETATM    5  C5  UNL     1     -34.380   5.197   3.597  1.00 20.00     0.053 C 
HETATM    6  C6  UNL     1     -33.903   8.056   4.917  1.00 20.00     0.045 C 
HETATM    7  O7  UNL     1     -32.851   5.144   1.127  1.00 20.00    -0.280 OA
HETATM    8  S8  UNL     1     -31.912   7.587   1.401  1.00 20.00    -0.083 SA
ENDROOT
TORSDOF 0
ENDMDL
MODEL 4
REMARK VINA RESULT:      -0.6      1.860      2.906
REMARK  0 active torsions:
REMARK  status: ('A' for Active; 'I' for Inactive)
ROOT
HETATM    1  C1  UNL     1     -33.500   6.154   2.955  1.00 20.00    -0.002 A 
HETATM    2  C2  UNL     1     -32.706   6.117   1.871  1.00 20.00    -0.064 A 
HETATM    3  C3  UNL     1     -33.507   7.492   3.589  1.00 20.00     0.215 A 
HETATM    4  C4  UNL     1     -31.988   7.377   1.493  1.00 20.00     0.117 A 
HETATM    5  C5  UNL     1     -34.326   5.076   3.566  1.00 20.00     0.053 C 
HETATM    6  C6  UNL     1     -32.461   4.931   0.988  1.00 20.00     0.045 C 
HETATM    7  O7  UNL     1     -34.146   7.791   4.586  1.00 20.00    -0.280 OA
HETATM    8  S8  UNL     1     -32.475   8.611   2.724  1.00 20.00    -0.083 SA
ENDROOT
TORSDOF 0
ENDMDL
MODEL 5
REMARK VINA RESULT:      -0.6      1.458      2.404
REMARK  0 active torsions:
REMARK  status: ('A' for Active; 'I' for Inactive)
ROOT
HETATM    1  C1  UNL     1     -33.281   6.555   2.436  1.00 20.00    -0.002 A 
HETATM    2  C2  UNL     1     -34.058   6.743   3.516  1.00 20.00    -0.064 A 
HETATM    3  C3  UNL     1     -32.226   7.588   2.327  1.00 20.00     0.215 A 
HETATM    4  C4  UNL     1     -33.747   7.913   4.400  1.00 20.00     0.117 A 
HETATM    5  C5  UNL     1     -33.346   5.497   1.389  1.00 20.00     0.053 C 
HETATM    6  C6  UNL     1     -35.218   5.892   3.936  1.00 20.00     0.045 C 
HETATM    7  O7  UNL     1     -31.390   7.644   1.439  1.00 20.00    -0.280 OA
HETATM    8  S8  UNL     1     -32.322   8.735   3.646  1.00 20.00    -0.083 SA
ENDROOT
TORSDOF 0
ENDMDL
MODEL 6
REMARK VINA RESULT:      -0.4      1.637      2.447
REMARK  0 active torsions:
REMARK  status: ('A' for Active; 'I' for Inactive)
ROOT
HETATM    1  C1  UNL     1     -32.950   6.129   2.318  1.00 20.00    -0.002 A 
HETATM    2  C2  UNL     1     -33.776   5.761   3.313  1.00 20.00    -0.064 A 
HETATM    3  C3  UNL     1     -32.770   7.597   2.263  1.00 20.00     0.215 A 
HETATM    4  C4  UNL     1     -34.358   6.846   4.168  1.00 20.00     0.117 A 
HETATM    5  C5  UNL     1     -32.232   5.289   1.319  1.00 20.00     0.053 C 
HETATM    6  C6  UNL     1     -34.183   4.362   3.660  1.00 20.00     0.045 C 
HETATM    7  O7  UNL     1     -32.070   8.187   1.455  1.00 20.00    -0.280 OA
HETATM    8  S8  UNL     1     -33.695   8.398   3.515  1.00 20.00    -0.083 SA
ENDROOT
TORSDOF 0
ENDMDL
MODEL 7
REMARK VINA RESULT:      -0.4      1.953      2.720
REMARK  0 active torsions:
REMARK  status: ('A' for Active; 'I' for Inactive)
ROOT
HETATM    1  C1  UNL     1     -32.950   7.086   2.548  1.00 20.00    -0.002 A 
HETATM    2  C2  UNL     1     -32.966   5.807   2.132  1.00 20.00    -0.064 A 
HETATM    3  C3  UNL     1     -33.899   7.317   3.661  1.00 20.00     0.215 A 
HETATM    4  C4  UNL     1     -33.899   4.863   2.829  1.00 20.00     0.117 A 
HETATM    5  C5  UNL     1     -32.141   8.236   2.055  1.00 20.00     0.053 C 
HETATM    6  C6  UNL     1     -32.139   5.219   1.031  1.00 20.00     0.045 C 
HETATM    7  O7  UNL     1     -34.075   8.389   4.218  1.00 20.00    -0.280 OA
HETATM    8  S8  UNL     1     -34.748   5.848   4.087  1.00 20.00    -0.083 SA
ENDROOT
TORSDOF 0
ENDMDL
MODEL 8
REMARK VINA RESULT:      -0.1      2.045      2.883
REMARK  0 active torsions:
REMARK  status: ('A' for Active; 'I' for Inactive)
ROOT
HETATM    1  C1  UNL     1     -33.672   7.121   3.357  1.00 20.00    -0.002 A 
HETATM    2  C2  UNL     1     -32.775   7.103   2.357  1.00 20.00    -0.064 A 
HETATM    3  C3  UNL     1     -34.308   5.799   3.553  1.00 20.00     0.215 A 
HETATM    4  C4  UNL     1     -32.569   5.807   1.632  1.00 20.00     0.117 A 
HETATM    5  C5  UNL     1     -34.085   8.245   4.244  1.00 20.00     0.053 C 
HETATM    6  C6  UNL     1     -31.947   8.259   1.883  1.00 20.00     0.045 C 
HETATM    7  O7  UNL     1     -35.155   5.547   4.396  1.00 20.00    -0.280 OA
HETATM    8  S8  UNL     1     -33.690   4.621   2.415  1.00 20.00    -0.083 SA
ENDROOT
TORSDOF 0
ENDMDL
MODEL 9
REMARK VINA RESULT:      -0.0      1.662      2.449
REMARK  0 active torsions:
REMARK  status: ('A' for Active; 'I' for Inactive)
ROOT
HETATM    1  C1  UNL     1     -32.923   7.042   2.527  1.00 20.00    -0.002 A 
HETATM    2  C2  UNL     1     -33.777   7.155   3.559  1.00 20.00    -0.064 A 
HETATM    3  C3  UNL     1     -32.820   5.646   2.045  1.00 20.00     0.215 A 
HETATM    4  C4  UNL     1     -34.458   5.908   4.035  1.00 20.00     0.117 A 
HETATM    5  C5  UNL     1     -32.110   8.089   1.847  1.00 20.00     0.053 C 
HETATM    6  C6  UNL     1     -34.124   8.414   4.293  1.00 20.00     0.045 C 
HETATM    7  O7  UNL     1     -32.115   5.276   1.119  1.00 20.00    -0.280 OA
HETATM    8  S8  UNL     1     -33.846   4.576   2.973  1.00 20.00    -0.083 SA
ENDROOT
TORSDOF 0
ENDMDL
