MODEL 1
REMARK VINA RESULT:      -1.8      0.000      0.000
REMARK  2 active torsions:
REMARK  status: ('A' for Active; 'I' for Inactive)
REMARK    1  A    between atoms: C1_1  and  C4_4 
REMARK    2  A    between atoms: C4_4  and  C5_5 
ROOT
HETATM    1  C1  UNL     1     -32.043   7.178   1.901  1.00 20.00     0.244 A 
HETATM    2  C3  UNL     1     -32.568   9.281   0.718  1.00 20.00     0.147 C 
HETATM    3  N6  UNL     1     -31.561   8.306   1.115  1.00 20.00    -0.168 NA
HETATM    4  O7  UNL     1     -31.563   8.345   2.566  1.00 20.00    -0.279 OA
ENDROOT
BRANCH   1   5
HETATM    5  C4  UNL     1     -33.478   6.863   2.124  1.00 20.00     0.051 C 
BRANCH   5   6
HETATM    6  C5  UNL     1     -33.905   7.179   3.555  1.00 20.00    -0.001 C 
HETATM    7  C2  UNL     1     -35.112   6.354   3.971  1.00 20.00     0.005 C 
ENDBRANCH   5   6
ENDBRANCH   1   5
TORSDOF 2
ENDMDL
MODEL 2
REMARK VINA RESULT:      -1.7      1.885      3.609
REMARK  2 active torsions:
REMARK  status: ('A' for Active; 'I' for Inactive)
REMARK    1  A    between atoms: C1_1  and  C4_4 
REMARK    2  A    between atoms: C4_4  and  C5_5 
ROOT
HETATM    1  C1  UNL     1     -32.200   6.719   1.843  1.00 20.00     0.244 A 
HETATM    2  C3  UNL     1     -34.140   6.607   3.365  1.00 20.00     0.147 C 
HETATM    3  N6  UNL     1     -33.090   5.895   2.649  1.00 20.00    -0.168 NA
HETATM    4  O7  UNL     1     -33.364   6.151   1.246  1.00 20.00    -0.279 OA
ENDROOT
BRANCH   1   5
HETATM    5  C4  UNL     1     -32.164   8.203   1.883  1.00 20.00     0.051 C 
BRANCH   5   6
HETATM    6  C5  UNL     1     -31.842   8.793   0.512  1.00 20.00    -0.001 C 
HETATM    7  C2  UNL     1     -32.545  10.124   0.299  1.00 20.00     0.005 C 
ENDBRANCH   5   6
ENDBRANCH   1   5
TORSDOF 2
ENDMDL
MODEL 3
REMARK VINA RESULT:      -1.7      2.445      3.875
REMARK  2 active torsions:
REMARK  status: ('A' for Active; 'I' for Inactive)
REMARK    1  A    between atoms: C1_1  and  C4_4 
REMARK    2  A    between atoms: C4_4  and  C5_5 
ROOT
HETATM    1  C1  UNL     1     -34.163   6.929   2.991  1.00 20.00     0.244 A 
HETATM    2  C3  UNL     1     -35.180   5.223   4.458  1.00 20.00     0.147 C 
HETATM    3  N6  UNL     1     -35.265   6.551   3.867  1.00 20.00    -0.168 NA
HETATM    4  O7  UNL     1     -34.103   7.256   4.379  1.00 20.00    -0.279 OA
ENDROOT
BRANCH   1   5
HETATM    5  C4  UNL     1     -33.114   5.994   2.512  1.00 20.00     0.051 C 
BRANCH   5   6
HETATM    6  C5  UNL     1     -32.263   6.623   1.411  1.00 20.00    -0.001 C 
HETATM    7  C2  UNL     1     -31.913   8.067   1.734  1.00 20.00     0.005 C 
ENDBRANCH   5   6
ENDBRANCH   1   5
TORSDOF 2
ENDMDL
MODEL 4
REMARK VINA RESULT:      -1.5      1.417      1.790
REMARK  2 active torsions:
REMARK  status: ('A' for Active; 'I' for Inactive)
REMARK    1  A    between atoms: C1_1  and  C4_4 
REMARK    2  A    between atoms: C4_4  and  C5_5 
ROOT
HETATM    1  C1  UNL     1     -33.518   6.460   2.141  1.00 20.00     0.244 A 
HETATM    2  C3  UNL     1     -31.689   8.091   1.839  1.00 20.00     0.147 C 
HETATM    3  N6  UNL     1     -32.532   7.058   1.251  1.00 20.00    -0.168 NA
HETATM    4  O7  UNL     1     -32.230   5.860   2.014  1.00 20.00    -0.279 OA
ENDROOT
BRANCH   1   5
HETATM    5  C4  UNL     1     -33.849   6.976   3.494  1.00 20.00     0.051 C 
BRANCH   5   6
HETATM    6  C5  UNL     1     -35.137   6.355   4.030  1.00 20.00    -0.001 C 
HETATM    7  C2  UNL     1     -34.944   4.889   4.384  1.00 20.00     0.005 C 
ENDBRANCH   5   6
ENDBRANCH   1   5
TORSDOF 2
ENDMDL
MODEL 5
REMARK VINA RESULT:      -1.5      1.423      1.710
REMARK  2 active torsions:
REMARK  status: ('A' for Active; 'I' for Inactive)
REMARK    1  A    between atoms: C1_1  and  C4_4 
REMARK    2  A    between atoms: C4_4  and  C5_5 
ROOT
HETATM    1  C1  UNL     1     -32.401   7.870   2.609  1.00 20.00     0.244 A 
HETATM    2  C3  UNL     1     -32.679   5.868   1.189  1.00 20.00     0.147 C 
HETATM    3  N6  UNL     1     -31.771   6.789   1.861  1.00 20.00    -0.168 NA
HETATM    4  O7  UNL     1     -32.034   8.077   1.246  1.00 20.00    -0.279 OA
ENDROOT
BRANCH   1   5
HETATM    5  C4  UNL     1     -33.856   7.954   2.896  1.00 20.00     0.051 C 
BRANCH   5   6
HETATM    6  C5  UNL     1     -34.202   7.294   4.229  1.00 20.00    -0.001 C 
HETATM    7  C2  UNL     1     -35.217   6.177   4.050  1.00 20.00     0.005 C 
ENDBRANCH   5   6
ENDBRANCH   1   5
TORSDOF 2
ENDMDL
MODEL 6
REMARK VINA RESULT:      -1.4      3.019      3.678
REMARK  2 active torsions:
REMARK  status: ('A' for Active; 'I' for Inactive)
REMARK    1  A    between atoms: C1_1  and  C4_4 
REMARK    2  A    between atoms: C4_4  and  C5_5 
ROOT
HETATM    1  C1  UNL     1     -34.903   6.114   3.565  1.00 20.00     0.244 A 
HETATM    2  C3  UNL     1     -33.581   7.717   4.898  1.00 20.00     0.147 C 
HETATM    3  N6  UNL     1     -34.481   7.492   3.774  1.00 20.00    -0.168 NA
HETATM    4  O7  UNL     1     -33.748   6.605   2.889  1.00 20.00    -0.279 OA
ENDROOT
BRANCH   1   5
HETATM    5  C4  UNL     1     -34.657   5.006   4.524  1.00 20.00     0.051 C 
BRANCH   5   6
HETATM    6  C5  UNL     1     -33.868   3.870   3.876  1.00 20.00    -0.001 C 
HETATM    7  C2  UNL     1     -33.181   3.004   4.920  1.00 20.00     0.005 C 
ENDBRANCH   5   6
ENDBRANCH   1   5
TORSDOF 2
ENDMDL
MODEL 7
REMARK VINA RESULT:      -1.3      1.705      1.973
REMARK  2 active torsions:
REMARK  status: ('A' for Active; 'I' for Inactive)
REMARK    1  A    between atoms: C1_1  and  C4_4 
REMARK    2  A    between atoms: C4_4  and  C5_5 
ROOT
HETATM    1  C1  UNL     1     -33.247   5.765   1.779  1.00 20.00     0.244 A 
HETATM    2  C3  UNL     1     -31.779   7.742   1.959  1.00 20.00     0.147 C 
HETATM    3  N6  UNL     1     -32.520   6.829   1.099  1.00 20.00    -0.168 NA
HETATM    4  O7  UNL     1     -31.913   5.531   1.332  1.00 20.00    -0.279 OA
ENDROOT
BRANCH   1   5
HETATM    5  C4  UNL     1     -33.448   5.693   3.249  1.00 20.00     0.051 C 
BRANCH   5   6
HETATM    6  C5  UNL     1     -34.678   6.486   3.685  1.00 20.00    -0.001 C 
HETATM    7  C2  UNL     1     -34.289   7.761   4.416  1.00 20.00     0.005 C 
ENDBRANCH   5   6
ENDBRANCH   1   5
TORSDOF 2
ENDMDL
MODEL 8
REMARK VINA RESULT:      -1.2      1.418      1.649
REMARK  2 active torsions:
REMARK  status: ('A' for Active; 'I' for Inactive)
REMARK    1  A    between atoms: C1_1  and  C4_4 
REMARK    2  A    between atoms: C4_4  and  C5_5 
ROOT
HETATM    1  C1  UNL     1     -32.097   8.185   0.823  1.00 20.00     0.244 A 
HETATM    2  C3  UNL     1     -32.708  10.574   0.690  1.00 20.00     0.147 C 
HETATM    3  N6  UNL     1     -32.407   9.336  -0.016  1.00 20.00    -0.168 NA
HETATM    4  O7  UNL     1     -31.040   9.022   0.358  1.00 20.00    -0.279 OA
ENDROOT
BRANCH   1   5
HETATM    5  C4  UNL     1     -32.280   8.148   2.296  1.00 20.00     0.051 C 
BRANCH   5   6
HETATM    6  C5  UNL     1     -33.210   7.012   2.716  1.00 20.00    -0.001 C 
HETATM    7  C2  UNL     1     -34.094   7.419   3.885  1.00 20.00     0.005 C 
ENDBRANCH   5   6
ENDBRANCH   1   5
TORSDOF 2
ENDMDL
MODEL 9
REMARK VINA RESULT:      -1.2      2.097      3.572
REMARK  2 active torsions:
REMARK  status: ('A' for Active; 'I' for Inactive)
REMARK    1  A    between atoms: C1_1  and  C4_4 
REMARK    2  A    between atoms: C4_4  and  C5_5 
ROOT
HETATM    1  C1  UNL     1     -33.075   7.414   1.783  1.00 20.00     0.244 A 
HETATM    2  C3  UNL     1     -31.863   5.282   1.499  1.00 20.00     0.147 C 
HETATM    3  N6  UNL     1     -33.142   5.976   1.559  1.00 20.00    -0.168 NA
HETATM    4  O7  UNL     1     -33.195   6.533   2.899  1.00 20.00    -0.279 OA
ENDROOT
BRANCH   1   5
HETATM    5  C4  UNL     1     -31.824   8.213   1.734  1.00 20.00     0.051 C 
BRANCH   5   6
HETATM    6  C5  UNL     1     -31.676   8.939   0.399  1.00 20.00    -0.001 C 
HETATM    7  C2  UNL     1     -32.585  10.156   0.322  1.00 20.00     0.005 C 
ENDBRANCH   5   6
ENDBRANCH   1   5
TORSDOF 2
ENDMDL
