MODEL 1
REMARK VINA RESULT:       0.9      0.000      0.000
REMARK  0 active torsions:
REMARK  status: ('A' for Active; 'I' for Inactive)
ROOT
HETATM    1  C1  UNL     1     -33.481   3.750   4.265  1.00 20.00     0.095 C 
HETATM    2  C2  UNL     1     -32.334   8.613   1.404  1.00 20.00     0.095 C 
HETATM    3  C3  UNL     1     -34.306   6.024   4.145  1.00 20.00    -0.007 C 
HETATM    4  C4  UNL     1     -31.635   6.295   1.399  1.00 20.00    -0.007 C 
HETATM    5  C5  UNL     1     -33.779   4.943   3.563  1.00 20.00     0.024 C 
HETATM    6  C6  UNL     1     -32.578   7.227   1.562  1.00 20.00     0.024 C 
HETATM    7  C7  UNL     1     -34.576   7.119   3.167  1.00 20.00     0.039 C 
HETATM    8  C8  UNL     1     -32.171   4.911   1.565  1.00 20.00     0.039 C 
HETATM    9  C9  UNL     1     -33.602   5.125   2.080  1.00 20.00     0.042 C 
HETATM   10  C10 UNL     1     -33.923   6.627   1.867  1.00 20.00     0.042 C 
HETATM   11  N11 UNL     1     -33.238   2.773   4.842  1.00 20.00    -0.192 NA
HETATM   12  N12 UNL     1     -32.135   9.748   1.274  1.00 20.00    -0.192 NA
ENDROOT
TORSDOF 0
ENDMDL
MODEL 2
REMARK VINA RESULT:       0.9      0.042      4.775
REMARK  0 active torsions:
REMARK  status: ('A' for Active; 'I' for Inactive)
ROOT
HETATM    1  C1  UNL     1     -32.356   8.643   1.448  1.00 20.00     0.095 C 
HETATM    2  C2  UNL     1     -33.498   3.760   4.277  1.00 20.00     0.095 C 
HETATM    3  C3  UNL     1     -31.634   6.331   1.447  1.00 20.00    -0.007 C 
HETATM    4  C4  UNL     1     -34.343   6.026   4.151  1.00 20.00    -0.007 C 
HETATM    5  C5  UNL     1     -32.588   7.254   1.598  1.00 20.00     0.024 C 
HETATM    6  C6  UNL     1     -33.796   4.952   3.573  1.00 20.00     0.024 C 
HETATM    7  C7  UNL     1     -32.159   4.942   1.599  1.00 20.00     0.039 C 
HETATM    8  C8  UNL     1     -34.609   7.122   3.173  1.00 20.00     0.039 C 
HETATM    9  C9  UNL     1     -33.932   6.640   1.880  1.00 20.00     0.042 C 
HETATM   10  C10 UNL     1     -33.598   5.141   2.095  1.00 20.00     0.042 C 
HETATM   11  N11 UNL     1     -32.165   9.781   1.325  1.00 20.00    -0.192 NA
HETATM   12  N12 UNL     1     -33.254   2.783   4.854  1.00 20.00    -0.192 NA
ENDROOT
TORSDOF 0
ENDMDL
MODEL 3
REMARK VINA RESULT:       1.6      1.463      4.628
REMARK  0 active torsions:
REMARK  status: ('A' for Active; 'I' for Inactive)
ROOT
HETATM    1  C1  UNL     1     -32.521   9.502   0.401  1.00 20.00     0.095 C 
HETATM    2  C2  UNL     1     -34.396   5.216   3.757  1.00 20.00     0.095 C 
HETATM    3  C3  UNL     1     -33.622   9.218   2.539  1.00 20.00    -0.007 C 
HETATM    4  C4  UNL     1     -33.136   5.501   1.709  1.00 20.00    -0.007 C 
HETATM    5  C5  UNL     1     -32.749   8.809   1.615  1.00 20.00     0.024 C 
HETATM    6  C6  UNL     1     -33.479   5.913   2.933  1.00 20.00     0.024 C 
HETATM    7  C7  UNL     1     -33.622   8.341   3.747  1.00 20.00     0.039 C 
HETATM    8  C8  UNL     1     -32.108   6.383   1.081  1.00 20.00     0.039 C 
HETATM    9  C9  UNL     1     -32.003   7.576   2.045  1.00 20.00     0.042 C 
HETATM   10  C10 UNL     1     -32.736   7.153   3.344  1.00 20.00     0.042 C 
HETATM   11  N11 UNL     1     -32.335  10.071  -0.593  1.00 20.00    -0.192 NA
HETATM   12  N12 UNL     1     -35.147   4.645   4.432  1.00 20.00    -0.192 NA
ENDROOT
TORSDOF 0
ENDMDL
MODEL 4
REMARK VINA RESULT:       1.6      1.463      2.618
REMARK  0 active torsions:
REMARK  status: ('A' for Active; 'I' for Inactive)
ROOT
HETATM    1  C1  UNL     1     -34.373   5.206   3.769  1.00 20.00     0.095 C 
HETATM    2  C2  UNL     1     -32.546   9.525   0.428  1.00 20.00     0.095 C 
HETATM    3  C3  UNL     1     -33.102   5.513   1.730  1.00 20.00    -0.007 C 
HETATM    4  C4  UNL     1     -33.659   9.221   2.557  1.00 20.00    -0.007 C 
HETATM    5  C5  UNL     1     -33.462   5.918   2.952  1.00 20.00     0.024 C 
HETATM    6  C6  UNL     1     -32.771   8.827   1.640  1.00 20.00     0.024 C 
HETATM    7  C7  UNL     1     -32.084   6.413   1.112  1.00 20.00     0.039 C 
HETATM    8  C8  UNL     1     -33.653   8.344   3.765  1.00 20.00     0.039 C 
HETATM    9  C9  UNL     1     -32.742   7.171   3.369  1.00 20.00     0.042 C 
HETATM   10  C10 UNL     1     -32.008   7.606   2.075  1.00 20.00     0.042 C 
HETATM   11  N11 UNL     1     -35.120   4.622   4.438  1.00 20.00    -0.192 NA
HETATM   12  N12 UNL     1     -32.361  10.097  -0.564  1.00 20.00    -0.192 NA
ENDROOT
TORSDOF 0
ENDMDL
MODEL 5
REMARK VINA RESULT:       3.4      2.443      3.706
REMARK  0 active torsions:
REMARK  status: ('A' for Active; 'I' for Inactive)
ROOT
HETATM    1  C1  UNL     1     -33.174   8.328   4.960  1.00 20.00     0.095 C 
HETATM    2  C2  UNL     1     -31.922   4.626   0.732  1.00 20.00     0.095 C 
HETATM    3  C3  UNL     1     -31.935   8.299   2.880  1.00 20.00    -0.007 C 
HETATM    4  C4  UNL     1     -33.305   4.715   2.717  1.00 20.00    -0.007 C 
HETATM    5  C5  UNL     1     -32.971   7.904   3.624  1.00 20.00     0.024 C 
HETATM    6  C6  UNL     1     -32.749   5.309   1.657  1.00 20.00     0.024 C 
HETATM    7  C7  UNL     1     -31.995   7.754   1.491  1.00 20.00     0.039 C 
HETATM    8  C8  UNL     1     -34.179   5.645   3.494  1.00 20.00     0.039 C 
HETATM    9  C9  UNL     1     -33.916   7.019   2.859  1.00 20.00     0.042 C 
HETATM   10  C10 UNL     1     -33.156   6.751   1.534  1.00 20.00     0.042 C 
HETATM   11  N11 UNL     1     -33.338   8.675   6.055  1.00 20.00    -0.192 NA
HETATM   12  N12 UNL     1     -31.244   4.068  -0.026  1.00 20.00    -0.192 NA
ENDROOT
TORSDOF 0
ENDMDL
MODEL 6
REMARK VINA RESULT:       3.4      2.444      3.156
REMARK  0 active torsions:
REMARK  status: ('A' for Active; 'I' for Inactive)
ROOT
HETATM    1  C1  UNL     1     -31.917   4.630   0.731  1.00 20.00     0.095 C 
HETATM    2  C2  UNL     1     -33.172   8.331   4.959  1.00 20.00     0.095 C 
HETATM    3  C3  UNL     1     -33.313   4.724   2.709  1.00 20.00    -0.007 C 
HETATM    4  C4  UNL     1     -31.919   8.298   2.887  1.00 20.00    -0.007 C 
HETATM    5  C5  UNL     1     -32.746   5.315   1.653  1.00 20.00     0.024 C 
HETATM    6  C6  UNL     1     -32.964   7.908   3.624  1.00 20.00     0.024 C 
HETATM    7  C7  UNL     1     -34.185   5.657   3.480  1.00 20.00     0.039 C 
HETATM    8  C8  UNL     1     -31.973   7.756   1.497  1.00 20.00     0.039 C 
HETATM    9  C9  UNL     1     -33.143   6.761   1.530  1.00 20.00     0.042 C 
HETATM   10  C10 UNL     1     -33.909   7.031   2.851  1.00 20.00     0.042 C 
HETATM   11  N11 UNL     1     -31.237   4.068  -0.022  1.00 20.00    -0.192 NA
HETATM   12  N12 UNL     1     -33.342   8.678   6.053  1.00 20.00    -0.192 NA
ENDROOT
TORSDOF 0
ENDMDL
