MODEL 1
REMARK VINA RESULT:      -0.2      0.000      0.000
REMARK  2 active torsions:
REMARK  status: ('A' for Active; 'I' for Inactive)
REMARK    1  A    between atoms: C5_5  and  O12_12 
REMARK    2  A    between atoms: C11_11  and  O12_12 
ROOT
HETATM    1  C1  UNL     1     -33.263   7.849   3.614  1.00 20.00     0.036 C 
HETATM    2  C2  UNL     1     -33.596   5.561   2.599  1.00 20.00     0.013 C 
HETATM    3  C3  UNL     1     -31.666   7.018   1.828  1.00 20.00     0.040 C 
HETATM    4  C4  UNL     1     -34.296   6.798   3.183  1.00 20.00    -0.015 C 
HETATM    5  C5  UNL     1     -32.322   8.240   2.476  1.00 20.00     0.122 C 
HETATM    6  C6  UNL     1     -32.645   5.886   1.425  1.00 20.00    -0.045 C 
HETATM    7  C7  UNL     1     -35.179   6.401   4.368  1.00 20.00     0.010 C 
HETATM    8  C8  UNL     1     -31.822   4.624   1.089  1.00 20.00     0.015 C 
HETATM    9  C9  UNL     1     -33.449   6.258   0.163  1.00 20.00     0.015 C 
ENDROOT
BRANCH   5  10
HETATM   10  O12 UNL     1     -33.023   8.989   1.491  1.00 20.00    -0.386 OA
BRANCH  10  11
HETATM   11  C11 UNL     1     -32.131   9.719   0.659  1.00 20.00     0.163 C 
HETATM   12  C10 UNL     1     -32.804   9.987  -0.670  1.00 20.00     0.033 C 
ENDBRANCH  10  11
ENDBRANCH   5  10
TORSDOF 2
ENDMDL
MODEL 2
REMARK VINA RESULT:       1.7      1.972      4.162
REMARK  2 active torsions:
REMARK  status: ('A' for Active; 'I' for Inactive)
REMARK    1  A    between atoms: C5_5  and  O12_12 
REMARK    2  A    between atoms: C11_11  and  O12_12 
ROOT
HETATM    1  C1  UNL     1     -34.364   6.958   4.022  1.00 20.00     0.036 C 
HETATM    2  C2  UNL     1     -32.520   8.389   3.056  1.00 20.00     0.013 C 
HETATM    3  C3  UNL     1     -33.735   6.721   1.576  1.00 20.00     0.040 C 
HETATM    4  C4  UNL     1     -33.019   7.645   4.305  1.00 20.00    -0.015 C 
HETATM    5  C5  UNL     1     -34.298   6.023   2.817  1.00 20.00     0.122 C 
HETATM    6  C6  UNL     1     -32.408   7.491   1.804  1.00 20.00    -0.045 C 
HETATM    7  C7  UNL     1     -33.151   8.610   5.484  1.00 20.00     0.010 C 
HETATM    8  C8  UNL     1     -32.143   8.383   0.574  1.00 20.00     0.015 C 
HETATM    9  C9  UNL     1     -31.212   6.526   1.936  1.00 20.00     0.015 C 
ENDROOT
BRANCH   5  10
HETATM   10  O12 UNL     1     -33.509   4.878   3.124  1.00 20.00    -0.386 OA
BRANCH  10  11
HETATM   11  C11 UNL     1     -34.108   4.094   4.147  1.00 20.00     0.163 C 
HETATM   12  C10 UNL     1     -33.123   3.037   4.598  1.00 20.00     0.033 C 
ENDBRANCH  10  11
ENDBRANCH   5  10
TORSDOF 2
ENDMDL
MODEL 3
REMARK VINA RESULT:       2.4      1.636      3.290
REMARK  2 active torsions:
REMARK  status: ('A' for Active; 'I' for Inactive)
REMARK    1  A    between atoms: C5_5  and  O12_12 
REMARK    2  A    between atoms: C11_11  and  O12_12 
ROOT
HETATM    1  C1  UNL     1     -32.816   4.438   2.453  1.00 20.00     0.036 C 
HETATM    2  C2  UNL     1     -34.647   5.053   4.081  1.00 20.00     0.013 C 
HETATM    3  C3  UNL     1     -34.315   6.426   1.972  1.00 20.00     0.040 C 
HETATM    4  C4  UNL     1     -33.228   4.482   3.932  1.00 20.00    -0.015 C 
HETATM    5  C5  UNL     1     -32.931   5.802   1.776  1.00 20.00     0.122 C 
HETATM    6  C6  UNL     1     -34.824   6.446   3.436  1.00 20.00    -0.045 C 
HETATM    7  C7  UNL     1     -33.148   3.084   4.550  1.00 20.00     0.010 C 
HETATM    8  C8  UNL     1     -36.325   6.802   3.427  1.00 20.00     0.015 C 
HETATM    9  C9  UNL     1     -34.102   7.524   4.269  1.00 20.00     0.015 C 
ENDROOT
BRANCH   5  10
HETATM   10  O12 UNL     1     -31.931   6.684   2.273  1.00 20.00    -0.386 OA
BRANCH  10  11
HETATM   11  C11 UNL     1     -31.436   7.538   1.250  1.00 20.00     0.163 C 
HETATM   12  C10 UNL     1     -32.177   8.857   1.307  1.00 20.00     0.033 C 
ENDBRANCH  10  11
ENDBRANCH   5  10
TORSDOF 2
ENDMDL
