MODEL 1
REMARK VINA RESULT:      -2.7      0.000      0.000
REMARK  4 active torsions:
REMARK  status: ('A' for Active; 'I' for Inactive)
REMARK    1  A    between atoms: C4_4  and  C5_5 
REMARK    2  A    between atoms: C5_5  and  C7_7 
REMARK    3  A    between atoms: C6_6  and  O8_8 
REMARK    4  A    between atoms: C7_7  and  O8_8 
ROOT
HETATM    1  C3  UNL     1     -32.624   5.868   1.438  1.00 20.00     0.039 C 
HETATM    2  C7  UNL     1     -32.960   7.217   2.058  1.00 20.00     0.117 C 
ENDROOT
BRANCH   2   3
HETATM    3  C5  UNL     1     -31.876   8.258   1.761  1.00 20.00     0.031 C 
BRANCH   3   4
HETATM    4  C4  UNL     1     -31.989   8.817   0.340  1.00 20.00    -0.002 C 
HETATM    5  C1  UNL     1     -32.570  10.222   0.341  1.00 20.00     0.005 C 
ENDBRANCH   3   4
ENDBRANCH   2   3
BRANCH   2   6
HETATM    6  O8  UNL     1     -33.105   7.050   3.466  1.00 20.00    -0.387 OA
BRANCH   6   7
HETATM    7  C6  UNL     1     -34.400   7.434   3.903  1.00 20.00     0.163 C 
HETATM    8  C2  UNL     1     -35.273   6.202   4.004  1.00 20.00     0.033 C 
ENDBRANCH   6   7
ENDBRANCH   2   6
TORSDOF 4
ENDMDL
MODEL 2
REMARK VINA RESULT:      -2.4      1.221      3.910
REMARK  4 active torsions:
REMARK  status: ('A' for Active; 'I' for Inactive)
REMARK    1  A    between atoms: C4_4  and  C5_5 
REMARK    2  A    between atoms: C5_5  and  C7_7 
REMARK    3  A    between atoms: C6_6  and  O8_8 
REMARK    4  A    between atoms: C7_7  and  O8_8 
ROOT
HETATM    1  C3  UNL     1     -32.607   5.856   1.391  1.00 20.00     0.039 C 
HETATM    2  C7  UNL     1     -32.346   7.178   2.099  1.00 20.00     0.117 C 
ENDROOT
BRANCH   2   3
HETATM    3  C5  UNL     1     -33.639   7.786   2.650  1.00 20.00     0.031 C 
BRANCH   3   4
HETATM    4  C4  UNL     1     -33.999   7.224   4.029  1.00 20.00    -0.002 C 
HETATM    5  C1  UNL     1     -35.217   6.317   3.958  1.00 20.00     0.005 C 
ENDBRANCH   3   4
ENDBRANCH   2   3
BRANCH   2   6
HETATM    6  O8  UNL     1     -31.735   8.078   1.178  1.00 20.00    -0.387 OA
BRANCH   6   7
HETATM    7  C6  UNL     1     -32.387   9.339   1.176  1.00 20.00     0.163 C 
HETATM    8  C2  UNL     1     -32.498   9.835  -0.249  1.00 20.00     0.033 C 
ENDBRANCH   6   7
ENDBRANCH   2   6
TORSDOF 4
ENDMDL
MODEL 3
REMARK VINA RESULT:      -2.4      1.802      4.747
REMARK  4 active torsions:
REMARK  status: ('A' for Active; 'I' for Inactive)
REMARK    1  A    between atoms: C4_4  and  C5_5 
REMARK    2  A    between atoms: C5_5  and  C7_7 
REMARK    3  A    between atoms: C6_6  and  O8_8 
REMARK    4  A    between atoms: C7_7  and  O8_8 
ROOT
HETATM    1  C3  UNL     1     -34.244   7.575   4.588  1.00 20.00     0.039 C 
HETATM    2  C7  UNL     1     -34.569   6.471   3.592  1.00 20.00     0.117 C 
ENDROOT
BRANCH   2   3
HETATM    3  C5  UNL     1     -34.756   5.121   4.291  1.00 20.00     0.031 C 
BRANCH   3   4
HETATM    4  C4  UNL     1     -33.821   4.046   3.729  1.00 20.00    -0.002 C 
HETATM    5  C1  UNL     1     -33.318   3.120   4.824  1.00 20.00     0.005 C 
ENDBRANCH   3   4
ENDBRANCH   2   3
BRANCH   2   6
HETATM    6  O8  UNL     1     -33.510   6.387   2.642  1.00 20.00    -0.387 OA
BRANCH   6   7
HETATM    7  C6  UNL     1     -32.721   7.568   2.641  1.00 20.00     0.163 C 
HETATM    8  C2  UNL     1     -31.850   7.577   1.403  1.00 20.00     0.033 C 
ENDBRANCH   6   7
ENDBRANCH   2   6
TORSDOF 4
ENDMDL
MODEL 4
REMARK VINA RESULT:      -2.3      2.001      2.643
REMARK  4 active torsions:
REMARK  status: ('A' for Active; 'I' for Inactive)
REMARK    1  A    between atoms: C4_4  and  C5_5 
REMARK    2  A    between atoms: C5_5  and  C7_7 
REMARK    3  A    between atoms: C6_6  and  O8_8 
REMARK    4  A    between atoms: C7_7  and  O8_8 
ROOT
HETATM    1  C3  UNL     1     -34.611   6.831   3.714  1.00 20.00     0.039 C 
HETATM    2  C7  UNL     1     -33.415   6.047   3.192  1.00 20.00     0.117 C 
ENDROOT
BRANCH   2   3
HETATM    3  C5  UNL     1     -32.970   6.551   1.816  1.00 20.00     0.031 C 
BRANCH   3   4
HETATM    4  C4  UNL     1     -31.955   7.694   1.922  1.00 20.00    -0.002 C 
HETATM    5  C1  UNL     1     -32.320   8.847   1.001  1.00 20.00     0.005 C 
ENDBRANCH   3   4
ENDBRANCH   2   3
BRANCH   2   6
HETATM    6  O8  UNL     1     -33.769   4.669   3.118  1.00 20.00    -0.387 OA
BRANCH   6   7
HETATM    7  C6  UNL     1     -34.088   4.146   4.399  1.00 20.00     0.163 C 
HETATM    8  C2  UNL     1     -33.214   2.941   4.671  1.00 20.00     0.033 C 
ENDBRANCH   6   7
ENDBRANCH   2   6
TORSDOF 4
ENDMDL
MODEL 5
REMARK VINA RESULT:      -2.2      1.874      4.662
REMARK  4 active torsions:
REMARK  status: ('A' for Active; 'I' for Inactive)
REMARK    1  A    between atoms: C4_4  and  C5_5 
REMARK    2  A    between atoms: C5_5  and  C7_7 
REMARK    3  A    between atoms: C6_6  and  O8_8 
REMARK    4  A    between atoms: C7_7  and  O8_8 
ROOT
HETATM    1  C3  UNL     1     -34.965   6.752   4.079  1.00 20.00     0.039 C 
HETATM    2  C7  UNL     1     -33.955   6.471   2.974  1.00 20.00     0.117 C 
ENDROOT
BRANCH   2   3
HETATM    3  C5  UNL     1     -33.300   5.097   3.148  1.00 20.00     0.031 C 
BRANCH   3   4
HETATM    4  C4  UNL     1     -34.081   4.205   4.117  1.00 20.00    -0.002 C 
HETATM    5  C1  UNL     1     -33.220   3.065   4.639  1.00 20.00     0.005 C 
ENDBRANCH   3   4
ENDBRANCH   2   3
BRANCH   2   6
HETATM    6  O8  UNL     1     -32.963   7.493   2.992  1.00 20.00    -0.387 OA
BRANCH   6   7
HETATM    7  C6  UNL     1     -32.130   7.426   1.844  1.00 20.00     0.163 C 
HETATM    8  C2  UNL     1     -32.175   8.757   1.124  1.00 20.00     0.033 C 
ENDBRANCH   6   7
ENDBRANCH   2   6
TORSDOF 4
ENDMDL
MODEL 6
REMARK VINA RESULT:      -1.7      1.755      2.834
REMARK  4 active torsions:
REMARK  status: ('A' for Active; 'I' for Inactive)
REMARK    1  A    between atoms: C4_4  and  C5_5 
REMARK    2  A    between atoms: C5_5  and  C7_7 
REMARK    3  A    between atoms: C6_6  and  O8_8 
REMARK    4  A    between atoms: C7_7  and  O8_8 
ROOT
HETATM    1  C3  UNL     1     -33.575   7.993   4.834  1.00 20.00     0.039 C 
HETATM    2  C7  UNL     1     -33.724   7.011   3.680  1.00 20.00     0.117 C 
ENDROOT
BRANCH   2   3
HETATM    3  C5  UNL     1     -33.290   7.636   2.351  1.00 20.00     0.031 C 
BRANCH   3   4
HETATM    4  C4  UNL     1     -32.045   6.955   1.773  1.00 20.00    -0.002 C 
HETATM    5  C1  UNL     1     -32.375   5.582   1.209  1.00 20.00     0.005 C 
ENDBRANCH   3   4
ENDBRANCH   2   3
BRANCH   2   6
HETATM    6  O8  UNL     1     -35.086   6.597   3.605  1.00 20.00    -0.387 OA
BRANCH   6   7
HETATM    7  C6  UNL     1     -35.319   5.438   4.392  1.00 20.00     0.163 C 
HETATM    8  C2  UNL     1     -34.265   4.401   4.066  1.00 20.00     0.033 C 
ENDBRANCH   6   7
ENDBRANCH   2   6
TORSDOF 4
ENDMDL
MODEL 7
REMARK VINA RESULT:      -1.6      2.197      3.533
REMARK  4 active torsions:
REMARK  status: ('A' for Active; 'I' for Inactive)
REMARK    1  A    between atoms: C4_4  and  C5_5 
REMARK    2  A    between atoms: C5_5  and  C7_7 
REMARK    3  A    between atoms: C6_6  and  O8_8 
REMARK    4  A    between atoms: C7_7  and  O8_8 
ROOT
HETATM    1  C3  UNL     1     -32.946   6.422   1.833  1.00 20.00     0.039 C 
HETATM    2  C7  UNL     1     -33.891   5.622   2.719  1.00 20.00     0.117 C 
ENDROOT
BRANCH   2   3
HETATM    3  C5  UNL     1     -34.593   6.518   3.745  1.00 20.00     0.031 C 
BRANCH   3   4
HETATM    4  C4  UNL     1     -33.950   7.905   3.834  1.00 20.00    -0.002 C 
HETATM    5  C1  UNL     1     -33.236   8.102   5.162  1.00 20.00     0.005 C 
ENDBRANCH   3   4
ENDBRANCH   2   3
BRANCH   2   6
HETATM    6  O8  UNL     1     -33.144   4.608   3.385  1.00 20.00    -0.387 OA
BRANCH   6   7
HETATM    7  C6  UNL     1     -33.951   3.891   4.308  1.00 20.00     0.163 C 
HETATM    8  C2  UNL     1     -33.130   2.776   4.918  1.00 20.00     0.033 C 
ENDBRANCH   6   7
ENDBRANCH   2   6
TORSDOF 4
ENDMDL
MODEL 8
REMARK VINA RESULT:      -1.6      1.585      3.794
REMARK  4 active torsions:
REMARK  status: ('A' for Active; 'I' for Inactive)
REMARK    1  A    between atoms: C4_4  and  C5_5 
REMARK    2  A    between atoms: C5_5  and  C7_7 
REMARK    3  A    between atoms: C6_6  and  O8_8 
REMARK    4  A    between atoms: C7_7  and  O8_8 
ROOT
HETATM    1  C3  UNL     1     -33.895   4.075   3.784  1.00 20.00     0.039 C 
HETATM    2  C7  UNL     1     -33.699   5.542   3.425  1.00 20.00     0.117 C 
ENDROOT
BRANCH   2   3
HETATM    3  C5  UNL     1     -34.895   6.392   3.863  1.00 20.00     0.031 C 
BRANCH   3   4
HETATM    4  C4  UNL     1     -34.517   7.864   4.053  1.00 20.00    -0.002 C 
HETATM    5  C1  UNL     1     -33.305   8.013   4.959  1.00 20.00     0.005 C 
ENDBRANCH   3   4
ENDBRANCH   2   3
BRANCH   2   6
HETATM    6  O8  UNL     1     -33.512   5.646   2.017  1.00 20.00    -0.387 OA
BRANCH   6   7
HETATM    7  C6  UNL     1     -32.157   5.920   1.692  1.00 20.00     0.163 C 
HETATM    8  C2  UNL     1     -31.976   7.417   1.556  1.00 20.00     0.033 C 
ENDBRANCH   6   7
ENDBRANCH   2   6
TORSDOF 4
ENDMDL
MODEL 9
REMARK VINA RESULT:      -1.6      1.648      1.992
REMARK  4 active torsions:
REMARK  status: ('A' for Active; 'I' for Inactive)
REMARK    1  A    between atoms: C4_4  and  C5_5 
REMARK    2  A    between atoms: C5_5  and  C7_7 
REMARK    3  A    between atoms: C6_6  and  O8_8 
REMARK    4  A    between atoms: C7_7  and  O8_8 
ROOT
HETATM    1  C3  UNL     1     -32.611   5.467   1.471  1.00 20.00     0.039 C 
HETATM    2  C7  UNL     1     -33.491   6.210   2.466  1.00 20.00     0.117 C 
ENDROOT
BRANCH   2   3
HETATM    3  C5  UNL     1     -33.064   7.674   2.610  1.00 20.00     0.031 C 
BRANCH   3   4
HETATM    4  C4  UNL     1     -31.909   8.032   1.670  1.00 20.00    -0.002 C 
HETATM    5  C1  UNL     1     -32.257   9.223   0.791  1.00 20.00     0.005 C 
ENDBRANCH   3   4
ENDBRANCH   2   3
BRANCH   2   6
HETATM    6  O8  UNL     1     -33.411   5.551   3.727  1.00 20.00    -0.387 OA
BRANCH   6   7
HETATM    7  C6  UNL     1     -34.190   4.363   3.740  1.00 20.00     0.163 C 
HETATM    8  C2  UNL     1     -33.448   3.296   4.516  1.00 20.00     0.033 C 
ENDBRANCH   6   7
ENDBRANCH   2   6
TORSDOF 4
ENDMDL
