MODEL 1
REMARK VINA RESULT:      -1.2      0.000      0.000
REMARK  4 active torsions:
REMARK  status: ('A' for Active; 'I' for Inactive)
REMARK    1  A    between atoms: C1_1  and  C3_3 
REMARK    2  A    between atoms: C1_1  and  S4_4 
REMARK    3  A    between atoms: C2_2  and  C3_3 
REMARK    4  A    between atoms: C3_3  and  S5_5 
ROOT
HETATM    1  C3  UNL     1     -33.074   7.335   2.097  1.00 20.00     0.067 C 
ENDROOT
BRANCH   1   2
HETATM    2  C1  UNL     1     -33.535   7.355   3.566  1.00 20.00     0.086 C 
BRANCH   2   3
HETATM    3  S4  UNL     1     -34.997   6.337   3.946  1.00 20.00    -0.181 SA
HETATM    4  H12 UNL     1     -35.822   6.964   3.098  1.00 20.00     0.101 HD
ENDBRANCH   2   3
ENDBRANCH   1   2
BRANCH   1   5
HETATM    5  C2  UNL     1     -31.879   8.231   1.754  1.00 20.00     0.130 C 
HETATM    6 CL6  UNL     1     -32.306   9.466   0.542  1.00 20.00    -0.129 Cl
ENDBRANCH   1   5
BRANCH   1   7
HETATM    7  S5  UNL     1     -32.686   5.624   1.564  1.00 20.00    -0.176 SA
HETATM    8  H13 UNL     1     -31.428   5.892   1.193  1.00 20.00     0.102 HD
ENDBRANCH   1   7
TORSDOF 4
ENDMDL
MODEL 2
REMARK VINA RESULT:      -0.9      3.247      4.177
REMARK  4 active torsions:
REMARK  status: ('A' for Active; 'I' for Inactive)
REMARK    1  A    between atoms: C1_1  and  C3_3 
REMARK    2  A    between atoms: C1_1  and  S4_4 
REMARK    3  A    between atoms: C2_2  and  C3_3 
REMARK    4  A    between atoms: C3_3  and  S5_5 
ROOT
HETATM    1  C3  UNL     1     -34.347   6.562   3.359  1.00 20.00     0.067 C 
ENDROOT
BRANCH   1   2
HETATM    2  C1  UNL     1     -33.219   6.172   2.387  1.00 20.00     0.086 C 
BRANCH   2   3
HETATM    3  S4  UNL     1     -32.131   7.534   1.854  1.00 20.00    -0.181 SA
HETATM    4  H12 UNL     1     -33.118   8.405   1.607  1.00 20.00     0.101 HD
ENDBRANCH   2   3
ENDBRANCH   1   2
BRANCH   1   5
HETATM    5  C2  UNL     1     -34.942   5.422   4.192  1.00 20.00     0.130 C 
HETATM    6 CL6  UNL     1     -33.927   3.957   4.125  1.00 20.00    -0.129 Cl
ENDBRANCH   1   5
BRANCH   1   7
HETATM    7  S5  UNL     1     -33.789   7.884   4.501  1.00 20.00    -0.176 SA
HETATM    8  H13 UNL     1     -33.126   8.579   3.569  1.00 20.00     0.102 HD
ENDBRANCH   1   7
TORSDOF 4
ENDMDL
MODEL 3
REMARK VINA RESULT:      -0.7      2.630      3.330
REMARK  4 active torsions:
REMARK  status: ('A' for Active; 'I' for Inactive)
REMARK    1  A    between atoms: C1_1  and  C3_3 
REMARK    2  A    between atoms: C1_1  and  S4_4 
REMARK    3  A    between atoms: C2_2  and  C3_3 
REMARK    4  A    between atoms: C3_3  and  S5_5 
ROOT
HETATM    1  C3  UNL     1     -31.937   7.598   1.887  1.00 20.00     0.067 C 
ENDROOT
BRANCH   1   2
HETATM    2  C1  UNL     1     -31.671   8.365   0.579  1.00 20.00     0.086 C 
BRANCH   2   3
HETATM    3  S4  UNL     1     -32.548   9.953   0.403  1.00 20.00    -0.181 SA
HETATM    4  H12 UNL     1     -31.463  10.671   0.086  1.00 20.00     0.101 HD
ENDBRANCH   2   3
ENDBRANCH   1   2
BRANCH   1   5
HETATM    5  C2  UNL     1     -32.812   8.314   2.921  1.00 20.00     0.130 C 
HETATM    6 CL6  UNL     1     -33.991   7.206   3.668  1.00 20.00    -0.129 Cl
ENDBRANCH   1   5
BRANCH   1   7
HETATM    7  S5  UNL     1     -32.681   5.959   1.535  1.00 20.00    -0.176 SA
HETATM    8  H13 UNL     1     -33.523   5.980   2.574  1.00 20.00     0.102 HD
ENDBRANCH   1   7
TORSDOF 4
ENDMDL
MODEL 4
REMARK VINA RESULT:      -0.6      2.308      2.456
REMARK  4 active torsions:
REMARK  status: ('A' for Active; 'I' for Inactive)
REMARK    1  A    between atoms: C1_1  and  C3_3 
REMARK    2  A    between atoms: C1_1  and  S4_4 
REMARK    3  A    between atoms: C2_2  and  C3_3 
REMARK    4  A    between atoms: C3_3  and  S5_5 
ROOT
HETATM    1  C3  UNL     1     -32.731   6.982   2.646  1.00 20.00     0.067 C 
ENDROOT
BRANCH   1   2
HETATM    2  C1  UNL     1     -33.820   7.474   3.617  1.00 20.00     0.086 C 
BRANCH   2   3
HETATM    3  S4  UNL     1     -35.137   6.274   3.999  1.00 20.00    -0.181 SA
HETATM    4  H12 UNL     1     -35.721   6.326   2.795  1.00 20.00     0.101 HD
ENDBRANCH   2   3
ENDBRANCH   1   2
BRANCH   1   5
HETATM    5  C2  UNL     1     -33.133   5.840   1.708  1.00 20.00     0.130 C 
HETATM    6 CL6  UNL     1     -31.708   5.023   1.015  1.00 20.00    -0.129 Cl
ENDBRANCH   1   5
BRANCH   1   7
HETATM    7  S5  UNL     1     -32.095   8.370   1.630  1.00 20.00    -0.176 SA
HETATM    8  H13 UNL     1     -30.804   8.050   1.779  1.00 20.00     0.102 HD
ENDBRANCH   1   7
TORSDOF 4
ENDMDL
MODEL 5
REMARK VINA RESULT:      -0.6      2.374      2.891
REMARK  4 active torsions:
REMARK  status: ('A' for Active; 'I' for Inactive)
REMARK    1  A    between atoms: C1_1  and  C3_3 
REMARK    2  A    between atoms: C1_1  and  S4_4 
REMARK    3  A    between atoms: C2_2  and  C3_3 
REMARK    4  A    between atoms: C3_3  and  S5_5 
ROOT
HETATM    1  C3  UNL     1     -33.442   5.737   3.396  1.00 20.00     0.067 C 
ENDROOT
BRANCH   1   2
HETATM    2  C1  UNL     1     -34.214   4.448   3.733  1.00 20.00     0.086 C 
BRANCH   2   3
HETATM    3  S4  UNL     1     -33.255   3.157   4.590  1.00 20.00    -0.181 SA
HETATM    4  H12 UNL     1     -33.423   3.658   5.820  1.00 20.00     0.101 HD
ENDBRANCH   2   3
ENDBRANCH   1   2
BRANCH   1   5
HETATM    5  C2  UNL     1     -33.047   5.920   1.927  1.00 20.00     0.130 C 
HETATM    6 CL6  UNL     1     -32.122   7.424   1.675  1.00 20.00    -0.129 Cl
ENDBRANCH   1   5
BRANCH   1   7
HETATM    7  S5  UNL     1     -34.388   7.215   3.930  1.00 20.00    -0.176 SA
HETATM    8  H13 UNL     1     -35.315   7.122   2.969  1.00 20.00     0.102 HD
ENDBRANCH   1   7
TORSDOF 4
ENDMDL
MODEL 6
REMARK VINA RESULT:      -0.6      2.538      3.419
REMARK  4 active torsions:
REMARK  status: ('A' for Active; 'I' for Inactive)
REMARK    1  A    between atoms: C1_1  and  C3_3 
REMARK    2  A    between atoms: C1_1  and  S4_4 
REMARK    3  A    between atoms: C2_2  and  C3_3 
REMARK    4  A    between atoms: C3_3  and  S5_5 
ROOT
HETATM    1  C3  UNL     1     -33.261   7.193   2.180  1.00 20.00     0.067 C 
ENDROOT
BRANCH   1   2
HETATM    2  C1  UNL     1     -32.011   8.041   1.878  1.00 20.00     0.086 C 
BRANCH   2   3
HETATM    3  S4  UNL     1     -32.226   9.340   0.618  1.00 20.00    -0.181 SA
HETATM    4  H12 UNL     1     -32.565  10.308   1.480  1.00 20.00     0.101 HD
ENDBRANCH   2   3
ENDBRANCH   1   2
BRANCH   1   5
HETATM    5  C2  UNL     1     -33.103   5.679   2.016  1.00 20.00     0.130 C 
HETATM    6 CL6  UNL     1     -31.707   5.269   0.985  1.00 20.00    -0.129 Cl
ENDBRANCH   1   5
BRANCH   1   7
HETATM    7  S5  UNL     1     -33.877   7.531   3.874  1.00 20.00    -0.176 SA
HETATM    8  H13 UNL     1     -34.264   8.786   3.617  1.00 20.00     0.102 HD
ENDBRANCH   1   7
TORSDOF 4
ENDMDL
MODEL 7
REMARK VINA RESULT:      -0.3      2.801      3.504
REMARK  4 active torsions:
REMARK  status: ('A' for Active; 'I' for Inactive)
REMARK    1  A    between atoms: C1_1  and  C3_3 
REMARK    2  A    between atoms: C1_1  and  S4_4 
REMARK    3  A    between atoms: C2_2  and  C3_3 
REMARK    4  A    between atoms: C3_3  and  S5_5 
ROOT
HETATM    1  C3  UNL     1     -32.995   7.097   3.185  1.00 20.00     0.067 C 
ENDROOT
BRANCH   1   2
HETATM    2  C1  UNL     1     -32.175   8.332   2.766  1.00 20.00     0.086 C 
BRANCH   2   3
HETATM    3  S4  UNL     1     -32.009   8.594   0.970  1.00 20.00    -0.181 SA
HETATM    4  H12 UNL     1     -33.193   9.199   0.812  1.00 20.00     0.101 HD
ENDBRANCH   2   3
ENDBRANCH   1   2
BRANCH   1   5
HETATM    5  C2  UNL     1     -34.387   7.377   3.760  1.00 20.00     0.130 C 
HETATM    6 CL6  UNL     1     -35.254   5.870   4.153  1.00 20.00    -0.129 Cl
ENDBRANCH   1   5
BRANCH   1   7
HETATM    7  S5  UNL     1     -33.172   5.931   1.781  1.00 20.00    -0.176 SA
HETATM    8  H13 UNL     1     -34.506   5.857   1.850  1.00 20.00     0.102 HD
ENDBRANCH   1   7
TORSDOF 4
ENDMDL
MODEL 8
REMARK VINA RESULT:      -0.3      2.650      3.401
REMARK  4 active torsions:
REMARK  status: ('A' for Active; 'I' for Inactive)
REMARK    1  A    between atoms: C1_1  and  C3_3 
REMARK    2  A    between atoms: C1_1  and  S4_4 
REMARK    3  A    between atoms: C2_2  and  C3_3 
REMARK    4  A    between atoms: C3_3  and  S5_5 
ROOT
HETATM    1  C3  UNL     1     -33.461   5.853   3.380  1.00 20.00     0.067 C 
ENDROOT
BRANCH   1   2
HETATM    2  C1  UNL     1     -32.991   6.018   1.924  1.00 20.00     0.086 C 
BRANCH   2   3
HETATM    3  S4  UNL     1     -32.034   7.528   1.571  1.00 20.00    -0.181 SA
HETATM    4  H12 UNL     1     -30.962   6.895   1.077  1.00 20.00     0.101 HD
ENDBRANCH   2   3
ENDBRANCH   1   2
BRANCH   1   5
HETATM    5  C2  UNL     1     -34.615   6.759   3.822  1.00 20.00     0.130 C 
HETATM    6 CL6  UNL     1     -34.031   8.163   4.753  1.00 20.00    -0.129 Cl
ENDBRANCH   1   5
BRANCH   1   7
HETATM    7  S5  UNL     1     -33.932   4.112   3.714  1.00 20.00    -0.176 SA
HETATM    8  H13 UNL     1     -34.851   4.045   2.744  1.00 20.00     0.102 HD
ENDBRANCH   1   7
TORSDOF 4
ENDMDL
MODEL 9
REMARK VINA RESULT:      -0.3      3.023      3.545
REMARK  4 active torsions:
REMARK  status: ('A' for Active; 'I' for Inactive)
REMARK    1  A    between atoms: C1_1  and  C3_3 
REMARK    2  A    between atoms: C1_1  and  S4_4 
REMARK    3  A    between atoms: C2_2  and  C3_3 
REMARK    4  A    between atoms: C3_3  and  S5_5 
ROOT
HETATM    1  C3  UNL     1     -33.455   6.985   2.339  1.00 20.00     0.067 C 
ENDROOT
BRANCH   1   2
HETATM    2  C1  UNL     1     -33.138   5.497   2.104  1.00 20.00     0.086 C 
BRANCH   2   3
HETATM    3  S4  UNL     1     -31.888   5.150   0.823  1.00 20.00    -0.181 SA
HETATM    4  H12 UNL     1     -30.929   5.915   1.361  1.00 20.00     0.101 HD
ENDBRANCH   2   3
ENDBRANCH   1   2
BRANCH   1   5
HETATM    5  C2  UNL     1     -34.014   7.344   3.719  1.00 20.00     0.130 C 
HETATM    6 CL6  UNL     1     -35.359   6.270   4.185  1.00 20.00    -0.129 Cl
ENDBRANCH   1   5
BRANCH   1   7
HETATM    7  S5  UNL     1     -31.972   8.019   2.029  1.00 20.00    -0.176 SA
HETATM    8  H13 UNL     1     -32.228   8.897   3.005  1.00 20.00     0.102 HD
ENDBRANCH   1   7
TORSDOF 4
ENDMDL
