MODEL 1
REMARK VINA RESULT:      -1.5      0.000      0.000
REMARK  1 active torsions:
REMARK  status: ('A' for Active; 'I' for Inactive)
REMARK       I    between atoms: C1_1  and  N3_3 
REMARK    1  A    between atoms: C1_1  and  S5_5 
ROOT
HETATM    1  C1  UNL     1     -33.031   6.794   2.276  1.00 20.00     0.276 C 
HETATM    2  C2  UNL     1     -34.845   6.403   3.926  1.00 20.00     0.150 C 
HETATM    3  N3  UNL     1     -33.825   7.222   3.316  1.00 20.00    -0.356 N 
HETATM    4  O4  UNL     1     -33.052   5.706   1.720  1.00 20.00    -0.261 OA
HETATM    5  H9  UNL     1     -33.679   8.158   3.680  1.00 20.00     0.162 HD
ENDROOT
BRANCH   1   6
HETATM    6  S5  UNL     1     -31.907   8.055   1.796  1.00 20.00    -0.082 SA
HETATM    7  H10 UNL     1     -30.799   7.478   2.286  1.00 20.00     0.112 HD
ENDBRANCH   1   6
TORSDOF 1
ENDMDL
MODEL 2
REMARK VINA RESULT:      -1.2      2.748      3.164
REMARK  1 active torsions:
REMARK  status: ('A' for Active; 'I' for Inactive)
REMARK       I    between atoms: C1_1  and  N3_3 
REMARK    1  A    between atoms: C1_1  and  S5_5 
ROOT
HETATM    1  C1  UNL     1     -33.808   7.288   3.717  1.00 20.00     0.276 C 
HETATM    2  C2  UNL     1     -32.103   7.891   2.015  1.00 20.00     0.150 C 
HETATM    3  N3  UNL     1     -33.230   7.117   2.480  1.00 20.00    -0.356 N 
HETATM    4  O4  UNL     1     -33.485   8.082   4.589  1.00 20.00    -0.261 OA
HETATM    5  H9  UNL     1     -33.608   6.403   1.865  1.00 20.00     0.162 HD
ENDROOT
BRANCH   1   6
HETATM    6  S5  UNL     1     -35.148   6.174   3.934  1.00 20.00    -0.082 SA
HETATM    7  H10 UNL     1     -34.772   5.285   3.003  1.00 20.00     0.112 HD
ENDBRANCH   1   6
TORSDOF 1
ENDMDL
MODEL 3
REMARK VINA RESULT:      -1.2      2.017      2.613
REMARK  1 active torsions:
REMARK  status: ('A' for Active; 'I' for Inactive)
REMARK       I    between atoms: C1_1  and  N3_3 
REMARK    1  A    between atoms: C1_1  and  S5_5 
ROOT
HETATM    1  C1  UNL     1     -33.406   6.525   2.615  1.00 20.00     0.276 C 
HETATM    2  C2  UNL     1     -31.759   8.122   1.664  1.00 20.00     0.150 C 
HETATM    3  N3  UNL     1     -32.821   7.770   2.577  1.00 20.00    -0.356 N 
HETATM    4  O4  UNL     1     -33.141   5.554   1.921  1.00 20.00    -0.261 OA
HETATM    5  H9  UNL     1     -33.160   8.482   3.216  1.00 20.00     0.162 HD
ENDROOT
BRANCH   1   6
HETATM    6  S5  UNL     1     -34.658   6.466   3.845  1.00 20.00    -0.082 SA
HETATM    7  H10 UNL     1     -34.535   7.735   4.262  1.00 20.00     0.112 HD
ENDBRANCH   1   6
TORSDOF 1
ENDMDL
MODEL 4
REMARK VINA RESULT:      -1.0      1.908      1.908
REMARK  1 active torsions:
REMARK  status: ('A' for Active; 'I' for Inactive)
REMARK       I    between atoms: C1_1  and  N3_3 
REMARK    1  A    between atoms: C1_1  and  S5_5 
ROOT
HETATM    1  C1  UNL     1     -33.410   7.454   3.575  1.00 20.00     0.276 C 
HETATM    2  C2  UNL     1     -35.295   5.952   4.174  1.00 20.00     0.150 C 
HETATM    3  N3  UNL     1     -34.276   6.429   3.269  1.00 20.00    -0.356 N 
HETATM    4  O4  UNL     1     -33.356   8.102   4.610  1.00 20.00    -0.261 OA
HETATM    5  H9  UNL     1     -34.202   5.992   2.356  1.00 20.00     0.162 HD
ENDROOT
BRANCH   1   6
HETATM    6  S5  UNL     1     -32.314   7.759   2.238  1.00 20.00    -0.082 SA
HETATM    7  H10 UNL     1     -33.044   7.154   1.289  1.00 20.00     0.112 HD
ENDBRANCH   1   6
TORSDOF 1
ENDMDL
MODEL 5
REMARK VINA RESULT:      -0.8      2.889      3.434
REMARK  1 active torsions:
REMARK  status: ('A' for Active; 'I' for Inactive)
REMARK       I    between atoms: C1_1  and  N3_3 
REMARK    1  A    between atoms: C1_1  and  S5_5 
ROOT
HETATM    1  C1  UNL     1     -32.161   7.939   1.763  1.00 20.00     0.276 C 
HETATM    2  C2  UNL     1     -32.339  10.044   0.458  1.00 20.00     0.150 C 
HETATM    3  N3  UNL     1     -32.463   8.613   0.602  1.00 20.00    -0.356 N 
HETATM    4  O4  UNL     1     -31.757   8.410   2.816  1.00 20.00    -0.261 OA
HETATM    5  H9  UNL     1     -32.780   8.076  -0.199  1.00 20.00     0.162 HD
ENDROOT
BRANCH   1   6
HETATM    6  S5  UNL     1     -32.431   6.215   1.567  1.00 20.00    -0.082 SA
HETATM    7  H10 UNL     1     -31.178   5.895   1.214  1.00 20.00     0.112 HD
ENDBRANCH   1   6
TORSDOF 1
ENDMDL
MODEL 6
REMARK VINA RESULT:      -0.8      2.290      2.703
REMARK  1 active torsions:
REMARK  status: ('A' for Active; 'I' for Inactive)
REMARK       I    between atoms: C1_1  and  N3_3 
REMARK    1  A    between atoms: C1_1  and  S5_5 
ROOT
HETATM    1  C1  UNL     1     -33.007   7.184   2.603  1.00 20.00     0.276 C 
HETATM    2  C2  UNL     1     -32.267   5.417   1.023  1.00 20.00     0.150 C 
HETATM    3  N3  UNL     1     -33.092   5.905   2.103  1.00 20.00    -0.356 N 
HETATM    4  O4  UNL     1     -32.259   8.080   2.239  1.00 20.00    -0.261 OA
HETATM    5  H9  UNL     1     -33.761   5.268   2.522  1.00 20.00     0.162 HD
ENDROOT
BRANCH   1   6
HETATM    6  S5  UNL     1     -34.158   7.417   3.909  1.00 20.00    -0.082 SA
HETATM    7  H10 UNL     1     -34.370   6.119   4.171  1.00 20.00     0.112 HD
ENDBRANCH   1   6
TORSDOF 1
ENDMDL
MODEL 7
REMARK VINA RESULT:      -0.8      3.256      3.473
REMARK  1 active torsions:
REMARK  status: ('A' for Active; 'I' for Inactive)
REMARK       I    between atoms: C1_1  and  N3_3 
REMARK    1  A    between atoms: C1_1  and  S5_5 
ROOT
HETATM    1  C1  UNL     1     -34.629   5.100   4.206  1.00 20.00     0.276 C 
HETATM    2  C2  UNL     1     -33.427   2.944   4.478  1.00 20.00     0.150 C 
HETATM    3  N3  UNL     1     -33.514   4.314   4.027  1.00 20.00    -0.356 N 
HETATM    4  O4  UNL     1     -35.681   4.793   4.748  1.00 20.00    -0.261 OA
HETATM    5  H9  UNL     1     -32.715   4.712   3.545  1.00 20.00     0.162 HD
ENDROOT
BRANCH   1   6
HETATM    6  S5  UNL     1     -34.372   6.701   3.531  1.00 20.00    -0.082 SA
HETATM    7  H10 UNL     1     -33.032   6.664   3.533  1.00 20.00     0.112 HD
ENDBRANCH   1   6
TORSDOF 1
ENDMDL
MODEL 8
REMARK VINA RESULT:      -0.6      2.238      2.688
REMARK  1 active torsions:
REMARK  status: ('A' for Active; 'I' for Inactive)
REMARK       I    between atoms: C1_1  and  N3_3 
REMARK    1  A    between atoms: C1_1  and  S5_5 
ROOT
HETATM    1  C1  UNL     1     -33.762   5.975   3.226  1.00 20.00     0.276 C 
HETATM    2  C2  UNL     1     -32.443   5.442   1.191  1.00 20.00     0.150 C 
HETATM    3  N3  UNL     1     -33.071   6.368   2.104  1.00 20.00    -0.356 N 
HETATM    4  O4  UNL     1     -33.954   4.835   3.624  1.00 20.00    -0.261 OA
HETATM    5  H9  UNL     1     -33.007   7.360   1.900  1.00 20.00     0.162 HD
ENDROOT
BRANCH   1   6
HETATM    6  S5  UNL     1     -34.386   7.371   4.090  1.00 20.00    -0.082 SA
HETATM    7  H10 UNL     1     -34.405   8.212   3.046  1.00 20.00     0.112 HD
ENDBRANCH   1   6
TORSDOF 1
ENDMDL
MODEL 9
REMARK VINA RESULT:      -0.6      2.485      2.541
REMARK  1 active torsions:
REMARK  status: ('A' for Active; 'I' for Inactive)
REMARK       I    between atoms: C1_1  and  N3_3 
REMARK    1  A    between atoms: C1_1  and  S5_5 
ROOT
HETATM    1  C1  UNL     1     -32.151   8.132   1.682  1.00 20.00     0.276 C 
HETATM    2  C2  UNL     1     -32.664   5.707   1.830  1.00 20.00     0.150 C 
HETATM    3  N3  UNL     1     -32.603   6.962   1.118  1.00 20.00    -0.356 N 
HETATM    4  O4  UNL     1     -31.745   8.303   2.823  1.00 20.00    -0.261 OA
HETATM    5  H9  UNL     1     -32.920   6.982   0.154  1.00 20.00     0.162 HD
ENDROOT
BRANCH   1   6
HETATM    6  S5  UNL     1     -32.222   9.448   0.522  1.00 20.00    -0.082 SA
HETATM    7  H10 UNL     1     -32.925   8.797  -0.417  1.00 20.00     0.112 HD
ENDBRANCH   1   6
TORSDOF 1
ENDMDL
