MODEL 1
REMARK VINA RESULT:       0.8      0.000      0.000
REMARK  1 active torsions:
REMARK  status: ('A' for Active; 'I' for Inactive)
REMARK    1  A    between atoms: C7_7  and  O9_9 
ROOT
HETATM    1  C1  UNL     1     -31.876   6.172   1.583  1.00 20.00    -0.023 C 
HETATM    2  C2  UNL     1     -33.122   6.178   2.082  1.00 20.00    -0.023 C 
HETATM    3  C3  UNL     1     -31.221   8.144   2.908  1.00 20.00     0.012 C 
HETATM    4  C4  UNL     1     -32.664   8.151   3.485  1.00 20.00     0.012 C 
HETATM    5  C5  UNL     1     -31.434   7.612   1.472  1.00 20.00     0.037 C 
HETATM    6  C6  UNL     1     -33.506   7.623   2.301  1.00 20.00     0.037 C 
HETATM    7  C7  UNL     1     -32.784   8.236   1.094  1.00 20.00     0.136 C 
ENDROOT
BRANCH   7   8
HETATM    8  O9  UNL     1     -32.761   9.649   1.104  1.00 20.00    -0.389 OA
HETATM    9  C8  UNL     1     -32.527  10.184  -0.194  1.00 20.00     0.202 C 
ENDBRANCH   7   8
TORSDOF 1
ENDMDL
MODEL 2
REMARK VINA RESULT:       1.2      0.835      1.820
REMARK  1 active torsions:
REMARK  status: ('A' for Active; 'I' for Inactive)
REMARK    1  A    between atoms: C7_7  and  O9_9 
ROOT
HETATM    1  C1  UNL     1     -33.811   6.736   2.970  1.00 20.00    -0.023 C 
HETATM    2  C2  UNL     1     -33.109   7.632   3.681  1.00 20.00    -0.023 C 
HETATM    3  C3  UNL     1     -31.917   6.293   1.456  1.00 20.00     0.012 C 
HETATM    4  C4  UNL     1     -31.104   7.331   2.279  1.00 20.00     0.012 C 
HETATM    5  C5  UNL     1     -33.356   6.852   1.534  1.00 20.00     0.037 C 
HETATM    6  C6  UNL     1     -32.189   8.343   2.715  1.00 20.00     0.037 C 
HETATM    7  C7  UNL     1     -33.116   8.367   1.493  1.00 20.00     0.136 C 
ENDROOT
BRANCH   7   8
HETATM    8  O9  UNL     1     -32.479   8.793   0.306  1.00 20.00    -0.389 OA
HETATM    9  C8  UNL     1     -32.519  10.209   0.162  1.00 20.00     0.202 C 
ENDBRANCH   7   8
TORSDOF 1
ENDMDL
MODEL 3
REMARK VINA RESULT:       1.4      2.960      4.534
REMARK  1 active torsions:
REMARK  status: ('A' for Active; 'I' for Inactive)
REMARK    1  A    between atoms: C7_7  and  O9_9 
ROOT
HETATM    1  C1  UNL     1     -32.986   7.532   3.240  1.00 20.00    -0.023 C 
HETATM    2  C2  UNL     1     -33.828   7.828   4.243  1.00 20.00    -0.023 C 
HETATM    3  C3  UNL     1     -34.710   6.251   2.030  1.00 20.00     0.012 C 
HETATM    4  C4  UNL     1     -35.684   6.593   3.191  1.00 20.00     0.012 C 
HETATM    5  C5  UNL     1     -33.346   6.149   2.751  1.00 20.00     0.037 C 
HETATM    6  C6  UNL     1     -34.745   6.640   4.419  1.00 20.00     0.037 C 
HETATM    7  C7  UNL     1     -33.740   5.527   4.097  1.00 20.00     0.136 C 
ENDROOT
BRANCH   7   8
HETATM    8  O9  UNL     1     -34.330   4.250   3.964  1.00 20.00    -0.389 OA
HETATM    9  C8  UNL     1     -33.511   3.227   4.520  1.00 20.00     0.202 C 
ENDBRANCH   7   8
TORSDOF 1
ENDMDL
MODEL 4
REMARK VINA RESULT:       1.6      2.699      4.224
REMARK  1 active torsions:
REMARK  status: ('A' for Active; 'I' for Inactive)
REMARK    1  A    between atoms: C7_7  and  O9_9 
ROOT
HETATM    1  C1  UNL     1     -33.044   7.133   1.821  1.00 20.00    -0.023 C 
HETATM    2  C2  UNL     1     -32.535   7.629   2.960  1.00 20.00    -0.023 C 
HETATM    3  C3  UNL     1     -35.273   6.823   2.827  1.00 20.00     0.012 C 
HETATM    4  C4  UNL     1     -34.684   7.397   4.145  1.00 20.00     0.012 C 
HETATM    5  C5  UNL     1     -34.063   6.087   2.208  1.00 20.00     0.037 C 
HETATM    6  C6  UNL     1     -33.217   6.910   4.102  1.00 20.00     0.037 C 
HETATM    7  C7  UNL     1     -33.356   5.529   3.450  1.00 20.00     0.136 C 
ENDROOT
BRANCH   7   8
HETATM    8  O9  UNL     1     -34.161   4.632   4.188  1.00 20.00    -0.389 OA
HETATM    9  C8  UNL     1     -33.512   3.380   4.390  1.00 20.00     0.202 C 
ENDBRANCH   7   8
TORSDOF 1
ENDMDL
MODEL 5
REMARK VINA RESULT:       1.6      1.931      3.283
REMARK  1 active torsions:
REMARK  status: ('A' for Active; 'I' for Inactive)
REMARK    1  A    between atoms: C7_7  and  O9_9 
ROOT
HETATM    1  C1  UNL     1     -31.681   8.153   1.580  1.00 20.00    -0.023 C 
HETATM    2  C2  UNL     1     -32.742   8.152   0.757  1.00 20.00    -0.023 C 
HETATM    3  C3  UNL     1     -31.714   5.698   1.797  1.00 20.00     0.012 C 
HETATM    4  C4  UNL     1     -32.942   5.697   0.845  1.00 20.00     0.012 C 
HETATM    5  C5  UNL     1     -31.884   7.027   2.567  1.00 20.00     0.037 C 
HETATM    6  C6  UNL     1     -33.648   7.026   1.200  1.00 20.00     0.037 C 
HETATM    7  C7  UNL     1     -33.408   7.123   2.712  1.00 20.00     0.136 C 
ENDROOT
BRANCH   7   8
HETATM    8  O9  UNL     1     -33.962   6.048   3.445  1.00 20.00    -0.389 OA
HETATM    9  C8  UNL     1     -35.248   6.369   3.964  1.00 20.00     0.202 C 
ENDBRANCH   7   8
TORSDOF 1
ENDMDL
MODEL 6
REMARK VINA RESULT:       1.8      1.849      3.141
REMARK  1 active torsions:
REMARK  status: ('A' for Active; 'I' for Inactive)
REMARK    1  A    between atoms: C7_7  and  O9_9 
ROOT
HETATM    1  C1  UNL     1     -32.945   5.432   0.395  1.00 20.00    -0.023 C 
HETATM    2  C2  UNL     1     -31.816   5.212   1.087  1.00 20.00    -0.023 C 
HETATM    3  C3  UNL     1     -32.992   7.815   1.025  1.00 20.00     0.012 C 
HETATM    4  C4  UNL     1     -31.686   7.560   1.826  1.00 20.00     0.012 C 
HETATM    5  C5  UNL     1     -33.739   6.468   1.157  1.00 20.00     0.037 C 
HETATM    6  C6  UNL     1     -31.863   6.101   2.309  1.00 20.00     0.037 C 
HETATM    7  C7  UNL     1     -33.371   6.034   2.582  1.00 20.00     0.136 C 
ENDROOT
BRANCH   7   8
HETATM    8  O9  UNL     1     -33.810   6.947   3.568  1.00 20.00    -0.389 OA
HETATM    9  C8  UNL     1     -35.099   6.606   4.068  1.00 20.00     0.202 C 
ENDBRANCH   7   8
TORSDOF 1
ENDMDL
MODEL 7
REMARK VINA RESULT:       1.9      2.526      3.276
REMARK  1 active torsions:
REMARK  status: ('A' for Active; 'I' for Inactive)
REMARK    1  A    between atoms: C7_7  and  O9_9 
ROOT
HETATM    1  C1  UNL     1     -34.963   5.266   4.406  1.00 20.00    -0.023 C 
HETATM    2  C2  UNL     1     -35.798   6.151   3.839  1.00 20.00    -0.023 C 
HETATM    3  C3  UNL     1     -33.169   6.941   4.631  1.00 20.00     0.012 C 
HETATM    4  C4  UNL     1     -34.135   7.966   3.974  1.00 20.00     0.012 C 
HETATM    5  C5  UNL     1     -33.567   5.614   3.946  1.00 20.00     0.037 C 
HETATM    6  C6  UNL     1     -34.954   7.085   3.002  1.00 20.00     0.037 C 
HETATM    7  C7  UNL     1     -33.904   6.075   2.522  1.00 20.00     0.136 C 
ENDROOT
BRANCH   7   8
HETATM    8  O9  UNL     1     -32.806   6.669   1.859  1.00 20.00    -0.389 OA
HETATM    9  C8  UNL     1     -31.986   5.697   1.218  1.00 20.00     0.202 C 
ENDBRANCH   7   8
TORSDOF 1
ENDMDL
MODEL 8
REMARK VINA RESULT:       2.3      0.754      2.264
REMARK  1 active torsions:
REMARK  status: ('A' for Active; 'I' for Inactive)
REMARK    1  A    between atoms: C7_7  and  O9_9 
ROOT
HETATM    1  C1  UNL     1     -33.039   8.321   3.774  1.00 20.00    -0.023 C 
HETATM    2  C2  UNL     1     -31.709   8.417   3.621  1.00 20.00    -0.023 C 
HETATM    3  C3  UNL     1     -33.241   6.699   1.929  1.00 20.00     0.012 C 
HETATM    4  C4  UNL     1     -31.701   6.811   1.752  1.00 20.00     0.012 C 
HETATM    5  C5  UNL     1     -33.631   8.119   2.399  1.00 20.00     0.037 C 
HETATM    6  C6  UNL     1     -31.420   8.280   2.144  1.00 20.00     0.037 C 
HETATM    7  C7  UNL     1     -32.661   9.000   1.602  1.00 20.00     0.136 C 
ENDROOT
BRANCH   7   8
HETATM    8  O9  UNL     1     -32.824   8.875   0.203  1.00 20.00    -0.389 OA
HETATM    9  C8  UNL     1     -32.577  10.105  -0.471  1.00 20.00     0.202 C 
ENDBRANCH   7   8
TORSDOF 1
ENDMDL
MODEL 9
REMARK VINA RESULT:       2.3      2.530      3.701
REMARK  1 active torsions:
REMARK  status: ('A' for Active; 'I' for Inactive)
REMARK    1  A    between atoms: C7_7  and  O9_9 
ROOT
HETATM    1  C1  UNL     1     -34.196   8.362   4.225  1.00 20.00    -0.023 C 
HETATM    2  C2  UNL     1     -33.428   7.537   4.954  1.00 20.00    -0.023 C 
HETATM    3  C3  UNL     1     -35.591   6.506   3.398  1.00 20.00     0.012 C 
HETATM    4  C4  UNL     1     -34.702   5.550   4.242  1.00 20.00     0.012 C 
HETATM    5  C5  UNL     1     -34.596   7.611   2.977  1.00 20.00     0.037 C 
HETATM    6  C6  UNL     1     -33.318   6.238   4.188  1.00 20.00     0.037 C 
HETATM    7  C7  UNL     1     -33.301   6.814   2.766  1.00 20.00     0.136 C 
ENDROOT
BRANCH   7   8
HETATM    8  O9  UNL     1     -33.415   5.833   1.755  1.00 20.00    -0.389 OA
HETATM    9  C8  UNL     1     -32.147   5.489   1.206  1.00 20.00     0.202 C 
ENDBRANCH   7   8
TORSDOF 1
ENDMDL
