MODEL 1
REMARK VINA RESULT:      -1.5      0.000      0.000
REMARK  2 active torsions:
REMARK  status: ('A' for Active; 'I' for Inactive)
REMARK    1  A    between atoms: C2_2  and  C3_3 
REMARK    2  A    between atoms: C3_3  and  O10_10 
ROOT
HETATM    1  C1  UNL     1     -33.403   6.638   2.796  1.00 20.00    -0.074 C 
HETATM    2  C2  UNL     1     -32.476   6.779   1.844  1.00 20.00     0.085 C 
HETATM    3  C4  UNL     1     -34.094   5.347   3.131  1.00 20.00     0.034 C 
HETATM    4  C5  UNL     1     -33.897   7.749   3.679  1.00 20.00     0.034 C 
HETATM    5  C6  UNL     1     -35.238   5.793   4.034  1.00 20.00     0.005 C 
HETATM    6  C7  UNL     1     -34.678   7.010   4.758  1.00 20.00     0.005 C 
ENDROOT
BRANCH   2   7
HETATM    7  C3  UNL     1     -31.862   8.100   1.601  1.00 20.00     0.282 C 
HETATM    8  O9  UNL     1     -31.003   8.619   2.295  1.00 20.00    -0.260 OA
BRANCH   7   9
HETATM    9  O10 UNL     1     -32.425   8.615   0.475  1.00 20.00    -0.323 OA
HETATM   10  C8  UNL     1     -32.419  10.043   0.382  1.00 20.00     0.213 C 
ENDBRANCH   7   9
ENDBRANCH   2   7
TORSDOF 2
ENDMDL
MODEL 2
REMARK VINA RESULT:      -1.4      2.798      4.587
REMARK  2 active torsions:
REMARK  status: ('A' for Active; 'I' for Inactive)
REMARK    1  A    between atoms: C2_2  and  C3_3 
REMARK    2  A    between atoms: C3_3  and  O10_10 
ROOT
HETATM    1  C1  UNL     1     -33.137   6.225   2.459  1.00 20.00    -0.074 C 
HETATM    2  C2  UNL     1     -33.851   5.162   2.841  1.00 20.00     0.085 C 
HETATM    3  C4  UNL     1     -32.164   6.233   1.314  1.00 20.00     0.034 C 
HETATM    4  C5  UNL     1     -33.196   7.575   3.116  1.00 20.00     0.034 C 
HETATM    5  C6  UNL     1     -31.418   7.549   1.506  1.00 20.00     0.005 C 
HETATM    6  C7  UNL     1     -32.458   8.471   2.128  1.00 20.00     0.005 C 
ENDROOT
BRANCH   2   7
HETATM    7  C3  UNL     1     -34.781   5.269   3.984  1.00 20.00     0.282 C 
HETATM    8  O9  UNL     1     -35.549   6.196   4.188  1.00 20.00    -0.260 OA
BRANCH   7   9
HETATM    9  O10 UNL     1     -34.620   4.156   4.750  1.00 20.00    -0.323 OA
HETATM   10  C8  UNL     1     -33.525   3.311   4.384  1.00 20.00     0.213 C 
ENDBRANCH   7   9
ENDBRANCH   2   7
TORSDOF 2
ENDMDL
MODEL 3
REMARK VINA RESULT:      -1.3      2.808      4.752
REMARK  2 active torsions:
REMARK  status: ('A' for Active; 'I' for Inactive)
REMARK    1  A    between atoms: C2_2  and  C3_3 
REMARK    2  A    between atoms: C3_3  and  O10_10 
ROOT
HETATM    1  C1  UNL     1     -33.302   7.012   2.988  1.00 20.00    -0.074 C 
HETATM    2  C2  UNL     1     -34.099   6.701   4.015  1.00 20.00     0.085 C 
HETATM    3  C4  UNL     1     -32.661   8.354   2.780  1.00 20.00     0.034 C 
HETATM    4  C5  UNL     1     -32.926   6.066   1.883  1.00 20.00     0.034 C 
HETATM    5  C6  UNL     1     -32.139   8.268   1.350  1.00 20.00     0.005 C 
HETATM    6  C7  UNL     1     -31.790   6.796   1.177  1.00 20.00     0.005 C 
ENDROOT
BRANCH   2   7
HETATM    7  C3  UNL     1     -34.676   5.345   4.119  1.00 20.00     0.282 C 
HETATM    8  O9  UNL     1     -35.810   5.084   4.486  1.00 20.00    -0.260 OA
BRANCH   7   9
HETATM    9  O10 UNL     1     -33.717   4.460   3.733  1.00 20.00    -0.323 OA
HETATM   10  C8  UNL     1     -33.552   3.322   4.585  1.00 20.00     0.213 C 
ENDBRANCH   7   9
ENDBRANCH   2   7
TORSDOF 2
ENDMDL
MODEL 4
REMARK VINA RESULT:      -1.0      1.138      1.764
REMARK  2 active torsions:
REMARK  status: ('A' for Active; 'I' for Inactive)
REMARK    1  A    between atoms: C2_2  and  C3_3 
REMARK    2  A    between atoms: C3_3  and  O10_10 
ROOT
HETATM    1  C1  UNL     1     -34.014   6.483   3.217  1.00 20.00    -0.074 C 
HETATM    2  C2  UNL     1     -33.624   7.588   2.575  1.00 20.00     0.085 C 
HETATM    3  C4  UNL     1     -35.302   6.346   3.978  1.00 20.00     0.034 C 
HETATM    4  C5  UNL     1     -33.224   5.206   3.276  1.00 20.00     0.034 C 
HETATM    5  C6  UNL     1     -35.109   5.046   4.750  1.00 20.00     0.005 C 
HETATM    6  C7  UNL     1     -34.228   4.206   3.835  1.00 20.00     0.005 C 
ENDROOT
BRANCH   2   7
HETATM    7  C3  UNL     1     -32.334   7.610   1.857  1.00 20.00     0.282 C 
HETATM    8  O9  UNL     1     -31.716   6.626   1.482  1.00 20.00    -0.260 OA
BRANCH   7   9
HETATM    9  O10 UNL     1     -31.975   8.912   1.696  1.00 20.00    -0.323 OA
HETATM   10  C8  UNL     1     -32.323   9.494   0.435  1.00 20.00     0.213 C 
ENDBRANCH   7   9
ENDBRANCH   2   7
TORSDOF 2
ENDMDL
MODEL 5
REMARK VINA RESULT:      -0.4      1.019      1.672
REMARK  2 active torsions:
REMARK  status: ('A' for Active; 'I' for Inactive)
REMARK    1  A    between atoms: C2_2  and  C3_3 
REMARK    2  A    between atoms: C3_3  and  O10_10 
ROOT
HETATM    1  C1  UNL     1     -33.308   7.559   3.220  1.00 20.00    -0.074 C 
HETATM    2  C2  UNL     1     -32.328   8.211   2.585  1.00 20.00     0.085 C 
HETATM    3  C4  UNL     1     -33.967   8.029   4.485  1.00 20.00     0.034 C 
HETATM    4  C5  UNL     1     -33.899   6.255   2.764  1.00 20.00     0.034 C 
HETATM    5  C6  UNL     1     -34.758   6.807   4.935  1.00 20.00     0.005 C 
HETATM    6  C7  UNL     1     -35.146   6.123   3.631  1.00 20.00     0.005 C 
ENDROOT
BRANCH   2   7
HETATM    7  C3  UNL     1     -31.752   7.654   1.345  1.00 20.00     0.282 C 
HETATM    8  O9  UNL     1     -31.604   6.467   1.103  1.00 20.00    -0.260 OA
BRANCH   7   9
HETATM    9  O10 UNL     1     -31.425   8.700   0.538  1.00 20.00    -0.323 OA
HETATM   10  C8  UNL     1     -32.448   9.686   0.365  1.00 20.00     0.213 C 
ENDBRANCH   7   9
ENDBRANCH   2   7
TORSDOF 2
ENDMDL
MODEL 6
REMARK VINA RESULT:      -0.3      2.087      4.315
REMARK  2 active torsions:
REMARK  status: ('A' for Active; 'I' for Inactive)
REMARK    1  A    between atoms: C2_2  and  C3_3 
REMARK    2  A    between atoms: C3_3  and  O10_10 
ROOT
HETATM    1  C1  UNL     1     -32.583   7.811   1.989  1.00 20.00    -0.074 C 
HETATM    2  C2  UNL     1     -33.014   6.947   2.913  1.00 20.00     0.085 C 
HETATM    3  C4  UNL     1     -31.582   7.486   0.917  1.00 20.00     0.034 C 
HETATM    4  C5  UNL     1     -33.033   9.241   1.881  1.00 20.00     0.034 C 
HETATM    5  C6  UNL     1     -31.221   8.857   0.357  1.00 20.00     0.005 C 
HETATM    6  C7  UNL     1     -32.501   9.666   0.518  1.00 20.00     0.005 C 
ENDROOT
BRANCH   2   7
HETATM    7  C3  UNL     1     -34.003   7.377   3.922  1.00 20.00     0.282 C 
HETATM    8  O9  UNL     1     -33.804   8.196   4.805  1.00 20.00    -0.260 OA
BRANCH   7   9
HETATM    9  O10 UNL     1     -35.157   6.697   3.682  1.00 20.00    -0.323 OA
HETATM   10  C8  UNL     1     -35.261   5.419   4.317  1.00 20.00     0.213 C 
ENDBRANCH   7   9
ENDBRANCH   2   7
TORSDOF 2
ENDMDL
MODEL 7
REMARK VINA RESULT:      -0.2      1.753      4.378
REMARK  2 active torsions:
REMARK  status: ('A' for Active; 'I' for Inactive)
REMARK    1  A    between atoms: C2_2  and  C3_3 
REMARK    2  A    between atoms: C3_3  and  O10_10 
ROOT
HETATM    1  C1  UNL     1     -32.209   8.390   1.280  1.00 20.00    -0.074 C 
HETATM    2  C2  UNL     1     -32.231   7.334   2.099  1.00 20.00     0.085 C 
HETATM    3  C4  UNL     1     -31.348   8.502   0.054  1.00 20.00     0.034 C 
HETATM    4  C5  UNL     1     -33.043   9.627   1.460  1.00 20.00     0.034 C 
HETATM    5  C6  UNL     1     -31.471   9.975  -0.318  1.00 20.00     0.005 C 
HETATM    6  C7  UNL     1     -32.878  10.349   0.128  1.00 20.00     0.005 C 
ENDROOT
BRANCH   2   7
HETATM    7  C3  UNL     1     -33.120   7.331   3.278  1.00 20.00     0.282 C 
HETATM    8  O9  UNL     1     -32.997   8.048   4.259  1.00 20.00    -0.260 OA
BRANCH   7   9
HETATM    9  O10 UNL     1     -34.084   6.395   3.065  1.00 20.00    -0.323 OA
HETATM   10  C8  UNL     1     -35.136   6.363   4.035  1.00 20.00     0.213 C 
ENDBRANCH   7   9
ENDBRANCH   2   7
TORSDOF 2
ENDMDL
MODEL 8
REMARK VINA RESULT:       0.1      1.810      4.405
REMARK  2 active torsions:
REMARK  status: ('A' for Active; 'I' for Inactive)
REMARK    1  A    between atoms: C2_2  and  C3_3 
REMARK    2  A    between atoms: C3_3  and  O10_10 
ROOT
HETATM    1  C1  UNL     1     -32.446   8.658   1.318  1.00 20.00    -0.074 C 
HETATM    2  C2  UNL     1     -32.367   7.718   2.265  1.00 20.00     0.085 C 
HETATM    3  C4  UNL     1     -32.265  10.130   1.558  1.00 20.00     0.034 C 
HETATM    4  C5  UNL     1     -32.727   8.386  -0.132  1.00 20.00     0.034 C 
HETATM    5  C6  UNL     1     -32.754  10.753   0.256  1.00 20.00     0.005 C 
HETATM    6  C7  UNL     1     -32.399   9.716  -0.801  1.00 20.00     0.005 C 
ENDROOT
BRANCH   2   7
HETATM    7  C3  UNL     1     -32.562   6.297   1.914  1.00 20.00     0.282 C 
HETATM    8  O9  UNL     1     -31.799   5.623   1.241  1.00 20.00    -0.260 OA
BRANCH   7   9
HETATM    9  O10 UNL     1     -33.733   5.891   2.476  1.00 20.00    -0.323 OA
HETATM   10  C8  UNL     1     -34.191   6.680   3.578  1.00 20.00     0.213 C 
ENDBRANCH   7   9
ENDBRANCH   2   7
TORSDOF 2
ENDMDL
MODEL 9
REMARK VINA RESULT:       0.4      2.663      4.365
REMARK  2 active torsions:
REMARK  status: ('A' for Active; 'I' for Inactive)
REMARK    1  A    between atoms: C2_2  and  C3_3 
REMARK    2  A    between atoms: C3_3  and  O10_10 
ROOT
HETATM    1  C1  UNL     1     -33.107   7.161   2.871  1.00 20.00    -0.074 C 
HETATM    2  C2  UNL     1     -33.902   6.948   3.925  1.00 20.00     0.085 C 
HETATM    3  C4  UNL     1     -32.311   8.413   2.640  1.00 20.00     0.034 C 
HETATM    4  C5  UNL     1     -32.888   6.178   1.756  1.00 20.00     0.034 C 
HETATM    5  C6  UNL     1     -31.851   8.267   1.194  1.00 20.00     0.005 C 
HETATM    6  C7  UNL     1     -31.694   6.764   1.012  1.00 20.00     0.005 C 
ENDROOT
BRANCH   2   7
HETATM    7  C3  UNL     1     -34.639   5.675   4.050  1.00 20.00     0.282 C 
HETATM    8  O9  UNL     1     -34.132   4.567   4.117  1.00 20.00    -0.260 OA
BRANCH   7   9
HETATM    9  O10 UNL     1     -35.967   5.970   4.077  1.00 20.00    -0.323 OA
HETATM   10  C8  UNL     1     -36.432   6.809   3.014  1.00 20.00     0.213 C 
ENDBRANCH   7   9
ENDBRANCH   2   7
TORSDOF 2
ENDMDL
