MODEL 1
REMARK VINA RESULT:      -1.1      0.000      0.000
REMARK  5 active torsions:
REMARK  status: ('A' for Active; 'I' for Inactive)
REMARK    1  A    between atoms: C1_1  and  C6_6 
REMARK    2  A    between atoms: C1_1  and  S11_11 
REMARK    3  A    between atoms: C6_6  and  C8_8 
REMARK    4  A    between atoms: C7_7  and  C9_9 
REMARK    5  A    between atoms: C9_9  and  S11_11 
ROOT
HETATM    1  C1  UNL     1     -32.532   7.702   2.549  1.00 20.00     0.186 C 
HETATM    2  O10 UNL     1     -32.631   8.141   3.687  1.00 20.00    -0.285 OA
ENDROOT
BRANCH   1   3
HETATM    3  C6  UNL     1     -31.793   8.404   1.423  1.00 20.00     0.094 C 
BRANCH   3   4
HETATM    4  C8  UNL     1     -32.693   9.338   0.599  1.00 20.00    -0.015 C 
HETATM    5  C3  UNL     1     -32.600  10.766   1.137  1.00 20.00     0.010 C 
HETATM    6  C4  UNL     1     -32.311   9.318  -0.883  1.00 20.00     0.010 C 
ENDBRANCH   3   4
ENDBRANCH   1   3
BRANCH   1   7
HETATM    7  S11 UNL     1     -33.205   6.138   2.072  1.00 20.00    -0.088 SA
BRANCH   7   8
HETATM    8  C9  UNL     1     -33.875   5.573   3.651  1.00 20.00     0.051 C 
HETATM    9  C5  UNL     1     -35.208   6.276   3.897  1.00 20.00     0.022 C 
BRANCH   8  10
HETATM   10  C7  UNL     1     -34.048   4.047   3.686  1.00 20.00     0.011 C 
HETATM   11  C2  UNL     1     -33.278   3.363   4.808  1.00 20.00     0.006 C 
ENDBRANCH   8  10
ENDBRANCH   7   8
ENDBRANCH   1   7
TORSDOF 5
ENDMDL
MODEL 2
REMARK VINA RESULT:      -0.6      1.872      5.169
REMARK  5 active torsions:
REMARK  status: ('A' for Active; 'I' for Inactive)
REMARK    1  A    between atoms: C1_1  and  C6_6 
REMARK    2  A    between atoms: C1_1  and  S11_11 
REMARK    3  A    between atoms: C6_6  and  C8_8 
REMARK    4  A    between atoms: C7_7  and  C9_9 
REMARK    5  A    between atoms: C9_9  and  S11_11 
ROOT
HETATM    1  C1  UNL     1     -33.061   5.699   1.595  1.00 20.00     0.186 C 
HETATM    2  O10 UNL     1     -33.747   5.258   0.681  1.00 20.00    -0.285 OA
ENDROOT
BRANCH   1   3
HETATM    3  C6  UNL     1     -33.374   5.505   3.068  1.00 20.00     0.094 C 
BRANCH   3   4
HETATM    4  C8  UNL     1     -34.616   6.285   3.530  1.00 20.00    -0.015 C 
HETATM    5  C3  UNL     1     -35.485   5.403   4.428  1.00 20.00     0.010 C 
HETATM    6  C4  UNL     1     -34.227   7.562   4.279  1.00 20.00     0.010 C 
ENDBRANCH   3   4
ENDBRANCH   1   3
BRANCH   1   7
HETATM    7  S11 UNL     1     -31.560   6.590   1.312  1.00 20.00    -0.088 SA
BRANCH   7   8
HETATM    8  C9  UNL     1     -32.132   8.285   1.562  1.00 20.00     0.051 C 
HETATM    9  C5  UNL     1     -31.421   8.867   2.781  1.00 20.00     0.022 C 
BRANCH   8  10
HETATM   10  C7  UNL     1     -31.892   9.158   0.321  1.00 20.00     0.011 C 
HETATM   11  C2  UNL     1     -32.680  10.462   0.321  1.00 20.00     0.006 C 
ENDBRANCH   8  10
ENDBRANCH   7   8
ENDBRANCH   1   7
TORSDOF 5
ENDMDL
MODEL 3
REMARK VINA RESULT:      -0.5      1.399      1.399
REMARK  5 active torsions:
REMARK  status: ('A' for Active; 'I' for Inactive)
REMARK    1  A    between atoms: C1_1  and  C6_6 
REMARK    2  A    between atoms: C1_1  and  S11_11 
REMARK    3  A    between atoms: C6_6  and  C8_8 
REMARK    4  A    between atoms: C7_7  and  C9_9 
REMARK    5  A    between atoms: C9_9  and  S11_11 
ROOT
HETATM    1  C1  UNL     1     -32.200   6.639   1.614  1.00 20.00     0.186 C 
HETATM    2  O10 UNL     1     -31.319   5.847   1.306  1.00 20.00    -0.285 OA
ENDROOT
BRANCH   1   3
HETATM    3  C6  UNL     1     -31.989   8.136   1.765  1.00 20.00     0.094 C 
BRANCH   3   4
HETATM    4  C8  UNL     1     -32.287   8.921   0.477  1.00 20.00    -0.015 C 
HETATM    5  C3  UNL     1     -32.710  10.350   0.820  1.00 20.00     0.010 C 
HETATM    6  C4  UNL     1     -31.071   8.950  -0.453  1.00 20.00     0.010 C 
ENDBRANCH   3   4
ENDBRANCH   1   3
BRANCH   1   7
HETATM    7  S11 UNL     1     -33.877   6.142   1.878  1.00 20.00    -0.088 SA
BRANCH   7   8
HETATM    8  C9  UNL     1     -33.921   6.080   3.682  1.00 20.00     0.051 C 
HETATM    9  C5  UNL     1     -34.603   7.343   4.199  1.00 20.00     0.022 C 
BRANCH   8  10
HETATM   10  C7  UNL     1     -34.641   4.822   4.194  1.00 20.00     0.011 C 
HETATM   11  C2  UNL     1     -33.732   3.611   4.353  1.00 20.00     0.006 C 
ENDBRANCH   8  10
ENDBRANCH   7   8
ENDBRANCH   1   7
TORSDOF 5
ENDMDL
MODEL 4
REMARK VINA RESULT:      -0.5      0.780      1.342
REMARK  5 active torsions:
REMARK  status: ('A' for Active; 'I' for Inactive)
REMARK    1  A    between atoms: C1_1  and  C6_6 
REMARK    2  A    between atoms: C1_1  and  S11_11 
REMARK    3  A    between atoms: C6_6  and  C8_8 
REMARK    4  A    between atoms: C7_7  and  C9_9 
REMARK    5  A    between atoms: C9_9  and  S11_11 
ROOT
HETATM    1  C1  UNL     1     -32.298   7.607   1.895  1.00 20.00     0.186 C 
HETATM    2  O10 UNL     1     -31.387   8.002   2.612  1.00 20.00    -0.285 OA
ENDROOT
BRANCH   1   3
HETATM    3  C6  UNL     1     -33.051   8.484   0.910  1.00 20.00     0.094 C 
BRANCH   3   4
HETATM    4  C8  UNL     1     -32.248   9.714   0.458  1.00 20.00    -0.015 C 
HETATM    5  C3  UNL     1     -32.353   9.880  -1.059  1.00 20.00     0.010 C 
HETATM    6  C4  UNL     1     -32.737  10.987   1.153  1.00 20.00     0.010 C 
ENDBRANCH   3   4
ENDBRANCH   1   3
BRANCH   1   7
HETATM    7  S11 UNL     1     -32.828   5.920   1.875  1.00 20.00    -0.088 SA
BRANCH   7   8
HETATM    8  C9  UNL     1     -33.541   5.780   3.528  1.00 20.00     0.051 C 
HETATM    9  C5  UNL     1     -34.523   6.930   3.737  1.00 20.00     0.022 C 
BRANCH   8  10
HETATM   10  C7  UNL     1     -34.234   4.425   3.740  1.00 20.00     0.011 C 
HETATM   11  C2  UNL     1     -33.406   3.426   4.538  1.00 20.00     0.006 C 
ENDBRANCH   8  10
ENDBRANCH   7   8
ENDBRANCH   1   7
TORSDOF 5
ENDMDL
MODEL 5
REMARK VINA RESULT:      -0.1      1.183      5.671
REMARK  5 active torsions:
REMARK  status: ('A' for Active; 'I' for Inactive)
REMARK    1  A    between atoms: C1_1  and  C6_6 
REMARK    2  A    between atoms: C1_1  and  S11_11 
REMARK    3  A    between atoms: C6_6  and  C8_8 
REMARK    4  A    between atoms: C7_7  and  C9_9 
REMARK    5  A    between atoms: C9_9  and  S11_11 
ROOT
HETATM    1  C1  UNL     1     -33.451   6.228   2.730  1.00 20.00     0.186 C 
HETATM    2  O10 UNL     1     -33.969   7.079   3.441  1.00 20.00    -0.285 OA
ENDROOT
BRANCH   1   3
HETATM    3  C6  UNL     1     -33.614   4.732   2.932  1.00 20.00     0.094 C 
BRANCH   3   4
HETATM    4  C8  UNL     1     -33.802   4.337   4.406  1.00 20.00    -0.015 C 
HETATM    5  C3  UNL     1     -35.252   4.570   4.831  1.00 20.00     0.010 C 
HETATM    6  C4  UNL     1     -33.422   2.873   4.645  1.00 20.00     0.010 C 
ENDBRANCH   3   4
ENDBRANCH   1   3
BRANCH   1   7
HETATM    7  S11 UNL     1     -32.468   6.638   1.318  1.00 20.00    -0.088 SA
BRANCH   7   8
HETATM    8  C9  UNL     1     -32.244   8.411   1.578  1.00 20.00     0.051 C 
HETATM    9  C5  UNL     1     -31.115   8.620   2.583  1.00 20.00     0.022 C 
BRANCH   8  10
HETATM   10  C7  UNL     1     -31.948   9.149   0.263  1.00 20.00     0.011 C 
HETATM   11  C2  UNL     1     -32.666  10.485   0.128  1.00 20.00     0.006 C 
ENDBRANCH   8  10
ENDBRANCH   7   8
ENDBRANCH   1   7
TORSDOF 5
ENDMDL
MODEL 6
REMARK VINA RESULT:      -0.1      1.135      1.589
REMARK  5 active torsions:
REMARK  status: ('A' for Active; 'I' for Inactive)
REMARK    1  A    between atoms: C1_1  and  C6_6 
REMARK    2  A    between atoms: C1_1  and  S11_11 
REMARK    3  A    between atoms: C6_6  and  C8_8 
REMARK    4  A    between atoms: C7_7  and  C9_9 
REMARK    5  A    between atoms: C9_9  and  S11_11 
ROOT
HETATM    1  C1  UNL     1     -33.446   7.745   3.817  1.00 20.00     0.186 C 
HETATM    2  O10 UNL     1     -33.754   8.005   4.974  1.00 20.00    -0.285 OA
ENDROOT
BRANCH   1   3
HETATM    3  C6  UNL     1     -32.410   8.512   3.016  1.00 20.00     0.094 C 
BRANCH   3   4
HETATM    4  C8  UNL     1     -32.409   8.148   1.522  1.00 20.00    -0.015 C 
HETATM    5  C3  UNL     1     -32.332   9.418   0.673  1.00 20.00     0.010 C 
HETATM    6  C4  UNL     1     -31.242   7.221   1.174  1.00 20.00     0.010 C 
ENDBRANCH   3   4
ENDBRANCH   1   3
BRANCH   1   7
HETATM    7  S11 UNL     1     -34.146   6.384   2.931  1.00 20.00    -0.088 SA
BRANCH   7   8
HETATM    8  C9  UNL     1     -34.197   5.135   4.234  1.00 20.00     0.051 C 
HETATM    9  C5  UNL     1     -35.627   5.030   4.756  1.00 20.00     0.022 C 
BRANCH   8  10
HETATM   10  C7  UNL     1     -33.695   3.770   3.737  1.00 20.00     0.011 C 
HETATM   11  C2  UNL     1     -33.166   2.866   4.843  1.00 20.00     0.006 C 
ENDBRANCH   8  10
ENDBRANCH   7   8
ENDBRANCH   1   7
TORSDOF 5
ENDMDL
MODEL 7
REMARK VINA RESULT:      -0.1      1.763      5.089
REMARK  5 active torsions:
REMARK  status: ('A' for Active; 'I' for Inactive)
REMARK    1  A    between atoms: C1_1  and  C6_6 
REMARK    2  A    between atoms: C1_1  and  S11_11 
REMARK    3  A    between atoms: C6_6  and  C8_8 
REMARK    4  A    between atoms: C7_7  and  C9_9 
REMARK    5  A    between atoms: C9_9  and  S11_11 
ROOT
HETATM    1  C1  UNL     1     -32.246   5.908   1.470  1.00 20.00     0.186 C 
HETATM    2  O10 UNL     1     -31.563   4.894   1.552  1.00 20.00    -0.285 OA
ENDROOT
BRANCH   1   3
HETATM    3  C6  UNL     1     -33.687   6.007   1.937  1.00 20.00     0.094 C 
BRANCH   3   4
HETATM    4  C8  UNL     1     -33.846   5.809   3.454  1.00 20.00    -0.015 C 
HETATM    5  C3  UNL     1     -35.019   6.644   3.971  1.00 20.00     0.010 C 
HETATM    6  C4  UNL     1     -34.066   4.335   3.805  1.00 20.00     0.010 C 
ENDBRANCH   3   4
ENDBRANCH   1   3
BRANCH   1   7
HETATM    7  S11 UNL     1     -31.612   7.431   0.833  1.00 20.00    -0.088 SA
BRANCH   7   8
HETATM    8  C9  UNL     1     -32.494   8.614   1.874  1.00 20.00     0.051 C 
HETATM    9  C5  UNL     1     -31.753   8.747   3.201  1.00 20.00     0.022 C 
BRANCH   8  10
HETATM   10  C7  UNL     1     -32.638   9.982   1.189  1.00 20.00     0.011 C 
HETATM   11  C2  UNL     1     -32.597   9.919  -0.332  1.00 20.00     0.006 C 
ENDBRANCH   8  10
ENDBRANCH   7   8
ENDBRANCH   1   7
TORSDOF 5
ENDMDL
MODEL 8
REMARK VINA RESULT:      -0.1      1.922      2.629
REMARK  5 active torsions:
REMARK  status: ('A' for Active; 'I' for Inactive)
REMARK    1  A    between atoms: C1_1  and  C6_6 
REMARK    2  A    between atoms: C1_1  and  S11_11 
REMARK    3  A    between atoms: C6_6  and  C8_8 
REMARK    4  A    between atoms: C7_7  and  C9_9 
REMARK    5  A    between atoms: C9_9  and  S11_11 
ROOT
HETATM    1  C1  UNL     1     -32.847   5.815   1.462  1.00 20.00     0.186 C 
HETATM    2  O10 UNL     1     -33.537   5.301   0.591  1.00 20.00    -0.285 OA
ENDROOT
BRANCH   1   3
HETATM    3  C6  UNL     1     -31.775   6.857   1.198  1.00 20.00     0.094 C 
BRANCH   3   4
HETATM    4  C8  UNL     1     -32.185   8.272   1.638  1.00 20.00    -0.015 C 
HETATM    5  C3  UNL     1     -31.245   8.774   2.735  1.00 20.00     0.010 C 
HETATM    6  C4  UNL     1     -32.173   9.248   0.459  1.00 20.00     0.010 C 
ENDBRANCH   3   4
ENDBRANCH   1   3
BRANCH   1   7
HETATM    7  S11 UNL     1     -33.050   5.442   3.179  1.00 20.00    -0.088 SA
BRANCH   7   8
HETATM    8  C9  UNL     1     -34.688   6.143   3.476  1.00 20.00     0.051 C 
HETATM    9  C5  UNL     1     -35.403   5.291   4.521  1.00 20.00     0.022 C 
BRANCH   8  10
HETATM   10  C7  UNL     1     -34.609   7.609   3.927  1.00 20.00     0.011 C 
HETATM   11  C2  UNL     1     -33.592   7.862   5.033  1.00 20.00     0.006 C 
ENDBRANCH   8  10
ENDBRANCH   7   8
ENDBRANCH   1   7
TORSDOF 5
ENDMDL
MODEL 9
REMARK VINA RESULT:       0.0      1.837      5.793
REMARK  5 active torsions:
REMARK  status: ('A' for Active; 'I' for Inactive)
REMARK    1  A    between atoms: C1_1  and  C6_6 
REMARK    2  A    between atoms: C1_1  and  S11_11 
REMARK    3  A    between atoms: C6_6  and  C8_8 
REMARK    4  A    between atoms: C7_7  and  C9_9 
REMARK    5  A    between atoms: C9_9  and  S11_11 
ROOT
HETATM    1  C1  UNL     1     -34.578   5.341   4.041  1.00 20.00     0.186 C 
HETATM    2  O10 UNL     1     -35.661   5.101   4.559  1.00 20.00    -0.285 OA
ENDROOT
BRANCH   1   3
HETATM    3  C6  UNL     1     -33.460   4.325   3.889  1.00 20.00     0.094 C 
BRANCH   3   4
HETATM    4  C8  UNL     1     -33.493   3.224   4.963  1.00 20.00    -0.015 C 
HETATM    5  C3  UNL     1     -33.273   1.855   4.317  1.00 20.00     0.010 C 
HETATM    6  C4  UNL     1     -32.432   3.464   6.040  1.00 20.00     0.010 C 
ENDBRANCH   3   4
ENDBRANCH   1   3
BRANCH   1   7
HETATM    7  S11 UNL     1     -34.186   6.918   3.344  1.00 20.00    -0.088 SA
BRANCH   7   8
HETATM    8  C9  UNL     1     -32.734   6.491   2.360  1.00 20.00     0.051 C 
HETATM    9  C5  UNL     1     -33.198   5.895   1.034  1.00 20.00     0.022 C 
BRANCH   8  10
HETATM   10  C7  UNL     1     -31.825   7.708   2.124  1.00 20.00     0.011 C 
HETATM   11  C2  UNL     1     -32.329   8.655   1.042  1.00 20.00     0.006 C 
ENDBRANCH   8  10
ENDBRANCH   7   8
ENDBRANCH   1   7
TORSDOF 5
ENDMDL
