MODEL 1
REMARK VINA RESULT:       0.5      0.000      0.000
REMARK  0 active torsions:
REMARK  status: ('A' for Active; 'I' for Inactive)
ROOT
HETATM    1  C1  UNL     1     -33.754   5.296   3.072  1.00 20.00     0.219 C 
HETATM    2  C2  UNL     1     -34.816   6.264   3.564  1.00 20.00     0.103 C 
HETATM    3  C3  UNL     1     -34.276   7.295   4.549  1.00 20.00     0.009 C 
HETATM    4  C4  UNL     1     -33.572   8.506   3.928  1.00 20.00     0.001 C 
HETATM    5  C5  UNL     1     -32.179   8.208   3.371  1.00 20.00     0.002 C 
HETATM    6  C6  UNL     1     -32.125   8.011   1.855  1.00 20.00     0.020 C 
HETATM    7  C7  UNL     1     -33.090   6.970   1.295  1.00 20.00     0.125 C 
HETATM    8  C8  UNL     1     -31.928   4.790   1.498  1.00 20.00     0.152 C 
HETATM    9  N9  UNL     1     -32.984   5.676   1.974  1.00 20.00    -0.356 N 
HETATM   10  O10 UNL     1     -33.611   4.224   3.670  1.00 20.00    -0.273 OA
ENDROOT
TORSDOF 0
ENDMDL
MODEL 2
REMARK VINA RESULT:       0.6      1.907      3.866
REMARK  0 active torsions:
REMARK  status: ('A' for Active; 'I' for Inactive)
ROOT
HETATM    1  C1  UNL     1     -32.710   7.727   2.888  1.00 20.00     0.219 C 
HETATM    2  C2  UNL     1     -32.889   7.033   1.549  1.00 20.00     0.103 C 
HETATM    3  C3  UNL     1     -32.424   5.581   1.559  1.00 20.00     0.009 C 
HETATM    4  C4  UNL     1     -33.421   4.566   2.128  1.00 20.00     0.001 C 
HETATM    5  C5  UNL     1     -33.559   4.604   3.651  1.00 20.00     0.002 C 
HETATM    6  C6  UNL     1     -34.784   5.364   4.163  1.00 20.00     0.020 C 
HETATM    7  C7  UNL     1     -34.937   6.789   3.640  1.00 20.00     0.125 C 
HETATM    8  C8  UNL     1     -33.574   8.213   5.144  1.00 20.00     0.152 C 
HETATM    9  N9  UNL     1     -33.729   7.595   3.831  1.00 20.00    -0.356 N 
HETATM   10  O10 UNL     1     -31.670   8.363   3.089  1.00 20.00    -0.273 OA
ENDROOT
TORSDOF 0
ENDMDL
MODEL 3
REMARK VINA RESULT:       0.9      1.716      2.884
REMARK  0 active torsions:
REMARK  status: ('A' for Active; 'I' for Inactive)
ROOT
HETATM    1  C1  UNL     1     -32.458   7.399   1.899  1.00 20.00     0.219 C 
HETATM    2  C2  UNL     1     -32.202   8.018   3.263  1.00 20.00     0.103 C 
HETATM    3  C3  UNL     1     -33.475   8.497   3.952  1.00 20.00     0.009 C 
HETATM    4  C4  UNL     1     -34.284   7.419   4.681  1.00 20.00     0.001 C 
HETATM    5  C5  UNL     1     -35.057   6.478   3.756  1.00 20.00     0.002 C 
HETATM    6  C6  UNL     1     -34.386   5.124   3.515  1.00 20.00     0.020 C 
HETATM    7  C7  UNL     1     -32.943   5.186   3.025  1.00 20.00     0.125 C 
HETATM    8  C8  UNL     1     -33.072   5.424   0.561  1.00 20.00     0.152 C 
HETATM    9  N9  UNL     1     -32.780   6.043   1.849  1.00 20.00    -0.356 N 
HETATM   10  O10 UNL     1     -32.382   8.122   0.900  1.00 20.00    -0.273 OA
ENDROOT
TORSDOF 0
ENDMDL
MODEL 4
REMARK VINA RESULT:       1.8      1.651      2.880
REMARK  0 active torsions:
REMARK  status: ('A' for Active; 'I' for Inactive)
ROOT
HETATM    1  C1  UNL     1     -33.856   7.375   3.735  1.00 20.00     0.219 C 
HETATM    2  C2  UNL     1     -33.542   8.492   2.755  1.00 20.00     0.103 C 
HETATM    3  C3  UNL     1     -32.070   8.544   2.357  1.00 20.00     0.009 C 
HETATM    4  C4  UNL     1     -31.642   7.567   1.257  1.00 20.00     0.001 C 
HETATM    5  C5  UNL     1     -31.537   6.111   1.714  1.00 20.00     0.002 C 
HETATM    6  C6  UNL     1     -32.739   5.238   1.348  1.00 20.00     0.020 C 
HETATM    7  C7  UNL     1     -34.098   5.774   1.790  1.00 20.00     0.125 C 
HETATM    8  C8  UNL     1     -34.403   5.005   4.127  1.00 20.00     0.152 C 
HETATM    9  N9  UNL     1     -34.137   6.112   3.215  1.00 20.00    -0.356 N 
HETATM   10  O10 UNL     1     -33.836   7.628   4.944  1.00 20.00    -0.273 OA
ENDROOT
TORSDOF 0
ENDMDL
MODEL 5
REMARK VINA RESULT:       2.0      1.408      3.040
REMARK  0 active torsions:
REMARK  status: ('A' for Active; 'I' for Inactive)
ROOT
HETATM    1  C1  UNL     1     -34.379   6.304   3.717  1.00 20.00     0.219 C 
HETATM    2  C2  UNL     1     -33.499   5.094   3.457  1.00 20.00     0.103 C 
HETATM    3  C3  UNL     1     -33.259   4.834   1.974  1.00 20.00     0.009 C 
HETATM    4  C4  UNL     1     -32.159   5.676   1.319  1.00 20.00     0.001 C 
HETATM    5  C5  UNL     1     -32.545   7.135   1.071  1.00 20.00     0.002 C 
HETATM    6  C6  UNL     1     -32.010   8.124   2.109  1.00 20.00     0.020 C 
HETATM    7  C7  UNL     1     -32.337   7.789   3.562  1.00 20.00     0.125 C 
HETATM    8  C8  UNL     1     -34.584   8.744   3.988  1.00 20.00     0.152 C 
HETATM    9  N9  UNL     1     -33.766   7.554   3.781  1.00 20.00    -0.356 N 
HETATM   10  O10 UNL     1     -35.596   6.131   3.846  1.00 20.00    -0.273 OA
ENDROOT
TORSDOF 0
ENDMDL
MODEL 6
REMARK VINA RESULT:       2.2      2.143      3.215
REMARK  0 active torsions:
REMARK  status: ('A' for Active; 'I' for Inactive)
ROOT
HETATM    1  C1  UNL     1     -33.482   8.540   2.782  1.00 20.00     0.219 C 
HETATM    2  C2  UNL     1     -33.608   7.616   3.980  1.00 20.00     0.103 C 
HETATM    3  C3  UNL     1     -34.412   6.354   3.683  1.00 20.00     0.009 C 
HETATM    4  C4  UNL     1     -33.644   5.223   2.992  1.00 20.00     0.001 C 
HETATM    5  C5  UNL     1     -33.356   5.470   1.510  1.00 20.00     0.002 C 
HETATM    6  C6  UNL     1     -31.938   5.961   1.208  1.00 20.00     0.020 C 
HETATM    7  C7  UNL     1     -31.492   7.194   1.988  1.00 20.00     0.125 C 
HETATM    8  C8  UNL     1     -32.313   9.146   0.700  1.00 20.00     0.152 C 
HETATM    9  N9  UNL     1     -32.441   8.305   1.884  1.00 20.00    -0.356 N 
HETATM   10  O10 UNL     1     -34.311   9.447   2.646  1.00 20.00    -0.273 OA
ENDROOT
TORSDOF 0
ENDMDL
MODEL 7
REMARK VINA RESULT:       2.4      1.477      2.470
REMARK  0 active torsions:
REMARK  status: ('A' for Active; 'I' for Inactive)
ROOT
HETATM    1  C1  UNL     1     -32.442   6.030   1.755  1.00 20.00     0.219 C 
HETATM    2  C2  UNL     1     -33.784   5.334   1.893  1.00 20.00     0.103 C 
HETATM    3  C3  UNL     1     -34.162   5.042   3.341  1.00 20.00     0.009 C 
HETATM    4  C4  UNL     1     -34.779   6.211   4.117  1.00 20.00     0.001 C 
HETATM    5  C5  UNL     1     -33.778   7.294   4.525  1.00 20.00     0.002 C 
HETATM    6  C6  UNL     1     -33.772   8.530   3.623  1.00 20.00     0.020 C 
HETATM    7  C7  UNL     1     -33.588   8.254   2.134  1.00 20.00     0.125 C 
HETATM    8  C8  UNL     1     -31.140   8.122   1.766  1.00 20.00     0.152 C 
HETATM    9  N9  UNL     1     -32.416   7.421   1.853  1.00 20.00    -0.356 N 
HETATM   10  O10 UNL     1     -31.434   5.338   1.576  1.00 20.00    -0.273 OA
ENDROOT
TORSDOF 0
ENDMDL
