MODEL 1
REMARK VINA RESULT:      -1.0      0.000      0.000
REMARK  2 active torsions:
REMARK  status: ('A' for Active; 'I' for Inactive)
REMARK    1  A    between atoms: C4_4  and  C8_8 
REMARK    2  A    between atoms: C8_8  and  N9_9 
ROOT
HETATM    1  C1  UNL     1     -34.190   6.591   3.682  1.00 20.00    -0.003 A 
HETATM    2  C2  UNL     1     -33.507   7.800   3.301  1.00 20.00     0.004 A 
HETATM    3  C3  UNL     1     -33.844   5.598   2.850  1.00 20.00    -0.022 A 
HETATM    4  C4  UNL     1     -32.736   7.559   2.230  1.00 20.00    -0.049 A 
HETATM    5  C5  UNL     1     -32.874   6.115   1.828  1.00 20.00     0.063 A 
ENDROOT
BRANCH   4   6
HETATM    6  C8  UNL     1     -31.859   8.506   1.500  1.00 20.00     0.306 C 
BRANCH   6   7
HETATM    7  N9  UNL     1     -32.688   9.311   0.644  1.00 20.00     0.083 N 
HETATM    8  C6  UNL     1     -32.273   9.199  -0.763  1.00 20.00     0.309 C 
HETATM    9  C7  UNL     1     -32.666  10.724   1.052  1.00 20.00     0.309 C 
ENDBRANCH   6   7
ENDBRANCH   4   6
TORSDOF 2
ENDMDL
MODEL 2
REMARK VINA RESULT:      -1.0      0.073      1.267
REMARK  2 active torsions:
REMARK  status: ('A' for Active; 'I' for Inactive)
REMARK    1  A    between atoms: C4_4  and  C8_8 
REMARK    2  A    between atoms: C8_8  and  N9_9 
ROOT
HETATM    1  C1  UNL     1     -33.842   5.600   2.800  1.00 20.00    -0.003 A 
HETATM    2  C2  UNL     1     -32.908   6.194   1.879  1.00 20.00     0.004 A 
HETATM    3  C3  UNL     1     -34.248   6.520   3.685  1.00 20.00    -0.022 A 
HETATM    4  C4  UNL     1     -32.730   7.486   2.193  1.00 20.00    -0.049 A 
HETATM    5  C5  UNL     1     -33.576   7.831   3.390  1.00 20.00     0.063 A 
ENDROOT
BRANCH   4   6
HETATM    6  C8  UNL     1     -31.863   8.484   1.522  1.00 20.00     0.306 C 
BRANCH   6   7
HETATM    7  N9  UNL     1     -32.691   9.286   0.662  1.00 20.00     0.083 N 
HETATM    8  C6  UNL     1     -32.251   9.198  -0.739  1.00 20.00     0.309 C 
HETATM    9  C7  UNL     1     -32.698  10.694   1.087  1.00 20.00     0.309 C 
ENDBRANCH   6   7
ENDBRANCH   4   6
TORSDOF 2
ENDMDL
MODEL 3
REMARK VINA RESULT:      -0.9      1.264      1.950
REMARK  2 active torsions:
REMARK  status: ('A' for Active; 'I' for Inactive)
REMARK    1  A    between atoms: C4_4  and  C8_8 
REMARK    2  A    between atoms: C8_8  and  N9_9 
ROOT
HETATM    1  C1  UNL     1     -35.295   6.135   4.311  1.00 20.00    -0.003 A 
HETATM    2  C2  UNL     1     -34.549   6.987   3.421  1.00 20.00     0.004 A 
HETATM    3  C3  UNL     1     -34.788   4.895   4.277  1.00 20.00    -0.022 A 
HETATM    4  C4  UNL     1     -33.577   6.274   2.830  1.00 20.00    -0.049 A 
HETATM    5  C5  UNL     1     -33.631   4.852   3.320  1.00 20.00     0.063 A 
ENDROOT
BRANCH   4   6
HETATM    6  C8  UNL     1     -32.571   6.736   1.844  1.00 20.00     0.306 C 
BRANCH   6   7
HETATM    7  N9  UNL     1     -32.392   8.152   2.021  1.00 20.00     0.083 N 
HETATM    8  C6  UNL     1     -32.209   8.833   0.731  1.00 20.00     0.309 C 
HETATM    9  C7  UNL     1     -31.246   8.441   2.897  1.00 20.00     0.309 C 
ENDBRANCH   6   7
ENDBRANCH   4   6
TORSDOF 2
ENDMDL
MODEL 4
REMARK VINA RESULT:      -0.6      1.255      4.319
REMARK  2 active torsions:
REMARK  status: ('A' for Active; 'I' for Inactive)
REMARK    1  A    between atoms: C4_4  and  C8_8 
REMARK    2  A    between atoms: C8_8  and  N9_9 
ROOT
HETATM    1  C1  UNL     1     -32.333  10.049  -0.736  1.00 20.00    -0.003 A 
HETATM    2  C2  UNL     1     -31.957   8.794  -0.139  1.00 20.00     0.004 A 
HETATM    3  C3  UNL     1     -32.863  10.850   0.199  1.00 20.00    -0.022 A 
HETATM    4  C4  UNL     1     -32.254   8.814   1.170  1.00 20.00    -0.049 A 
HETATM    5  C5  UNL     1     -32.869  10.142   1.523  1.00 20.00     0.063 A 
ENDROOT
BRANCH   4   6
HETATM    6  C8  UNL     1     -32.042   7.745   2.175  1.00 20.00     0.306 C 
BRANCH   6   7
HETATM    7  N9  UNL     1     -33.110   6.790   2.040  1.00 20.00     0.083 N 
HETATM    8  C6  UNL     1     -33.822   6.602   3.313  1.00 20.00     0.309 C 
HETATM    9  C7  UNL     1     -32.609   5.493   1.560  1.00 20.00     0.309 C 
ENDBRANCH   6   7
ENDBRANCH   4   6
TORSDOF 2
ENDMDL
MODEL 5
REMARK VINA RESULT:      -0.6      1.170      1.587
REMARK  2 active torsions:
REMARK  status: ('A' for Active; 'I' for Inactive)
REMARK    1  A    between atoms: C4_4  and  C8_8 
REMARK    2  A    between atoms: C8_8  and  N9_9 
ROOT
HETATM    1  C1  UNL     1     -35.282   6.179   4.289  1.00 20.00    -0.003 A 
HETATM    2  C2  UNL     1     -34.643   7.451   4.074  1.00 20.00     0.004 A 
HETATM    3  C3  UNL     1     -34.572   5.212   3.692  1.00 20.00    -0.022 A 
HETATM    4  C4  UNL     1     -33.533   7.275   3.340  1.00 20.00    -0.049 A 
HETATM    5  C5  UNL     1     -33.372   5.813   3.018  1.00 20.00     0.063 A 
ENDROOT
BRANCH   4   6
HETATM    6  C8  UNL     1     -32.565   8.299   2.880  1.00 20.00     0.306 C 
BRANCH   6   7
HETATM    7  N9  UNL     1     -32.430   8.174   1.453  1.00 20.00     0.083 N 
HETATM    8  C6  UNL     1     -31.220   7.420   1.094  1.00 20.00     0.309 C 
HETATM    9  C7  UNL     1     -32.400   9.492   0.801  1.00 20.00     0.309 C 
ENDBRANCH   6   7
ENDBRANCH   4   6
TORSDOF 2
ENDMDL
MODEL 6
REMARK VINA RESULT:      -0.5      1.258      4.127
REMARK  2 active torsions:
REMARK  status: ('A' for Active; 'I' for Inactive)
REMARK    1  A    between atoms: C4_4  and  C8_8 
REMARK    2  A    between atoms: C8_8  and  N9_9 
ROOT
HETATM    1  C1  UNL     1     -32.846  10.828   0.329  1.00 20.00    -0.003 A 
HETATM    2  C2  UNL     1     -32.783  10.028   1.524  1.00 20.00     0.004 A 
HETATM    3  C3  UNL     1     -32.355  10.131  -0.706  1.00 20.00    -0.022 A 
HETATM    4  C4  UNL     1     -32.251   8.830   1.233  1.00 20.00    -0.049 A 
HETATM    5  C5  UNL     1     -31.920   8.773  -0.234  1.00 20.00     0.063 A 
ENDROOT
BRANCH   4   6
HETATM    6  C8  UNL     1     -31.997   7.692   2.149  1.00 20.00     0.306 C 
BRANCH   6   7
HETATM    7  N9  UNL     1     -33.074   6.750   1.996  1.00 20.00     0.083 N 
HETATM    8  C6  UNL     1     -33.813   6.573   3.255  1.00 20.00     0.309 C 
HETATM    9  C7  UNL     1     -32.582   5.446   1.527  1.00 20.00     0.309 C 
ENDBRANCH   6   7
ENDBRANCH   4   6
TORSDOF 2
ENDMDL
MODEL 7
REMARK VINA RESULT:      -0.3      2.430      4.705
REMARK  2 active torsions:
REMARK  status: ('A' for Active; 'I' for Inactive)
REMARK    1  A    between atoms: C4_4  and  C8_8 
REMARK    2  A    between atoms: C8_8  and  N9_9 
ROOT
HETATM    1  C1  UNL     1     -31.580   7.668   1.466  1.00 20.00    -0.003 A 
HETATM    2  C2  UNL     1     -32.096   6.326   1.405  1.00 20.00     0.004 A 
HETATM    3  C3  UNL     1     -32.249   8.366   2.394  1.00 20.00    -0.022 A 
HETATM    4  C4  UNL     1     -33.089   6.187   2.297  1.00 20.00    -0.049 A 
HETATM    5  C5  UNL     1     -33.291   7.489   3.027  1.00 20.00     0.063 A 
ENDROOT
BRANCH   4   6
HETATM    6  C8  UNL     1     -33.906   4.983   2.582  1.00 20.00     0.306 C 
BRANCH   6   7
HETATM    7  N9  UNL     1     -33.975   4.820   4.010  1.00 20.00     0.083 N 
HETATM    8  C6  UNL     1     -33.617   3.451   4.409  1.00 20.00     0.309 C 
HETATM    9  C7  UNL     1     -35.314   5.148   4.521  1.00 20.00     0.309 C 
ENDBRANCH   6   7
ENDBRANCH   4   6
TORSDOF 2
ENDMDL
MODEL 8
REMARK VINA RESULT:      -0.3      1.507      2.802
REMARK  2 active torsions:
REMARK  status: ('A' for Active; 'I' for Inactive)
REMARK    1  A    between atoms: C4_4  and  C8_8 
REMARK    2  A    between atoms: C8_8  and  N9_9 
ROOT
HETATM    1  C1  UNL     1     -34.308   4.313   4.233  1.00 20.00    -0.003 A 
HETATM    2  C2  UNL     1     -33.385   5.183   3.551  1.00 20.00     0.004 A 
HETATM    3  C3  UNL     1     -35.414   4.997   4.558  1.00 20.00    -0.022 A 
HETATM    4  C4  UNL     1     -33.917   6.411   3.453  1.00 20.00    -0.049 A 
HETATM    5  C5  UNL     1     -35.280   6.418   4.092  1.00 20.00     0.063 A 
ENDROOT
BRANCH   4   6
HETATM    6  C8  UNL     1     -33.326   7.620   2.831  1.00 20.00     0.306 C 
BRANCH   6   7
HETATM    7  N9  UNL     1     -32.260   7.197   1.962  1.00 20.00     0.083 N 
HETATM    8  C6  UNL     1     -31.775   8.309   1.131  1.00 20.00     0.309 C 
HETATM    9  C7  UNL     1     -32.684   6.085   1.098  1.00 20.00     0.309 C 
ENDBRANCH   6   7
ENDBRANCH   4   6
TORSDOF 2
ENDMDL
MODEL 9
REMARK VINA RESULT:       0.0      1.757      4.098
REMARK  2 active torsions:
REMARK  status: ('A' for Active; 'I' for Inactive)
REMARK    1  A    between atoms: C4_4  and  C8_8 
REMARK    2  A    between atoms: C8_8  and  N9_9 
ROOT
HETATM    1  C1  UNL     1     -32.301   9.522   0.586  1.00 20.00    -0.003 A 
HETATM    2  C2  UNL     1     -33.042   9.267   1.794  1.00 20.00     0.004 A 
HETATM    3  C3  UNL     1     -31.456   8.509   0.355  1.00 20.00    -0.022 A 
HETATM    4  C4  UNL     1     -32.656   8.092   2.316  1.00 20.00    -0.049 A 
HETATM    5  C5  UNL     1     -31.593   7.482   1.442  1.00 20.00     0.063 A 
ENDROOT
BRANCH   4   6
HETATM    6  C8  UNL     1     -33.146   7.429   3.548  1.00 20.00     0.306 C 
BRANCH   6   7
HETATM    7  N9  UNL     1     -34.080   6.405   3.161  1.00 20.00     0.083 N 
HETATM    8  C6  UNL     1     -35.317   6.482   3.953  1.00 20.00     0.309 C 
HETATM    9  C7  UNL     1     -33.490   5.065   3.298  1.00 20.00     0.309 C 
ENDBRANCH   6   7
ENDBRANCH   4   6
TORSDOF 2
ENDMDL
