MODEL 1
REMARK VINA RESULT:      -2.1      0.000      0.000
REMARK  1 active torsions:
REMARK  status: ('A' for Active; 'I' for Inactive)
REMARK    1  A    between atoms: C3_3  and  C6_6 
ROOT
HETATM    1  C1  UNL     1     -33.013   5.993   1.976  1.00 20.00     0.202 C 
HETATM    2  C2  UNL     1     -33.252   6.882   3.172  1.00 20.00     0.144 C 
HETATM    3  C3  UNL     1     -31.876   7.938   1.727  1.00 20.00     0.260 C 
HETATM    4  C4  UNL     1     -34.675   6.849   3.688  1.00 20.00     0.042 C 
HETATM    5  O7  UNL     1     -31.832   6.545   1.389  1.00 20.00    -0.359 OA
HETATM    6  O8  UNL     1     -32.929   8.180   2.671  1.00 20.00    -0.354 OA
ENDROOT
BRANCH   3   7
HETATM    7  C6  UNL     1     -32.119   8.766   0.479  1.00 20.00     0.056 C 
HETATM    8  C5  UNL     1     -32.619  10.139   0.804  1.00 20.00     0.010 C 
ENDBRANCH   3   7
TORSDOF 1
ENDMDL
MODEL 2
REMARK VINA RESULT:      -1.5      2.476      3.476
REMARK  1 active torsions:
REMARK  status: ('A' for Active; 'I' for Inactive)
REMARK    1  A    between atoms: C3_3  and  C6_6 
ROOT
HETATM    1  C1  UNL     1     -35.108   5.016   4.734  1.00 20.00     0.202 C 
HETATM    2  C2  UNL     1     -34.195   4.174   3.878  1.00 20.00     0.144 C 
HETATM    3  C3  UNL     1     -34.189   6.295   3.104  1.00 20.00     0.260 C 
HETATM    4  C4  UNL     1     -33.378   3.165   4.656  1.00 20.00     0.042 C 
HETATM    5  O7  UNL     1     -35.364   6.159   3.914  1.00 20.00    -0.359 OA
HETATM    6  O8  UNL     1     -33.344   5.148   3.270  1.00 20.00    -0.354 OA
ENDROOT
BRANCH   3   7
HETATM    7  C6  UNL     1     -33.426   7.543   3.505  1.00 20.00     0.056 C 
HETATM    8  C5  UNL     1     -32.402   7.930   2.483  1.00 20.00     0.010 C 
ENDBRANCH   3   7
TORSDOF 1
ENDMDL
MODEL 3
REMARK VINA RESULT:      -1.2      1.429      3.390
REMARK  1 active torsions:
REMARK  status: ('A' for Active; 'I' for Inactive)
REMARK    1  A    between atoms: C3_3  and  C6_6 
ROOT
HETATM    1  C1  UNL     1     -32.343   7.488   1.434  1.00 20.00     0.202 C 
HETATM    2  C2  UNL     1     -32.225   6.011   1.720  1.00 20.00     0.144 C 
HETATM    3  C3  UNL     1     -33.121   7.045   3.516  1.00 20.00     0.260 C 
HETATM    4  C4  UNL     1     -32.559   5.127   0.538  1.00 20.00     0.042 C 
HETATM    5  O7  UNL     1     -32.481   8.064   2.735  1.00 20.00    -0.359 OA
HETATM    6  O8  UNL     1     -33.169   5.818   2.776  1.00 20.00    -0.354 OA
ENDROOT
BRANCH   3   7
HETATM    7  C6  UNL     1     -34.533   7.474   3.869  1.00 20.00     0.056 C 
HETATM    8  C5  UNL     1     -35.461   6.305   3.992  1.00 20.00     0.010 C 
ENDBRANCH   3   7
TORSDOF 1
ENDMDL
MODEL 4
REMARK VINA RESULT:      -1.0      1.510      2.337
REMARK  1 active torsions:
REMARK  status: ('A' for Active; 'I' for Inactive)
REMARK    1  A    between atoms: C3_3  and  C6_6 
ROOT
HETATM    1  C1  UNL     1     -34.225   6.689   4.193  1.00 20.00     0.202 C 
HETATM    2  C2  UNL     1     -34.286   5.416   3.386  1.00 20.00     0.144 C 
HETATM    3  C3  UNL     1     -33.372   7.050   2.124  1.00 20.00     0.260 C 
HETATM    4  C4  UNL     1     -33.958   4.168   4.178  1.00 20.00     0.042 C 
HETATM    5  O7  UNL     1     -34.067   7.701   3.196  1.00 20.00    -0.359 OA
HETATM    6  O8  UNL     1     -33.306   5.638   2.370  1.00 20.00    -0.354 OA
ENDROOT
BRANCH   3   7
HETATM    7  C6  UNL     1     -31.965   7.605   2.007  1.00 20.00     0.056 C 
HETATM    8  C5  UNL     1     -31.902   8.787   1.090  1.00 20.00     0.010 C 
ENDBRANCH   3   7
TORSDOF 1
ENDMDL
MODEL 5
REMARK VINA RESULT:      -0.7      1.150      3.778
REMARK  1 active torsions:
REMARK  status: ('A' for Active; 'I' for Inactive)
REMARK    1  A    between atoms: C3_3  and  C6_6 
ROOT
HETATM    1  C1  UNL     1     -32.361   8.612   3.182  1.00 20.00     0.202 C 
HETATM    2  C2  UNL     1     -32.056   7.787   1.956  1.00 20.00     0.144 C 
HETATM    3  C3  UNL     1     -33.436   6.621   3.310  1.00 20.00     0.260 C 
HETATM    4  C4  UNL     1     -32.009   8.586   0.672  1.00 20.00     0.042 C 
HETATM    5  O7  UNL     1     -32.838   7.643   4.119  1.00 20.00    -0.359 OA
HETATM    6  O8  UNL     1     -33.138   6.853   1.927  1.00 20.00    -0.354 OA
ENDROOT
BRANCH   3   7
HETATM    7  C6  UNL     1     -34.941   6.621   3.506  1.00 20.00     0.056 C 
HETATM    8  C5  UNL     1     -35.390   5.514   4.409  1.00 20.00     0.010 C 
ENDBRANCH   3   7
TORSDOF 1
ENDMDL
MODEL 6
REMARK VINA RESULT:      -0.7      1.857      2.723
REMARK  1 active torsions:
REMARK  status: ('A' for Active; 'I' for Inactive)
REMARK    1  A    between atoms: C3_3  and  C6_6 
ROOT
HETATM    1  C1  UNL     1     -33.786   7.468   4.344  1.00 20.00     0.202 C 
HETATM    2  C2  UNL     1     -34.793   6.582   3.652  1.00 20.00     0.144 C 
HETATM    3  C3  UNL     1     -33.247   7.257   2.152  1.00 20.00     0.260 C 
HETATM    4  C4  UNL     1     -35.243   5.398   4.481  1.00 20.00     0.042 C 
HETATM    5  O7  UNL     1     -33.164   8.163   3.260  1.00 20.00    -0.359 OA
HETATM    6  O8  UNL     1     -34.084   6.143   2.492  1.00 20.00    -0.354 OA
ENDROOT
BRANCH   3   7
HETATM    7  C6  UNL     1     -31.862   6.752   1.792  1.00 20.00     0.056 C 
HETATM    8  C5  UNL     1     -31.900   5.374   1.208  1.00 20.00     0.010 C 
ENDBRANCH   3   7
TORSDOF 1
ENDMDL
MODEL 7
REMARK VINA RESULT:      -0.6      1.558      3.737
REMARK  1 active torsions:
REMARK  status: ('A' for Active; 'I' for Inactive)
REMARK    1  A    between atoms: C3_3  and  C6_6 
ROOT
HETATM    1  C1  UNL     1     -32.178   6.080   1.694  1.00 20.00     0.202 C 
HETATM    2  C2  UNL     1     -32.554   7.525   1.907  1.00 20.00     0.144 C 
HETATM    3  C3  UNL     1     -34.126   6.205   2.847  1.00 20.00     0.260 C 
HETATM    4  C4  UNL     1     -31.379   8.426   2.224  1.00 20.00     0.042 C 
HETATM    5  O7  UNL     1     -33.409   5.386   1.913  1.00 20.00    -0.359 OA
HETATM    6  O8  UNL     1     -33.450   7.459   3.018  1.00 20.00    -0.354 OA
ENDROOT
BRANCH   3   7
HETATM    7  C6  UNL     1     -34.222   5.499   4.186  1.00 20.00     0.056 C 
HETATM    8  C5  UNL     1     -33.963   4.029   4.068  1.00 20.00     0.010 C 
ENDBRANCH   3   7
TORSDOF 1
ENDMDL
MODEL 8
REMARK VINA RESULT:      -0.3      1.635      2.869
REMARK  1 active torsions:
REMARK  status: ('A' for Active; 'I' for Inactive)
REMARK    1  A    between atoms: C3_3  and  C6_6 
ROOT
HETATM    1  C1  UNL     1     -32.356   8.121   2.764  1.00 20.00     0.202 C 
HETATM    2  C2  UNL     1     -33.706   7.541   3.105  1.00 20.00     0.144 C 
HETATM    3  C3  UNL     1     -32.738   6.274   1.507  1.00 20.00     0.260 C 
HETATM    4  C4  UNL     1     -34.040   7.585   4.581  1.00 20.00     0.042 C 
HETATM    5  O7  UNL     1     -32.061   7.538   1.493  1.00 20.00    -0.359 OA
HETATM    6  O8  UNL     1     -33.593   6.189   2.656  1.00 20.00    -0.354 OA
ENDROOT
BRANCH   3   7
HETATM    7  C6  UNL     1     -31.726   5.145   1.550  1.00 20.00     0.056 C 
HETATM    8  C5  UNL     1     -31.698   4.365   0.272  1.00 20.00     0.010 C 
ENDBRANCH   3   7
TORSDOF 1
ENDMDL
MODEL 9
REMARK VINA RESULT:      -0.3      2.808      4.633
REMARK  1 active torsions:
REMARK  status: ('A' for Active; 'I' for Inactive)
REMARK    1  A    between atoms: C3_3  and  C6_6 
ROOT
HETATM    1  C1  UNL     1     -33.165   6.076   2.797  1.00 20.00     0.202 C 
HETATM    2  C2  UNL     1     -34.425   6.604   3.437  1.00 20.00     0.144 C 
HETATM    3  C3  UNL     1     -34.256   4.391   3.850  1.00 20.00     0.260 C 
HETATM    4  C4  UNL     1     -34.269   7.971   4.068  1.00 20.00     0.042 C 
HETATM    5  O7  UNL     1     -33.394   4.666   2.737  1.00 20.00    -0.359 OA
HETATM    6  O8  UNL     1     -34.711   5.620   4.433  1.00 20.00    -0.354 OA
ENDROOT
BRANCH   3   7
HETATM    7  C6  UNL     1     -33.510   3.586   4.897  1.00 20.00     0.056 C 
HETATM    8  C5  UNL     1     -33.178   2.208   4.415  1.00 20.00     0.010 C 
ENDBRANCH   3   7
TORSDOF 1
ENDMDL
