MODEL 1
REMARK VINA RESULT:      -1.0      0.000      0.000
REMARK  1 active torsions:
REMARK  status: ('A' for Active; 'I' for Inactive)
REMARK    1  A    between atoms: C3_3  and  C4_4 
ROOT
HETATM    1  C1  UNL     1     -34.175   5.039   4.002  1.00 20.00     0.086 C 
HETATM    2  C2  UNL     1     -33.787   7.423   4.526  1.00 20.00     0.050 C 
HETATM    3  C4  UNL     1     -34.232   6.411   3.466  1.00 20.00     0.134 C 
HETATM    4  N5  UNL     1     -34.126   3.959   4.424  1.00 20.00    -0.195 NA
HETATM    5 CL7  UNL     1     -35.969   6.728   3.095  1.00 20.00    -0.102 Cl
ENDROOT
BRANCH   3   6
HETATM    6  C3  UNL     1     -33.446   6.538   2.154  1.00 20.00     0.155 C 
HETATM    7 CL6  UNL     1     -32.274   7.885   2.161  1.00 20.00    -0.127 Cl
ENDBRANCH   3   6
TORSDOF 1
ENDMDL
MODEL 2
REMARK VINA RESULT:      -0.7      2.375      3.013
REMARK  1 active torsions:
REMARK  status: ('A' for Active; 'I' for Inactive)
REMARK    1  A    between atoms: C3_3  and  C4_4 
ROOT
HETATM    1  C1  UNL     1     -33.637   6.087   2.597  1.00 20.00     0.086 C 
HETATM    2  C2  UNL     1     -35.929   6.885   3.061  1.00 20.00     0.050 C 
HETATM    3  C4  UNL     1     -34.630   6.336   3.657  1.00 20.00     0.134 C 
HETATM    4  N5  UNL     1     -32.857   5.887   1.761  1.00 20.00    -0.195 NA
HETATM    5 CL7  UNL     1     -33.921   7.616   4.711  1.00 20.00    -0.102 Cl
ENDROOT
BRANCH   3   6
HETATM    6  C3  UNL     1     -34.853   5.090   4.525  1.00 20.00     0.155 C 
HETATM    7 CL6  UNL     1     -33.766   3.736   4.107  1.00 20.00    -0.127 Cl
ENDBRANCH   3   6
TORSDOF 1
ENDMDL
MODEL 3
REMARK VINA RESULT:      -0.6      2.854      3.659
REMARK  1 active torsions:
REMARK  status: ('A' for Active; 'I' for Inactive)
REMARK    1  A    between atoms: C3_3  and  C4_4 
ROOT
HETATM    1  C1  UNL     1     -32.371   7.389   1.645  1.00 20.00     0.086 C 
HETATM    2  C2  UNL     1     -31.663   5.032   1.418  1.00 20.00     0.050 C 
HETATM    3  C4  UNL     1     -32.832   5.989   1.666  1.00 20.00     0.134 C 
HETATM    4  N5  UNL     1     -32.005   8.490   1.631  1.00 20.00    -0.195 NA
HETATM    5 CL7  UNL     1     -33.984   5.824   0.288  1.00 20.00    -0.102 Cl
ENDROOT
BRANCH   3   6
HETATM    6  C3  UNL     1     -33.601   5.669   2.955  1.00 20.00     0.155 C 
HETATM    7 CL6  UNL     1     -34.325   7.111   3.721  1.00 20.00    -0.127 Cl
ENDBRANCH   3   6
TORSDOF 1
ENDMDL
MODEL 4
REMARK VINA RESULT:      -0.4      3.491      4.299
REMARK  1 active torsions:
REMARK  status: ('A' for Active; 'I' for Inactive)
REMARK    1  A    between atoms: C3_3  and  C4_4 
ROOT
HETATM    1  C1  UNL     1     -32.412   8.942   0.961  1.00 20.00     0.086 C 
HETATM    2  C2  UNL     1     -30.988   8.293   2.873  1.00 20.00     0.050 C 
HETATM    3  C4  UNL     1     -32.271   8.005   2.089  1.00 20.00     0.134 C 
HETATM    4  N5  UNL     1     -32.524   9.683   0.074  1.00 20.00    -0.195 NA
HETATM    5 CL7  UNL     1     -32.116   6.364   1.357  1.00 20.00    -0.102 Cl
ENDROOT
BRANCH   3   6
HETATM    6  C3  UNL     1     -33.524   8.000   2.978  1.00 20.00     0.155 C 
HETATM    7 CL6  UNL     1     -34.079   6.357   3.404  1.00 20.00    -0.127 Cl
ENDBRANCH   3   6
TORSDOF 1
ENDMDL
MODEL 5
REMARK VINA RESULT:      -0.3      3.598      4.376
REMARK  1 active torsions:
REMARK  status: ('A' for Active; 'I' for Inactive)
REMARK    1  A    between atoms: C3_3  and  C4_4 
ROOT
HETATM    1  C1  UNL     1     -32.419   9.075   1.024  1.00 20.00     0.086 C 
HETATM    2  C2  UNL     1     -33.587   7.768   2.766  1.00 20.00     0.050 C 
HETATM    3  C4  UNL     1     -32.262   8.019   2.040  1.00 20.00     0.134 C 
HETATM    4  N5  UNL     1     -32.545   9.905   0.222  1.00 20.00    -0.195 NA
HETATM    5 CL7  UNL     1     -31.084   8.660   3.246  1.00 20.00    -0.102 Cl
ENDROOT
BRANCH   3   6
HETATM    6  C3  UNL     1     -31.661   6.742   1.437  1.00 20.00     0.155 C 
HETATM    7 CL6  UNL     1     -32.813   5.378   1.382  1.00 20.00    -0.127 Cl
ENDBRANCH   3   6
TORSDOF 1
ENDMDL
MODEL 6
REMARK VINA RESULT:      -0.3      2.088      2.398
REMARK  1 active torsions:
REMARK  status: ('A' for Active; 'I' for Inactive)
REMARK    1  A    between atoms: C3_3  and  C4_4 
ROOT
HETATM    1  C1  UNL     1     -33.648   7.434   4.342  1.00 20.00     0.086 C 
HETATM    2  C2  UNL     1     -35.708   6.688   3.199  1.00 20.00     0.050 C 
HETATM    3  C4  UNL     1     -34.212   6.441   3.410  1.00 20.00     0.134 C 
HETATM    4  N5  UNL     1     -33.204   8.219   5.073  1.00 20.00    -0.195 NA
HETATM    5 CL7  UNL     1     -34.025   4.839   4.218  1.00 20.00    -0.102 Cl
ENDROOT
BRANCH   3   6
HETATM    6  C3  UNL     1     -33.424   6.392   2.094  1.00 20.00     0.155 C 
HETATM    7 CL6  UNL     1     -32.242   7.721   1.930  1.00 20.00    -0.127 Cl
ENDBRANCH   3   6
TORSDOF 1
ENDMDL
MODEL 7
REMARK VINA RESULT:      -0.3      2.295      3.058
REMARK  1 active torsions:
REMARK  status: ('A' for Active; 'I' for Inactive)
REMARK    1  A    between atoms: C3_3  and  C4_4 
ROOT
HETATM    1  C1  UNL     1     -33.959   7.341   4.386  1.00 20.00     0.086 C 
HETATM    2  C2  UNL     1     -33.659   5.889   2.409  1.00 20.00     0.050 C 
HETATM    3  C4  UNL     1     -34.542   6.231   3.612  1.00 20.00     0.134 C 
HETATM    4  N5  UNL     1     -33.496   8.213   4.996  1.00 20.00    -0.195 NA
HETATM    5 CL7  UNL     1     -36.120   6.838   2.984  1.00 20.00    -0.102 Cl
ENDROOT
BRANCH   3   6
HETATM    6  C3  UNL     1     -34.833   5.015   4.502  1.00 20.00     0.155 C 
HETATM    7 CL6  UNL     1     -33.745   3.634   4.189  1.00 20.00    -0.127 Cl
ENDBRANCH   3   6
TORSDOF 1
ENDMDL
MODEL 8
REMARK VINA RESULT:      -0.2      2.340      3.601
REMARK  1 active torsions:
REMARK  status: ('A' for Active; 'I' for Inactive)
REMARK    1  A    between atoms: C3_3  and  C4_4 
ROOT
HETATM    1  C1  UNL     1     -32.303   6.535   1.650  1.00 20.00     0.086 C 
HETATM    2  C2  UNL     1     -32.656   8.893   1.001  1.00 20.00     0.050 C 
HETATM    3  C4  UNL     1     -32.429   7.914   2.156  1.00 20.00     0.134 C 
HETATM    4  N5  UNL     1     -32.208   5.449   1.250  1.00 20.00    -0.195 NA
HETATM    5 CL7  UNL     1     -30.842   8.311   2.915  1.00 20.00    -0.102 Cl
ENDROOT
BRANCH   3   6
HETATM    6  C3  UNL     1     -33.504   8.018   3.246  1.00 20.00     0.155 C 
HETATM    7 CL6  UNL     1     -34.351   6.475   3.551  1.00 20.00    -0.127 Cl
ENDBRANCH   3   6
TORSDOF 1
ENDMDL
MODEL 9
REMARK VINA RESULT:      -0.2      2.428      3.018
REMARK  1 active torsions:
REMARK  status: ('A' for Active; 'I' for Inactive)
REMARK    1  A    between atoms: C3_3  and  C4_4 
ROOT
HETATM    1  C1  UNL     1     -33.680   6.469   2.848  1.00 20.00     0.086 C 
HETATM    2  C2  UNL     1     -33.588   6.599   0.382  1.00 20.00     0.050 C 
HETATM    3  C4  UNL     1     -32.787   6.628   1.686  1.00 20.00     0.134 C 
HETATM    4  N5  UNL     1     -34.384   6.348   3.762  1.00 20.00    -0.195 NA
HETATM    5 CL7  UNL     1     -31.697   5.191   1.697  1.00 20.00    -0.102 Cl
ENDROOT
BRANCH   3   6
HETATM    6  C3  UNL     1     -31.907   7.879   1.818  1.00 20.00     0.155 C 
HETATM    7 CL6  UNL     1     -32.342   9.171   0.665  1.00 20.00    -0.127 Cl
ENDBRANCH   3   6
TORSDOF 1
ENDMDL
