MODEL 1
REMARK VINA RESULT:       2.4      0.000      0.000
REMARK  2 active torsions:
REMARK  status: ('A' for Active; 'I' for Inactive)
REMARK    1  A    between atoms: C6_6  and  C11_11 
REMARK    2  A    between atoms: C11_11  and  O12_12 
ROOT
HETATM    1  C1  UNL     1     -32.928   9.252   1.886  1.00 20.00     0.005 C 
HETATM    2  C2  UNL     1     -32.568   8.801   0.464  1.00 20.00     0.006 C 
HETATM    3  C3  UNL     1     -30.883   8.049   1.923  1.00 20.00     0.010 C 
HETATM    4  C4  UNL     1     -32.136   8.275   2.774  1.00 20.00    -0.007 C 
HETATM    5  C5  UNL     1     -31.688   7.562   0.710  1.00 20.00    -0.006 C 
HETATM    6  C6  UNL     1     -32.755   6.852   2.772  1.00 20.00     0.026 C 
HETATM    7  C7  UNL     1     -32.518   6.370   1.299  1.00 20.00    -0.038 C 
HETATM    8  C8  UNL     1     -33.792   6.063   0.497  1.00 20.00     0.015 C 
HETATM    9  C9  UNL     1     -31.665   5.083   1.295  1.00 20.00     0.015 C 
ENDROOT
BRANCH   6  10
HETATM   10  C11 UNL     1     -34.174   6.779   3.318  1.00 20.00     0.119 C 
HETATM   11  C10 UNL     1     -34.374   7.714   4.499  1.00 20.00     0.040 C 
BRANCH  10  12
HETATM   12  O12 UNL     1     -34.449   5.442   3.725  1.00 20.00    -0.396 OA
HETATM   13  H32 UNL     1     -33.650   4.924   3.538  1.00 20.00     0.210 HD
ENDBRANCH  10  12
ENDBRANCH   6  10
TORSDOF 2
ENDMDL
MODEL 2
REMARK VINA RESULT:       2.9      1.314      2.988
REMARK  2 active torsions:
REMARK  status: ('A' for Active; 'I' for Inactive)
REMARK    1  A    between atoms: C6_6  and  C11_11 
REMARK    2  A    between atoms: C11_11  and  O12_12 
ROOT
HETATM    1  C1  UNL     1     -32.595   4.749   2.349  1.00 20.00     0.005 C 
HETATM    2  C2  UNL     1     -31.316   5.324   1.727  1.00 20.00     0.006 C 
HETATM    3  C3  UNL     1     -33.134   5.927   0.361  1.00 20.00     0.010 C 
HETATM    4  C4  UNL     1     -33.703   5.635   1.751  1.00 20.00    -0.007 C 
HETATM    5  C5  UNL     1     -31.837   6.529   0.922  1.00 20.00    -0.006 C 
HETATM    6  C6  UNL     1     -33.711   7.058   2.372  1.00 20.00     0.026 C 
HETATM    7  C7  UNL     1     -32.361   7.669   1.861  1.00 20.00    -0.038 C 
HETATM    8  C8  UNL     1     -31.361   8.058   2.960  1.00 20.00     0.015 C 
HETATM    9  C9  UNL     1     -32.638   8.944   1.035  1.00 20.00     0.015 C 
ENDROOT
BRANCH   6  10
HETATM   10  C11 UNL     1     -33.978   7.093   3.870  1.00 20.00     0.119 C 
HETATM   11  C10 UNL     1     -35.191   6.257   4.248  1.00 20.00     0.040 C 
BRANCH  10  12
HETATM   12  O12 UNL     1     -34.193   8.442   4.275  1.00 20.00    -0.396 OA
HETATM   13  H32 UNL     1     -33.611   8.599   5.035  1.00 20.00     0.210 HD
ENDBRANCH  10  12
ENDBRANCH   6  10
TORSDOF 2
ENDMDL
MODEL 3
REMARK VINA RESULT:       3.1      1.546      3.236
REMARK  2 active torsions:
REMARK  status: ('A' for Active; 'I' for Inactive)
REMARK    1  A    between atoms: C6_6  and  C11_11 
REMARK    2  A    between atoms: C11_11  and  O12_12 
ROOT
HETATM    1  C1  UNL     1     -31.912   5.498   2.026  1.00 20.00     0.005 C 
HETATM    2  C2  UNL     1     -31.505   6.969   2.185  1.00 20.00     0.006 C 
HETATM    3  C3  UNL     1     -33.514   6.889   0.962  1.00 20.00     0.010 C 
HETATM    4  C4  UNL     1     -33.425   5.581   1.753  1.00 20.00    -0.007 C 
HETATM    5  C5  UNL     1     -32.851   7.711   2.077  1.00 20.00    -0.006 C 
HETATM    6  C6  UNL     1     -34.228   5.952   3.028  1.00 20.00     0.026 C 
HETATM    7  C7  UNL     1     -33.770   7.423   3.314  1.00 20.00    -0.038 C 
HETATM    8  C8  UNL     1     -33.062   7.639   4.660  1.00 20.00     0.015 C 
HETATM    9  C9  UNL     1     -34.990   8.370   3.293  1.00 20.00     0.015 C 
ENDROOT
BRANCH   6  10
HETATM   10  C11 UNL     1     -34.113   4.944   4.163  1.00 20.00     0.119 C 
HETATM   11  C10 UNL     1     -33.570   3.608   3.681  1.00 20.00     0.040 C 
BRANCH  10  12
HETATM   12  O12 UNL     1     -35.398   4.747   4.745  1.00 20.00    -0.396 OA
HETATM   13  H32 UNL     1     -36.021   4.636   4.010  1.00 20.00     0.210 HD
ENDBRANCH  10  12
ENDBRANCH   6  10
TORSDOF 2
ENDMDL
MODEL 4
REMARK VINA RESULT:       4.1      1.579      3.071
REMARK  2 active torsions:
REMARK  status: ('A' for Active; 'I' for Inactive)
REMARK    1  A    between atoms: C6_6  and  C11_11 
REMARK    2  A    between atoms: C11_11  and  O12_12 
ROOT
HETATM    1  C1  UNL     1     -32.796   5.142   2.691  1.00 20.00     0.005 C 
HETATM    2  C2  UNL     1     -31.810   5.296   1.526  1.00 20.00     0.006 C 
HETATM    3  C3  UNL     1     -33.829   6.342   0.924  1.00 20.00     0.010 C 
HETATM    4  C4  UNL     1     -33.799   6.285   2.454  1.00 20.00    -0.007 C 
HETATM    5  C5  UNL     1     -32.314   6.566   0.816  1.00 20.00    -0.006 C 
HETATM    6  C6  UNL     1     -33.192   7.673   2.790  1.00 20.00     0.026 C 
HETATM    7  C7  UNL     1     -32.087   7.846   1.691  1.00 20.00    -0.038 C 
HETATM    8  C8  UNL     1     -30.650   7.974   2.221  1.00 20.00     0.015 C 
HETATM    9  C9  UNL     1     -32.369   9.112   0.853  1.00 20.00     0.015 C 
ENDROOT
BRANCH   6  10
HETATM   10  C11 UNL     1     -32.773   7.845   4.243  1.00 20.00     0.119 C 
HETATM   11  C10 UNL     1     -33.969   8.080   5.152  1.00 20.00     0.040 C 
BRANCH  10  12
HETATM   12  O12 UNL     1     -31.882   8.952   4.345  1.00 20.00    -0.396 OA
HETATM   13  H32 UNL     1     -32.291   9.582   4.958  1.00 20.00     0.210 HD
ENDBRANCH  10  12
ENDBRANCH   6  10
TORSDOF 2
ENDMDL
MODEL 5
REMARK VINA RESULT:       4.2      1.584      3.532
REMARK  2 active torsions:
REMARK  status: ('A' for Active; 'I' for Inactive)
REMARK    1  A    between atoms: C6_6  and  C11_11 
REMARK    2  A    between atoms: C11_11  and  O12_12 
ROOT
HETATM    1  C1  UNL     1     -32.091   8.143   3.579  1.00 20.00     0.005 C 
HETATM    2  C2  UNL     1     -32.809   7.855   4.904  1.00 20.00     0.006 C 
HETATM    3  C3  UNL     1     -34.379   8.745   3.396  1.00 20.00     0.010 C 
HETATM    4  C4  UNL     1     -33.241   8.160   2.556  1.00 20.00    -0.007 C 
HETATM    5  C5  UNL     1     -34.271   7.649   4.465  1.00 20.00    -0.006 C 
HETATM    6  C6  UNL     1     -33.789   6.736   2.268  1.00 20.00     0.026 C 
HETATM    7  C7  UNL     1     -34.444   6.332   3.633  1.00 20.00    -0.038 C 
HETATM    8  C8  UNL     1     -33.834   5.098   4.314  1.00 20.00     0.015 C 
HETATM    9  C9  UNL     1     -35.946   6.034   3.430  1.00 20.00     0.015 C 
ENDROOT
BRANCH   6  10
HETATM   10  C11 UNL     1     -32.771   5.778   1.665  1.00 20.00     0.119 C 
HETATM   11  C10 UNL     1     -31.540   6.509   1.154  1.00 20.00     0.040 C 
BRANCH  10  12
HETATM   12  O12 UNL     1     -33.378   5.071   0.587  1.00 20.00    -0.396 OA
HETATM   13  H32 UNL     1     -32.735   4.407   0.293  1.00 20.00     0.210 HD
ENDBRANCH  10  12
ENDBRANCH   6  10
TORSDOF 2
ENDMDL
MODEL 6
REMARK VINA RESULT:       4.3      1.878      3.421
REMARK  2 active torsions:
REMARK  status: ('A' for Active; 'I' for Inactive)
REMARK    1  A    between atoms: C6_6  and  C11_11 
REMARK    2  A    between atoms: C11_11  and  O12_12 
ROOT
HETATM    1  C1  UNL     1     -33.265   7.191   4.395  1.00 20.00     0.005 C 
HETATM    2  C2  UNL     1     -33.369   5.663   4.298  1.00 20.00     0.006 C 
HETATM    3  C3  UNL     1     -35.121   6.601   3.040  1.00 20.00     0.010 C 
HETATM    4  C4  UNL     1     -34.034   7.673   3.152  1.00 20.00    -0.007 C 
HETATM    5  C5  UNL     1     -34.105   5.453   2.961  1.00 20.00    -0.006 C 
HETATM    6  C6  UNL     1     -33.239   7.425   1.842  1.00 20.00     0.026 C 
HETATM    7  C7  UNL     1     -33.211   5.862   1.740  1.00 20.00    -0.038 C 
HETATM    8  C8  UNL     1     -31.812   5.227   1.772  1.00 20.00     0.015 C 
HETATM    9  C9  UNL     1     -33.880   5.406   0.425  1.00 20.00     0.015 C 
ENDROOT
BRANCH   6  10
HETATM   10  C11 UNL     1     -31.908   8.160   1.761  1.00 20.00     0.119 C 
HETATM   11  C10 UNL     1     -31.549   8.826   3.080  1.00 20.00     0.040 C 
BRANCH  10  12
HETATM   12  O12 UNL     1     -31.983   9.151   0.740  1.00 20.00    -0.396 OA
HETATM   13  H32 UNL     1     -32.634   8.835   0.094  1.00 20.00     0.210 HD
ENDBRANCH  10  12
ENDBRANCH   6  10
TORSDOF 2
ENDMDL
MODEL 7
REMARK VINA RESULT:       4.4      1.929      3.252
REMARK  2 active torsions:
REMARK  status: ('A' for Active; 'I' for Inactive)
REMARK    1  A    between atoms: C6_6  and  C11_11 
REMARK    2  A    between atoms: C11_11  and  O12_12 
ROOT
HETATM    1  C1  UNL     1     -35.555   5.934   4.071  1.00 20.00     0.005 C 
HETATM    2  C2  UNL     1     -35.725   6.894   2.886  1.00 20.00     0.006 C 
HETATM    3  C3  UNL     1     -33.999   7.716   4.258  1.00 20.00     0.010 C 
HETATM    4  C4  UNL     1     -34.119   6.217   4.548  1.00 20.00    -0.007 C 
HETATM    5  C5  UNL     1     -34.333   7.544   2.769  1.00 20.00    -0.006 C 
HETATM    6  C6  UNL     1     -33.056   5.642   3.574  1.00 20.00     0.026 C 
HETATM    7  C7  UNL     1     -33.254   6.515   2.287  1.00 20.00    -0.038 C 
HETATM    8  C8  UNL     1     -33.672   5.741   1.027  1.00 20.00     0.015 C 
HETATM    9  C9  UNL     1     -31.941   7.253   1.944  1.00 20.00     0.015 C 
ENDROOT
BRANCH   6  10
HETATM   10  C11 UNL     1     -33.100   4.129   3.412  1.00 20.00     0.119 C 
HETATM   11  C10 UNL     1     -33.672   3.445   4.644  1.00 20.00     0.040 C 
BRANCH  10  12
HETATM   12  O12 UNL     1     -31.781   3.646   3.177  1.00 20.00    -0.396 OA
HETATM   13  H32 UNL     1     -31.243   4.416   2.931  1.00 20.00     0.210 HD
ENDBRANCH  10  12
ENDBRANCH   6  10
TORSDOF 2
ENDMDL
MODEL 8
REMARK VINA RESULT:       4.8      1.490      2.599
REMARK  2 active torsions:
REMARK  status: ('A' for Active; 'I' for Inactive)
REMARK    1  A    between atoms: C6_6  and  C11_11 
REMARK    2  A    between atoms: C11_11  and  O12_12 
ROOT
HETATM    1  C1  UNL     1     -32.725   7.519   0.849  1.00 20.00     0.005 C 
HETATM    2  C2  UNL     1     -33.831   6.510   0.510  1.00 20.00     0.006 C 
HETATM    3  C3  UNL     1     -32.053   5.342   1.515  1.00 20.00     0.010 C 
HETATM    4  C4  UNL     1     -31.927   6.803   1.954  1.00 20.00    -0.007 C 
HETATM    5  C5  UNL     1     -33.588   5.380   1.527  1.00 20.00    -0.006 C 
HETATM    6  C6  UNL     1     -32.695   6.774   3.303  1.00 20.00     0.026 C 
HETATM    7  C7  UNL     1     -33.914   5.839   2.990  1.00 20.00    -0.038 C 
HETATM    8  C8  UNL     1     -35.296   6.495   3.127  1.00 20.00     0.015 C 
HETATM    9  C9  UNL     1     -33.901   4.620   3.938  1.00 20.00     0.015 C 
ENDROOT
BRANCH   6  10
HETATM   10  C11 UNL     1     -32.993   8.146   3.891  1.00 20.00     0.119 C 
HETATM   11  C10 UNL     1     -31.768   9.047   3.872  1.00 20.00     0.040 C 
BRANCH  10  12
HETATM   12  O12 UNL     1     -33.442   7.991   5.234  1.00 20.00    -0.396 OA
HETATM   13  H32 UNL     1     -32.821   7.384   5.666  1.00 20.00     0.210 HD
ENDBRANCH  10  12
ENDBRANCH   6  10
TORSDOF 2
ENDMDL
MODEL 9
REMARK VINA RESULT:       4.9      1.956      3.652
REMARK  2 active torsions:
REMARK  status: ('A' for Active; 'I' for Inactive)
REMARK    1  A    between atoms: C6_6  and  C11_11 
REMARK    2  A    between atoms: C11_11  and  O12_12 
ROOT
HETATM    1  C1  UNL     1     -33.126   6.150   0.429  1.00 20.00     0.005 C 
HETATM    2  C2  UNL     1     -33.859   5.578   1.650  1.00 20.00     0.006 C 
HETATM    3  C3  UNL     1     -31.610   5.932   2.242  1.00 20.00     0.010 C 
HETATM    4  C4  UNL     1     -31.904   6.849   1.051  1.00 20.00    -0.007 C 
HETATM    5  C5  UNL     1     -33.018   6.099   2.830  1.00 20.00    -0.006 C 
HETATM    6  C6  UNL     1     -32.292   8.164   1.780  1.00 20.00     0.026 C 
HETATM    7  C7  UNL     1     -33.147   7.652   2.990  1.00 20.00    -0.038 C 
HETATM    8  C8  UNL     1     -34.603   8.142   3.017  1.00 20.00     0.015 C 
HETATM    9  C9  UNL     1     -32.500   8.099   4.320  1.00 20.00     0.015 C 
ENDROOT
BRANCH   6  10
HETATM   10  C11 UNL     1     -32.908   9.226   0.881  1.00 20.00     0.119 C 
HETATM   11  C10 UNL     1     -32.175   9.338  -0.447  1.00 20.00     0.040 C 
BRANCH  10  12
HETATM   12  O12 UNL     1     -32.866  10.484   1.548  1.00 20.00    -0.396 OA
HETATM   13  H32 UNL     1     -32.186  11.013   1.101  1.00 20.00     0.210 HD
ENDBRANCH  10  12
ENDBRANCH   6  10
TORSDOF 2
ENDMDL
