MODEL 1
REMARK VINA RESULT:      -1.9      0.000      0.000
REMARK  2 active torsions:
REMARK  status: ('A' for Active; 'I' for Inactive)
REMARK    1  A    between atoms: C3_3  and  C5_5 
REMARK    2  A    between atoms: C5_5  and  C6_6 
ROOT
HETATM    1  C1  UNL     1     -33.369   7.943   3.989  1.00 20.00     0.202 C 
HETATM    2  C2  UNL     1     -33.270   7.538   2.539  1.00 20.00     0.144 C 
HETATM    3  C3  UNL     1     -34.792   6.229   3.573  1.00 20.00     0.261 C 
HETATM    4  C4  UNL     1     -31.859   7.557   1.989  1.00 20.00     0.042 C 
HETATM    5  O7  UNL     1     -34.620   7.389   4.399  1.00 20.00    -0.359 OA
HETATM    6  O8  UNL     1     -33.790   6.205   2.548  1.00 20.00    -0.354 OA
ENDROOT
BRANCH   3   7
HETATM    7  C5  UNL     1     -34.679   4.973   4.415  1.00 20.00     0.075 C 
BRANCH   7   8
HETATM    8  C6  UNL     1     -33.769   3.909   3.808  1.00 20.00     0.119 C 
HETATM    9 CL9  UNL     1     -33.029   2.878   5.053  1.00 20.00    -0.130 Cl
ENDBRANCH   7   8
ENDBRANCH   3   7
TORSDOF 2
ENDMDL
MODEL 2
REMARK VINA RESULT:      -1.7      1.411      2.155
REMARK  2 active torsions:
REMARK  status: ('A' for Active; 'I' for Inactive)
REMARK    1  A    between atoms: C3_3  and  C5_5 
REMARK    2  A    between atoms: C5_5  and  C6_6 
ROOT
HETATM    1  C1  UNL     1     -32.690   6.501   1.151  1.00 20.00     0.202 C 
HETATM    2  C2  UNL     1     -32.117   7.715   1.841  1.00 20.00     0.144 C 
HETATM    3  C3  UNL     1     -33.363   6.542   3.314  1.00 20.00     0.261 C 
HETATM    4  C4  UNL     1     -32.105   8.963   0.984  1.00 20.00     0.042 C 
HETATM    5  O7  UNL     1     -33.054   5.648   2.237  1.00 20.00    -0.359 OA
HETATM    6  O8  UNL     1     -32.989   7.880   2.962  1.00 20.00    -0.354 OA
ENDROOT
BRANCH   3   7
HETATM    7  C5  UNL     1     -34.849   6.498   3.612  1.00 20.00     0.075 C 
BRANCH   7   8
HETATM    8  C6  UNL     1     -35.273   5.287   4.437  1.00 20.00     0.119 C 
HETATM    9 CL9  UNL     1     -34.075   3.975   4.358  1.00 20.00    -0.130 Cl
ENDBRANCH   7   8
ENDBRANCH   3   7
TORSDOF 2
ENDMDL
MODEL 3
REMARK VINA RESULT:      -1.4      3.336      4.516
REMARK  2 active torsions:
REMARK  status: ('A' for Active; 'I' for Inactive)
REMARK    1  A    between atoms: C3_3  and  C5_5 
REMARK    2  A    between atoms: C5_5  and  C6_6 
ROOT
HETATM    1  C1  UNL     1     -33.679   7.938   3.913  1.00 20.00     0.202 C 
HETATM    2  C2  UNL     1     -33.984   6.472   3.728  1.00 20.00     0.144 C 
HETATM    3  C3  UNL     1     -32.370   7.084   2.272  1.00 20.00     0.261 C 
HETATM    4  C4  UNL     1     -35.455   6.131   3.836  1.00 20.00     0.042 C 
HETATM    5  O7  UNL     1     -32.398   8.087   3.297  1.00 20.00    -0.359 OA
HETATM    6  O8  UNL     1     -33.502   6.215   2.406  1.00 20.00    -0.354 OA
ENDROOT
BRANCH   3   7
HETATM    7  C5  UNL     1     -32.400   7.740   0.905  1.00 20.00     0.075 C 
BRANCH   7   8
HETATM    8  C6  UNL     1     -32.026   9.219   0.928  1.00 20.00     0.119 C 
HETATM    9 CL9  UNL     1     -32.778  10.116  -0.411  1.00 20.00    -0.130 Cl
ENDBRANCH   7   8
ENDBRANCH   3   7
TORSDOF 2
ENDMDL
MODEL 4
REMARK VINA RESULT:      -1.1      2.577      3.592
REMARK  2 active torsions:
REMARK  status: ('A' for Active; 'I' for Inactive)
REMARK    1  A    between atoms: C3_3  and  C5_5 
REMARK    2  A    between atoms: C5_5  and  C6_6 
ROOT
HETATM    1  C1  UNL     1     -31.477   8.187   0.302  1.00 20.00     0.202 C 
HETATM    2  C2  UNL     1     -32.051   9.514   0.735  1.00 20.00     0.144 C 
HETATM    3  C3  UNL     1     -32.292   8.019   2.410  1.00 20.00     0.261 C 
HETATM    4  C4  UNL     1     -32.802  10.246  -0.357  1.00 20.00     0.042 C 
HETATM    5  O7  UNL     1     -31.282   7.496   1.537  1.00 20.00    -0.359 OA
HETATM    6  O8  UNL     1     -32.935   9.144   1.796  1.00 20.00    -0.354 OA
ENDROOT
BRANCH   3   7
HETATM    7  C5  UNL     1     -33.325   6.950   2.705  1.00 20.00     0.075 C 
BRANCH   7   8
HETATM    8  C6  UNL     1     -34.227   7.280   3.891  1.00 20.00     0.119 C 
HETATM    9 CL9  UNL     1     -35.429   6.004   4.188  1.00 20.00    -0.130 Cl
ENDBRANCH   7   8
ENDBRANCH   3   7
TORSDOF 2
ENDMDL
MODEL 5
REMARK VINA RESULT:      -0.9      0.967      1.103
REMARK  2 active torsions:
REMARK  status: ('A' for Active; 'I' for Inactive)
REMARK    1  A    between atoms: C3_3  and  C5_5 
REMARK    2  A    between atoms: C5_5  and  C6_6 
ROOT
HETATM    1  C1  UNL     1     -33.219   7.610   3.575  1.00 20.00     0.202 C 
HETATM    2  C2  UNL     1     -32.886   7.695   2.106  1.00 20.00     0.144 C 
HETATM    3  C3  UNL     1     -33.882   5.714   2.527  1.00 20.00     0.261 C 
HETATM    4  C4  UNL     1     -31.549   8.344   1.814  1.00 20.00     0.042 C 
HETATM    5  O7  UNL     1     -34.202   6.575   3.629  1.00 20.00    -0.359 OA
HETATM    6  O8  UNL     1     -32.878   6.323   1.705  1.00 20.00    -0.354 OA
ENDROOT
BRANCH   3   7
HETATM    7  C5  UNL     1     -33.369   4.383   3.043  1.00 20.00     0.075 C 
BRANCH   7   8
HETATM    8  C6  UNL     1     -33.987   3.963   4.374  1.00 20.00     0.119 C 
HETATM    9 CL9  UNL     1     -32.975   2.779   5.232  1.00 20.00    -0.130 Cl
ENDBRANCH   7   8
ENDBRANCH   3   7
TORSDOF 2
ENDMDL
MODEL 6
REMARK VINA RESULT:      -0.8      1.714      2.390
REMARK  2 active torsions:
REMARK  status: ('A' for Active; 'I' for Inactive)
REMARK    1  A    between atoms: C3_3  and  C5_5 
REMARK    2  A    between atoms: C5_5  and  C6_6 
ROOT
HETATM    1  C1  UNL     1     -31.555   7.285   1.956  1.00 20.00     0.202 C 
HETATM    2  C2  UNL     1     -32.315   6.250   1.163  1.00 20.00     0.144 C 
HETATM    3  C3  UNL     1     -33.748   7.343   2.523  1.00 20.00     0.261 C 
HETATM    4  C4  UNL     1     -31.571   4.944   0.982  1.00 20.00     0.042 C 
HETATM    5  O7  UNL     1     -32.582   8.169   2.409  1.00 20.00    -0.359 OA
HETATM    6  O8  UNL     1     -33.494   6.054   1.949  1.00 20.00    -0.354 OA
ENDROOT
BRANCH   3   7
HETATM    7  C5  UNL     1     -34.124   7.177   3.983  1.00 20.00     0.075 C 
BRANCH   7   8
HETATM    8  C6  UNL     1     -35.255   6.179   4.214  1.00 20.00     0.119 C 
HETATM    9 CL9  UNL     1     -34.645   4.528   4.463  1.00 20.00    -0.130 Cl
ENDBRANCH   7   8
ENDBRANCH   3   7
TORSDOF 2
ENDMDL
MODEL 7
REMARK VINA RESULT:      -0.5      3.700      4.784
REMARK  2 active torsions:
REMARK  status: ('A' for Active; 'I' for Inactive)
REMARK    1  A    between atoms: C3_3  and  C5_5 
REMARK    2  A    between atoms: C5_5  and  C6_6 
ROOT
HETATM    1  C1  UNL     1     -33.715   6.373   2.523  1.00 20.00     0.202 C 
HETATM    2  C2  UNL     1     -32.504   5.802   1.827  1.00 20.00     0.144 C 
HETATM    3  C3  UNL     1     -32.100   7.955   2.375  1.00 20.00     0.261 C 
HETATM    4  C4  UNL     1     -32.834   4.886   0.668  1.00 20.00     0.042 C 
HETATM    5  O7  UNL     1     -33.197   7.524   3.192  1.00 20.00    -0.359 OA
HETATM    6  O8  UNL     1     -31.824   6.973   1.367  1.00 20.00    -0.354 OA
ENDROOT
BRANCH   3   7
HETATM    7  C5  UNL     1     -32.437   9.275   1.710  1.00 20.00     0.075 C 
BRANCH   7   8
HETATM    8  C6  UNL     1     -31.992   9.359   0.253  1.00 20.00     0.119 C 
HETATM    9 CL9  UNL     1     -33.054  10.412  -0.709  1.00 20.00    -0.130 Cl
ENDBRANCH   7   8
ENDBRANCH   3   7
TORSDOF 2
ENDMDL
MODEL 8
REMARK VINA RESULT:      -0.5      2.909      4.349
REMARK  2 active torsions:
REMARK  status: ('A' for Active; 'I' for Inactive)
REMARK    1  A    between atoms: C3_3  and  C5_5 
REMARK    2  A    between atoms: C5_5  and  C6_6 
ROOT
HETATM    1  C1  UNL     1     -32.884   4.723   2.261  1.00 20.00     0.202 C 
HETATM    2  C2  UNL     1     -34.006   4.766   3.269  1.00 20.00     0.144 C 
HETATM    3  C3  UNL     1     -33.649   6.846   2.467  1.00 20.00     0.261 C 
HETATM    4  C4  UNL     1     -33.787   3.876   4.474  1.00 20.00     0.042 C 
HETATM    5  O7  UNL     1     -33.054   5.939   1.530  1.00 20.00    -0.359 OA
HETATM    6  O8  UNL     1     -34.029   6.143   3.657  1.00 20.00    -0.354 OA
ENDROOT
BRANCH   3   7
HETATM    7  C5  UNL     1     -32.663   7.941   2.825  1.00 20.00     0.075 C 
BRANCH   7   8
HETATM    8  C6  UNL     1     -31.691   8.282   1.698  1.00 20.00     0.119 C 
HETATM    9 CL9  UNL     1     -32.363   9.494   0.584  1.00 20.00    -0.130 Cl
ENDBRANCH   7   8
ENDBRANCH   3   7
TORSDOF 2
ENDMDL
MODEL 9
REMARK VINA RESULT:      -0.4      3.169      4.599
REMARK  2 active torsions:
REMARK  status: ('A' for Active; 'I' for Inactive)
REMARK    1  A    between atoms: C3_3  and  C5_5 
REMARK    2  A    between atoms: C5_5  and  C6_6 
ROOT
HETATM    1  C1  UNL     1     -33.289   5.251   2.957  1.00 20.00     0.202 C 
HETATM    2  C2  UNL     1     -34.495   6.144   3.116  1.00 20.00     0.144 C 
HETATM    3  C3  UNL     1     -33.043   7.106   1.679  1.00 20.00     0.261 C 
HETATM    4  C4  UNL     1     -35.027   6.214   4.532  1.00 20.00     0.042 C 
HETATM    5  O7  UNL     1     -32.694   5.716   1.744  1.00 20.00    -0.359 OA
HETATM    6  O8  UNL     1     -33.999   7.419   2.700  1.00 20.00    -0.354 OA
ENDROOT
BRANCH   3   7
HETATM    7  C5  UNL     1     -31.805   7.959   1.871  1.00 20.00     0.075 C 
BRANCH   7   8
HETATM    8  C6  UNL     1     -31.466   8.828   0.663  1.00 20.00     0.119 C 
HETATM    9 CL9  UNL     1     -32.614  10.171   0.466  1.00 20.00    -0.130 Cl
ENDBRANCH   7   8
ENDBRANCH   3   7
TORSDOF 2
ENDMDL
