MODEL 1
REMARK VINA RESULT:       4.2      0.000      0.000
REMARK  0 active torsions:
REMARK  status: ('A' for Active; 'I' for Inactive)
ROOT
HETATM    1  C1  UNL     1     -32.024   8.573   3.555  1.00 20.00     0.006 C 
HETATM    2  C2  UNL     1     -33.436   8.067   3.876  1.00 20.00     0.006 C 
HETATM    3  C3  UNL     1     -31.577   6.637   2.049  1.00 20.00     0.021 C 
HETATM    4  C4  UNL     1     -31.496   8.166   2.158  1.00 20.00     0.005 C 
HETATM    5  C5  UNL     1     -33.678   6.621   3.406  1.00 20.00    -0.005 C 
HETATM    6  C6  UNL     1     -33.075   6.344   2.012  1.00 20.00     0.052 C 
HETATM    7  C7  UNL     1     -32.290   8.711   0.938  1.00 20.00     0.005 C 
HETATM    8  C8  UNL     1     -35.165   6.268   3.483  1.00 20.00     0.011 C 
HETATM    9  C9  UNL     1     -31.438   8.656  -0.343  1.00 20.00     0.027 C 
HETATM   10  C10 UNL     1     -32.822  10.136   1.103  1.00 20.00     0.027 C 
HETATM   11  S11 UNL     1     -33.677   7.517   0.738  1.00 20.00    -0.154 SA
ENDROOT
TORSDOF 0
ENDMDL
MODEL 2
REMARK VINA RESULT:       5.3      1.709      3.659
REMARK  0 active torsions:
REMARK  status: ('A' for Active; 'I' for Inactive)
ROOT
HETATM    1  C1  UNL     1     -32.354   8.063   1.805  1.00 20.00     0.006 C 
HETATM    2  C2  UNL     1     -31.300   6.951   1.726  1.00 20.00     0.006 C 
HETATM    3  C3  UNL     1     -34.185   6.492   1.178  1.00 20.00     0.021 C 
HETATM    4  C4  UNL     1     -33.774   7.578   2.181  1.00 20.00     0.005 C 
HETATM    5  C5  UNL     1     -31.827   5.669   1.055  1.00 20.00    -0.005 C 
HETATM    6  C6  UNL     1     -33.264   5.318   1.499  1.00 20.00     0.052 C 
HETATM    7  C7  UNL     1     -33.928   6.925   3.584  1.00 20.00     0.005 C 
HETATM    8  C8  UNL     1     -30.851   4.509   1.260  1.00 20.00     0.011 C 
HETATM    9  C9  UNL     1     -35.401   6.925   4.034  1.00 20.00     0.027 C 
HETATM   10  C10 UNL     1     -33.087   7.569   4.687  1.00 20.00     0.027 C 
HETATM   11  S11 UNL     1     -33.425   5.174   3.319  1.00 20.00    -0.154 SA
ENDROOT
TORSDOF 0
ENDMDL
MODEL 3
REMARK VINA RESULT:       5.6      1.606      2.627
REMARK  0 active torsions:
REMARK  status: ('A' for Active; 'I' for Inactive)
ROOT
HETATM    1  C1  UNL     1     -31.801   5.289   1.483  1.00 20.00     0.006 C 
HETATM    2  C2  UNL     1     -32.245   4.697   2.827  1.00 20.00     0.006 C 
HETATM    3  C3  UNL     1     -34.032   6.336   1.108  1.00 20.00     0.021 C 
HETATM    4  C4  UNL     1     -32.521   6.601   1.089  1.00 20.00     0.005 C 
HETATM    5  C5  UNL     1     -33.767   4.781   3.049  1.00 20.00    -0.005 C 
HETATM    6  C6  UNL     1     -34.357   6.130   2.586  1.00 20.00     0.052 C 
HETATM    7  C7  UNL     1     -32.301   7.815   2.034  1.00 20.00     0.005 C 
HETATM    8  C8  UNL     1     -34.122   4.453   4.500  1.00 20.00     0.011 C 
HETATM    9  C9  UNL     1     -32.644   9.137   1.322  1.00 20.00     0.027 C 
HETATM   10  C10 UNL     1     -30.890   7.931   2.613  1.00 20.00     0.027 C 
HETATM   11  S11 UNL     1     -33.537   7.567   3.375  1.00 20.00    -0.154 SA
ENDROOT
TORSDOF 0
ENDMDL
MODEL 4
REMARK VINA RESULT:       5.9      1.387      3.904
REMARK  0 active torsions:
REMARK  status: ('A' for Active; 'I' for Inactive)
ROOT
HETATM    1  C1  UNL     1     -33.754   6.216   0.394  1.00 20.00     0.006 C 
HETATM    2  C2  UNL     1     -33.495   7.717   0.212  1.00 20.00     0.006 C 
HETATM    3  C3  UNL     1     -31.748   5.957   1.852  1.00 20.00     0.021 C 
HETATM    4  C4  UNL     1     -33.244   5.633   1.733  1.00 20.00     0.005 C 
HETATM    5  C5  UNL     1     -32.102   8.151   0.705  1.00 20.00    -0.005 C 
HETATM    6  C6  UNL     1     -31.708   7.472   2.035  1.00 20.00     0.052 C 
HETATM    7  C7  UNL     1     -33.895   6.204   3.024  1.00 20.00     0.005 C 
HETATM    8  C8  UNL     1     -32.002   9.676   0.774  1.00 20.00     0.011 C 
HETATM    9  C9  UNL     1     -33.681   5.254   4.217  1.00 20.00     0.027 C 
HETATM   10  C10 UNL     1     -35.391   6.504   2.909  1.00 20.00     0.027 C 
HETATM   11  S11 UNL     1     -32.946   7.745   3.359  1.00 20.00    -0.154 SA
ENDROOT
TORSDOF 0
ENDMDL
MODEL 5
REMARK VINA RESULT:       6.0      1.312      3.766
REMARK  0 active torsions:
REMARK  status: ('A' for Active; 'I' for Inactive)
ROOT
HETATM    1  C1  UNL     1     -32.668   6.209   1.554  1.00 20.00     0.006 C 
HETATM    2  C2  UNL     1     -32.990   7.183   0.414  1.00 20.00     0.006 C 
HETATM    3  C3  UNL     1     -31.519   7.988   2.870  1.00 20.00     0.021 C 
HETATM    4  C4  UNL     1     -32.562   6.865   2.952  1.00 20.00     0.005 C 
HETATM    5  C5  UNL     1     -32.228   8.517   0.531  1.00 20.00    -0.005 C 
HETATM    6  C6  UNL     1     -32.175   9.042   1.982  1.00 20.00     0.052 C 
HETATM    7  C7  UNL     1     -33.854   7.538   3.494  1.00 20.00     0.005 C 
HETATM    8  C8  UNL     1     -32.793   9.551  -0.446  1.00 20.00     0.011 C 
HETATM    9  C9  UNL     1     -33.782   7.720   5.022  1.00 20.00     0.027 C 
HETATM   10  C10 UNL     1     -35.152   6.801   3.157  1.00 20.00     0.027 C 
HETATM   11  S11 UNL     1     -33.839   9.213   2.731  1.00 20.00    -0.154 SA
ENDROOT
TORSDOF 0
ENDMDL
MODEL 6
REMARK VINA RESULT:       7.1      1.245      3.645
REMARK  0 active torsions:
REMARK  status: ('A' for Active; 'I' for Inactive)
ROOT
HETATM    1  C1  UNL     1     -31.133   7.442   0.361  1.00 20.00     0.006 C 
HETATM    2  C2  UNL     1     -31.941   8.670  -0.076  1.00 20.00     0.006 C 
HETATM    3  C3  UNL     1     -31.427   7.998   2.773  1.00 20.00     0.021 C 
HETATM    4  C4  UNL     1     -31.532   6.867   1.742  1.00 20.00     0.005 C 
HETATM    5  C5  UNL     1     -32.197   9.662   1.073  1.00 20.00    -0.005 C 
HETATM    6  C6  UNL     1     -32.557   8.953   2.397  1.00 20.00     0.052 C 
HETATM    7  C7  UNL     1     -32.983   6.325   1.866  1.00 20.00     0.005 C 
HETATM    8  C8  UNL     1     -33.238  10.707   0.667  1.00 20.00     0.011 C 
HETATM    9  C9  UNL     1     -33.115   5.375   3.071  1.00 20.00     0.027 C 
HETATM   10  C10 UNL     1     -33.509   5.604   0.624  1.00 20.00     0.027 C 
HETATM   11  S11 UNL     1     -33.990   7.824   2.225  1.00 20.00    -0.154 SA
ENDROOT
TORSDOF 0
ENDMDL
