MODEL 1
REMARK VINA RESULT:      -0.5      0.000      0.000
REMARK  0 active torsions:
REMARK  status: ('A' for Active; 'I' for Inactive)
ROOT
HETATM    1  C1  UNL     1     -33.144   8.071   3.811  1.00 20.00     0.047 C 
HETATM    2  C2  UNL     1     -34.240   7.475   4.292  1.00 20.00    -0.014 C 
HETATM    3  C3  UNL     1     -32.478   7.558   2.588  1.00 20.00     0.152 C 
HETATM    4  C4  UNL     1     -33.879   5.493   2.786  1.00 20.00     0.025 C 
HETATM    5  C5  UNL     1     -33.163   6.439   1.814  1.00 20.00     0.056 C 
HETATM    6  C6  UNL     1     -34.873   6.228   3.715  1.00 20.00    -0.029 C 
HETATM    7  C7  UNL     1     -32.157   5.666   0.965  1.00 20.00     0.018 C 
HETATM    8  C8  UNL     1     -35.265   5.277   4.860  1.00 20.00     0.019 C 
HETATM    9  C9  UNL     1     -36.147   6.627   2.950  1.00 20.00     0.019 C 
HETATM   10  O10 UNL     1     -31.438   8.091   2.206  1.00 20.00    -0.293 OA
ENDROOT
TORSDOF 0
ENDMDL
MODEL 2
REMARK VINA RESULT:       0.2      1.896      4.039
REMARK  0 active torsions:
REMARK  status: ('A' for Active; 'I' for Inactive)
ROOT
HETATM    1  C1  UNL     1     -33.396   5.756   2.097  1.00 20.00     0.047 C 
HETATM    2  C2  UNL     1     -32.545   6.511   1.394  1.00 20.00    -0.014 C 
HETATM    3  C3  UNL     1     -34.036   6.284   3.328  1.00 20.00     0.152 C 
HETATM    4  C4  UNL     1     -32.405   8.181   3.269  1.00 20.00     0.025 C 
HETATM    5  C5  UNL     1     -33.818   7.751   3.677  1.00 20.00     0.056 C 
HETATM    6  C6  UNL     1     -32.101   7.906   1.778  1.00 20.00    -0.029 C 
HETATM    7  C7  UNL     1     -34.038   7.996   5.168  1.00 20.00     0.018 C 
HETATM    8  C8  UNL     1     -30.583   8.037   1.557  1.00 20.00     0.019 C 
HETATM    9  C9  UNL     1     -32.819   8.922   0.874  1.00 20.00     0.019 C 
HETATM   10  O10 UNL     1     -34.767   5.545   3.985  1.00 20.00    -0.293 OA
ENDROOT
TORSDOF 0
ENDMDL
MODEL 3
REMARK VINA RESULT:       1.1      1.963      3.510
REMARK  0 active torsions:
REMARK  status: ('A' for Active; 'I' for Inactive)
ROOT
HETATM    1  C1  UNL     1     -33.866   7.238   3.578  1.00 20.00     0.047 C 
HETATM    2  C2  UNL     1     -33.260   8.327   3.095  1.00 20.00    -0.014 C 
HETATM    3  C3  UNL     1     -33.597   5.900   2.994  1.00 20.00     0.152 C 
HETATM    4  C4  UNL     1     -32.472   7.050   1.077  1.00 20.00     0.025 C 
HETATM    5  C5  UNL     1     -32.502   5.784   1.941  1.00 20.00     0.056 C 
HETATM    6  C6  UNL     1     -32.317   8.342   1.911  1.00 20.00    -0.029 C 
HETATM    7  C7  UNL     1     -32.712   4.549   1.068  1.00 20.00     0.018 C 
HETATM    8  C8  UNL     1     -32.648   9.547   1.011  1.00 20.00     0.019 C 
HETATM    9  C9  UNL     1     -30.876   8.495   2.426  1.00 20.00     0.019 C 
HETATM   10  O10 UNL     1     -34.216   4.927   3.420  1.00 20.00    -0.293 OA
ENDROOT
TORSDOF 0
ENDMDL
MODEL 4
REMARK VINA RESULT:       1.2      1.457      3.418
REMARK  0 active torsions:
REMARK  status: ('A' for Active; 'I' for Inactive)
ROOT
HETATM    1  C1  UNL     1     -32.705   8.032   2.829  1.00 20.00     0.047 C 
HETATM    2  C2  UNL     1     -32.296   7.271   1.808  1.00 20.00    -0.014 C 
HETATM    3  C3  UNL     1     -33.646   7.495   3.844  1.00 20.00     0.152 C 
HETATM    4  C4  UNL     1     -34.067   5.558   2.316  1.00 20.00     0.025 C 
HETATM    5  C5  UNL     1     -34.006   6.015   3.777  1.00 20.00     0.056 C 
HETATM    6  C6  UNL     1     -32.764   5.857   1.538  1.00 20.00    -0.029 C 
HETATM    7  C7  UNL     1     -35.336   5.745   4.475  1.00 20.00     0.018 C 
HETATM    8  C8  UNL     1     -33.045   5.692   0.033  1.00 20.00     0.019 C 
HETATM    9  C9  UNL     1     -31.647   4.879   1.939  1.00 20.00     0.019 C 
HETATM   10  O10 UNL     1     -34.050   8.238   4.736  1.00 20.00    -0.293 OA
ENDROOT
TORSDOF 0
ENDMDL
MODEL 5
REMARK VINA RESULT:       1.4      1.405      2.416
REMARK  0 active torsions:
REMARK  status: ('A' for Active; 'I' for Inactive)
ROOT
HETATM    1  C1  UNL     1     -32.963   4.964   2.579  1.00 20.00     0.047 C 
HETATM    2  C2  UNL     1     -33.899   5.454   3.399  1.00 20.00    -0.014 C 
HETATM    3  C3  UNL     1     -32.137   5.872   1.745  1.00 20.00     0.152 C 
HETATM    4  C4  UNL     1     -33.729   7.717   2.315  1.00 20.00     0.025 C 
HETATM    5  C5  UNL     1     -32.277   7.373   1.964  1.00 20.00     0.056 C 
HETATM    6  C6  UNL     1     -34.258   6.918   3.528  1.00 20.00    -0.029 C 
HETATM    7  C7  UNL     1     -31.831   8.150   0.727  1.00 20.00     0.018 C 
HETATM    8  C8  UNL     1     -35.790   7.064   3.578  1.00 20.00     0.019 C 
HETATM    9  C9  UNL     1     -33.670   7.459   4.842  1.00 20.00     0.019 C 
HETATM   10  O10 UNL     1     -31.327   5.388   0.957  1.00 20.00    -0.293 OA
ENDROOT
TORSDOF 0
ENDMDL
MODEL 6
REMARK VINA RESULT:       1.5      1.925      3.499
REMARK  0 active torsions:
REMARK  status: ('A' for Active; 'I' for Inactive)
ROOT
HETATM    1  C1  UNL     1     -34.598   7.751   3.748  1.00 20.00     0.047 C 
HETATM    2  C2  UNL     1     -33.705   8.464   3.053  1.00 20.00    -0.014 C 
HETATM    3  C3  UNL     1     -34.506   6.271   3.804  1.00 20.00     0.152 C 
HETATM    4  C4  UNL     1     -32.841   6.381   1.938  1.00 20.00     0.025 C 
HETATM    5  C5  UNL     1     -33.285   5.604   3.182  1.00 20.00     0.056 C 
HETATM    6  C6  UNL     1     -32.580   7.878   2.228  1.00 20.00    -0.029 C 
HETATM    7  C7  UNL     1     -33.581   4.149   2.823  1.00 20.00     0.018 C 
HETATM    8  C8  UNL     1     -32.489   8.626   0.885  1.00 20.00     0.019 C 
HETATM    9  C9  UNL     1     -31.256   8.068   2.986  1.00 20.00     0.019 C 
HETATM   10  O10 UNL     1     -35.377   5.641   4.400  1.00 20.00    -0.293 OA
ENDROOT
TORSDOF 0
ENDMDL
MODEL 7
REMARK VINA RESULT:       1.6      1.556      3.217
REMARK  0 active torsions:
REMARK  status: ('A' for Active; 'I' for Inactive)
ROOT
HETATM    1  C1  UNL     1     -34.107   6.086   3.560  1.00 20.00     0.047 C 
HETATM    2  C2  UNL     1     -33.821   5.348   2.482  1.00 20.00    -0.014 C 
HETATM    3  C3  UNL     1     -33.511   7.434   3.734  1.00 20.00     0.152 C 
HETATM    4  C4  UNL     1     -31.930   6.891   1.871  1.00 20.00     0.025 C 
HETATM    5  C5  UNL     1     -32.694   8.012   2.584  1.00 20.00     0.056 C 
HETATM    6  C6  UNL     1     -32.854   5.748   1.389  1.00 20.00    -0.029 C 
HETATM    7  C7  UNL     1     -31.725   9.081   3.085  1.00 20.00     0.018 C 
HETATM    8  C8  UNL     1     -31.978   4.538   1.015  1.00 20.00     0.019 C 
HETATM    9  C9  UNL     1     -33.656   6.176   0.148  1.00 20.00     0.019 C 
HETATM   10  O10 UNL     1     -33.746   8.063   4.764  1.00 20.00    -0.293 OA
ENDROOT
TORSDOF 0
ENDMDL
MODEL 8
REMARK VINA RESULT:       1.7      1.537      2.689
REMARK  0 active torsions:
REMARK  status: ('A' for Active; 'I' for Inactive)
ROOT
HETATM    1  C1  UNL     1     -32.175   6.385   1.883  1.00 20.00     0.047 C 
HETATM    2  C2  UNL     1     -33.037   6.200   2.888  1.00 20.00    -0.014 C 
HETATM    3  C3  UNL     1     -31.946   7.741   1.322  1.00 20.00     0.152 C 
HETATM    4  C4  UNL     1     -33.967   8.516   2.579  1.00 20.00     0.025 C 
HETATM    5  C5  UNL     1     -32.599   8.926   2.022  1.00 20.00     0.056 C 
HETATM    6  C6  UNL     1     -33.891   7.283   3.509  1.00 20.00    -0.029 C 
HETATM    7  C7  UNL     1     -32.746  10.110   1.070  1.00 20.00     0.018 C 
HETATM    8  C8  UNL     1     -35.318   6.747   3.725  1.00 20.00     0.019 C 
HETATM    9  C9  UNL     1     -33.297   7.662   4.877  1.00 20.00     0.019 C 
HETATM   10  O10 UNL     1     -31.194   7.869   0.359  1.00 20.00    -0.293 OA
ENDROOT
TORSDOF 0
ENDMDL
MODEL 9
REMARK VINA RESULT:       2.0      1.030      2.490
REMARK  0 active torsions:
REMARK  status: ('A' for Active; 'I' for Inactive)
ROOT
HETATM    1  C1  UNL     1     -33.043   6.443   1.263  1.00 20.00     0.047 C 
HETATM    2  C2  UNL     1     -33.978   5.811   1.981  1.00 20.00    -0.014 C 
HETATM    3  C3  UNL     1     -32.170   7.466   1.891  1.00 20.00     0.152 C 
HETATM    4  C4  UNL     1     -33.709   7.456   3.865  1.00 20.00     0.025 C 
HETATM    5  C5  UNL     1     -32.263   7.661   3.399  1.00 20.00     0.056 C 
HETATM    6  C6  UNL     1     -34.289   6.089   3.436  1.00 20.00    -0.029 C 
HETATM    7  C7  UNL     1     -31.765   9.047   3.803  1.00 20.00     0.018 C 
HETATM    8  C8  UNL     1     -35.816   6.123   3.633  1.00 20.00     0.019 C 
HETATM    9  C9  UNL     1     -33.709   4.951   4.294  1.00 20.00     0.019 C 
HETATM   10  O10 UNL     1     -31.361   8.072   1.190  1.00 20.00    -0.293 OA
ENDROOT
TORSDOF 0
ENDMDL
