MODEL 1
REMARK VINA RESULT:      -1.4      0.000      0.000
REMARK  3 active torsions:
REMARK  status: ('A' for Active; 'I' for Inactive)
REMARK    1  A    between atoms: C1_1  and  C4_4 
REMARK    2  A    between atoms: C2_2  and  C7_7 
REMARK    3  A    between atoms: C7_7  and  O8_8 
ROOT
HETATM    1  C1  UNL     1     -32.694   7.578   1.479  1.00 20.00    -0.070 C 
HETATM    2  C2  UNL     1     -32.480   8.617   0.914  1.00 20.00    -0.070 C 
ENDROOT
BRANCH   2   3
HETATM    3  C7  UNL     1     -32.216   9.886   0.225  1.00 20.00     0.193 C 
HETATM    4  C6  UNL     1     -32.671  11.070   1.065  1.00 20.00     0.053 C 
BRANCH   3   5
HETATM    5  O8  UNL     1     -32.921   9.925  -1.012  1.00 20.00    -0.384 OA
HETATM    6  H18 UNL     1     -32.396   9.412  -1.646  1.00 20.00     0.211 HD
ENDBRANCH   3   5
ENDBRANCH   2   3
BRANCH   1   7
HETATM    7  C4  UNL     1     -32.956   6.345   2.146  1.00 20.00    -0.018 C 
HETATM    8  C3  UNL     1     -32.403   5.214   1.681  1.00 20.00     0.028 C 
HETATM    9  C5  UNL     1     -33.844   6.349   3.355  1.00 20.00     0.057 C 
ENDBRANCH   1   7
TORSDOF 3
ENDMDL
MODEL 2
REMARK VINA RESULT:      -1.4      1.596      2.343
REMARK  3 active torsions:
REMARK  status: ('A' for Active; 'I' for Inactive)
REMARK    1  A    between atoms: C1_1  and  C4_4 
REMARK    2  A    between atoms: C2_2  and  C7_7 
REMARK    3  A    between atoms: C7_7  and  O8_8 
ROOT
HETATM    1  C1  UNL     1     -33.411   6.897   2.788  1.00 20.00    -0.070 C 
HETATM    2  C2  UNL     1     -32.700   7.660   2.192  1.00 20.00    -0.070 C 
ENDROOT
BRANCH   2   3
HETATM    3  C7  UNL     1     -31.829   8.591   1.463  1.00 20.00     0.193 C 
HETATM    4  C6  UNL     1     -32.646   9.623   0.702  1.00 20.00     0.053 C 
BRANCH   3   5
HETATM    5  O8  UNL     1     -31.032   7.877   0.523  1.00 20.00    -0.384 OA
HETATM    6  H18 UNL     1     -31.350   6.961   0.528  1.00 20.00     0.211 HD
ENDBRANCH   3   5
ENDBRANCH   2   3
BRANCH   1   7
HETATM    7  C4  UNL     1     -34.260   5.996   3.497  1.00 20.00    -0.018 C 
HETATM    8  C3  UNL     1     -35.421   6.444   3.999  1.00 20.00     0.028 C 
HETATM    9  C5  UNL     1     -33.828   4.569   3.661  1.00 20.00     0.057 C 
ENDBRANCH   1   7
TORSDOF 3
ENDMDL
MODEL 3
REMARK VINA RESULT:      -1.3      1.336      1.441
REMARK  3 active torsions:
REMARK  status: ('A' for Active; 'I' for Inactive)
REMARK    1  A    between atoms: C1_1  and  C4_4 
REMARK    2  A    between atoms: C2_2  and  C7_7 
REMARK    3  A    between atoms: C7_7  and  O8_8 
ROOT
HETATM    1  C1  UNL     1     -33.003   7.543   2.282  1.00 20.00    -0.070 C 
HETATM    2  C2  UNL     1     -32.428   8.335   1.584  1.00 20.00    -0.070 C 
ENDROOT
BRANCH   2   3
HETATM    3  C7  UNL     1     -31.723   9.302   0.734  1.00 20.00     0.193 C 
HETATM    4  C6  UNL     1     -32.704  10.178  -0.030  1.00 20.00     0.053 C 
BRANCH   3   5
HETATM    5  O8  UNL     1     -30.912   8.616  -0.216  1.00 20.00    -0.384 OA
HETATM    6  H18 UNL     1     -30.878   7.689   0.067  1.00 20.00     0.211 HD
ENDBRANCH   3   5
ENDBRANCH   2   3
BRANCH   1   7
HETATM    7  C4  UNL     1     -33.692   6.606   3.107  1.00 20.00    -0.018 C 
HETATM    8  C3  UNL     1     -33.498   5.293   2.914  1.00 20.00     0.028 C 
HETATM    9  C5  UNL     1     -34.616   7.120   4.171  1.00 20.00     0.057 C 
ENDBRANCH   1   7
TORSDOF 3
ENDMDL
MODEL 4
REMARK VINA RESULT:      -1.3      2.694      4.665
REMARK  3 active torsions:
REMARK  status: ('A' for Active; 'I' for Inactive)
REMARK    1  A    between atoms: C1_1  and  C4_4 
REMARK    2  A    between atoms: C2_2  and  C7_7 
REMARK    3  A    between atoms: C7_7  and  O8_8 
ROOT
HETATM    1  C1  UNL     1     -33.161   7.488   2.527  1.00 20.00    -0.070 C 
HETATM    2  C2  UNL     1     -33.947   6.929   3.244  1.00 20.00    -0.070 C 
ENDROOT
BRANCH   2   3
HETATM    3  C7  UNL     1     -34.909   6.248   4.120  1.00 20.00     0.193 C 
HETATM    4  C6  UNL     1     -34.569   4.772   4.264  1.00 20.00     0.053 C 
BRANCH   3   5
HETATM    5  O8  UNL     1     -36.221   6.348   3.574  1.00 20.00    -0.384 OA
HETATM    6  H18 UNL     1     -36.427   5.484   3.186  1.00 20.00     0.211 HD
ENDBRANCH   3   5
ENDBRANCH   2   3
BRANCH   1   7
HETATM    7  C4  UNL     1     -32.224   8.147   1.678  1.00 20.00    -0.018 C 
HETATM    8  C3  UNL     1     -30.978   7.659   1.570  1.00 20.00     0.028 C 
HETATM    9  C5  UNL     1     -32.660   9.370   0.927  1.00 20.00     0.057 C 
ENDBRANCH   1   7
TORSDOF 3
ENDMDL
MODEL 5
REMARK VINA RESULT:      -1.2      0.783      1.472
REMARK  3 active torsions:
REMARK  status: ('A' for Active; 'I' for Inactive)
REMARK    1  A    between atoms: C1_1  and  C4_4 
REMARK    2  A    between atoms: C2_2  and  C7_7 
REMARK    3  A    between atoms: C7_7  and  O8_8 
ROOT
HETATM    1  C1  UNL     1     -33.043   7.808   2.061  1.00 20.00    -0.070 C 
HETATM    2  C2  UNL     1     -32.642   8.621   1.271  1.00 20.00    -0.070 C 
ENDROOT
BRANCH   2   3
HETATM    3  C7  UNL     1     -32.154   9.611   0.304  1.00 20.00     0.193 C 
HETATM    4  C6  UNL     1     -32.516  11.024   0.735  1.00 20.00     0.053 C 
BRANCH   3   5
HETATM    5  O8  UNL     1     -32.740   9.376  -0.973  1.00 20.00    -0.384 OA
HETATM    6  H18 UNL     1     -32.120   9.726  -1.631  1.00 20.00     0.211 HD
ENDBRANCH   3   5
ENDBRANCH   2   3
BRANCH   1   7
HETATM    7  C4  UNL     1     -33.514   6.848   3.004  1.00 20.00    -0.018 C 
HETATM    8  C3  UNL     1     -34.175   7.267   4.094  1.00 20.00     0.028 C 
HETATM    9  C5  UNL     1     -33.257   5.393   2.748  1.00 20.00     0.057 C 
ENDBRANCH   1   7
TORSDOF 3
ENDMDL
MODEL 6
REMARK VINA RESULT:      -1.2      2.634      4.392
REMARK  3 active torsions:
REMARK  status: ('A' for Active; 'I' for Inactive)
REMARK    1  A    between atoms: C1_1  and  C4_4 
REMARK    2  A    between atoms: C2_2  and  C7_7 
REMARK    3  A    between atoms: C7_7  and  O8_8 
ROOT
HETATM    1  C1  UNL     1     -32.579   8.405   1.792  1.00 20.00    -0.070 C 
HETATM    2  C2  UNL     1     -33.017   7.843   2.760  1.00 20.00    -0.070 C 
ENDROOT
BRANCH   2   3
HETATM    3  C7  UNL     1     -33.552   7.155   3.941  1.00 20.00     0.193 C 
HETATM    4  C6  UNL     1     -34.938   6.593   3.668  1.00 20.00     0.053 C 
BRANCH   3   5
HETATM    5  O8  UNL     1     -33.651   8.064   5.033  1.00 20.00    -0.384 OA
HETATM    6  H18 UNL     1     -33.416   8.939   4.687  1.00 20.00     0.211 HD
ENDBRANCH   3   5
ENDBRANCH   2   3
BRANCH   1   7
HETATM    7  C4  UNL     1     -32.063   9.078   0.646  1.00 20.00    -0.018 C 
HETATM    8  C3  UNL     1     -31.062   8.519  -0.050  1.00 20.00     0.028 C 
HETATM    9  C5  UNL     1     -32.658  10.397   0.250  1.00 20.00     0.057 C 
ENDBRANCH   1   7
TORSDOF 3
ENDMDL
MODEL 7
REMARK VINA RESULT:      -1.0      1.860      2.685
REMARK  3 active torsions:
REMARK  status: ('A' for Active; 'I' for Inactive)
REMARK    1  A    between atoms: C1_1  and  C4_4 
REMARK    2  A    between atoms: C2_2  and  C7_7 
REMARK    3  A    between atoms: C7_7  and  O8_8 
ROOT
HETATM    1  C1  UNL     1     -33.537   6.381   2.968  1.00 20.00    -0.070 C 
HETATM    2  C2  UNL     1     -32.801   7.074   2.317  1.00 20.00    -0.070 C 
ENDROOT
BRANCH   2   3
HETATM    3  C7  UNL     1     -31.902   7.922   1.526  1.00 20.00     0.193 C 
HETATM    4  C6  UNL     1     -30.879   8.615   2.413  1.00 20.00     0.053 C 
BRANCH   3   5
HETATM    5  O8  UNL     1     -32.651   8.926   0.846  1.00 20.00    -0.384 OA
HETATM    6  H18 UNL     1     -33.466   8.502   0.538  1.00 20.00     0.211 HD
ENDBRANCH   3   5
ENDBRANCH   2   3
BRANCH   1   7
HETATM    7  C4  UNL     1     -34.414   5.557   3.733  1.00 20.00    -0.018 C 
HETATM    8  C3  UNL     1     -35.568   6.070   4.188  1.00 20.00     0.028 C 
HETATM    9  C5  UNL     1     -34.020   4.136   4.008  1.00 20.00     0.057 C 
ENDBRANCH   1   7
TORSDOF 3
ENDMDL
MODEL 8
REMARK VINA RESULT:      -1.0      2.618      4.520
REMARK  3 active torsions:
REMARK  status: ('A' for Active; 'I' for Inactive)
REMARK    1  A    between atoms: C1_1  and  C4_4 
REMARK    2  A    between atoms: C2_2  and  C7_7 
REMARK    3  A    between atoms: C7_7  and  O8_8 
ROOT
HETATM    1  C1  UNL     1     -32.443   8.608   1.576  1.00 20.00    -0.070 C 
HETATM    2  C2  UNL     1     -32.754   8.008   2.569  1.00 20.00    -0.070 C 
ENDROOT
BRANCH   2   3
HETATM    3  C7  UNL     1     -33.134   7.272   3.782  1.00 20.00     0.193 C 
HETATM    4  C6  UNL     1     -34.613   6.918   3.768  1.00 20.00     0.053 C 
BRANCH   3   5
HETATM    5  O8  UNL     1     -32.881   8.070   4.935  1.00 20.00    -0.384 OA
HETATM    6  H18 UNL     1     -33.617   7.912   5.547  1.00 20.00     0.211 HD
ENDBRANCH   3   5
ENDBRANCH   2   3
BRANCH   1   7
HETATM    7  C4  UNL     1     -32.078   9.327   0.399  1.00 20.00    -0.018 C 
HETATM    8  C3  UNL     1     -32.718  10.467   0.099  1.00 20.00     0.028 C 
HETATM    9  C5  UNL     1     -30.984   8.783  -0.472  1.00 20.00     0.057 C 
ENDBRANCH   1   7
TORSDOF 3
ENDMDL
MODEL 9
REMARK VINA RESULT:      -0.8      2.846      4.726
REMARK  3 active torsions:
REMARK  status: ('A' for Active; 'I' for Inactive)
REMARK    1  A    between atoms: C1_1  and  C4_4 
REMARK    2  A    between atoms: C2_2  and  C7_7 
REMARK    3  A    between atoms: C7_7  and  O8_8 
ROOT
HETATM    1  C1  UNL     1     -33.259   6.621   2.500  1.00 20.00    -0.070 C 
HETATM    2  C2  UNL     1     -34.193   6.467   3.240  1.00 20.00    -0.070 C 
ENDROOT
BRANCH   2   3
HETATM    3  C7  UNL     1     -35.332   6.279   4.146  1.00 20.00     0.193 C 
HETATM    4  C6  UNL     1     -35.320   4.888   4.761  1.00 20.00     0.053 C 
BRANCH   3   5
HETATM    5  O8  UNL     1     -36.555   6.436   3.432  1.00 20.00    -0.384 OA
HETATM    6  H18 UNL     1     -36.523   7.313   3.019  1.00 20.00     0.211 HD
ENDBRANCH   3   5
ENDBRANCH   2   3
BRANCH   1   7
HETATM    7  C4  UNL     1     -32.154   6.802   1.615  1.00 20.00    -0.018 C 
HETATM    8  C3  UNL     1     -31.651   8.032   1.433  1.00 20.00     0.028 C 
HETATM    9  C5  UNL     1     -31.585   5.605   0.912  1.00 20.00     0.057 C 
ENDBRANCH   1   7
TORSDOF 3
ENDMDL
