MODEL 1
REMARK VINA RESULT:       0.0      0.000      0.000
REMARK  1 active torsions:
REMARK  status: ('A' for Active; 'I' for Inactive)
REMARK    1  A    between atoms: C5_5  and  C10_10 
ROOT
HETATM    1  C1  UNL     1     -33.075   8.124   3.304  1.00 20.00    -0.018 C 
HETATM    2  C2  UNL     1     -34.066   7.394   3.832  1.00 20.00    -0.025 C 
HETATM    3  C3  UNL     1     -32.535   6.261   1.730  1.00 20.00     0.135 C 
HETATM    4  C4  UNL     1     -33.967   5.797   1.887  1.00 20.00     0.087 C 
HETATM    5  C5  UNL     1     -32.217   7.691   2.149  1.00 20.00     0.081 C 
HETATM    6  C6  UNL     1     -34.474   6.043   3.311  1.00 20.00     0.010 C 
HETATM    7  C7  UNL     1     -33.999   4.950   4.270  1.00 20.00     0.014 C 
HETATM    8  O11 UNL     1     -31.686   5.546   1.200  1.00 20.00    -0.297 OA
ENDROOT
BRANCH   5   9
HETATM    9  C10 UNL     1     -32.384   8.623   0.954  1.00 20.00    -0.008 C 
HETATM   10  C8  UNL     1     -32.824  10.014   1.410  1.00 20.00     0.010 C 
HETATM   11  C9  UNL     1     -31.085   8.711   0.153  1.00 20.00     0.010 C 
ENDBRANCH   5   9
TORSDOF 1
ENDMDL
MODEL 2
REMARK VINA RESULT:       0.3      0.972      3.916
REMARK  1 active torsions:
REMARK  status: ('A' for Active; 'I' for Inactive)
REMARK    1  A    between atoms: C5_5  and  C10_10 
ROOT
HETATM    1  C1  UNL     1     -33.822   7.647   3.512  1.00 20.00    -0.018 C 
HETATM    2  C2  UNL     1     -32.798   8.425   3.137  1.00 20.00    -0.025 C 
HETATM    3  C3  UNL     1     -33.192   5.972   1.769  1.00 20.00     0.135 C 
HETATM    4  C4  UNL     1     -31.783   6.518   1.842  1.00 20.00     0.087 C 
HETATM    5  C5  UNL     1     -34.125   6.296   2.930  1.00 20.00     0.081 C 
HETATM    6  C6  UNL     1     -31.789   8.029   2.095  1.00 20.00     0.010 C 
HETATM    7  C7  UNL     1     -32.040   8.810   0.803  1.00 20.00     0.014 C 
HETATM    8  O11 UNL     1     -33.540   5.221   0.859  1.00 20.00    -0.297 OA
ENDROOT
BRANCH   5   9
HETATM    9  C10 UNL     1     -34.027   5.201   3.986  1.00 20.00    -0.008 C 
HETATM   10  C8  UNL     1     -35.361   5.029   4.712  1.00 20.00     0.010 C 
HETATM   11  C9  UNL     1     -33.589   3.880   3.355  1.00 20.00     0.010 C 
ENDBRANCH   5   9
TORSDOF 1
ENDMDL
MODEL 3
REMARK VINA RESULT:       1.2      1.801      2.993
REMARK  1 active torsions:
REMARK  status: ('A' for Active; 'I' for Inactive)
REMARK    1  A    between atoms: C5_5  and  C10_10 
ROOT
HETATM    1  C1  UNL     1     -32.306   7.036   2.063  1.00 20.00    -0.018 C 
HETATM    2  C2  UNL     1     -32.929   8.025   2.718  1.00 20.00    -0.025 C 
HETATM    3  C3  UNL     1     -33.648   5.350   3.327  1.00 20.00     0.135 C 
HETATM    4  C4  UNL     1     -34.698   6.422   3.519  1.00 20.00     0.087 C 
HETATM    5  C5  UNL     1     -32.616   5.575   2.228  1.00 20.00     0.081 C 
HETATM    6  C6  UNL     1     -34.055   7.801   3.689  1.00 20.00     0.010 C 
HETATM    7  C7  UNL     1     -33.556   8.012   5.121  1.00 20.00     0.014 C 
HETATM    8  O11 UNL     1     -33.682   4.300   3.966  1.00 20.00    -0.297 OA
ENDROOT
BRANCH   5   9
HETATM    9  C10 UNL     1     -33.115   4.964   0.924  1.00 20.00    -0.008 C 
HETATM   10  C8  UNL     1     -33.840   6.011   0.078  1.00 20.00     0.010 C 
HETATM   11  C9  UNL     1     -31.958   4.350   0.137  1.00 20.00     0.010 C 
ENDBRANCH   5   9
TORSDOF 1
ENDMDL
MODEL 4
REMARK VINA RESULT:       1.3      0.512      1.184
REMARK  1 active torsions:
REMARK  status: ('A' for Active; 'I' for Inactive)
REMARK    1  A    between atoms: C5_5  and  C10_10 
ROOT
HETATM    1  C1  UNL     1     -32.759   8.199   3.664  1.00 20.00    -0.018 C 
HETATM    2  C2  UNL     1     -33.936   7.678   4.037  1.00 20.00    -0.025 C 
HETATM    3  C3  UNL     1     -32.551   6.462   1.881  1.00 20.00     0.135 C 
HETATM    4  C4  UNL     1     -34.060   6.350   1.900  1.00 20.00     0.087 C 
HETATM    5  C5  UNL     1     -31.937   7.709   2.507  1.00 20.00     0.081 C 
HETATM    6  C6  UNL     1     -34.609   6.542   3.317  1.00 20.00     0.010 C 
HETATM    7  C7  UNL     1     -34.489   5.259   4.141  1.00 20.00     0.014 C 
HETATM    8  O11 UNL     1     -31.855   5.628   1.303  1.00 20.00    -0.297 OA
ENDROOT
BRANCH   5   9
HETATM    9  C10 UNL     1     -31.777   8.789   1.443  1.00 20.00    -0.008 C 
HETATM   10  C8  UNL     1     -31.470   8.166   0.081  1.00 20.00     0.010 C 
HETATM   11  C9  UNL     1     -33.031   9.657   1.362  1.00 20.00     0.010 C 
ENDBRANCH   5   9
TORSDOF 1
ENDMDL
MODEL 5
REMARK VINA RESULT:       1.6      1.728      4.395
REMARK  1 active torsions:
REMARK  status: ('A' for Active; 'I' for Inactive)
REMARK    1  A    between atoms: C5_5  and  C10_10 
ROOT
HETATM    1  C1  UNL     1     -32.435   5.622   2.014  1.00 20.00    -0.018 C 
HETATM    2  C2  UNL     1     -32.250   6.553   1.068  1.00 20.00    -0.025 C 
HETATM    3  C3  UNL     1     -33.299   7.374   3.573  1.00 20.00     0.135 C 
HETATM    4  C4  UNL     1     -33.674   8.186   2.352  1.00 20.00     0.087 C 
HETATM    5  C5  UNL     1     -33.037   5.886   3.365  1.00 20.00     0.081 C 
HETATM    6  C6  UNL     1     -32.655   7.993   1.226  1.00 20.00     0.010 C 
HETATM    7  C7  UNL     1     -31.413   8.862   1.441  1.00 20.00     0.014 C 
HETATM    8  O11 UNL     1     -33.298   7.872   4.697  1.00 20.00    -0.297 OA
ENDROOT
BRANCH   5   9
HETATM    9  C10 UNL     1     -34.333   5.107   3.558  1.00 20.00    -0.008 C 
HETATM   10  C8  UNL     1     -34.084   3.837   4.371  1.00 20.00     0.010 C 
HETATM   11  C9  UNL     1     -35.390   5.976   4.237  1.00 20.00     0.010 C 
ENDBRANCH   5   9
TORSDOF 1
ENDMDL
MODEL 6
REMARK VINA RESULT:       1.7      1.820      4.248
REMARK  1 active torsions:
REMARK  status: ('A' for Active; 'I' for Inactive)
REMARK    1  A    between atoms: C5_5  and  C10_10 
ROOT
HETATM    1  C1  UNL     1     -33.386   5.693   2.540  1.00 20.00    -0.018 C 
HETATM    2  C2  UNL     1     -32.869   6.331   1.481  1.00 20.00    -0.025 C 
HETATM    3  C3  UNL     1     -33.159   7.773   3.907  1.00 20.00     0.135 C 
HETATM    4  C4  UNL     1     -33.214   8.555   2.612  1.00 20.00     0.087 C 
HETATM    5  C5  UNL     1     -33.659   6.333   3.872  1.00 20.00     0.081 C 
HETATM    6  C6  UNL     1     -32.521   7.794   1.478  1.00 20.00     0.010 C 
HETATM    7  C7  UNL     1     -31.001   7.968   1.536  1.00 20.00     0.014 C 
HETATM    8  O11 UNL     1     -32.815   8.304   4.961  1.00 20.00    -0.297 OA
ENDROOT
BRANCH   5   9
HETATM    9  C10 UNL     1     -35.145   6.299   4.209  1.00 20.00    -0.008 C 
HETATM   10  C8  UNL     1     -35.984   6.721   3.002  1.00 20.00     0.010 C 
HETATM   11  C9  UNL     1     -35.559   4.908   4.686  1.00 20.00     0.010 C 
ENDBRANCH   5   9
TORSDOF 1
ENDMDL
MODEL 7
REMARK VINA RESULT:       1.8      1.061      3.799
REMARK  1 active torsions:
REMARK  status: ('A' for Active; 'I' for Inactive)
REMARK    1  A    between atoms: C5_5  and  C10_10 
ROOT
HETATM    1  C1  UNL     1     -33.829   8.695   2.403  1.00 20.00    -0.018 C 
HETATM    2  C2  UNL     1     -32.800   9.368   1.870  1.00 20.00    -0.025 C 
HETATM    3  C3  UNL     1     -32.772   6.535   1.723  1.00 20.00     0.135 C 
HETATM    4  C4  UNL     1     -31.439   7.251   1.747  1.00 20.00     0.087 C 
HETATM    5  C5  UNL     1     -33.931   7.197   2.459  1.00 20.00     0.081 C 
HETATM    6  C6  UNL     1     -31.585   8.703   1.282  1.00 20.00     0.010 C 
HETATM    7  C7  UNL     1     -31.627   8.800  -0.245  1.00 20.00     0.014 C 
HETATM    8  O11 UNL     1     -32.891   5.422   1.213  1.00 20.00    -0.297 OA
ENDROOT
BRANCH   5   9
HETATM    9  C10 UNL     1     -33.975   6.698   3.899  1.00 20.00    -0.008 C 
HETATM   10  C8  UNL     1     -33.775   7.855   4.878  1.00 20.00     0.010 C 
HETATM   11  C9  UNL     1     -35.294   5.982   4.182  1.00 20.00     0.010 C 
ENDBRANCH   5   9
TORSDOF 1
ENDMDL
MODEL 8
REMARK VINA RESULT:       1.9      1.813      3.547
REMARK  1 active torsions:
REMARK  status: ('A' for Active; 'I' for Inactive)
REMARK    1  A    between atoms: C5_5  and  C10_10 
ROOT
HETATM    1  C1  UNL     1     -33.288   5.172   3.277  1.00 20.00    -0.018 C 
HETATM    2  C2  UNL     1     -33.207   4.444   2.155  1.00 20.00    -0.025 C 
HETATM    3  C3  UNL     1     -32.509   7.190   2.028  1.00 20.00     0.135 C 
HETATM    4  C4  UNL     1     -33.043   6.541   0.769  1.00 20.00     0.087 C 
HETATM    5  C5  UNL     1     -33.013   6.646   3.359  1.00 20.00     0.081 C 
HETATM    6  C6  UNL     1     -32.857   5.022   0.811  1.00 20.00     0.010 C 
HETATM    7  C7  UNL     1     -31.430   4.623   0.429  1.00 20.00     0.014 C 
HETATM    8  O11 UNL     1     -31.773   8.175   1.977  1.00 20.00    -0.297 OA
ENDROOT
BRANCH   5   9
HETATM    9  C10 UNL     1     -34.254   7.419   3.791  1.00 20.00    -0.008 C 
HETATM   10  C8  UNL     1     -35.428   6.470   4.025  1.00 20.00     0.010 C 
HETATM   11  C9  UNL     1     -33.970   8.237   5.050  1.00 20.00     0.010 C 
ENDBRANCH   5   9
TORSDOF 1
ENDMDL
MODEL 9
REMARK VINA RESULT:       2.1      1.902      3.396
REMARK  1 active torsions:
REMARK  status: ('A' for Active; 'I' for Inactive)
REMARK    1  A    between atoms: C5_5  and  C10_10 
ROOT
HETATM    1  C1  UNL     1     -32.460   7.813   2.143  1.00 20.00    -0.018 C 
HETATM    2  C2  UNL     1     -32.104   6.790   1.354  1.00 20.00    -0.025 C 
HETATM    3  C3  UNL     1     -34.145   6.357   3.275  1.00 20.00     0.135 C 
HETATM    4  C4  UNL     1     -33.305   5.168   2.862  1.00 20.00     0.087 C 
HETATM    5  C5  UNL     1     -33.477   7.726   3.246  1.00 20.00     0.081 C 
HETATM    6  C6  UNL     1     -32.660   5.399   1.492  1.00 20.00     0.010 C 
HETATM    7  C7  UNL     1     -33.645   5.116   0.356  1.00 20.00     0.014 C 
HETATM    8  O11 UNL     1     -35.288   6.213   3.707  1.00 20.00    -0.297 OA
ENDROOT
BRANCH   5   9
HETATM    9  C10 UNL     1     -32.849   8.019   4.603  1.00 20.00    -0.008 C 
HETATM   10  C8  UNL     1     -31.711   9.030   4.466  1.00 20.00     0.010 C 
HETATM   11  C9  UNL     1     -33.902   8.532   5.585  1.00 20.00     0.010 C 
ENDBRANCH   5   9
TORSDOF 1
ENDMDL
