MODEL 1
REMARK VINA RESULT:       0.3      0.000      0.000
REMARK  0 active torsions:
REMARK  status: ('A' for Active; 'I' for Inactive)
ROOT
HETATM    1  C1  UNL     1     -32.549   7.597   2.230  1.00 20.00     0.130 C 
HETATM    2  C2  UNL     1     -32.659   8.029   3.670  1.00 20.00     0.079 C 
HETATM    3  C3  UNL     1     -33.972   7.580   4.307  1.00 20.00     0.016 C 
HETATM    4  C4  UNL     1     -33.547   5.423   3.023  1.00 20.00     0.020 C 
HETATM    5  C5  UNL     1     -32.656   6.102   1.968  1.00 20.00     0.052 C 
HETATM    6  C6  UNL     1     -34.624   6.332   3.661  1.00 20.00    -0.047 C 
HETATM    7  C7  UNL     1     -33.116   5.811   0.541  1.00 20.00     0.018 C 
HETATM    8  C8  UNL     1     -35.366   5.530   4.750  1.00 20.00     0.015 C 
HETATM    9  C9  UNL     1     -35.673   6.771   2.620  1.00 20.00     0.015 C 
HETATM   10  O10 UNL     1     -32.304   8.410   1.339  1.00 20.00    -0.298 OA
ENDROOT
TORSDOF 0
ENDMDL
MODEL 2
REMARK VINA RESULT:       1.3      1.488      3.225
REMARK  0 active torsions:
REMARK  status: ('A' for Active; 'I' for Inactive)
ROOT
HETATM    1  C1  UNL     1     -33.423   7.735   3.770  1.00 20.00     0.130 C 
HETATM    2  C2  UNL     1     -32.447   8.192   2.715  1.00 20.00     0.079 C 
HETATM    3  C3  UNL     1     -31.926   7.032   1.871  1.00 20.00     0.016 C 
HETATM    4  C4  UNL     1     -34.339   6.227   1.970  1.00 20.00     0.020 C 
HETATM    5  C5  UNL     1     -34.653   6.991   3.269  1.00 20.00     0.052 C 
HETATM    6  C6  UNL     1     -32.863   5.800   1.795  1.00 20.00    -0.047 C 
HETATM    7  C7  UNL     1     -35.244   6.089   4.349  1.00 20.00     0.018 C 
HETATM    8  C8  UNL     1     -32.702   5.128   0.416  1.00 20.00     0.015 C 
HETATM    9  C9  UNL     1     -32.450   4.765   2.861  1.00 20.00     0.015 C 
HETATM   10  O10 UNL     1     -33.262   8.026   4.954  1.00 20.00    -0.298 OA
ENDROOT
TORSDOF 0
ENDMDL
MODEL 3
REMARK VINA RESULT:       1.4      1.844      3.320
REMARK  0 active torsions:
REMARK  status: ('A' for Active; 'I' for Inactive)
ROOT
HETATM    1  C1  UNL     1     -33.509   5.586   2.934  1.00 20.00     0.130 C 
HETATM    2  C2  UNL     1     -34.267   6.787   3.439  1.00 20.00     0.079 C 
HETATM    3  C3  UNL     1     -33.529   8.094   3.156  1.00 20.00     0.016 C 
HETATM    4  C4  UNL     1     -33.019   7.008   0.910  1.00 20.00     0.020 C 
HETATM    5  C5  UNL     1     -33.185   5.574   1.446  1.00 20.00     0.052 C 
HETATM    6  C6  UNL     1     -32.554   8.052   1.953  1.00 20.00    -0.047 C 
HETATM    7  C7  UNL     1     -31.976   4.693   1.140  1.00 20.00     0.018 C 
HETATM    8  C8  UNL     1     -32.522   9.440   1.281  1.00 20.00     0.015 C 
HETATM    9  C9  UNL     1     -31.126   7.749   2.449  1.00 20.00     0.015 C 
HETATM   10  O10 UNL     1     -33.247   4.640   3.675  1.00 20.00    -0.298 OA
ENDROOT
TORSDOF 0
ENDMDL
MODEL 4
REMARK VINA RESULT:       2.0      1.576      3.099
REMARK  0 active torsions:
REMARK  status: ('A' for Active; 'I' for Inactive)
ROOT
HETATM    1  C1  UNL     1     -33.538   7.637   3.116  1.00 20.00     0.130 C 
HETATM    2  C2  UNL     1     -33.584   6.229   3.654  1.00 20.00     0.079 C 
HETATM    3  C3  UNL     1     -33.457   5.185   2.547  1.00 20.00     0.016 C 
HETATM    4  C4  UNL     1     -31.706   6.778   1.612  1.00 20.00     0.020 C 
HETATM    5  C5  UNL     1     -32.294   8.011   2.322  1.00 20.00     0.052 C 
HETATM    6  C6  UNL     1     -32.724   5.665   1.270  1.00 20.00    -0.047 C 
HETATM    7  C7  UNL     1     -32.566   9.164   1.359  1.00 20.00     0.018 C 
HETATM    8  C8  UNL     1     -31.965   4.476   0.647  1.00 20.00     0.015 C 
HETATM    9  C9  UNL     1     -33.752   6.149   0.229  1.00 20.00     0.015 C 
HETATM   10  O10 UNL     1     -34.424   8.449   3.380  1.00 20.00    -0.298 OA
ENDROOT
TORSDOF 0
ENDMDL
MODEL 5
REMARK VINA RESULT:       2.2      1.749      3.864
REMARK  0 active torsions:
REMARK  status: ('A' for Active; 'I' for Inactive)
ROOT
HETATM    1  C1  UNL     1     -34.076   6.490   3.430  1.00 20.00     0.130 C 
HETATM    2  C2  UNL     1     -33.418   5.650   2.366  1.00 20.00     0.079 C 
HETATM    3  C3  UNL     1     -32.706   6.502   1.317  1.00 20.00     0.016 C 
HETATM    4  C4  UNL     1     -31.982   7.890   3.325  1.00 20.00     0.020 C 
HETATM    5  C5  UNL     1     -33.163   7.434   4.200  1.00 20.00     0.052 C 
HETATM    6  C6  UNL     1     -32.255   7.903   1.802  1.00 20.00    -0.047 C 
HETATM    7  C7  UNL     1     -33.937   8.608   4.795  1.00 20.00     0.018 C 
HETATM    8  C8  UNL     1     -30.956   8.297   1.070  1.00 20.00     0.015 C 
HETATM    9  C9  UNL     1     -33.325   8.951   1.435  1.00 20.00     0.015 C 
HETATM   10  O10 UNL     1     -35.267   6.352   3.704  1.00 20.00    -0.298 OA
ENDROOT
TORSDOF 0
ENDMDL
MODEL 6
REMARK VINA RESULT:       2.4      2.254      3.612
REMARK  0 active torsions:
REMARK  status: ('A' for Active; 'I' for Inactive)
ROOT
HETATM    1  C1  UNL     1     -35.235   5.338   4.112  1.00 20.00     0.130 C 
HETATM    2  C2  UNL     1     -35.836   6.542   3.433  1.00 20.00     0.079 C 
HETATM    3  C3  UNL     1     -34.828   7.678   3.274  1.00 20.00     0.016 C 
HETATM    4  C4  UNL     1     -33.212   5.802   2.680  1.00 20.00     0.020 C 
HETATM    5  C5  UNL     1     -34.013   4.728   3.438  1.00 20.00     0.052 C 
HETATM    6  C6  UNL     1     -33.342   7.239   3.238  1.00 20.00    -0.047 C 
HETATM    7  C7  UNL     1     -33.153   3.950   4.430  1.00 20.00     0.018 C 
HETATM    8  C8  UNL     1     -32.555   8.198   2.322  1.00 20.00     0.015 C 
HETATM    9  C9  UNL     1     -32.732   7.348   4.650  1.00 20.00     0.015 C 
HETATM   10  O10 UNL     1     -35.760   4.839   5.106  1.00 20.00    -0.298 OA
ENDROOT
TORSDOF 0
ENDMDL
MODEL 7
REMARK VINA RESULT:       2.5      2.039      3.742
REMARK  0 active torsions:
REMARK  status: ('A' for Active; 'I' for Inactive)
ROOT
HETATM    1  C1  UNL     1     -33.661   4.800   3.584  1.00 20.00     0.130 C 
HETATM    2  C2  UNL     1     -32.247   4.590   3.106  1.00 20.00     0.079 C 
HETATM    3  C3  UNL     1     -31.925   5.432   1.874  1.00 20.00     0.016 C 
HETATM    4  C4  UNL     1     -33.243   7.237   3.092  1.00 20.00     0.020 C 
HETATM    5  C5  UNL     1     -34.045   6.231   3.937  1.00 20.00     0.052 C 
HETATM    6  C6  UNL     1     -32.776   6.716   1.712  1.00 20.00    -0.047 C 
HETATM    7  C7  UNL     1     -35.552   6.452   3.835  1.00 20.00     0.018 C 
HETATM    8  C8  UNL     1     -31.922   7.807   1.036  1.00 20.00     0.015 C 
HETATM    9  C9  UNL     1     -33.976   6.434   0.786  1.00 20.00     0.015 C 
HETATM   10  O10 UNL     1     -34.424   3.850   3.752  1.00 20.00    -0.298 OA
ENDROOT
TORSDOF 0
ENDMDL
MODEL 8
REMARK VINA RESULT:       2.9      1.196      2.413
REMARK  0 active torsions:
REMARK  status: ('A' for Active; 'I' for Inactive)
ROOT
HETATM    1  C1  UNL     1     -32.002   7.066   1.618  1.00 20.00     0.130 C 
HETATM    2  C2  UNL     1     -32.462   5.645   1.823  1.00 20.00     0.079 C 
HETATM    3  C3  UNL     1     -33.337   5.497   3.065  1.00 20.00     0.016 C 
HETATM    4  C4  UNL     1     -34.348   7.701   2.288  1.00 20.00     0.020 C 
HETATM    5  C5  UNL     1     -33.099   8.114   1.490  1.00 20.00     0.052 C 
HETATM    6  C6  UNL     1     -34.080   6.784   3.505  1.00 20.00    -0.047 C 
HETATM    7  C7  UNL     1     -32.596   9.505   1.870  1.00 20.00     0.018 C 
HETATM    8  C8  UNL     1     -35.431   6.396   4.139  1.00 20.00     0.015 C 
HETATM    9  C9  UNL     1     -33.259   7.516   4.586  1.00 20.00     0.015 C 
HETATM   10  O10 UNL     1     -30.810   7.336   1.482  1.00 20.00    -0.298 OA
ENDROOT
TORSDOF 0
ENDMDL
MODEL 9
REMARK VINA RESULT:       3.0      2.048      3.035
REMARK  0 active torsions:
REMARK  status: ('A' for Active; 'I' for Inactive)
ROOT
HETATM    1  C1  UNL     1     -33.785   4.720   3.468  1.00 20.00     0.130 C 
HETATM    2  C2  UNL     1     -35.067   5.191   4.106  1.00 20.00     0.079 C 
HETATM    3  C3  UNL     1     -35.036   6.683   4.428  1.00 20.00     0.016 C 
HETATM    4  C4  UNL     1     -33.885   6.876   2.166  1.00 20.00     0.020 C 
HETATM    5  C5  UNL     1     -33.378   5.423   2.181  1.00 20.00     0.052 C 
HETATM    6  C6  UNL     1     -34.070   7.525   3.558  1.00 20.00    -0.047 C 
HETATM    7  C7  UNL     1     -31.874   5.328   1.938  1.00 20.00     0.018 C 
HETATM    8  C8  UNL     1     -34.661   8.937   3.370  1.00 20.00     0.015 C 
HETATM    9  C9  UNL     1     -32.719   7.686   4.283  1.00 20.00     0.015 C 
HETATM   10  O10 UNL     1     -33.157   3.767   3.929  1.00 20.00    -0.298 OA
ENDROOT
TORSDOF 0
ENDMDL
