MODEL 1
REMARK VINA RESULT:      -2.2      0.000      0.000
REMARK  4 active torsions:
REMARK  status: ('A' for Active; 'I' for Inactive)
REMARK    1  A    between atoms: C1_1  and  C4_4 
REMARK    2  A    between atoms: C2_2  and  C7_7 
REMARK    3  A    between atoms: C7_7  and  C8_8 
REMARK    4  A    between atoms: C8_8  and  O9_9 
ROOT
HETATM    1  C1  UNL     1     -33.056   7.800   2.747  1.00 20.00    -0.072 C 
HETATM    2  C2  UNL     1     -32.387   8.123   1.804  1.00 20.00    -0.099 C 
ENDROOT
BRANCH   2   3
HETATM    3  C7  UNL     1     -31.566   8.518   0.647  1.00 20.00     0.125 C 
BRANCH   3   4
HETATM    4  C8  UNL     1     -32.071   9.822   0.026  1.00 20.00     0.125 C 
HETATM    5  C6  UNL     1     -32.786  10.682   1.060  1.00 20.00     0.040 C 
BRANCH   4   6
HETATM    6  O9  UNL     1     -32.993   9.506  -1.017  1.00 20.00    -0.395 OA
HETATM    7  H21 UNL     1     -32.969  10.249  -1.639  1.00 20.00     0.210 HD
ENDBRANCH   4   6
ENDBRANCH   3   4
ENDBRANCH   2   3
BRANCH   1   8
HETATM    8  C4  UNL     1     -33.851   7.421   3.869  1.00 20.00    -0.018 C 
HETATM    9  C3  UNL     1     -33.678   8.053   5.040  1.00 20.00     0.028 C 
HETATM   10  C5  UNL     1     -34.861   6.323   3.707  1.00 20.00     0.057 C 
ENDBRANCH   1   8
TORSDOF 4
ENDMDL
MODEL 2
REMARK VINA RESULT:      -2.1      0.070      1.171
REMARK  4 active torsions:
REMARK  status: ('A' for Active; 'I' for Inactive)
REMARK    1  A    between atoms: C1_1  and  C4_4 
REMARK    2  A    between atoms: C2_2  and  C7_7 
REMARK    3  A    between atoms: C7_7  and  C8_8 
REMARK    4  A    between atoms: C8_8  and  O9_9 
ROOT
HETATM    1  C1  UNL     1     -33.070   7.784   2.724  1.00 20.00    -0.072 C 
HETATM    2  C2  UNL     1     -32.395   8.110   1.786  1.00 20.00    -0.099 C 
ENDROOT
BRANCH   2   3
HETATM    3  C7  UNL     1     -31.567   8.510   0.636  1.00 20.00     0.125 C 
BRANCH   3   4
HETATM    4  C8  UNL     1     -32.084   9.804   0.003  1.00 20.00     0.125 C 
HETATM    5  C6  UNL     1     -32.772  10.685   1.037  1.00 20.00     0.040 C 
BRANCH   4   6
HETATM    6  O9  UNL     1     -33.031   9.471  -1.013  1.00 20.00    -0.395 OA
HETATM    7  H21 UNL     1     -32.537   9.015  -1.711  1.00 20.00     0.210 HD
ENDBRANCH   4   6
ENDBRANCH   3   4
ENDBRANCH   2   3
BRANCH   1   8
HETATM    8  C4  UNL     1     -33.869   7.393   3.839  1.00 20.00    -0.018 C 
HETATM    9  C3  UNL     1     -34.801   6.442   3.677  1.00 20.00     0.028 C 
HETATM   10  C5  UNL     1     -33.643   8.059   5.165  1.00 20.00     0.057 C 
ENDBRANCH   1   8
TORSDOF 4
ENDMDL
MODEL 3
REMARK VINA RESULT:      -1.9      1.465      1.792
REMARK  4 active torsions:
REMARK  status: ('A' for Active; 'I' for Inactive)
REMARK    1  A    between atoms: C1_1  and  C4_4 
REMARK    2  A    between atoms: C2_2  and  C7_7 
REMARK    3  A    between atoms: C7_7  and  C8_8 
REMARK    4  A    between atoms: C8_8  and  O9_9 
ROOT
HETATM    1  C1  UNL     1     -33.425   6.825   2.809  1.00 20.00    -0.072 C 
HETATM    2  C2  UNL     1     -32.726   7.584   2.193  1.00 20.00    -0.099 C 
ENDROOT
BRANCH   2   3
HETATM    3  C7  UNL     1     -31.870   8.513   1.439  1.00 20.00     0.125 C 
BRANCH   3   4
HETATM    4  C8  UNL     1     -32.706   9.493   0.613  1.00 20.00     0.125 C 
HETATM    5  C6  UNL     1     -32.314   9.446  -0.858  1.00 20.00     0.040 C 
BRANCH   4   6
HETATM    6  O9  UNL     1     -32.479  10.815   1.101  1.00 20.00    -0.395 OA
HETATM    7  H21 UNL     1     -32.903  10.864   1.971  1.00 20.00     0.210 HD
ENDBRANCH   4   6
ENDBRANCH   3   4
ENDBRANCH   2   3
BRANCH   1   8
HETATM    8  C4  UNL     1     -34.257   5.926   3.541  1.00 20.00    -0.018 C 
HETATM    9  C3  UNL     1     -35.420   6.369   4.041  1.00 20.00     0.028 C 
HETATM   10  C5  UNL     1     -33.806   4.507   3.730  1.00 20.00     0.057 C 
ENDBRANCH   1   8
TORSDOF 4
ENDMDL
MODEL 4
REMARK VINA RESULT:      -1.6      2.219      2.841
REMARK  4 active torsions:
REMARK  status: ('A' for Active; 'I' for Inactive)
REMARK    1  A    between atoms: C1_1  and  C4_4 
REMARK    2  A    between atoms: C2_2  and  C7_7 
REMARK    3  A    between atoms: C7_7  and  C8_8 
REMARK    4  A    between atoms: C8_8  and  O9_9 
ROOT
HETATM    1  C1  UNL     1     -33.549   5.346   3.074  1.00 20.00    -0.072 C 
HETATM    2  C2  UNL     1     -33.000   6.016   2.241  1.00 20.00    -0.099 C 
ENDROOT
BRANCH   2   3
HETATM    3  C7  UNL     1     -32.327   6.836   1.221  1.00 20.00     0.125 C 
BRANCH   3   4
HETATM    4  C8  UNL     1     -32.313   8.314   1.616  1.00 20.00     0.125 C 
HETATM    5  C6  UNL     1     -31.992   9.200   0.420  1.00 20.00     0.040 C 
BRANCH   4   6
HETATM    6  O9  UNL     1     -31.308   8.513   2.610  1.00 20.00    -0.395 OA
HETATM    7  H21 UNL     1     -30.557   7.954   2.358  1.00 20.00     0.210 HD
ENDBRANCH   4   6
ENDBRANCH   3   4
ENDBRANCH   2   3
BRANCH   1   8
HETATM    8  C4  UNL     1     -34.202   4.554   4.065  1.00 20.00    -0.018 C 
HETATM    9  C3  UNL     1     -35.355   4.988   4.596  1.00 20.00     0.028 C 
HETATM   10  C5  UNL     1     -33.578   3.255   4.485  1.00 20.00     0.057 C 
ENDBRANCH   1   8
TORSDOF 4
ENDMDL
MODEL 5
REMARK VINA RESULT:      -1.5      2.524      4.828
REMARK  4 active torsions:
REMARK  status: ('A' for Active; 'I' for Inactive)
REMARK    1  A    between atoms: C1_1  and  C4_4 
REMARK    2  A    between atoms: C2_2  and  C7_7 
REMARK    3  A    between atoms: C7_7  and  C8_8 
REMARK    4  A    between atoms: C8_8  and  O9_9 
ROOT
HETATM    1  C1  UNL     1     -32.520   8.028   1.326  1.00 20.00    -0.072 C 
HETATM    2  C2  UNL     1     -32.987   7.149   1.997  1.00 20.00    -0.099 C 
ENDROOT
BRANCH   2   3
HETATM    3  C7  UNL     1     -33.560   6.070   2.820  1.00 20.00     0.125 C 
BRANCH   3   4
HETATM    4  C8  UNL     1     -34.722   6.580   3.673  1.00 20.00     0.125 C 
HETATM    5  C6  UNL     1     -34.249   7.611   4.689  1.00 20.00     0.040 C 
BRANCH   4   6
HETATM    6  O9  UNL     1     -35.291   5.477   4.379  1.00 20.00    -0.395 OA
HETATM    7  H21 UNL     1     -35.667   5.838   5.197  1.00 20.00     0.210 HD
ENDBRANCH   4   6
ENDBRANCH   3   4
ENDBRANCH   2   3
BRANCH   1   8
HETATM    8  C4  UNL     1     -31.968   9.074   0.528  1.00 20.00    -0.018 C 
HETATM    9  C3  UNL     1     -30.854   8.840  -0.182  1.00 20.00     0.028 C 
HETATM   10  C5  UNL     1     -32.652  10.409   0.504  1.00 20.00     0.057 C 
ENDBRANCH   1   8
TORSDOF 4
ENDMDL
MODEL 6
REMARK VINA RESULT:      -1.4      2.542      4.781
REMARK  4 active torsions:
REMARK  status: ('A' for Active; 'I' for Inactive)
REMARK    1  A    between atoms: C1_1  and  C4_4 
REMARK    2  A    between atoms: C2_2  and  C7_7 
REMARK    3  A    between atoms: C7_7  and  C8_8 
REMARK    4  A    between atoms: C8_8  and  O9_9 
ROOT
HETATM    1  C1  UNL     1     -32.427   8.131   1.210  1.00 20.00    -0.072 C 
HETATM    2  C2  UNL     1     -32.767   7.170   1.845  1.00 20.00    -0.099 C 
ENDROOT
BRANCH   2   3
HETATM    3  C7  UNL     1     -33.182   5.991   2.623  1.00 20.00     0.125 C 
BRANCH   3   4
HETATM    4  C8  UNL     1     -34.449   6.278   3.432  1.00 20.00     0.125 C 
HETATM    5  C6  UNL     1     -34.268   7.501   4.322  1.00 20.00     0.040 C 
BRANCH   4   6
HETATM    6  O9  UNL     1     -34.728   5.151   4.262  1.00 20.00    -0.395 OA
HETATM    7  H21 UNL     1     -34.727   5.475   5.176  1.00 20.00     0.210 HD
ENDBRANCH   4   6
ENDBRANCH   3   4
ENDBRANCH   2   3
BRANCH   1   8
HETATM    8  C4  UNL     1     -32.025   9.271   0.452  1.00 20.00    -0.018 C 
HETATM    9  C3  UNL     1     -32.680  10.430   0.613  1.00 20.00     0.028 C 
HETATM   10  C5  UNL     1     -30.876   9.140  -0.504  1.00 20.00     0.057 C 
ENDBRANCH   1   8
TORSDOF 4
ENDMDL
MODEL 7
REMARK VINA RESULT:      -1.3      2.888      5.176
REMARK  4 active torsions:
REMARK  status: ('A' for Active; 'I' for Inactive)
REMARK    1  A    between atoms: C1_1  and  C4_4 
REMARK    2  A    between atoms: C2_2  and  C7_7 
REMARK    3  A    between atoms: C7_7  and  C8_8 
REMARK    4  A    between atoms: C8_8  and  O9_9 
ROOT
HETATM    1  C1  UNL     1     -33.111   7.777   2.372  1.00 20.00    -0.072 C 
HETATM    2  C2  UNL     1     -33.940   7.299   3.098  1.00 20.00    -0.099 C 
ENDROOT
BRANCH   2   3
HETATM    3  C7  UNL     1     -34.957   6.713   3.987  1.00 20.00     0.125 C 
BRANCH   3   4
HETATM    4  C8  UNL     1     -34.543   5.319   4.462  1.00 20.00     0.125 C 
HETATM    5  C6  UNL     1     -33.798   4.564   3.369  1.00 20.00     0.040 C 
BRANCH   4   6
HETATM    6  O9  UNL     1     -35.718   4.583   4.803  1.00 20.00    -0.395 OA
HETATM    7  H21 UNL     1     -36.216   5.134   5.426  1.00 20.00     0.210 HD
ENDBRANCH   4   6
ENDBRANCH   3   4
ENDBRANCH   2   3
BRANCH   1   8
HETATM    8  C4  UNL     1     -32.127   8.342   1.508  1.00 20.00    -0.018 C 
HETATM    9  C3  UNL     1     -30.892   7.818   1.488  1.00 20.00     0.028 C 
HETATM   10  C5  UNL     1     -32.502   9.509   0.643  1.00 20.00     0.057 C 
ENDBRANCH   1   8
TORSDOF 4
ENDMDL
MODEL 8
REMARK VINA RESULT:      -1.3      2.369      4.892
REMARK  4 active torsions:
REMARK  status: ('A' for Active; 'I' for Inactive)
REMARK    1  A    between atoms: C1_1  and  C4_4 
REMARK    2  A    between atoms: C2_2  and  C7_7 
REMARK    3  A    between atoms: C7_7  and  C8_8 
REMARK    4  A    between atoms: C8_8  and  O9_9 
ROOT
HETATM    1  C1  UNL     1     -32.455   8.592   1.510  1.00 20.00    -0.072 C 
HETATM    2  C2  UNL     1     -32.782   7.954   2.474  1.00 20.00    -0.099 C 
ENDROOT
BRANCH   2   3
HETATM    3  C7  UNL     1     -33.183   7.173   3.655  1.00 20.00     0.125 C 
BRANCH   3   4
HETATM    4  C8  UNL     1     -34.192   6.085   3.285  1.00 20.00     0.125 C 
HETATM    5  C6  UNL     1     -35.486   6.242   4.074  1.00 20.00     0.040 C 
BRANCH   4   6
HETATM    6  O9  UNL     1     -33.626   4.811   3.592  1.00 20.00    -0.395 OA
HETATM    7  H21 UNL     1     -32.677   4.880   3.407  1.00 20.00     0.210 HD
ENDBRANCH   4   6
ENDBRANCH   3   4
ENDBRANCH   2   3
BRANCH   1   8
HETATM    8  C4  UNL     1     -32.062   9.348   0.365  1.00 20.00    -0.018 C 
HETATM    9  C3  UNL     1     -32.690  10.503   0.095  1.00 20.00     0.028 C 
HETATM   10  C5  UNL     1     -30.956   8.829  -0.505  1.00 20.00     0.057 C 
ENDBRANCH   1   8
TORSDOF 4
ENDMDL
MODEL 9
REMARK VINA RESULT:      -1.1      2.237      4.875
REMARK  4 active torsions:
REMARK  status: ('A' for Active; 'I' for Inactive)
REMARK    1  A    between atoms: C1_1  and  C4_4 
REMARK    2  A    between atoms: C2_2  and  C7_7 
REMARK    3  A    between atoms: C7_7  and  C8_8 
REMARK    4  A    between atoms: C8_8  and  O9_9 
ROOT
HETATM    1  C1  UNL     1     -32.937   8.036   2.433  1.00 20.00    -0.072 C 
HETATM    2  C2  UNL     1     -33.580   7.719   3.397  1.00 20.00    -0.099 C 
ENDROOT
BRANCH   2   3
HETATM    3  C7  UNL     1     -34.368   7.331   4.578  1.00 20.00     0.125 C 
BRANCH   3   4
HETATM    4  C8  UNL     1     -35.180   6.062   4.312  1.00 20.00     0.125 C 
HETATM    5  C6  UNL     1     -34.292   4.942   3.784  1.00 20.00     0.040 C 
BRANCH   4   6
HETATM    6  O9  UNL     1     -36.176   6.351   3.331  1.00 20.00    -0.395 OA
HETATM    7  H21 UNL     1     -35.707   6.695   2.556  1.00 20.00     0.210 HD
ENDBRANCH   4   6
ENDBRANCH   3   4
ENDBRANCH   2   3
BRANCH   1   8
HETATM    8  C4  UNL     1     -32.171   8.409   1.289  1.00 20.00    -0.018 C 
HETATM    9  C3  UNL     1     -31.188   7.600   0.865  1.00 20.00     0.028 C 
HETATM   10  C5  UNL     1     -32.487   9.700   0.591  1.00 20.00     0.057 C 
ENDBRANCH   1   8
TORSDOF 4
ENDMDL
