MODEL 1
REMARK VINA RESULT:      -1.3      0.000      0.000
REMARK  1 active torsions:
REMARK  status: ('A' for Active; 'I' for Inactive)
REMARK    1  A    between atoms: C3_3  and  C6_6 
ROOT
HETATM    1  C1  UNL     1     -33.106   8.016   3.721  1.00 20.00    -0.024 C 
HETATM    2  C2  UNL     1     -32.736   7.475   2.545  1.00 20.00    -0.076 C 
HETATM    3  C4  UNL     1     -34.228   7.497   4.569  1.00 20.00     0.028 C 
HETATM    4  C5  UNL     1     -35.114   6.486   3.840  1.00 20.00     0.009 C 
HETATM    5  C6  UNL     1     -33.423   6.241   1.995  1.00 20.00     0.079 C 
HETATM    6  C7  UNL     1     -34.288   5.476   3.029  1.00 20.00    -0.004 C 
HETATM    7  C8  UNL     1     -31.679   8.133   1.701  1.00 20.00     0.044 C 
HETATM    8  C9  UNL     1     -33.488   4.561   3.970  1.00 20.00     0.011 C 
ENDROOT
BRANCH   5   9
HETATM    9  C3  UNL     1     -32.418   5.321   1.360  1.00 20.00     0.240 C 
HETATM   10  O10 UNL     1     -32.649   4.658   0.354  1.00 20.00    -0.306 OA
ENDBRANCH   5   9
TORSDOF 1
ENDMDL
MODEL 2
REMARK VINA RESULT:      -0.2      1.763      3.176
REMARK  1 active torsions:
REMARK  status: ('A' for Active; 'I' for Inactive)
REMARK    1  A    between atoms: C3_3  and  C6_6 
ROOT
HETATM    1  C1  UNL     1     -32.445   8.257   2.669  1.00 20.00    -0.024 C 
HETATM    2  C2  UNL     1     -33.224   7.562   3.519  1.00 20.00    -0.076 C 
HETATM    3  C4  UNL     1     -31.771   7.662   1.469  1.00 20.00     0.028 C 
HETATM    4  C5  UNL     1     -31.796   6.133   1.462  1.00 20.00     0.009 C 
HETATM    5  C6  UNL     1     -33.516   6.091   3.296  1.00 20.00     0.079 C 
HETATM    6  C7  UNL     1     -33.168   5.578   1.875  1.00 20.00    -0.004 C 
HETATM    7  C8  UNL     1     -33.762   8.210   4.766  1.00 20.00     0.044 C 
HETATM    8  C9  UNL     1     -34.222   5.907   0.807  1.00 20.00     0.011 C 
ENDROOT
BRANCH   5   9
HETATM    9  C3  UNL     1     -34.948   5.785   3.634  1.00 20.00     0.240 C 
HETATM   10  O10 UNL     1     -35.284   4.891   4.405  1.00 20.00    -0.306 OA
ENDBRANCH   5   9
TORSDOF 1
ENDMDL
MODEL 3
REMARK VINA RESULT:       0.1      1.736      2.924
REMARK  1 active torsions:
REMARK  status: ('A' for Active; 'I' for Inactive)
REMARK    1  A    between atoms: C3_3  and  C6_6 
ROOT
HETATM    1  C1  UNL     1     -32.029   7.210   1.629  1.00 20.00    -0.024 C 
HETATM    2  C2  UNL     1     -32.752   6.121   1.949  1.00 20.00    -0.076 C 
HETATM    3  C4  UNL     1     -32.350   8.599   2.092  1.00 20.00     0.028 C 
HETATM    4  C5  UNL     1     -33.744   8.719   2.711  1.00 20.00     0.009 C 
HETATM    5  C6  UNL     1     -33.960   6.217   2.861  1.00 20.00     0.079 C 
HETATM    6  C7  UNL     1     -34.059   7.546   3.653  1.00 20.00    -0.004 C 
HETATM    7  C8  UNL     1     -32.429   4.783   1.341  1.00 20.00     0.044 C 
HETATM    8  C9  UNL     1     -33.163   7.607   4.900  1.00 20.00     0.011 C 
ENDROOT
BRANCH   5   9
HETATM    9  C3  UNL     1     -34.008   5.039   3.793  1.00 20.00     0.240 C 
HETATM   10  O10 UNL     1     -35.033   4.659   4.349  1.00 20.00    -0.306 OA
ENDBRANCH   5   9
TORSDOF 1
ENDMDL
MODEL 4
REMARK VINA RESULT:       0.7      0.911      2.800
REMARK  1 active torsions:
REMARK  status: ('A' for Active; 'I' for Inactive)
REMARK    1  A    between atoms: C3_3  and  C6_6 
ROOT
HETATM    1  C1  UNL     1     -34.212   7.121   4.013  1.00 20.00    -0.024 C 
HETATM    2  C2  UNL     1     -33.702   6.115   3.279  1.00 20.00    -0.076 C 
HETATM    3  C4  UNL     1     -33.595   8.484   4.116  1.00 20.00     0.028 C 
HETATM    4  C5  UNL     1     -32.172   8.543   3.558  1.00 20.00     0.009 C 
HETATM    5  C6  UNL     1     -32.448   6.304   2.446  1.00 20.00     0.079 C 
HETATM    6  C7  UNL     1     -32.043   7.784   2.228  1.00 20.00    -0.004 C 
HETATM    7  C8  UNL     1     -34.317   4.743   3.330  1.00 20.00     0.044 C 
HETATM    8  C9  UNL     1     -32.836   8.501   1.124  1.00 20.00     0.011 C 
ENDROOT
BRANCH   5   9
HETATM    9  C3  UNL     1     -32.582   5.591   1.130  1.00 20.00     0.240 C 
HETATM   10  O10 UNL     1     -31.738   4.816   0.693  1.00 20.00    -0.306 OA
ENDBRANCH   5   9
TORSDOF 1
ENDMDL
MODEL 5
REMARK VINA RESULT:       0.8      2.148      3.958
REMARK  1 active torsions:
REMARK  status: ('A' for Active; 'I' for Inactive)
REMARK    1  A    between atoms: C3_3  and  C6_6 
ROOT
HETATM    1  C1  UNL     1     -33.165   5.135   2.562  1.00 20.00    -0.024 C 
HETATM    2  C2  UNL     1     -33.956   5.955   3.278  1.00 20.00    -0.076 C 
HETATM    3  C4  UNL     1     -32.251   5.594   1.466  1.00 20.00     0.028 C 
HETATM    4  C5  UNL     1     -32.518   7.034   1.024  1.00 20.00     0.009 C 
HETATM    5  C6  UNL     1     -33.953   7.454   3.047  1.00 20.00     0.079 C 
HETATM    6  C7  UNL     1     -32.747   7.970   2.221  1.00 20.00    -0.004 C 
HETATM    7  C8  UNL     1     -34.933   5.395   4.277  1.00 20.00     0.044 C 
HETATM    8  C9  UNL     1     -31.449   8.132   3.029  1.00 20.00     0.011 C 
ENDROOT
BRANCH   5   9
HETATM    9  C3  UNL     1     -34.051   8.186   4.356  1.00 20.00     0.240 C 
HETATM   10  O10 UNL     1     -33.227   8.072   5.258  1.00 20.00    -0.306 OA
ENDBRANCH   5   9
TORSDOF 1
ENDMDL
MODEL 6
REMARK VINA RESULT:       1.1      1.691      2.916
REMARK  1 active torsions:
REMARK  status: ('A' for Active; 'I' for Inactive)
REMARK    1  A    between atoms: C3_3  and  C6_6 
ROOT
HETATM    1  C1  UNL     1     -33.958   5.735   3.961  1.00 20.00    -0.024 C 
HETATM    2  C2  UNL     1     -33.674   6.949   3.453  1.00 20.00    -0.076 C 
HETATM    3  C4  UNL     1     -33.898   4.459   3.175  1.00 20.00     0.028 C 
HETATM    4  C5  UNL     1     -33.781   4.687   1.668  1.00 20.00     0.009 C 
HETATM    5  C6  UNL     1     -33.221   7.114   2.015  1.00 20.00     0.079 C 
HETATM    6  C7  UNL     1     -32.774   5.798   1.329  1.00 20.00    -0.004 C 
HETATM    7  C8  UNL     1     -33.878   8.190   4.278  1.00 20.00     0.044 C 
HETATM    8  C9  UNL     1     -31.347   5.352   1.685  1.00 20.00     0.011 C 
ENDROOT
BRANCH   5   9
HETATM    9  C3  UNL     1     -32.140   8.154   1.923  1.00 20.00     0.240 C 
HETATM   10  O10 UNL     1     -32.091   9.002   1.038  1.00 20.00    -0.306 OA
ENDBRANCH   5   9
TORSDOF 1
ENDMDL
MODEL 7
REMARK VINA RESULT:       1.2      2.210      3.227
REMARK  1 active torsions:
REMARK  status: ('A' for Active; 'I' for Inactive)
REMARK    1  A    between atoms: C3_3  and  C6_6 
ROOT
HETATM    1  C1  UNL     1     -32.882   6.091   1.439  1.00 20.00    -0.024 C 
HETATM    2  C2  UNL     1     -32.695   7.109   2.300  1.00 20.00    -0.076 C 
HETATM    3  C4  UNL     1     -33.508   4.780   1.810  1.00 20.00     0.028 C 
HETATM    4  C5  UNL     1     -33.642   4.584   3.321  1.00 20.00     0.009 C 
HETATM    5  C6  UNL     1     -33.154   7.015   3.742  1.00 20.00     0.079 C 
HETATM    6  C7  UNL     1     -34.142   5.855   4.025  1.00 20.00    -0.004 C 
HETATM    7  C8  UNL     1     -31.948   8.343   1.873  1.00 20.00     0.044 C 
HETATM    8  C9  UNL     1     -35.596   6.150   3.624  1.00 20.00     0.011 C 
ENDROOT
BRANCH   5   9
HETATM    9  C3  UNL     1     -33.732   8.327   4.194  1.00 20.00     0.240 C 
HETATM   10  O10 UNL     1     -33.865   8.636   5.373  1.00 20.00    -0.306 OA
ENDBRANCH   5   9
TORSDOF 1
ENDMDL
MODEL 8
REMARK VINA RESULT:       1.5      1.483      2.885
REMARK  1 active torsions:
REMARK  status: ('A' for Active; 'I' for Inactive)
REMARK    1  A    between atoms: C3_3  and  C6_6 
ROOT
HETATM    1  C1  UNL     1     -34.204   5.608   2.937  1.00 20.00    -0.024 C 
HETATM    2  C2  UNL     1     -33.168   6.151   2.270  1.00 20.00    -0.076 C 
HETATM    3  C4  UNL     1     -34.838   6.222   4.149  1.00 20.00     0.028 C 
HETATM    4  C5  UNL     1     -34.014   7.365   4.744  1.00 20.00     0.009 C 
HETATM    5  C6  UNL     1     -32.573   7.482   2.686  1.00 20.00     0.079 C 
HETATM    6  C7  UNL     1     -33.459   8.301   3.659  1.00 20.00    -0.004 C 
HETATM    7  C8  UNL     1     -32.514   5.406   1.138  1.00 20.00     0.044 C 
HETATM    8  C9  UNL     1     -34.603   9.070   2.980  1.00 20.00     0.011 C 
ENDROOT
BRANCH   5   9
HETATM    9  C3  UNL     1     -32.222   8.299   1.474  1.00 20.00     0.240 C 
HETATM   10  O10 UNL     1     -31.082   8.394   1.031  1.00 20.00    -0.306 OA
ENDBRANCH   5   9
TORSDOF 1
ENDMDL
