MODEL 1
REMARK VINA RESULT:      -0.4      0.000      0.000
REMARK  0 active torsions:
REMARK  status: ('A' for Active; 'I' for Inactive)
ROOT
HETATM    1  C1  UNL     1     -32.314   8.226   2.567  1.00 20.00     0.061 A 
HETATM    2  C2  UNL     1     -32.098   7.265   1.664  1.00 20.00     0.061 A 
HETATM    3  C3  UNL     1     -33.887   6.284   3.268  1.00 20.00     0.254 A 
HETATM    4  O4  UNL     1     -34.706   5.572   3.829  1.00 20.00    -0.272 OA
HETATM    5  S5  UNL     1     -33.473   7.906   3.813  1.00 20.00    -0.052 SA
HETATM    6  S6  UNL     1     -32.998   5.795   1.829  1.00 20.00    -0.052 SA
ENDROOT
TORSDOF 0
ENDMDL
MODEL 2
REMARK VINA RESULT:      -0.4      0.111      1.864
REMARK  0 active torsions:
REMARK  status: ('A' for Active; 'I' for Inactive)
ROOT
HETATM    1  C1  UNL     1     -32.055   7.376   1.719  1.00 20.00     0.061 A 
HETATM    2  C2  UNL     1     -32.338   8.297   2.644  1.00 20.00     0.061 A 
HETATM    3  C3  UNL     1     -33.819   6.255   3.258  1.00 20.00     0.254 A 
HETATM    4  O4  UNL     1     -34.610   5.486   3.783  1.00 20.00    -0.272 OA
HETATM    5  S5  UNL     1     -32.879   5.856   1.824  1.00 20.00    -0.052 SA
HETATM    6  S6  UNL     1     -33.501   7.880   3.857  1.00 20.00    -0.052 SA
ENDROOT
TORSDOF 0
ENDMDL
MODEL 3
REMARK VINA RESULT:      -0.3      2.048      2.400
REMARK  0 active torsions:
REMARK  status: ('A' for Active; 'I' for Inactive)
ROOT
HETATM    1  C1  UNL     1     -33.908   7.376   3.892  1.00 20.00     0.061 A 
HETATM    2  C2  UNL     1     -33.042   8.235   3.347  1.00 20.00     0.061 A 
HETATM    3  C3  UNL     1     -32.859   6.089   1.897  1.00 20.00     0.254 A 
HETATM    4  O4  UNL     1     -32.559   5.254   1.058  1.00 20.00    -0.272 OA
HETATM    5  S5  UNL     1     -34.050   5.812   3.163  1.00 20.00    -0.052 SA
HETATM    6  S6  UNL     1     -32.145   7.698   1.966  1.00 20.00    -0.052 SA
ENDROOT
TORSDOF 0
ENDMDL
MODEL 4
REMARK VINA RESULT:      -0.3      2.046      2.339
REMARK  0 active torsions:
REMARK  status: ('A' for Active; 'I' for Inactive)
ROOT
HETATM    1  C1  UNL     1     -33.044   8.239   3.315  1.00 20.00     0.061 A 
HETATM    2  C2  UNL     1     -33.926   7.395   3.857  1.00 20.00     0.061 A 
HETATM    3  C3  UNL     1     -32.849   6.071   1.901  1.00 20.00     0.254 A 
HETATM    4  O4  UNL     1     -32.540   5.221   1.080  1.00 20.00    -0.272 OA
HETATM    5  S5  UNL     1     -32.127   7.676   1.958  1.00 20.00    -0.052 SA
HETATM    6  S6  UNL     1     -34.064   5.820   3.150  1.00 20.00    -0.052 SA
ENDROOT
TORSDOF 0
ENDMDL
MODEL 5
REMARK VINA RESULT:      -0.3      1.643      1.772
REMARK  0 active torsions:
REMARK  status: ('A' for Active; 'I' for Inactive)
ROOT
HETATM    1  C1  UNL     1     -32.122   6.856   1.441  1.00 20.00     0.061 A 
HETATM    2  C2  UNL     1     -32.812   5.735   1.670  1.00 20.00     0.061 A 
HETATM    3  C3  UNL     1     -33.548   7.368   3.549  1.00 20.00     0.254 A 
HETATM    4  O4  UNL     1     -34.074   7.890   4.520  1.00 20.00    -0.272 OA
HETATM    5  S5  UNL     1     -32.371   8.184   2.525  1.00 20.00    -0.052 SA
HETATM    6  S6  UNL     1     -33.887   5.721   3.028  1.00 20.00    -0.052 SA
ENDROOT
TORSDOF 0
ENDMDL
MODEL 6
REMARK VINA RESULT:      -0.3      1.902      2.642
REMARK  0 active torsions:
REMARK  status: ('A' for Active; 'I' for Inactive)
ROOT
HETATM    1  C1  UNL     1     -34.384   6.244   3.827  1.00 20.00     0.061 A 
HETATM    2  C2  UNL     1     -33.954   5.346   2.937  1.00 20.00     0.061 A 
HETATM    3  C3  UNL     1     -32.676   7.529   2.353  1.00 20.00     0.254 A 
HETATM    4  O4  UNL     1     -31.949   8.373   1.852  1.00 20.00    -0.272 OA
HETATM    5  S5  UNL     1     -33.727   7.844   3.731  1.00 20.00    -0.052 SA
HETATM    6  S6  UNL     1     -32.783   5.869   1.774  1.00 20.00    -0.052 SA
ENDROOT
TORSDOF 0
ENDMDL
MODEL 7
REMARK VINA RESULT:      -0.3      1.901      3.225
REMARK  0 active torsions:
REMARK  status: ('A' for Active; 'I' for Inactive)
ROOT
HETATM    1  C1  UNL     1     -33.959   5.352   2.942  1.00 20.00     0.061 A 
HETATM    2  C2  UNL     1     -34.401   6.256   3.821  1.00 20.00     0.061 A 
HETATM    3  C3  UNL     1     -32.680   7.535   2.357  1.00 20.00     0.254 A 
HETATM    4  O4  UNL     1     -31.950   8.377   1.859  1.00 20.00    -0.272 OA
HETATM    5  S5  UNL     1     -32.776   5.871   1.788  1.00 20.00    -0.052 SA
HETATM    6  S6  UNL     1     -33.747   7.856   3.721  1.00 20.00    -0.052 SA
ENDROOT
TORSDOF 0
ENDMDL
MODEL 8
REMARK VINA RESULT:       0.7      2.050      2.496
REMARK  0 active torsions:
REMARK  status: ('A' for Active; 'I' for Inactive)
ROOT
HETATM    1  C1  UNL     1     -34.954   6.837   3.810  1.00 20.00     0.061 A 
HETATM    2  C2  UNL     1     -33.916   6.858   2.969  1.00 20.00     0.061 A 
HETATM    3  C3  UNL     1     -33.994   4.426   3.875  1.00 20.00     0.254 A 
HETATM    4  O4  UNL     1     -33.779   3.247   4.111  1.00 20.00    -0.272 OA
HETATM    5  S5  UNL     1     -35.306   5.342   4.610  1.00 20.00    -0.052 SA
HETATM    6  S6  UNL     1     -33.024   5.387   2.763  1.00 20.00    -0.052 SA
ENDROOT
TORSDOF 0
ENDMDL
MODEL 9
REMARK VINA RESULT:       1.5      2.141      2.934
REMARK  0 active torsions:
REMARK  status: ('A' for Active; 'I' for Inactive)
ROOT
HETATM    1  C1  UNL     1     -33.190   4.752   2.776  1.00 20.00     0.061 A 
HETATM    2  C2  UNL     1     -34.106   4.338   3.656  1.00 20.00     0.061 A 
HETATM    3  C3  UNL     1     -34.287   6.928   3.672  1.00 20.00     0.254 A 
HETATM    4  O4  UNL     1     -34.598   8.087   3.894  1.00 20.00    -0.272 OA
HETATM    5  S5  UNL     1     -33.034   6.459   2.528  1.00 20.00    -0.052 SA
HETATM    6  S6  UNL     1     -35.045   5.549   4.463  1.00 20.00    -0.052 SA
ENDROOT
TORSDOF 0
ENDMDL
