MODEL 1
REMARK VINA RESULT:      -0.6      0.000      0.000
REMARK  2 active torsions:
REMARK  status: ('A' for Active; 'I' for Inactive)
REMARK    1  A    between atoms: C3_3  and  C4_4 
REMARK    2  A    between atoms: C4_4  and  S8_8 
ROOT
HETATM    1  C1  UNL     1     -32.370   7.525   1.825  1.00 20.00     0.109 C 
HETATM    2  C3  UNL     1     -32.935   6.212   2.038  1.00 20.00     0.116 C 
HETATM    3  N5  UNL     1     -31.924   8.584   1.663  1.00 20.00    -0.191 NA
HETATM    4  S7  UNL     1     -32.238   4.964   1.172  1.00 20.00    -0.071 SA
ENDROOT
BRANCH   2   5
HETATM    5  C4  UNL     1     -34.091   6.021   2.991  1.00 20.00     0.206 C 
HETATM    6  C2  UNL     1     -33.992   4.741   3.707  1.00 20.00     0.080 C 
HETATM    7  N6  UNL     1     -33.917   3.728   4.269  1.00 20.00    -0.196 NA
BRANCH   5   8
HETATM    8  S8  UNL     1     -34.131   7.427   4.152  1.00 20.00    -0.157 SA
HETATM    9  H10 UNL     1     -35.446   7.362   4.396  1.00 20.00     0.103 HD
ENDBRANCH   5   8
ENDBRANCH   2   5
TORSDOF 2
ENDMDL
MODEL 2
REMARK VINA RESULT:      -0.4      0.242      4.149
REMARK  2 active torsions:
REMARK  status: ('A' for Active; 'I' for Inactive)
REMARK    1  A    between atoms: C3_3  and  C4_4 
REMARK    2  A    between atoms: C4_4  and  S8_8 
ROOT
HETATM    1  C1  UNL     1     -33.842   4.735   3.734  1.00 20.00     0.109 C 
HETATM    2  C3  UNL     1     -33.756   6.067   3.181  1.00 20.00     0.116 C 
HETATM    3  N5  UNL     1     -33.905   3.661   4.169  1.00 20.00    -0.191 NA
HETATM    4  S7  UNL     1     -34.358   7.299   4.136  1.00 20.00    -0.071 SA
ENDROOT
BRANCH   2   5
HETATM    5  C4  UNL     1     -33.157   6.291   1.812  1.00 20.00     0.206 C 
HETATM    6  C2  UNL     1     -32.377   7.536   1.765  1.00 20.00     0.080 C 
HETATM    7  N6  UNL     1     -31.764   8.522   1.724  1.00 20.00    -0.196 NA
BRANCH   5   8
HETATM    8  S8  UNL     1     -32.128   4.848   1.381  1.00 20.00    -0.157 SA
HETATM    9  H10 UNL     1     -32.411   4.867   0.073  1.00 20.00     0.103 HD
ENDBRANCH   5   8
ENDBRANCH   2   5
TORSDOF 2
ENDMDL
MODEL 3
REMARK VINA RESULT:      -0.4      1.895      1.998
REMARK  2 active torsions:
REMARK  status: ('A' for Active; 'I' for Inactive)
REMARK    1  A    between atoms: C3_3  and  C4_4 
REMARK    2  A    between atoms: C4_4  and  S8_8 
ROOT
HETATM    1  C1  UNL     1     -32.556   5.462   1.219  1.00 20.00     0.109 C 
HETATM    2  C3  UNL     1     -32.970   6.523   2.109  1.00 20.00     0.116 C 
HETATM    3  N5  UNL     1     -32.231   4.604   0.509  1.00 20.00    -0.191 NA
HETATM    4  S7  UNL     1     -32.114   7.953   1.996  1.00 20.00    -0.071 SA
ENDROOT
BRANCH   2   5
HETATM    5  C4  UNL     1     -34.112   6.310   3.075  1.00 20.00     0.206 C 
HETATM    6  C2  UNL     1     -34.055   4.975   3.689  1.00 20.00     0.080 C 
HETATM    7  N6  UNL     1     -34.013   3.920   4.171  1.00 20.00    -0.196 NA
BRANCH   5   8
HETATM    8  S8  UNL     1     -34.061   7.623   4.340  1.00 20.00    -0.157 SA
HETATM    9  H10 UNL     1     -34.695   6.921   5.287  1.00 20.00     0.103 HD
ENDBRANCH   5   8
ENDBRANCH   2   5
TORSDOF 2
ENDMDL
MODEL 4
REMARK VINA RESULT:       0.2      1.819      3.878
REMARK  2 active torsions:
REMARK  status: ('A' for Active; 'I' for Inactive)
REMARK    1  A    between atoms: C3_3  and  C4_4 
REMARK    2  A    between atoms: C4_4  and  S8_8 
ROOT
HETATM    1  C1  UNL     1     -33.847   6.700   3.027  1.00 20.00     0.109 C 
HETATM    2  C3  UNL     1     -32.773   6.777   2.063  1.00 20.00     0.116 C 
HETATM    3  N5  UNL     1     -34.707   6.650   3.804  1.00 20.00    -0.191 NA
HETATM    4  S7  UNL     1     -32.628   5.478   1.021  1.00 20.00    -0.071 SA
ENDROOT
BRANCH   2   5
HETATM    5  C4  UNL     1     -31.853   7.974   2.034  1.00 20.00     0.206 C 
HETATM    6  C2  UNL     1     -32.223   8.911   0.964  1.00 20.00     0.080 C 
HETATM    7  N6  UNL     1     -32.511   9.650   0.116  1.00 20.00    -0.196 NA
BRANCH   5   8
HETATM    8  S8  UNL     1     -31.897   8.784   3.668  1.00 20.00    -0.157 SA
HETATM    9  H10 UNL     1     -32.464   9.918   3.240  1.00 20.00     0.103 HD
ENDBRANCH   5   8
ENDBRANCH   2   5
TORSDOF 2
ENDMDL
MODEL 5
REMARK VINA RESULT:       0.3      1.980      3.215
REMARK  2 active torsions:
REMARK  status: ('A' for Active; 'I' for Inactive)
REMARK    1  A    between atoms: C3_3  and  C4_4 
REMARK    2  A    between atoms: C4_4  and  S8_8 
ROOT
HETATM    1  C1  UNL     1     -33.742   4.836   3.348  1.00 20.00     0.109 C 
HETATM    2  C3  UNL     1     -33.181   5.740   2.370  1.00 20.00     0.116 C 
HETATM    3  N5  UNL     1     -34.198   4.120   4.139  1.00 20.00    -0.191 NA
HETATM    4  S7  UNL     1     -32.267   5.037   1.161  1.00 20.00    -0.071 SA
ENDROOT
BRANCH   2   5
HETATM    5  C4  UNL     1     -33.426   7.227   2.472  1.00 20.00     0.206 C 
HETATM    6  C2  UNL     1     -33.699   7.633   3.858  1.00 20.00     0.080 C 
HETATM    7  N6  UNL     1     -33.921   7.954   4.952  1.00 20.00    -0.196 NA
BRANCH   5   8
HETATM    8  S8  UNL     1     -31.975   8.106   1.799  1.00 20.00    -0.157 SA
HETATM    9  H10 UNL     1     -31.154   7.802   2.811  1.00 20.00     0.103 HD
ENDBRANCH   5   8
ENDBRANCH   2   5
TORSDOF 2
ENDMDL
MODEL 6
REMARK VINA RESULT:       0.3      1.945      3.616
REMARK  2 active torsions:
REMARK  status: ('A' for Active; 'I' for Inactive)
REMARK    1  A    between atoms: C3_3  and  C4_4 
REMARK    2  A    between atoms: C4_4  and  S8_8 
ROOT
HETATM    1  C1  UNL     1     -33.973   7.163   3.967  1.00 20.00     0.109 C 
HETATM    2  C3  UNL     1     -33.686   6.052   3.089  1.00 20.00     0.116 C 
HETATM    3  N5  UNL     1     -34.200   8.063   4.664  1.00 20.00    -0.191 NA
HETATM    4  S7  UNL     1     -34.018   4.531   3.697  1.00 20.00    -0.071 SA
ENDROOT
BRANCH   2   5
HETATM    5  C4  UNL     1     -33.115   6.292   1.711  1.00 20.00     0.206 C 
HETATM    6  C2  UNL     1     -32.323   7.530   1.665  1.00 20.00     0.080 C 
HETATM    7  N6  UNL     1     -31.702   8.510   1.627  1.00 20.00    -0.196 NA
BRANCH   5   8
HETATM    8  S8  UNL     1     -32.111   4.846   1.234  1.00 20.00    -0.157 SA
HETATM    9  H10 UNL     1     -31.709   5.344   0.058  1.00 20.00     0.103 HD
ENDBRANCH   5   8
ENDBRANCH   2   5
TORSDOF 2
ENDMDL
MODEL 7
REMARK VINA RESULT:       0.4      0.700      3.595
REMARK  2 active torsions:
REMARK  status: ('A' for Active; 'I' for Inactive)
REMARK    1  A    between atoms: C3_3  and  C4_4 
REMARK    2  A    between atoms: C4_4  and  S8_8 
ROOT
HETATM    1  C1  UNL     1     -33.683   4.822   3.407  1.00 20.00     0.109 C 
HETATM    2  C3  UNL     1     -33.055   5.799   2.548  1.00 20.00     0.116 C 
HETATM    3  N5  UNL     1     -34.188   4.045   4.106  1.00 20.00    -0.191 NA
HETATM    4  S7  UNL     1     -32.687   5.287   1.000  1.00 20.00    -0.071 SA
ENDROOT
BRANCH   2   5
HETATM    5  C4  UNL     1     -32.758   7.190   3.057  1.00 20.00     0.206 C 
HETATM    6  C2  UNL     1     -32.436   8.109   1.956  1.00 20.00     0.080 C 
HETATM    7  N6  UNL     1     -32.176   8.834   1.088  1.00 20.00    -0.196 NA
BRANCH   5   8
HETATM    8  S8  UNL     1     -34.195   7.781   4.013  1.00 20.00    -0.157 SA
HETATM    9  H10 UNL     1     -35.115   7.137   3.285  1.00 20.00     0.103 HD
ENDBRANCH   5   8
ENDBRANCH   2   5
TORSDOF 2
ENDMDL
MODEL 8
REMARK VINA RESULT:       0.5      1.954      3.688
REMARK  2 active torsions:
REMARK  status: ('A' for Active; 'I' for Inactive)
REMARK    1  A    between atoms: C3_3  and  C4_4 
REMARK    2  A    between atoms: C4_4  and  S8_8 
ROOT
HETATM    1  C1  UNL     1     -33.958   4.876   3.839  1.00 20.00     0.109 C 
HETATM    2  C3  UNL     1     -33.570   6.163   3.307  1.00 20.00     0.116 C 
HETATM    3  N5  UNL     1     -34.261   3.838   4.261  1.00 20.00    -0.191 NA
HETATM    4  S7  UNL     1     -34.364   7.489   3.941  1.00 20.00    -0.071 SA
ENDROOT
BRANCH   2   5
HETATM    5  C4  UNL     1     -32.510   6.260   2.236  1.00 20.00     0.206 C 
HETATM    6  C2  UNL     1     -32.845   5.430   1.070  1.00 20.00     0.080 C 
HETATM    7  N6  UNL     1     -33.107   4.770   0.150  1.00 20.00    -0.196 NA
BRANCH   5   8
HETATM    8  S8  UNL     1     -32.312   8.012   1.766  1.00 20.00    -0.157 SA
HETATM    9  H10 UNL     1     -32.205   8.475   3.017  1.00 20.00     0.103 HD
ENDBRANCH   5   8
ENDBRANCH   2   5
TORSDOF 2
ENDMDL
MODEL 9
REMARK VINA RESULT:       0.7      2.390      2.712
REMARK  2 active torsions:
REMARK  status: ('A' for Active; 'I' for Inactive)
REMARK    1  A    between atoms: C3_3  and  C4_4 
REMARK    2  A    between atoms: C4_4  and  S8_8 
ROOT
HETATM    1  C1  UNL     1     -32.387   9.127   0.750  1.00 20.00     0.109 C 
HETATM    2  C3  UNL     1     -32.382   8.200   1.859  1.00 20.00     0.116 C 
HETATM    3  N5  UNL     1     -32.399   9.865  -0.146  1.00 20.00    -0.191 NA
HETATM    4  S7  UNL     1     -31.384   8.594   3.140  1.00 20.00    -0.071 SA
ENDROOT
BRANCH   2   5
HETATM    5  C4  UNL     1     -33.238   6.956   1.821  1.00 20.00     0.206 C 
HETATM    6  C2  UNL     1     -32.451   5.773   1.444  1.00 20.00     0.080 C 
HETATM    7  N6  UNL     1     -31.831   4.839   1.141  1.00 20.00    -0.196 NA
BRANCH   5   8
HETATM    8  S8  UNL     1     -34.021   6.736   3.454  1.00 20.00    -0.157 SA
HETATM    9  H10 UNL     1     -32.963   6.157   4.033  1.00 20.00     0.103 HD
ENDBRANCH   5   8
ENDBRANCH   2   5
TORSDOF 2
ENDMDL
