MODEL 1
REMARK VINA RESULT:      -1.3      0.000      0.000
REMARK  2 active torsions:
REMARK  status: ('A' for Active; 'I' for Inactive)
REMARK    1  A    between atoms: C3_3  and  S9_9 
REMARK    2  A    between atoms: C6_6  and  S9_9 
ROOT
HETATM    1  C1  UNL     1     -32.384   9.838  -0.012  1.00 20.00     0.013 C 
HETATM    2  C2  UNL     1     -32.194   9.049   0.873  1.00 20.00    -0.107 C 
HETATM    3  C6  UNL     1     -31.959   8.093   1.958  1.00 20.00     0.174 C 
ENDROOT
BRANCH   3   4
HETATM    4  S9  UNL     1     -32.370   6.401   1.471  1.00 20.00    -0.092 SA
BRANCH   4   5
HETATM    5  C3  UNL     1     -33.439   5.981   2.770  1.00 20.00     0.125 C 
HETATM    6  N7  UNL     1     -33.670   4.760   3.119  1.00 20.00    -0.275 NA
HETATM    7  C4  UNL     1     -34.571   4.761   4.290  1.00 20.00     0.161 C 
HETATM    8  C5  UNL     1     -35.395   6.039   4.315  1.00 20.00     0.103 C 
HETATM    9  S8  UNL     1     -34.260   7.255   3.623  1.00 20.00    -0.102 SA
ENDBRANCH   4   5
ENDBRANCH   3   4
TORSDOF 2
ENDMDL
MODEL 2
REMARK VINA RESULT:      -0.9      1.503      1.757
REMARK  2 active torsions:
REMARK  status: ('A' for Active; 'I' for Inactive)
REMARK    1  A    between atoms: C3_3  and  S9_9 
REMARK    2  A    between atoms: C6_6  and  S9_9 
ROOT
HETATM    1  C1  UNL     1     -32.648  10.267  -0.175  1.00 20.00     0.013 C 
HETATM    2  C2  UNL     1     -32.337   9.323   0.497  1.00 20.00    -0.107 C 
HETATM    3  C6  UNL     1     -31.953   8.166   1.310  1.00 20.00     0.174 C 
ENDROOT
BRANCH   3   4
HETATM    4  S9  UNL     1     -32.241   8.451   3.072  1.00 20.00    -0.092 SA
BRANCH   4   5
HETATM    5  C3  UNL     1     -33.433   7.227   3.369  1.00 20.00     0.125 C 
HETATM    6  N7  UNL     1     -34.438   7.406   4.159  1.00 20.00    -0.275 NA
HETATM    7  C4  UNL     1     -35.284   6.194   4.136  1.00 20.00     0.161 C 
HETATM    8  C5  UNL     1     -34.452   4.983   3.746  1.00 20.00     0.103 C 
HETATM    9  S8  UNL     1     -33.253   5.679   2.596  1.00 20.00    -0.102 SA
ENDBRANCH   4   5
ENDBRANCH   3   4
TORSDOF 2
ENDMDL
MODEL 3
REMARK VINA RESULT:      -0.3      1.814      4.952
REMARK  2 active torsions:
REMARK  status: ('A' for Active; 'I' for Inactive)
REMARK    1  A    between atoms: C3_3  and  S9_9 
REMARK    2  A    between atoms: C6_6  and  S9_9 
ROOT
HETATM    1  C1  UNL     1     -32.886   2.877   5.299  1.00 20.00     0.013 C 
HETATM    2  C2  UNL     1     -33.526   3.482   4.483  1.00 20.00    -0.107 C 
HETATM    3  C6  UNL     1     -34.307   4.212   3.481  1.00 20.00     0.174 C 
ENDROOT
BRANCH   3   4
HETATM    4  S9  UNL     1     -34.763   5.865   4.050  1.00 20.00    -0.092 SA
BRANCH   4   5
HETATM    5  C3  UNL     1     -33.527   6.791   3.261  1.00 20.00     0.125 C 
HETATM    6  N7  UNL     1     -33.173   7.967   3.659  1.00 20.00    -0.275 NA
HETATM    7  C4  UNL     1     -32.061   8.442   2.809  1.00 20.00     0.161 C 
HETATM    8  C5  UNL     1     -32.110   7.758   1.452  1.00 20.00     0.103 C 
HETATM    9  S8  UNL     1     -32.750   6.123   1.856  1.00 20.00    -0.102 SA
ENDBRANCH   4   5
ENDBRANCH   3   4
TORSDOF 2
ENDMDL
MODEL 4
REMARK VINA RESULT:      -0.3      1.261      1.319
REMARK  2 active torsions:
REMARK  status: ('A' for Active; 'I' for Inactive)
REMARK    1  A    between atoms: C3_3  and  S9_9 
REMARK    2  A    between atoms: C6_6  and  S9_9 
ROOT
HETATM    1  C1  UNL     1     -32.731  10.568  -0.266  1.00 20.00     0.013 C 
HETATM    2  C2  UNL     1     -32.383   9.538   0.243  1.00 20.00    -0.107 C 
HETATM    3  C6  UNL     1     -31.958   8.278   0.857  1.00 20.00     0.174 C 
ENDROOT
BRANCH   3   4
HETATM    4  S9  UNL     1     -31.806   8.415   2.653  1.00 20.00    -0.092 SA
BRANCH   4   5
HETATM    5  C3  UNL     1     -33.027   7.281   3.131  1.00 20.00     0.125 C 
HETATM    6  N7  UNL     1     -33.191   6.141   2.546  1.00 20.00    -0.275 NA
HETATM    7  C4  UNL     1     -34.267   5.401   3.238  1.00 20.00     0.161 C 
HETATM    8  C5  UNL     1     -35.206   6.373   3.935  1.00 20.00     0.103 C 
HETATM    9  S8  UNL     1     -34.098   7.704   4.434  1.00 20.00    -0.102 SA
ENDBRANCH   4   5
ENDBRANCH   3   4
TORSDOF 2
ENDMDL
MODEL 5
REMARK VINA RESULT:       0.1      1.637      4.679
REMARK  2 active torsions:
REMARK  status: ('A' for Active; 'I' for Inactive)
REMARK    1  A    between atoms: C3_3  and  S9_9 
REMARK    2  A    between atoms: C6_6  and  S9_9 
ROOT
HETATM    1  C1  UNL     1     -33.148   3.206   4.821  1.00 20.00     0.013 C 
HETATM    2  C2  UNL     1     -34.005   3.972   4.476  1.00 20.00    -0.107 C 
HETATM    3  C6  UNL     1     -35.058   4.900   4.055  1.00 20.00     0.174 C 
ENDROOT
BRANCH   3   4
HETATM    4  S9  UNL     1     -34.558   6.625   4.250  1.00 20.00    -0.092 SA
BRANCH   4   5
HETATM    5  C3  UNL     1     -33.468   6.762   2.909  1.00 20.00     0.125 C 
HETATM    6  N7  UNL     1     -33.240   5.789   2.091  1.00 20.00    -0.275 NA
HETATM    7  C4  UNL     1     -32.317   6.260   1.037  1.00 20.00     0.161 C 
HETATM    8  C5  UNL     1     -31.483   7.422   1.552  1.00 20.00     0.103 C 
HETATM    9  S8  UNL     1     -32.621   8.262   2.668  1.00 20.00    -0.102 SA
ENDBRANCH   4   5
ENDBRANCH   3   4
TORSDOF 2
ENDMDL
MODEL 6
REMARK VINA RESULT:       0.7      2.223      5.052
REMARK  2 active torsions:
REMARK  status: ('A' for Active; 'I' for Inactive)
REMARK    1  A    between atoms: C3_3  and  S9_9 
REMARK    2  A    between atoms: C6_6  and  S9_9 
ROOT
HETATM    1  C1  UNL     1     -35.366   6.097   4.042  1.00 20.00     0.013 C 
HETATM    2  C2  UNL     1     -34.418   6.805   3.841  1.00 20.00    -0.107 C 
HETATM    3  C6  UNL     1     -33.263   7.674   3.603  1.00 20.00     0.174 C 
ENDROOT
BRANCH   3   4
HETATM    4  S9  UNL     1     -32.300   7.144   2.169  1.00 20.00    -0.092 SA
BRANCH   4   5
HETATM    5  C3  UNL     1     -32.328   8.612   1.247  1.00 20.00     0.125 C 
HETATM    6  N7  UNL     1     -32.994   9.656   1.612  1.00 20.00    -0.275 NA
HETATM    7  C4  UNL     1     -32.752  10.741   0.639  1.00 20.00     0.161 C 
HETATM    8  C5  UNL     1     -32.364  10.157  -0.710  1.00 20.00     0.103 C 
HETATM    9  S8  UNL     1     -31.446   8.676  -0.251  1.00 20.00    -0.102 SA
ENDBRANCH   4   5
ENDBRANCH   3   4
TORSDOF 2
ENDMDL
MODEL 7
REMARK VINA RESULT:       0.8      1.777      4.761
REMARK  2 active torsions:
REMARK  status: ('A' for Active; 'I' for Inactive)
REMARK    1  A    between atoms: C3_3  and  S9_9 
REMARK    2  A    between atoms: C6_6  and  S9_9 
ROOT
HETATM    1  C1  UNL     1     -33.045   2.633   5.008  1.00 20.00     0.013 C 
HETATM    2  C2  UNL     1     -33.574   3.535   4.418  1.00 20.00    -0.107 C 
HETATM    3  C6  UNL     1     -34.224   4.637   3.706  1.00 20.00     0.174 C 
ENDROOT
BRANCH   3   4
HETATM    4  S9  UNL     1     -33.555   4.858   2.042  1.00 20.00    -0.092 SA
BRANCH   4   5
HETATM    5  C3  UNL     1     -32.959   6.479   2.185  1.00 20.00     0.125 C 
HETATM    6  N7  UNL     1     -32.100   6.985   1.363  1.00 20.00    -0.275 NA
HETATM    7  C4  UNL     1     -31.858   8.395   1.734  1.00 20.00     0.161 C 
HETATM    8  C5  UNL     1     -32.155   8.606   3.211  1.00 20.00     0.103 C 
HETATM    9  S8  UNL     1     -33.516   7.462   3.508  1.00 20.00    -0.102 SA
ENDBRANCH   4   5
ENDBRANCH   3   4
TORSDOF 2
ENDMDL
MODEL 8
REMARK VINA RESULT:       1.4      2.349      4.924
REMARK  2 active torsions:
REMARK  status: ('A' for Active; 'I' for Inactive)
REMARK    1  A    between atoms: C3_3  and  S9_9 
REMARK    2  A    between atoms: C6_6  and  S9_9 
ROOT
HETATM    1  C1  UNL     1     -35.290   6.110   4.029  1.00 20.00     0.013 C 
HETATM    2  C2  UNL     1     -34.374   6.854   3.807  1.00 20.00    -0.107 C 
HETATM    3  C6  UNL     1     -33.259   7.766   3.544  1.00 20.00     0.174 C 
ENDROOT
BRANCH   3   4
HETATM    4  S9  UNL     1     -32.240   7.210   2.158  1.00 20.00    -0.092 SA
BRANCH   4   5
HETATM    5  C3  UNL     1     -32.404   8.583   1.112  1.00 20.00     0.125 C 
HETATM    6  N7  UNL     1     -31.990   8.584  -0.111  1.00 20.00    -0.275 NA
HETATM    7  C4  UNL     1     -32.339   9.880  -0.731  1.00 20.00     0.161 C 
HETATM    8  C5  UNL     1     -32.471  10.953   0.339  1.00 20.00     0.103 C 
HETATM    9  S8  UNL     1     -33.127  10.033   1.743  1.00 20.00    -0.102 SA
ENDBRANCH   4   5
ENDBRANCH   3   4
TORSDOF 2
ENDMDL
MODEL 9
REMARK VINA RESULT:       1.5      1.672      4.860
REMARK  2 active torsions:
REMARK  status: ('A' for Active; 'I' for Inactive)
REMARK    1  A    between atoms: C3_3  and  S9_9 
REMARK    2  A    between atoms: C6_6  and  S9_9 
ROOT
HETATM    1  C1  UNL     1     -33.088   2.698   5.001  1.00 20.00     0.013 C 
HETATM    2  C2  UNL     1     -33.620   3.625   4.453  1.00 20.00    -0.107 C 
HETATM    3  C6  UNL     1     -34.273   4.757   3.793  1.00 20.00     0.174 C 
ENDROOT
BRANCH   3   4
HETATM    4  S9  UNL     1     -33.703   4.970   2.091  1.00 20.00    -0.092 SA
BRANCH   4   5
HETATM    5  C3  UNL     1     -32.979   6.539   2.224  1.00 20.00     0.125 C 
HETATM    6  N7  UNL     1     -33.284   7.373   3.161  1.00 20.00    -0.275 NA
HETATM    7  C4  UNL     1     -32.443   8.580   3.018  1.00 20.00     0.161 C 
HETATM    8  C5  UNL     1     -31.993   8.735   1.574  1.00 20.00     0.103 C 
HETATM    9  S8  UNL     1     -31.811   7.027   1.030  1.00 20.00    -0.102 SA
ENDBRANCH   4   5
ENDBRANCH   3   4
TORSDOF 2
ENDMDL
