MODEL 1
REMARK VINA RESULT:      -2.8      0.000      0.000
REMARK  2 active torsions:
REMARK  status: ('A' for Active; 'I' for Inactive)
REMARK    1  A    between atoms: C4_4  and  C6_6 
REMARK    2  A    between atoms: C5_5  and  C6_6 
ROOT
HETATM    1  C1  UNL     1     -32.471   9.853   0.075  1.00 20.00     0.012 C 
HETATM    2  C2  UNL     1     -32.267   8.998   0.893  1.00 20.00    -0.117 C 
HETATM    3  C5  UNL     1     -32.014   7.955   1.896  1.00 20.00     0.095 C 
ENDROOT
BRANCH   3   4
HETATM    4  C6  UNL     1     -33.146   6.930   1.925  1.00 20.00     0.046 C 
BRANCH   4   5
HETATM    5  C4  UNL     1     -33.526   6.559   3.325  1.00 20.00     0.146 A 
HETATM    6  C3  UNL     1     -34.967   6.479   3.746  1.00 20.00     0.200 A 
HETATM    7  O7  UNL     1     -34.145   7.611   4.073  1.00 20.00    -0.381 OA
ENDBRANCH   4   5
ENDBRANCH   3   4
TORSDOF 2
ENDMDL
MODEL 2
REMARK VINA RESULT:      -2.3      0.953      1.010
REMARK  2 active torsions:
REMARK  status: ('A' for Active; 'I' for Inactive)
REMARK    1  A    between atoms: C4_4  and  C6_6 
REMARK    2  A    between atoms: C5_5  and  C6_6 
ROOT
HETATM    1  C1  UNL     1     -32.542  10.136   0.179  1.00 20.00     0.012 C 
HETATM    2  C2  UNL     1     -32.237   9.144   0.784  1.00 20.00    -0.117 C 
HETATM    3  C5  UNL     1     -31.859   7.930   1.520  1.00 20.00     0.095 C 
ENDROOT
BRANCH   3   4
HETATM    4  C6  UNL     1     -32.507   7.900   2.904  1.00 20.00     0.046 C 
BRANCH   4   5
HETATM    5  C4  UNL     1     -33.869   7.278   2.867  1.00 20.00     0.146 A 
HETATM    6  C3  UNL     1     -34.639   7.016   4.131  1.00 20.00     0.200 A 
HETATM    7  O7  UNL     1     -33.940   5.968   3.440  1.00 20.00    -0.381 OA
ENDBRANCH   4   5
ENDBRANCH   3   4
TORSDOF 2
ENDMDL
MODEL 3
REMARK VINA RESULT:      -2.3      1.723      4.301
REMARK  2 active torsions:
REMARK  status: ('A' for Active; 'I' for Inactive)
REMARK    1  A    between atoms: C4_4  and  C6_6 
REMARK    2  A    between atoms: C5_5  and  C6_6 
ROOT
HETATM    1  C1  UNL     1     -33.945   3.885   4.357  1.00 20.00     0.012 C 
HETATM    2  C2  UNL     1     -34.481   4.931   4.110  1.00 20.00    -0.117 C 
HETATM    3  C5  UNL     1     -35.143   6.207   3.808  1.00 20.00     0.095 C 
ENDROOT
BRANCH   3   4
HETATM    4  C6  UNL     1     -34.140   7.360   3.798  1.00 20.00     0.046 C 
BRANCH   4   5
HETATM    5  C4  UNL     1     -32.872   6.989   3.093  1.00 20.00     0.146 A 
HETATM    6  C3  UNL     1     -32.318   7.843   1.987  1.00 20.00     0.200 A 
HETATM    7  O7  UNL     1     -33.039   6.631   1.717  1.00 20.00    -0.381 OA
ENDBRANCH   4   5
ENDBRANCH   3   4
TORSDOF 2
ENDMDL
MODEL 4
REMARK VINA RESULT:      -2.2      1.918      3.970
REMARK  2 active torsions:
REMARK  status: ('A' for Active; 'I' for Inactive)
REMARK    1  A    between atoms: C4_4  and  C6_6 
REMARK    2  A    between atoms: C5_5  and  C6_6 
ROOT
HETATM    1  C1  UNL     1     -34.233   7.254   3.876  1.00 20.00     0.012 C 
HETATM    2  C2  UNL     1     -33.432   7.123   2.992  1.00 20.00    -0.117 C 
HETATM    3  C5  UNL     1     -32.453   6.958   1.909  1.00 20.00     0.095 C 
ENDROOT
BRANCH   3   4
HETATM    4  C6  UNL     1     -31.826   8.297   1.523  1.00 20.00     0.046 C 
BRANCH   4   5
HETATM    5  C4  UNL     1     -32.808   9.193   0.833  1.00 20.00     0.146 A 
HETATM    6  C3  UNL     1     -32.479   9.844  -0.481  1.00 20.00     0.200 A 
HETATM    7  O7  UNL     1     -32.410  10.567   0.759  1.00 20.00    -0.381 OA
ENDBRANCH   4   5
ENDBRANCH   3   4
TORSDOF 2
ENDMDL
MODEL 5
REMARK VINA RESULT:      -2.1      1.952      4.122
REMARK  2 active torsions:
REMARK  status: ('A' for Active; 'I' for Inactive)
REMARK    1  A    between atoms: C4_4  and  C6_6 
REMARK    2  A    between atoms: C5_5  and  C6_6 
ROOT
HETATM    1  C1  UNL     1     -35.323   6.192   3.967  1.00 20.00     0.012 C 
HETATM    2  C2  UNL     1     -34.342   6.846   3.738  1.00 20.00    -0.117 C 
HETATM    3  C5  UNL     1     -33.141   7.645   3.463  1.00 20.00     0.095 C 
ENDROOT
BRANCH   3   4
HETATM    4  C6  UNL     1     -32.741   7.552   1.991  1.00 20.00     0.046 C 
BRANCH   4   5
HETATM    5  C4  UNL     1     -31.993   8.769   1.539  1.00 20.00     0.146 A 
HETATM    6  C3  UNL     1     -32.491   9.608   0.396  1.00 20.00     0.200 A 
HETATM    7  O7  UNL     1     -31.421   8.664   0.231  1.00 20.00    -0.381 OA
ENDBRANCH   4   5
ENDBRANCH   3   4
TORSDOF 2
ENDMDL
MODEL 6
REMARK VINA RESULT:      -2.0      1.324      1.783
REMARK  2 active torsions:
REMARK  status: ('A' for Active; 'I' for Inactive)
REMARK    1  A    between atoms: C4_4  and  C6_6 
REMARK    2  A    between atoms: C5_5  and  C6_6 
ROOT
HETATM    1  C1  UNL     1     -31.756   8.319   1.514  1.00 20.00     0.012 C 
HETATM    2  C2  UNL     1     -32.159   7.188   1.530  1.00 20.00    -0.117 C 
HETATM    3  C5  UNL     1     -32.650   5.804   1.545  1.00 20.00     0.095 C 
ENDROOT
BRANCH   3   4
HETATM    4  C6  UNL     1     -33.431   5.508   2.824  1.00 20.00     0.046 C 
BRANCH   4   5
HETATM    5  C4  UNL     1     -34.435   6.579   3.124  1.00 20.00     0.146 A 
HETATM    6  C3  UNL     1     -34.377   7.363   4.405  1.00 20.00     0.200 A 
HETATM    7  O7  UNL     1     -35.309   6.286   4.219  1.00 20.00    -0.381 OA
ENDBRANCH   4   5
ENDBRANCH   3   4
TORSDOF 2
ENDMDL
MODEL 7
REMARK VINA RESULT:      -1.9      2.087      3.976
REMARK  2 active torsions:
REMARK  status: ('A' for Active; 'I' for Inactive)
REMARK    1  A    between atoms: C4_4  and  C6_6 
REMARK    2  A    between atoms: C5_5  and  C6_6 
ROOT
HETATM    1  C1  UNL     1     -35.330   5.427   4.177  1.00 20.00     0.012 C 
HETATM    2  C2  UNL     1     -34.832   6.520   4.149  1.00 20.00    -0.117 C 
HETATM    3  C5  UNL     1     -34.227   7.858   4.119  1.00 20.00     0.095 C 
ENDROOT
BRANCH   3   4
HETATM    4  C6  UNL     1     -32.805   7.808   3.562  1.00 20.00     0.046 C 
BRANCH   4   5
HETATM    5  C4  UNL     1     -32.794   7.566   2.084  1.00 20.00     0.146 A 
HETATM    6  C3  UNL     1     -32.229   6.297   1.507  1.00 20.00     0.200 A 
HETATM    7  O7  UNL     1     -31.489   7.529   1.496  1.00 20.00    -0.381 OA
ENDBRANCH   4   5
ENDBRANCH   3   4
TORSDOF 2
ENDMDL
MODEL 8
REMARK VINA RESULT:      -1.8      2.041      4.381
REMARK  2 active torsions:
REMARK  status: ('A' for Active; 'I' for Inactive)
REMARK    1  A    between atoms: C4_4  and  C6_6 
REMARK    2  A    between atoms: C5_5  and  C6_6 
ROOT
HETATM    1  C1  UNL     1     -33.802   3.654   4.334  1.00 20.00     0.012 C 
HETATM    2  C2  UNL     1     -33.989   4.771   3.933  1.00 20.00    -0.117 C 
HETATM    3  C5  UNL     1     -34.220   6.137   3.447  1.00 20.00     0.095 C 
ENDROOT
BRANCH   3   4
HETATM    4  C6  UNL     1     -33.378   6.432   2.206  1.00 20.00     0.046 C 
BRANCH   4   5
HETATM    5  C4  UNL     1     -32.536   7.658   2.383  1.00 20.00     0.146 A 
HETATM    6  C3  UNL     1     -32.290   8.605   1.242  1.00 20.00     0.200 A 
HETATM    7  O7  UNL     1     -31.304   7.644   1.653  1.00 20.00    -0.381 OA
ENDBRANCH   4   5
ENDBRANCH   3   4
TORSDOF 2
ENDMDL
MODEL 9
REMARK VINA RESULT:      -1.7      1.907      2.572
REMARK  2 active torsions:
REMARK  status: ('A' for Active; 'I' for Inactive)
REMARK    1  A    between atoms: C4_4  and  C6_6 
REMARK    2  A    between atoms: C5_5  and  C6_6 
ROOT
HETATM    1  C1  UNL     1     -31.954   7.673   1.775  1.00 20.00     0.012 C 
HETATM    2  C2  UNL     1     -32.789   7.727   2.637  1.00 20.00    -0.117 C 
HETATM    3  C5  UNL     1     -33.808   7.798   3.692  1.00 20.00     0.095 C 
ENDROOT
BRANCH   3   4
HETATM    4  C6  UNL     1     -34.763   6.607   3.619  1.00 20.00     0.046 C 
BRANCH   4   5
HETATM    5  C4  UNL     1     -34.279   5.454   4.443  1.00 20.00     0.146 A 
HETATM    6  C3  UNL     1     -34.022   4.108   3.824  1.00 20.00     0.200 A 
HETATM    7  O7  UNL     1     -35.217   4.380   4.574  1.00 20.00    -0.381 OA
ENDBRANCH   4   5
ENDBRANCH   3   4
TORSDOF 2
ENDMDL
