MODEL 1
REMARK VINA RESULT:      -2.5      0.000      0.000
REMARK  0 active torsions:
REMARK  status: ('A' for Active; 'I' for Inactive)
ROOT
HETATM    1  C1  UNL     1     -32.779   7.402   2.425  1.00 20.00     0.017 A 
HETATM    2  C2  UNL     1     -32.872   5.999   2.008  1.00 20.00     0.296 A 
HETATM    3  C3  UNL     1     -34.436   6.354   3.592  1.00 20.00     0.270 A 
HETATM    4  C4  UNL     1     -31.889   8.246   1.899  1.00 20.00     0.025 C 
HETATM    5  C5  UNL     1     -33.785   7.695   3.466  1.00 20.00     0.155 A 
HETATM    6  O6  UNL     1     -32.196   5.428   1.172  1.00 20.00    -0.259 OA
HETATM    7  O7  UNL     1     -35.355   6.096   4.356  1.00 20.00    -0.264 OA
HETATM    8  O8  UNL     1     -33.872   5.449   2.742  1.00 20.00    -0.241 OA
ENDROOT
TORSDOF 0
ENDMDL
MODEL 2
REMARK VINA RESULT:      -2.2      1.655      2.163
REMARK  0 active torsions:
REMARK  status: ('A' for Active; 'I' for Inactive)
ROOT
HETATM    1  C1  UNL     1     -32.791   6.138   1.882  1.00 20.00     0.017 A 
HETATM    2  C2  UNL     1     -32.302   7.519   1.938  1.00 20.00     0.296 A 
HETATM    3  C3  UNL     1     -33.806   7.253   3.595  1.00 20.00     0.270 A 
HETATM    4  C4  UNL     1     -32.361   5.264   0.970  1.00 20.00     0.025 C 
HETATM    5  C5  UNL     1     -33.785   5.903   2.951  1.00 20.00     0.155 A 
HETATM    6  O6  UNL     1     -31.481   8.045   1.208  1.00 20.00    -0.259 OA
HETATM    7  O7  UNL     1     -34.501   7.554   4.555  1.00 20.00    -0.264 OA
HETATM    8  O8  UNL     1     -32.947   8.112   2.974  1.00 20.00    -0.241 OA
ENDROOT
TORSDOF 0
ENDMDL
MODEL 3
REMARK VINA RESULT:      -1.9      1.687      3.565
REMARK  0 active torsions:
REMARK  status: ('A' for Active; 'I' for Inactive)
ROOT
HETATM    1  C1  UNL     1     -33.648   6.063   3.080  1.00 20.00     0.017 A 
HETATM    2  C2  UNL     1     -33.662   7.398   3.688  1.00 20.00     0.296 A 
HETATM    3  C3  UNL     1     -32.331   7.481   1.871  1.00 20.00     0.270 A 
HETATM    4  C4  UNL     1     -34.337   5.040   3.589  1.00 20.00     0.025 C 
HETATM    5  C5  UNL     1     -32.788   6.056   1.878  1.00 20.00     0.155 A 
HETATM    6  O6  UNL     1     -34.265   7.752   4.684  1.00 20.00    -0.259 OA
HETATM    7  O7  UNL     1     -31.578   7.964   1.037  1.00 20.00    -0.264 OA
HETATM    8  O8  UNL     1     -32.862   8.176   2.916  1.00 20.00    -0.241 OA
ENDROOT
TORSDOF 0
ENDMDL
MODEL 4
REMARK VINA RESULT:      -1.5      0.526      2.895
REMARK  0 active torsions:
REMARK  status: ('A' for Active; 'I' for Inactive)
ROOT
HETATM    1  C1  UNL     1     -33.637   7.408   3.690  1.00 20.00     0.017 A 
HETATM    2  C2  UNL     1     -34.416   6.170   3.591  1.00 20.00     0.296 A 
HETATM    3  C3  UNL     1     -32.818   6.108   2.003  1.00 20.00     0.270 A 
HETATM    4  C4  UNL     1     -33.904   8.349   4.598  1.00 20.00     0.025 C 
HETATM    5  C5  UNL     1     -32.568   7.425   2.670  1.00 20.00     0.155 A 
HETATM    6  O6  UNL     1     -35.364   5.834   4.277  1.00 20.00    -0.259 OA
HETATM    7  O7  UNL     1     -32.164   5.669   1.068  1.00 20.00    -0.264 OA
HETATM    8  O8  UNL     1     -33.871   5.457   2.573  1.00 20.00    -0.241 OA
ENDROOT
TORSDOF 0
ENDMDL
MODEL 5
REMARK VINA RESULT:      -1.2      1.983      2.998
REMARK  0 active torsions:
REMARK  status: ('A' for Active; 'I' for Inactive)
ROOT
HETATM    1  C1  UNL     1     -33.459   7.064   3.140  1.00 20.00     0.017 A 
HETATM    2  C2  UNL     1     -32.358   7.725   2.432  1.00 20.00     0.296 A 
HETATM    3  C3  UNL     1     -32.693   5.717   1.465  1.00 20.00     0.270 A 
HETATM    4  C4  UNL     1     -34.090   7.634   4.169  1.00 20.00     0.025 C 
HETATM    5  C5  UNL     1     -33.726   5.737   2.548  1.00 20.00     0.155 A 
HETATM    6  O6  UNL     1     -31.884   8.824   2.660  1.00 20.00    -0.259 OA
HETATM    7  O7  UNL     1     -32.523   4.792   0.684  1.00 20.00    -0.264 OA
HETATM    8  O8  UNL     1     -31.961   6.868   1.459  1.00 20.00    -0.241 OA
ENDROOT
TORSDOF 0
ENDMDL
MODEL 6
REMARK VINA RESULT:      -1.2      1.721      2.325
REMARK  0 active torsions:
REMARK  status: ('A' for Active; 'I' for Inactive)
ROOT
HETATM    1  C1  UNL     1     -34.329   6.493   3.606  1.00 20.00     0.017 A 
HETATM    2  C2  UNL     1     -33.312   6.047   2.649  1.00 20.00     0.296 A 
HETATM    3  C3  UNL     1     -33.930   4.264   3.882  1.00 20.00     0.270 A 
HETATM    4  C4  UNL     1     -34.752   7.758   3.660  1.00 20.00     0.025 C 
HETATM    5  C5  UNL     1     -34.776   5.362   4.445  1.00 20.00     0.155 A 
HETATM    6  O6  UNL     1     -32.735   6.718   1.813  1.00 20.00    -0.259 OA
HETATM    7  O7  UNL     1     -33.948   3.104   4.270  1.00 20.00    -0.264 OA
HETATM    8  O8  UNL     1     -33.132   4.721   2.875  1.00 20.00    -0.241 OA
ENDROOT
TORSDOF 0
ENDMDL
MODEL 7
REMARK VINA RESULT:      -1.2      1.313      2.896
REMARK  0 active torsions:
REMARK  status: ('A' for Active; 'I' for Inactive)
ROOT
HETATM    1  C1  UNL     1     -33.987   6.725   3.305  1.00 20.00     0.017 A 
HETATM    2  C2  UNL     1     -33.315   5.625   2.606  1.00 20.00     0.296 A 
HETATM    3  C3  UNL     1     -32.373   7.555   1.921  1.00 20.00     0.270 A 
HETATM    4  C4  UNL     1     -34.975   6.519   4.177  1.00 20.00     0.025 C 
HETATM    5  C5  UNL     1     -33.409   8.022   2.895  1.00 20.00     0.155 A 
HETATM    6  O6  UNL     1     -33.541   4.433   2.710  1.00 20.00    -0.259 OA
HETATM    7  O7  UNL     1     -31.618   8.292   1.303  1.00 20.00    -0.264 OA
HETATM    8  O8  UNL     1     -32.376   6.196   1.809  1.00 20.00    -0.241 OA
ENDROOT
TORSDOF 0
ENDMDL
MODEL 8
REMARK VINA RESULT:      -1.1      1.643      2.453
REMARK  0 active torsions:
REMARK  status: ('A' for Active; 'I' for Inactive)
ROOT
HETATM    1  C1  UNL     1     -33.122   6.593   2.588  1.00 20.00     0.017 A 
HETATM    2  C2  UNL     1     -34.077   6.989   3.628  1.00 20.00     0.296 A 
HETATM    3  C3  UNL     1     -33.915   4.741   3.660  1.00 20.00     0.270 A 
HETATM    4  C4  UNL     1     -32.506   7.483   1.808  1.00 20.00     0.025 C 
HETATM    5  C5  UNL     1     -32.973   5.123   2.562  1.00 20.00     0.155 A 
HETATM    6  O6  UNL     1     -34.430   8.118   3.920  1.00 20.00    -0.259 OA
HETATM    7  O7  UNL     1     -34.136   3.593   4.018  1.00 20.00    -0.264 OA
HETATM    8  O8  UNL     1     -34.500   5.841   4.215  1.00 20.00    -0.241 OA
ENDROOT
TORSDOF 0
ENDMDL
MODEL 9
REMARK VINA RESULT:      -0.6      1.508      2.138
REMARK  0 active torsions:
REMARK  status: ('A' for Active; 'I' for Inactive)
ROOT
HETATM    1  C1  UNL     1     -33.024   5.852   2.255  1.00 20.00     0.017 A 
HETATM    2  C2  UNL     1     -33.737   5.116   3.305  1.00 20.00     0.296 A 
HETATM    3  C3  UNL     1     -33.987   7.318   3.715  1.00 20.00     0.270 A 
HETATM    4  C4  UNL     1     -32.370   5.236   1.270  1.00 20.00     0.025 C 
HETATM    5  C5  UNL     1     -33.154   7.308   2.472  1.00 20.00     0.155 A 
HETATM    6  O6  UNL     1     -33.833   3.909   3.428  1.00 20.00    -0.259 OA
HETATM    7  O7  UNL     1     -34.362   8.329   4.292  1.00 20.00    -0.264 OA
HETATM    8  O8  UNL     1     -34.278   6.051   4.126  1.00 20.00    -0.241 OA
ENDROOT
TORSDOF 0
ENDMDL
