MODEL 1
REMARK VINA RESULT:      -0.5      0.000      0.000
REMARK  0 active torsions:
REMARK  status: ('A' for Active; 'I' for Inactive)
ROOT
HETATM    1  C1  UNL     1     -34.063   7.361   4.676  1.00 20.00    -0.021 C 
HETATM    2  C2  UNL     1     -33.353   7.823   3.633  1.00 20.00    -0.025 C 
HETATM    3  C3  UNL     1     -34.016   5.087   3.761  1.00 20.00    -0.081 C 
HETATM    4  C4  UNL     1     -33.962   3.875   4.316  1.00 20.00     0.015 C 
HETATM    5  C5  UNL     1     -33.201   5.572   2.566  1.00 20.00     0.042 C 
HETATM    6  C6  UNL     1     -35.236   6.792   2.768  1.00 20.00     0.022 C 
HETATM    7  C7  UNL     1     -34.928   6.233   4.162  1.00 20.00     0.036 C 
HETATM    8  C8  UNL     1     -33.758   7.010   2.419  1.00 20.00     0.013 C 
ENDROOT
TORSDOF 0
ENDMDL
MODEL 2
REMARK VINA RESULT:      -0.1      0.895      2.834
REMARK  0 active torsions:
REMARK  status: ('A' for Active; 'I' for Inactive)
ROOT
HETATM    1  C1  UNL     1     -33.716   5.040   3.155  1.00 20.00    -0.021 C 
HETATM    2  C2  UNL     1     -34.330   5.308   4.321  1.00 20.00    -0.025 C 
HETATM    3  C3  UNL     1     -33.100   7.397   2.885  1.00 20.00    -0.081 C 
HETATM    4  C4  UNL     1     -32.042   8.014   2.354  1.00 20.00     0.015 C 
HETATM    5  C5  UNL     1     -33.778   7.739   4.208  1.00 20.00     0.042 C 
HETATM    6  C6  UNL     1     -35.296   6.669   2.718  1.00 20.00     0.022 C 
HETATM    7  C7  UNL     1     -33.890   6.254   2.271  1.00 20.00     0.036 C 
HETATM    8  C8  UNL     1     -34.925   6.698   4.206  1.00 20.00     0.013 C 
ENDROOT
TORSDOF 0
ENDMDL
MODEL 3
REMARK VINA RESULT:      -0.0      1.350      2.841
REMARK  0 active torsions:
REMARK  status: ('A' for Active; 'I' for Inactive)
ROOT
HETATM    1  C1  UNL     1     -31.601   7.292   1.828  1.00 20.00    -0.021 C 
HETATM    2  C2  UNL     1     -31.600   5.967   1.604  1.00 20.00    -0.025 C 
HETATM    3  C3  UNL     1     -33.603   7.100   3.231  1.00 20.00    -0.081 C 
HETATM    4  C4  UNL     1     -34.027   7.748   4.318  1.00 20.00     0.015 C 
HETATM    5  C5  UNL     1     -33.628   5.591   3.009  1.00 20.00     0.042 C 
HETATM    6  C6  UNL     1     -33.667   6.764   0.937  1.00 20.00     0.022 C 
HETATM    7  C7  UNL     1     -33.045   7.720   1.962  1.00 20.00     0.036 C 
HETATM    8  C8  UNL     1     -33.047   5.515   1.575  1.00 20.00     0.013 C 
ENDROOT
TORSDOF 0
ENDMDL
MODEL 4
REMARK VINA RESULT:       0.2      1.159      2.710
REMARK  0 active torsions:
REMARK  status: ('A' for Active; 'I' for Inactive)
ROOT
HETATM    1  C1  UNL     1     -34.627   7.650   3.961  1.00 20.00    -0.021 C 
HETATM    2  C2  UNL     1     -35.249   6.542   3.524  1.00 20.00    -0.025 C 
HETATM    3  C3  UNL     1     -32.784   7.294   2.384  1.00 20.00    -0.081 C 
HETATM    4  C4  UNL     1     -31.996   8.119   1.691  1.00 20.00     0.015 C 
HETATM    5  C5  UNL     1     -33.465   6.035   1.855  1.00 20.00     0.042 C 
HETATM    6  C6  UNL     1     -33.133   5.905   4.209  1.00 20.00     0.022 C 
HETATM    7  C7  UNL     1     -33.140   7.397   3.857  1.00 20.00     0.036 C 
HETATM    8  C8  UNL     1     -34.174   5.544   3.142  1.00 20.00     0.013 C 
ENDROOT
TORSDOF 0
ENDMDL
MODEL 5
REMARK VINA RESULT:       0.3      1.608      3.018
REMARK  0 active torsions:
REMARK  status: ('A' for Active; 'I' for Inactive)
ROOT
HETATM    1  C1  UNL     1     -33.242   7.608   0.696  1.00 20.00    -0.021 C 
HETATM    2  C2  UNL     1     -32.341   8.533   1.070  1.00 20.00    -0.025 C 
HETATM    3  C3  UNL     1     -33.640   6.983   3.033  1.00 20.00    -0.081 C 
HETATM    4  C4  UNL     1     -34.719   6.571   3.702  1.00 20.00     0.015 C 
HETATM    5  C5  UNL     1     -32.631   8.029   3.496  1.00 20.00     0.042 C 
HETATM    6  C6  UNL     1     -31.643   6.510   1.951  1.00 20.00     0.022 C 
HETATM    7  C7  UNL     1     -33.152   6.471   1.688  1.00 20.00     0.036 C 
HETATM    8  C8  UNL     1     -31.641   8.003   2.306  1.00 20.00     0.013 C 
ENDROOT
TORSDOF 0
ENDMDL
MODEL 6
REMARK VINA RESULT:       0.3      2.082      3.880
REMARK  0 active torsions:
REMARK  status: ('A' for Active; 'I' for Inactive)
ROOT
HETATM    1  C1  UNL     1     -32.960   7.842   3.275  1.00 20.00    -0.021 C 
HETATM    2  C2  UNL     1     -33.628   6.762   2.833  1.00 20.00    -0.025 C 
HETATM    3  C3  UNL     1     -32.485   8.547   0.975  1.00 20.00    -0.081 C 
HETATM    4  C4  UNL     1     -32.371   9.739   0.386  1.00 20.00     0.015 C 
HETATM    5  C5  UNL     1     -33.244   7.339   0.435  1.00 20.00     0.042 C 
HETATM    6  C6  UNL     1     -31.505   6.667   1.917  1.00 20.00     0.022 C 
HETATM    7  C7  UNL     1     -31.850   8.114   2.285  1.00 20.00     0.036 C 
HETATM    8  C8  UNL     1     -32.952   6.308   1.554  1.00 20.00     0.013 C 
ENDROOT
TORSDOF 0
ENDMDL
MODEL 7
REMARK VINA RESULT:       0.4      2.175      3.580
REMARK  0 active torsions:
REMARK  status: ('A' for Active; 'I' for Inactive)
ROOT
HETATM    1  C1  UNL     1     -31.942   8.650   0.468  1.00 20.00    -0.021 C 
HETATM    2  C2  UNL     1     -32.737   9.364   1.283  1.00 20.00    -0.025 C 
HETATM    3  C3  UNL     1     -32.493   6.583   1.665  1.00 20.00    -0.081 C 
HETATM    4  C4  UNL     1     -32.639   5.312   1.284  1.00 20.00     0.015 C 
HETATM    5  C5  UNL     1     -33.412   7.357   2.604  1.00 20.00     0.042 C 
HETATM    6  C6  UNL     1     -31.209   8.260   2.624  1.00 20.00     0.022 C 
HETATM    7  C7  UNL     1     -31.360   7.522   1.289  1.00 20.00     0.036 C 
HETATM    8  C8  UNL     1     -32.673   8.717   2.653  1.00 20.00     0.013 C 
ENDROOT
TORSDOF 0
ENDMDL
MODEL 8
REMARK VINA RESULT:       0.6      2.574      4.349
REMARK  0 active torsions:
REMARK  status: ('A' for Active; 'I' for Inactive)
ROOT
HETATM    1  C1  UNL     1     -33.489   7.569   2.352  1.00 20.00    -0.021 C 
HETATM    2  C2  UNL     1     -32.732   6.576   1.856  1.00 20.00    -0.025 C 
HETATM    3  C3  UNL     1     -32.360   9.208   0.920  1.00 20.00    -0.081 C 
HETATM    4  C4  UNL     1     -32.765  10.318   0.300  1.00 20.00     0.015 C 
HETATM    5  C5  UNL     1     -31.489   8.106   0.326  1.00 20.00     0.042 C 
HETATM    6  C6  UNL     1     -31.286   8.175   2.697  1.00 20.00     0.022 C 
HETATM    7  C7  UNL     1     -32.636   8.817   2.361  1.00 20.00     0.036 C 
HETATM    8  C8  UNL     1     -31.368   7.162   1.548  1.00 20.00     0.013 C 
ENDROOT
TORSDOF 0
ENDMDL
MODEL 9
REMARK VINA RESULT:       1.0      0.745      2.062
REMARK  0 active torsions:
REMARK  status: ('A' for Active; 'I' for Inactive)
ROOT
HETATM    1  C1  UNL     1     -33.664   6.166   2.154  1.00 20.00    -0.021 C 
HETATM    2  C2  UNL     1     -34.862   6.753   2.326  1.00 20.00    -0.025 C 
HETATM    3  C3  UNL     1     -34.034   4.733   4.109  1.00 20.00    -0.081 C 
HETATM    4  C4  UNL     1     -33.684   3.481   4.408  1.00 20.00     0.015 C 
HETATM    5  C5  UNL     1     -35.403   5.368   4.330  1.00 20.00     0.042 C 
HETATM    6  C6  UNL     1     -33.687   7.019   4.302  1.00 20.00     0.022 C 
HETATM    7  C7  UNL     1     -33.139   5.815   3.527  1.00 20.00     0.036 C 
HETATM    8  C8  UNL     1     -35.127   6.804   3.818  1.00 20.00     0.013 C 
ENDROOT
TORSDOF 0
ENDMDL
