MODEL 1
REMARK VINA RESULT:      -2.2      0.000      0.000
REMARK  3 active torsions:
REMARK  status: ('A' for Active; 'I' for Inactive)
REMARK    1  A    between atoms: C1_1  and  C7_7 
REMARK    2  A    between atoms: C4_4  and  C6_6 
REMARK    3  A    between atoms: C6_6  and  C7_7 
ROOT
HETATM    1  C6  UNL     1     -31.981   8.192   1.997  1.00 20.00     0.015 C 
ENDROOT
BRANCH   1   2
HETATM    2  C4  UNL     1     -31.716   8.989   0.726  1.00 20.00    -0.014 A 
HETATM    3  C2  UNL     1     -32.780   9.107  -0.331  1.00 20.00     0.005 A 
HETATM    4  C3  UNL     1     -32.408  10.305   0.499  1.00 20.00     0.005 A 
ENDBRANCH   1   2
BRANCH   1   5
HETATM    5  C7  UNL     1     -32.929   7.008   1.766  1.00 20.00     0.043 C 
HETATM    6  C5  UNL     1     -32.146   5.757   1.374  1.00 20.00     0.017 C 
BRANCH   5   7
HETATM    7  C1  UNL     1     -33.761   6.668   2.991  1.00 20.00     0.235 C 
HETATM    8  O8  UNL     1     -34.007   7.441   3.911  1.00 20.00    -0.306 OA
ENDBRANCH   5   7
ENDBRANCH   1   5
TORSDOF 3
ENDMDL
MODEL 2
REMARK VINA RESULT:      -2.2      1.974      3.948
REMARK  3 active torsions:
REMARK  status: ('A' for Active; 'I' for Inactive)
REMARK    1  A    between atoms: C1_1  and  C7_7 
REMARK    2  A    between atoms: C4_4  and  C6_6 
REMARK    3  A    between atoms: C6_6  and  C7_7 
ROOT
HETATM    1  C6  UNL     1     -33.118   7.597   3.300  1.00 20.00     0.015 C 
ENDROOT
BRANCH   1   2
HETATM    2  C4  UNL     1     -34.184   6.536   3.059  1.00 20.00    -0.014 A 
HETATM    3  C2  UNL     1     -34.270   5.330   3.952  1.00 20.00     0.005 A 
HETATM    4  C3  UNL     1     -35.336   6.388   4.015  1.00 20.00     0.005 A 
ENDBRANCH   1   2
BRANCH   1   5
HETATM    5  C7  UNL     1     -32.164   7.757   2.109  1.00 20.00     0.043 C 
HETATM    6  C5  UNL     1     -32.083   6.461   1.303  1.00 20.00     0.017 C 
BRANCH   5   7
HETATM    7  C1  UNL     1     -32.581   8.866   1.160  1.00 20.00     0.235 C 
HETATM    8  O8  UNL     1     -31.862   9.364   0.300  1.00 20.00    -0.306 OA
ENDBRANCH   5   7
ENDBRANCH   1   5
TORSDOF 3
ENDMDL
MODEL 3
REMARK VINA RESULT:      -2.0      2.191      3.174
REMARK  3 active torsions:
REMARK  status: ('A' for Active; 'I' for Inactive)
REMARK    1  A    between atoms: C1_1  and  C7_7 
REMARK    2  A    between atoms: C4_4  and  C6_6 
REMARK    3  A    between atoms: C6_6  and  C7_7 
ROOT
HETATM    1  C6  UNL     1     -33.253   5.759   2.334  1.00 20.00     0.015 C 
ENDROOT
BRANCH   1   2
HETATM    2  C4  UNL     1     -33.049   7.215   1.936  1.00 20.00    -0.014 A 
HETATM    3  C2  UNL     1     -32.177   8.114   2.767  1.00 20.00     0.005 A 
HETATM    4  C3  UNL     1     -31.720   7.676   1.403  1.00 20.00     0.005 A 
ENDBRANCH   1   2
BRANCH   1   5
HETATM    5  C7  UNL     1     -33.880   5.610   3.727  1.00 20.00     0.043 C 
HETATM    6  C5  UNL     1     -35.182   6.404   3.821  1.00 20.00     0.017 C 
BRANCH   5   7
HETATM    7  C1  UNL     1     -34.191   4.167   4.085  1.00 20.00     0.235 C 
HETATM    8  O8  UNL     1     -33.375   3.356   4.508  1.00 20.00    -0.306 OA
ENDBRANCH   5   7
ENDBRANCH   1   5
TORSDOF 3
ENDMDL
MODEL 4
REMARK VINA RESULT:      -2.0      1.578      2.542
REMARK  3 active torsions:
REMARK  status: ('A' for Active; 'I' for Inactive)
REMARK    1  A    between atoms: C1_1  and  C7_7 
REMARK    2  A    between atoms: C4_4  and  C6_6 
REMARK    3  A    between atoms: C6_6  and  C7_7 
ROOT
HETATM    1  C6  UNL     1     -33.500   6.897   2.341  1.00 20.00     0.015 C 
ENDROOT
BRANCH   1   2
HETATM    2  C4  UNL     1     -32.366   7.903   2.189  1.00 20.00    -0.014 A 
HETATM    3  C2  UNL     1     -31.360   7.751   1.082  1.00 20.00     0.005 A 
HETATM    4  C3  UNL     1     -32.362   8.871   1.037  1.00 20.00     0.005 A 
ENDBRANCH   1   2
BRANCH   1   5
HETATM    5  C7  UNL     1     -33.901   6.677   3.806  1.00 20.00     0.043 C 
HETATM    6  C5  UNL     1     -33.871   7.994   4.578  1.00 20.00     0.017 C 
BRANCH   5   7
HETATM    7  C1  UNL     1     -35.291   6.083   3.956  1.00 20.00     0.235 C 
HETATM    8  O8  UNL     1     -35.547   5.028   4.526  1.00 20.00    -0.306 OA
ENDBRANCH   5   7
ENDBRANCH   1   5
TORSDOF 3
ENDMDL
MODEL 5
REMARK VINA RESULT:      -2.0      1.622      2.117
REMARK  3 active torsions:
REMARK  status: ('A' for Active; 'I' for Inactive)
REMARK    1  A    between atoms: C1_1  and  C7_7 
REMARK    2  A    between atoms: C4_4  and  C6_6 
REMARK    3  A    between atoms: C6_6  and  C7_7 
ROOT
HETATM    1  C6  UNL     1     -31.762   8.310   1.659  1.00 20.00     0.015 C 
ENDROOT
BRANCH   1   2
HETATM    2  C4  UNL     1     -32.782   9.101   0.849  1.00 20.00    -0.014 A 
HETATM    3  C2  UNL     1     -32.647  10.592   0.707  1.00 20.00     0.005 A 
HETATM    4  C3  UNL     1     -32.399   9.699  -0.477  1.00 20.00     0.005 A 
ENDBRANCH   1   2
BRANCH   1   5
HETATM    5  C7  UNL     1     -32.397   7.148   2.434  1.00 20.00     0.043 C 
HETATM    6  C5  UNL     1     -33.615   7.626   3.222  1.00 20.00     0.017 C 
BRANCH   5   7
HETATM    7  C1  UNL     1     -32.844   6.010   1.535  1.00 20.00     0.235 C 
HETATM    8  O8  UNL     1     -32.125   5.094   1.148  1.00 20.00    -0.306 OA
ENDBRANCH   5   7
ENDBRANCH   1   5
TORSDOF 3
ENDMDL
MODEL 6
REMARK VINA RESULT:      -1.9      3.012      5.424
REMARK  3 active torsions:
REMARK  status: ('A' for Active; 'I' for Inactive)
REMARK    1  A    between atoms: C1_1  and  C7_7 
REMARK    2  A    between atoms: C4_4  and  C6_6 
REMARK    3  A    between atoms: C6_6  and  C7_7 
ROOT
HETATM    1  C6  UNL     1     -34.533   4.804   4.217  1.00 20.00     0.015 C 
ENDROOT
BRANCH   1   2
HETATM    2  C4  UNL     1     -33.327   3.879   4.117  1.00 20.00    -0.014 A 
HETATM    3  C2  UNL     1     -32.709   3.300   5.360  1.00 20.00     0.005 A 
HETATM    4  C3  UNL     1     -33.471   2.412   4.416  1.00 20.00     0.005 A 
ENDBRANCH   1   2
BRANCH   1   5
HETATM    5  C7  UNL     1     -34.406   6.039   3.314  1.00 20.00     0.043 C 
HETATM    6  C5  UNL     1     -34.191   7.299   4.150  1.00 20.00     0.017 C 
BRANCH   5   7
HETATM    7  C1  UNL     1     -33.257   5.936   2.327  1.00 20.00     0.235 C 
HETATM    8  O8  UNL     1     -32.636   6.889   1.869  1.00 20.00    -0.306 OA
ENDBRANCH   5   7
ENDBRANCH   1   5
TORSDOF 3
ENDMDL
MODEL 7
REMARK VINA RESULT:      -1.8      1.952      3.785
REMARK  3 active torsions:
REMARK  status: ('A' for Active; 'I' for Inactive)
REMARK    1  A    between atoms: C1_1  and  C7_7 
REMARK    2  A    between atoms: C4_4  and  C6_6 
REMARK    3  A    between atoms: C6_6  and  C7_7 
ROOT
HETATM    1  C6  UNL     1     -33.057   8.320   2.656  1.00 20.00     0.015 C 
ENDROOT
BRANCH   1   2
HETATM    2  C4  UNL     1     -33.458   7.173   3.576  1.00 20.00    -0.014 A 
HETATM    3  C2  UNL     1     -34.292   7.437   4.799  1.00 20.00     0.005 A 
HETATM    4  C3  UNL     1     -34.887   6.706   3.627  1.00 20.00     0.005 A 
ENDBRANCH   1   2
BRANCH   1   5
HETATM    5  C7  UNL     1     -31.928   7.937   1.691  1.00 20.00     0.043 C 
HETATM    6  C5  UNL     1     -32.044   6.471   1.278  1.00 20.00     0.017 C 
BRANCH   5   7
HETATM    7  C1  UNL     1     -31.921   8.775   0.425  1.00 20.00     0.235 C 
HETATM    8  O8  UNL     1     -32.398   9.900   0.323  1.00 20.00    -0.306 OA
ENDBRANCH   5   7
ENDBRANCH   1   5
TORSDOF 3
ENDMDL
MODEL 8
REMARK VINA RESULT:      -1.8      1.959      3.926
REMARK  3 active torsions:
REMARK  status: ('A' for Active; 'I' for Inactive)
REMARK    1  A    between atoms: C1_1  and  C7_7 
REMARK    2  A    between atoms: C4_4  and  C6_6 
REMARK    3  A    between atoms: C6_6  and  C7_7 
ROOT
HETATM    1  C6  UNL     1     -33.134   7.278   3.613  1.00 20.00     0.015 C 
ENDROOT
BRANCH   1   2
HETATM    2  C4  UNL     1     -34.557   7.171   4.147  1.00 20.00    -0.014 A 
HETATM    3  C2  UNL     1     -35.676   6.733   3.243  1.00 20.00     0.005 A 
HETATM    4  C3  UNL     1     -35.195   5.823   4.338  1.00 20.00     0.005 A 
ENDBRANCH   1   2
BRANCH   1   5
HETATM    5  C7  UNL     1     -33.072   7.229   2.081  1.00 20.00     0.043 C 
HETATM    6  C5  UNL     1     -31.985   8.164   1.554  1.00 20.00     0.017 C 
BRANCH   5   7
HETATM    7  C1  UNL     1     -32.786   5.838   1.544  1.00 20.00     0.235 C 
HETATM    8  O8  UNL     1     -31.667   5.379   1.338  1.00 20.00    -0.306 OA
ENDBRANCH   5   7
ENDBRANCH   1   5
TORSDOF 3
ENDMDL
MODEL 9
REMARK VINA RESULT:      -1.8      2.939      5.331
REMARK  3 active torsions:
REMARK  status: ('A' for Active; 'I' for Inactive)
REMARK    1  A    between atoms: C1_1  and  C7_7 
REMARK    2  A    between atoms: C4_4  and  C6_6 
REMARK    3  A    between atoms: C6_6  and  C7_7 
ROOT
HETATM    1  C6  UNL     1     -33.375   4.861   3.344  1.00 20.00     0.015 C 
ENDROOT
BRANCH   1   2
HETATM    2  C4  UNL     1     -33.862   3.825   4.349  1.00 20.00    -0.014 A 
HETATM    3  C2  UNL     1     -33.324   2.421   4.313  1.00 20.00     0.005 A 
HETATM    4  C3  UNL     1     -32.947   3.340   5.441  1.00 20.00     0.005 A 
ENDBRANCH   1   2
BRANCH   1   5
HETATM    5  C7  UNL     1     -34.295   6.086   3.266  1.00 20.00     0.043 C 
HETATM    6  C5  UNL     1     -35.400   6.000   4.318  1.00 20.00     0.017 C 
BRANCH   5   7
HETATM    7  C1  UNL     1     -33.557   7.396   3.476  1.00 20.00     0.235 C 
HETATM    8  O8  UNL     1     -32.702   7.851   2.722  1.00 20.00    -0.306 OA
ENDBRANCH   5   7
ENDBRANCH   1   5
TORSDOF 3
ENDMDL
