MODEL 1
REMARK VINA RESULT:      -2.9      0.000      0.000
REMARK  1 active torsions:
REMARK  status: ('A' for Active; 'I' for Inactive)
REMARK    1  A    between atoms: C1_1  and  C2_2 
ROOT
HETATM    1  C2  UNL     1     -35.055   6.310   3.908  1.00 20.00     0.412 C 
HETATM    2  F4  UNL     1     -36.173   6.665   3.239  1.00 20.00    -0.168 F 
HETATM    3  F5  UNL     1     -34.805   7.263   4.830  1.00 20.00    -0.168 F 
HETATM    4  F6  UNL     1     -35.312   5.155   4.556  1.00 20.00    -0.168 F 
ENDROOT
BRANCH   1   5
HETATM    5  C1  UNL     1     -33.896   6.154   2.964  1.00 20.00     0.339 C 
HETATM    6  F3  UNL     1     -33.225   7.334   2.897  1.00 20.00    -0.246 F 
ENDBRANCH   1   5
TORSDOF 1
ENDMDL
MODEL 2
REMARK VINA RESULT:      -2.9      0.014      1.546
REMARK  1 active torsions:
REMARK  status: ('A' for Active; 'I' for Inactive)
REMARK    1  A    between atoms: C1_1  and  C2_2 
ROOT
HETATM    1  C2  UNL     1     -35.050   6.313   3.907  1.00 20.00     0.412 C 
HETATM    2  F4  UNL     1     -34.799   7.262   4.834  1.00 20.00    -0.168 F 
HETATM    3  F5  UNL     1     -35.315   5.161   4.556  1.00 20.00    -0.168 F 
HETATM    4  F6  UNL     1     -36.160   6.680   3.232  1.00 20.00    -0.168 F 
ENDROOT
BRANCH   1   5
HETATM    5  C1  UNL     1     -33.880   6.152   2.977  1.00 20.00     0.339 C 
HETATM    6  F3  UNL     1     -33.228   7.341   2.888  1.00 20.00    -0.246 F 
ENDBRANCH   1   5
TORSDOF 1
ENDMDL
MODEL 3
REMARK VINA RESULT:      -2.9      1.057      2.127
REMARK  1 active torsions:
REMARK  status: ('A' for Active; 'I' for Inactive)
REMARK    1  A    between atoms: C1_1  and  C2_2 
ROOT
HETATM    1  C2  UNL     1     -34.903   6.342   3.826  1.00 20.00     0.412 C 
HETATM    2  F4  UNL     1     -36.096   6.652   3.275  1.00 20.00    -0.168 F 
HETATM    3  F5  UNL     1     -33.981   6.340   2.841  1.00 20.00    -0.168 F 
HETATM    4  F6  UNL     1     -34.585   7.322   4.698  1.00 20.00    -0.168 F 
ENDROOT
BRANCH   1   5
HETATM    5  C1  UNL     1     -34.964   5.006   4.513  1.00 20.00     0.339 C 
HETATM    6  F3  UNL     1     -33.966   4.221   4.028  1.00 20.00    -0.246 F 
ENDBRANCH   1   5
TORSDOF 1
ENDMDL
MODEL 4
REMARK VINA RESULT:      -2.9      1.059      2.309
REMARK  1 active torsions:
REMARK  status: ('A' for Active; 'I' for Inactive)
REMARK    1  A    between atoms: C1_1  and  C2_2 
ROOT
HETATM    1  C2  UNL     1     -34.906   6.339   3.824  1.00 20.00     0.412 C 
HETATM    2  F4  UNL     1     -34.587   7.315   4.702  1.00 20.00    -0.168 F 
HETATM    3  F5  UNL     1     -36.099   6.649   3.277  1.00 20.00    -0.168 F 
HETATM    4  F6  UNL     1     -33.979   6.346   2.844  1.00 20.00    -0.168 F 
ENDROOT
BRANCH   1   5
HETATM    5  C1  UNL     1     -34.957   5.002   4.510  1.00 20.00     0.339 C 
HETATM    6  F3  UNL     1     -33.951   4.226   4.028  1.00 20.00    -0.246 F 
ENDBRANCH   1   5
TORSDOF 1
ENDMDL
MODEL 5
REMARK VINA RESULT:      -2.9      0.011      1.542
REMARK  1 active torsions:
REMARK  status: ('A' for Active; 'I' for Inactive)
REMARK    1  A    between atoms: C1_1  and  C2_2 
ROOT
HETATM    1  C2  UNL     1     -35.052   6.320   3.903  1.00 20.00     0.412 C 
HETATM    2  F4  UNL     1     -35.310   5.163   4.551  1.00 20.00    -0.168 F 
HETATM    3  F5  UNL     1     -36.167   6.677   3.234  1.00 20.00    -0.168 F 
HETATM    4  F6  UNL     1     -34.799   7.264   4.833  1.00 20.00    -0.168 F 
ENDROOT
BRANCH   1   5
HETATM    5  C1  UNL     1     -33.888   6.158   2.966  1.00 20.00     0.339 C 
HETATM    6  F3  UNL     1     -33.224   7.341   2.887  1.00 20.00    -0.246 F 
ENDBRANCH   1   5
TORSDOF 1
ENDMDL
MODEL 6
REMARK VINA RESULT:      -2.9      1.060      2.082
REMARK  1 active torsions:
REMARK  status: ('A' for Active; 'I' for Inactive)
REMARK    1  A    between atoms: C1_1  and  C2_2 
ROOT
HETATM    1  C2  UNL     1     -34.917   6.335   3.830  1.00 20.00     0.412 C 
HETATM    2  F4  UNL     1     -33.990   6.335   2.847  1.00 20.00    -0.168 F 
HETATM    3  F5  UNL     1     -34.592   7.311   4.703  1.00 20.00    -0.168 F 
HETATM    4  F6  UNL     1     -36.107   6.645   3.276  1.00 20.00    -0.168 F 
ENDROOT
BRANCH   1   5
HETATM    5  C1  UNL     1     -34.970   4.996   4.511  1.00 20.00     0.339 C 
HETATM    6  F3  UNL     1     -33.961   4.222   4.033  1.00 20.00    -0.246 F 
ENDBRANCH   1   5
TORSDOF 1
ENDMDL
MODEL 7
REMARK VINA RESULT:      -2.6      1.282      2.468
REMARK  1 active torsions:
REMARK  status: ('A' for Active; 'I' for Inactive)
REMARK    1  A    between atoms: C1_1  and  C2_2 
ROOT
HETATM    1  C2  UNL     1     -33.889   7.530   3.778  1.00 20.00     0.412 C 
HETATM    2  F4  UNL     1     -34.891   8.409   3.559  1.00 20.00    -0.168 F 
HETATM    3  F5  UNL     1     -32.960   7.715   2.818  1.00 20.00    -0.168 F 
HETATM    4  F6  UNL     1     -33.330   7.831   4.969  1.00 20.00    -0.168 F 
ENDROOT
BRANCH   1   5
HETATM    5  C1  UNL     1     -34.406   6.119   3.765  1.00 20.00     0.339 C 
HETATM    6  F3  UNL     1     -35.732   6.136   4.064  1.00 20.00    -0.246 F 
ENDBRANCH   1   5
TORSDOF 1
ENDMDL
MODEL 8
REMARK VINA RESULT:      -2.6      2.697      3.559
REMARK  1 active torsions:
REMARK  status: ('A' for Active; 'I' for Inactive)
REMARK    1  A    between atoms: C1_1  and  C2_2 
ROOT
HETATM    1  C2  UNL     1     -32.766   6.061   1.655  1.00 20.00     0.412 C 
HETATM    2  F4  UNL     1     -31.634   5.376   1.384  1.00 20.00    -0.168 F 
HETATM    3  F5  UNL     1     -33.580   5.953   0.585  1.00 20.00    -0.168 F 
HETATM    4  F6  UNL     1     -33.369   5.463   2.704  1.00 20.00    -0.168 F 
ENDROOT
BRANCH   1   5
HETATM    5  C1  UNL     1     -32.458   7.501   1.957  1.00 20.00     0.339 C 
HETATM    6  F3  UNL     1     -31.343   7.862   1.271  1.00 20.00    -0.246 F 
ENDBRANCH   1   5
TORSDOF 1
ENDMDL
MODEL 9
REMARK VINA RESULT:      -2.6      2.687      3.561
REMARK  1 active torsions:
REMARK  status: ('A' for Active; 'I' for Inactive)
REMARK    1  A    between atoms: C1_1  and  C2_2 
ROOT
HETATM    1  C2  UNL     1     -32.766   6.075   1.656  1.00 20.00     0.412 C 
HETATM    2  F4  UNL     1     -33.375   5.486   2.708  1.00 20.00    -0.168 F 
HETATM    3  F5  UNL     1     -31.640   5.382   1.389  1.00 20.00    -0.168 F 
HETATM    4  F6  UNL     1     -33.588   5.969   0.591  1.00 20.00    -0.168 F 
ENDROOT
BRANCH   1   5
HETATM    5  C1  UNL     1     -32.456   7.515   1.958  1.00 20.00     0.339 C 
HETATM    6  F3  UNL     1     -31.364   7.886   1.239  1.00 20.00    -0.246 F 
ENDBRANCH   1   5
TORSDOF 1
ENDMDL
