MODEL 1
REMARK VINA RESULT:      -1.1      0.000      0.000
REMARK  1 active torsions:
REMARK  status: ('A' for Active; 'I' for Inactive)
REMARK    1  A    between atoms: C1_1  and  C2_2 
ROOT
HETATM    1  C2  UNL     1     -34.265   6.416   3.514  1.00 20.00     0.200 C 
HETATM    2 CL4  UNL     1     -34.188   4.799   4.292  1.00 20.00    -0.083 Cl
HETATM    3 CL5  UNL     1     -35.973   6.756   3.107  1.00 20.00    -0.083 Cl
HETATM    4 CL6  UNL     1     -33.685   7.628   4.698  1.00 20.00    -0.083 Cl
ENDROOT
BRANCH   1   5
HETATM    5  C1  UNL     1     -33.386   6.400   2.260  1.00 20.00     0.173 C 
HETATM    6 CL3  UNL     1     -32.326   7.829   2.112  1.00 20.00    -0.126 Cl
ENDBRANCH   1   5
TORSDOF 1
ENDMDL
MODEL 2
REMARK VINA RESULT:      -1.1      0.036      2.054
REMARK  1 active torsions:
REMARK  status: ('A' for Active; 'I' for Inactive)
REMARK    1  A    between atoms: C1_1  and  C2_2 
ROOT
HETATM    1  C2  UNL     1     -34.256   6.398   3.520  1.00 20.00     0.200 C 
HETATM    2 CL4  UNL     1     -35.972   6.743   3.119  1.00 20.00    -0.083 Cl
HETATM    3 CL5  UNL     1     -33.700   7.632   4.691  1.00 20.00    -0.083 Cl
HETATM    4 CL6  UNL     1     -34.179   4.780   4.283  1.00 20.00    -0.083 Cl
ENDROOT
BRANCH   1   5
HETATM    5  C1  UNL     1     -33.432   6.444   2.230  1.00 20.00     0.173 C 
HETATM    6 CL3  UNL     1     -32.312   7.832   2.147  1.00 20.00    -0.126 Cl
ENDBRANCH   1   5
TORSDOF 1
ENDMDL
MODEL 3
REMARK VINA RESULT:      -1.1      0.049      2.056
REMARK  1 active torsions:
REMARK  status: ('A' for Active; 'I' for Inactive)
REMARK    1  A    between atoms: C1_1  and  C2_2 
ROOT
HETATM    1  C2  UNL     1     -34.255   6.363   3.495  1.00 20.00     0.200 C 
HETATM    2 CL4  UNL     1     -33.646   7.594   4.653  1.00 20.00    -0.083 Cl
HETATM    3 CL5  UNL     1     -34.153   4.761   4.284  1.00 20.00    -0.083 Cl
HETATM    4 CL6  UNL     1     -35.968   6.740   3.137  1.00 20.00    -0.083 Cl
ENDROOT
BRANCH   1   5
HETATM    5  C1  UNL     1     -33.398   6.415   2.227  1.00 20.00     0.173 C 
HETATM    6 CL3  UNL     1     -32.327   7.841   2.147  1.00 20.00    -0.126 Cl
ENDBRANCH   1   5
TORSDOF 1
ENDMDL
MODEL 4
REMARK VINA RESULT:      -1.1      1.300      2.888
REMARK  1 active torsions:
REMARK  status: ('A' for Active; 'I' for Inactive)
REMARK    1  A    between atoms: C1_1  and  C2_2 
ROOT
HETATM    1  C2  UNL     1     -34.625   6.309   3.668  1.00 20.00     0.200 C 
HETATM    2 CL4  UNL     1     -36.179   6.865   2.960  1.00 20.00    -0.083 Cl
HETATM    3 CL5  UNL     1     -33.496   5.957   2.326  1.00 20.00    -0.083 Cl
HETATM    4 CL6  UNL     1     -33.963   7.639   4.666  1.00 20.00    -0.083 Cl
ENDROOT
BRANCH   1   5
HETATM    5  C1  UNL     1     -34.890   5.060   4.513  1.00 20.00     0.173 C 
HETATM    6 CL3  UNL     1     -33.771   3.712   4.168  1.00 20.00    -0.126 Cl
ENDBRANCH   1   5
TORSDOF 1
ENDMDL
MODEL 5
REMARK VINA RESULT:      -1.0      1.332      3.033
REMARK  1 active torsions:
REMARK  status: ('A' for Active; 'I' for Inactive)
REMARK    1  A    between atoms: C1_1  and  C2_2 
ROOT
HETATM    1  C2  UNL     1     -34.686   6.313   3.689  1.00 20.00     0.200 C 
HETATM    2 CL4  UNL     1     -33.532   5.922   2.369  1.00 20.00    -0.083 Cl
HETATM    3 CL5  UNL     1     -33.986   7.640   4.663  1.00 20.00    -0.083 Cl
HETATM    4 CL6  UNL     1     -36.215   6.869   2.941  1.00 20.00    -0.083 Cl
ENDROOT
BRANCH   1   5
HETATM    5  C1  UNL     1     -34.907   5.057   4.536  1.00 20.00     0.173 C 
HETATM    6 CL3  UNL     1     -33.781   3.726   4.148  1.00 20.00    -0.126 Cl
ENDBRANCH   1   5
TORSDOF 1
ENDMDL
MODEL 6
REMARK VINA RESULT:      -1.0      1.309      2.865
REMARK  1 active torsions:
REMARK  status: ('A' for Active; 'I' for Inactive)
REMARK    1  A    between atoms: C1_1  and  C2_2 
ROOT
HETATM    1  C2  UNL     1     -34.666   6.293   3.648  1.00 20.00     0.200 C 
HETATM    2 CL4  UNL     1     -33.987   7.610   4.662  1.00 20.00    -0.083 Cl
HETATM    3 CL5  UNL     1     -36.205   6.872   2.943  1.00 20.00    -0.083 Cl
HETATM    4 CL6  UNL     1     -33.503   5.951   2.331  1.00 20.00    -0.083 Cl
ENDROOT
BRANCH   1   5
HETATM    5  C1  UNL     1     -34.887   5.059   4.528  1.00 20.00     0.173 C 
HETATM    6 CL3  UNL     1     -33.772   3.713   4.165  1.00 20.00    -0.126 Cl
ENDBRANCH   1   5
TORSDOF 1
ENDMDL
MODEL 7
REMARK VINA RESULT:      -0.9      1.842      3.346
REMARK  1 active torsions:
REMARK  status: ('A' for Active; 'I' for Inactive)
REMARK    1  A    between atoms: C1_1  and  C2_2 
ROOT
HETATM    1  C2  UNL     1     -32.839   6.217   1.696  1.00 20.00     0.200 C 
HETATM    2 CL4  UNL     1     -33.926   6.105   0.271  1.00 20.00    -0.083 Cl
HETATM    3 CL5  UNL     1     -31.524   5.022   1.488  1.00 20.00    -0.083 Cl
HETATM    4 CL6  UNL     1     -32.141   7.866   1.733  1.00 20.00    -0.083 Cl
ENDROOT
BRANCH   1   5
HETATM    5  C1  UNL     1     -33.655   5.932   2.960  1.00 20.00     0.173 C 
HETATM    6 CL3  UNL     1     -34.107   7.402   3.866  1.00 20.00    -0.126 Cl
ENDBRANCH   1   5
TORSDOF 1
ENDMDL
MODEL 8
REMARK VINA RESULT:      -0.9      1.842      3.355
REMARK  1 active torsions:
REMARK  status: ('A' for Active; 'I' for Inactive)
REMARK    1  A    between atoms: C1_1  and  C2_2 
ROOT
HETATM    1  C2  UNL     1     -32.867   6.234   1.679  1.00 20.00     0.200 C 
HETATM    2 CL4  UNL     1     -31.541   5.035   1.510  1.00 20.00    -0.083 Cl
HETATM    3 CL5  UNL     1     -32.137   7.867   1.726  1.00 20.00    -0.083 Cl
HETATM    4 CL6  UNL     1     -33.924   6.098   0.241  1.00 20.00    -0.083 Cl
ENDROOT
BRANCH   1   5
HETATM    5  C1  UNL     1     -33.639   5.933   2.967  1.00 20.00     0.173 C 
HETATM    6 CL3  UNL     1     -34.118   7.396   3.872  1.00 20.00    -0.126 Cl
ENDBRANCH   1   5
TORSDOF 1
ENDMDL
MODEL 9
REMARK VINA RESULT:      -0.8      1.851      3.337
REMARK  1 active torsions:
REMARK  status: ('A' for Active; 'I' for Inactive)
REMARK    1  A    between atoms: C1_1  and  C2_2 
ROOT
HETATM    1  C2  UNL     1     -32.866   6.183   1.680  1.00 20.00     0.200 C 
HETATM    2 CL4  UNL     1     -32.171   7.837   1.751  1.00 20.00    -0.083 Cl
HETATM    3 CL5  UNL     1     -33.932   6.089   0.247  1.00 20.00    -0.083 Cl
HETATM    4 CL6  UNL     1     -31.516   5.022   1.491  1.00 20.00    -0.083 Cl
ENDROOT
BRANCH   1   5
HETATM    5  C1  UNL     1     -33.645   5.922   2.972  1.00 20.00     0.173 C 
HETATM    6 CL3  UNL     1     -34.090   7.411   3.851  1.00 20.00    -0.126 Cl
ENDBRANCH   1   5
TORSDOF 1
ENDMDL
