MODEL 1
REMARK VINA RESULT:      -2.2      0.000      0.000
REMARK  0 active torsions:
REMARK  status: ('A' for Active; 'I' for Inactive)
ROOT
HETATM    1  C1  UNL     1     -31.991   8.137   1.826  1.00 20.00     0.050 C 
HETATM    2  C2  UNL     1     -32.790   7.135   2.261  1.00 20.00     0.094 C 
HETATM    3 CL3  UNL     1     -32.800   5.584   1.490  1.00 20.00    -0.072 Cl
HETATM    4 CL4  UNL     1     -33.851   7.345   3.615  1.00 20.00    -0.072 Cl
ENDROOT
TORSDOF 0
ENDMDL
MODEL 2
REMARK VINA RESULT:      -2.2      0.025      2.088
REMARK  0 active torsions:
REMARK  status: ('A' for Active; 'I' for Inactive)
ROOT
HETATM    1  C1  UNL     1     -31.987   8.121   1.829  1.00 20.00     0.050 C 
HETATM    2  C2  UNL     1     -32.791   7.118   2.252  1.00 20.00     0.094 C 
HETATM    3 CL3  UNL     1     -33.870   7.325   3.591  1.00 20.00    -0.072 Cl
HETATM    4 CL4  UNL     1     -32.787   5.567   1.479  1.00 20.00    -0.072 Cl
ENDROOT
TORSDOF 0
ENDMDL
MODEL 3
REMARK VINA RESULT:      -2.1      2.091      2.770
REMARK  0 active torsions:
REMARK  status: ('A' for Active; 'I' for Inactive)
ROOT
HETATM    1  C1  UNL     1     -33.849   7.895   4.138  1.00 20.00     0.050 C 
HETATM    2  C2  UNL     1     -34.152   6.704   3.573  1.00 20.00     0.094 C 
HETATM    3 CL3  UNL     1     -35.429   5.708   4.190  1.00 20.00    -0.072 Cl
HETATM    4 CL4  UNL     1     -33.281   6.102   2.202  1.00 20.00    -0.072 Cl
ENDROOT
TORSDOF 0
ENDMDL
MODEL 4
REMARK VINA RESULT:      -2.1      2.075      2.161
REMARK  0 active torsions:
REMARK  status: ('A' for Active; 'I' for Inactive)
ROOT
HETATM    1  C1  UNL     1     -33.825   7.904   4.119  1.00 20.00     0.050 C 
HETATM    2  C2  UNL     1     -34.131   6.712   3.557  1.00 20.00     0.094 C 
HETATM    3 CL3  UNL     1     -33.256   6.102   2.192  1.00 20.00    -0.072 Cl
HETATM    4 CL4  UNL     1     -35.417   5.725   4.170  1.00 20.00    -0.072 Cl
ENDROOT
TORSDOF 0
ENDMDL
MODEL 5
REMARK VINA RESULT:      -2.0      2.082      3.305
REMARK  0 active torsions:
REMARK  status: ('A' for Active; 'I' for Inactive)
ROOT
HETATM    1  C1  UNL     1     -35.354   6.111   3.953  1.00 20.00     0.050 C 
HETATM    2  C2  UNL     1     -34.204   6.749   3.634  1.00 20.00     0.094 C 
HETATM    3 CL3  UNL     1     -33.604   8.066   4.588  1.00 20.00    -0.072 Cl
HETATM    4 CL4  UNL     1     -33.264   6.288   2.254  1.00 20.00    -0.072 Cl
ENDROOT
TORSDOF 0
ENDMDL
MODEL 6
REMARK VINA RESULT:      -2.0      2.081      2.587
REMARK  0 active torsions:
REMARK  status: ('A' for Active; 'I' for Inactive)
ROOT
HETATM    1  C1  UNL     1     -35.353   6.110   3.953  1.00 20.00     0.050 C 
HETATM    2  C2  UNL     1     -34.204   6.749   3.633  1.00 20.00     0.094 C 
HETATM    3 CL3  UNL     1     -33.262   6.286   2.255  1.00 20.00    -0.072 Cl
HETATM    4 CL4  UNL     1     -33.605   8.068   4.585  1.00 20.00    -0.072 Cl
ENDROOT
TORSDOF 0
ENDMDL
MODEL 7
REMARK VINA RESULT:      -2.0      1.627      1.918
REMARK  0 active torsions:
REMARK  status: ('A' for Active; 'I' for Inactive)
ROOT
HETATM    1  C1  UNL     1     -32.869   5.716   1.575  1.00 20.00     0.050 C 
HETATM    2  C2  UNL     1     -32.942   6.908   2.211  1.00 20.00     0.094 C 
HETATM    3 CL3  UNL     1     -32.010   8.272   1.690  1.00 20.00    -0.072 Cl
HETATM    4 CL4  UNL     1     -33.970   7.139   3.586  1.00 20.00    -0.072 Cl
ENDROOT
TORSDOF 0
ENDMDL
MODEL 8
REMARK VINA RESULT:      -2.0      1.628      2.393
REMARK  0 active torsions:
REMARK  status: ('A' for Active; 'I' for Inactive)
ROOT
HETATM    1  C1  UNL     1     -32.870   5.716   1.576  1.00 20.00     0.050 C 
HETATM    2  C2  UNL     1     -32.943   6.907   2.214  1.00 20.00     0.094 C 
HETATM    3 CL3  UNL     1     -33.973   7.138   3.587  1.00 20.00    -0.072 Cl
HETATM    4 CL4  UNL     1     -32.010   8.272   1.694  1.00 20.00    -0.072 Cl
ENDROOT
TORSDOF 0
ENDMDL
MODEL 9
REMARK VINA RESULT:      -1.8      1.570      2.497
REMARK  0 active torsions:
REMARK  status: ('A' for Active; 'I' for Inactive)
ROOT
HETATM    1  C1  UNL     1     -33.928   6.972   3.437  1.00 20.00     0.050 C 
HETATM    2  C2  UNL     1     -33.044   6.906   2.414  1.00 20.00     0.094 C 
HETATM    3 CL3  UNL     1     -32.058   8.263   1.981  1.00 20.00    -0.072 Cl
HETATM    4 CL4  UNL     1     -32.847   5.461   1.478  1.00 20.00    -0.072 Cl
ENDROOT
TORSDOF 0
ENDMDL
