MODEL 1
REMARK VINA RESULT:      -0.9      0.000      0.000
REMARK  0 active torsions:
REMARK  status: ('A' for Active; 'I' for Inactive)
ROOT
HETATM    1  C1  UNL     1     -35.773   6.690   3.226  1.00 20.00     0.068 C 
HETATM    2  C2  UNL     1     -34.330   6.369   3.594  1.00 20.00     0.184 C 
HETATM    3 CL3  UNL     1     -33.318   6.379   2.123  1.00 20.00    -0.084 Cl
HETATM    4 CL4  UNL     1     -33.714   7.591   4.740  1.00 20.00    -0.084 Cl
HETATM    5 CL5  UNL     1     -34.246   4.756   4.353  1.00 20.00    -0.084 Cl
ENDROOT
TORSDOF 0
ENDMDL
MODEL 2
REMARK VINA RESULT:      -0.9      0.001      2.255
REMARK  0 active torsions:
REMARK  status: ('A' for Active; 'I' for Inactive)
ROOT
HETATM    1  C1  UNL     1     -35.774   6.689   3.227  1.00 20.00     0.068 C 
HETATM    2  C2  UNL     1     -34.331   6.370   3.594  1.00 20.00     0.184 C 
HETATM    3 CL3  UNL     1     -34.246   4.756   4.355  1.00 20.00    -0.084 Cl
HETATM    4 CL4  UNL     1     -33.318   6.379   2.124  1.00 20.00    -0.084 Cl
HETATM    5 CL5  UNL     1     -33.715   7.592   4.740  1.00 20.00    -0.084 Cl
ENDROOT
TORSDOF 0
ENDMDL
MODEL 3
REMARK VINA RESULT:      -0.9      0.002      2.255
REMARK  0 active torsions:
REMARK  status: ('A' for Active; 'I' for Inactive)
ROOT
HETATM    1  C1  UNL     1     -35.773   6.691   3.227  1.00 20.00     0.068 C 
HETATM    2  C2  UNL     1     -34.330   6.370   3.594  1.00 20.00     0.184 C 
HETATM    3 CL3  UNL     1     -33.715   7.593   4.741  1.00 20.00    -0.084 Cl
HETATM    4 CL4  UNL     1     -34.246   4.757   4.354  1.00 20.00    -0.084 Cl
HETATM    5 CL5  UNL     1     -33.317   6.382   2.124  1.00 20.00    -0.084 Cl
ENDROOT
TORSDOF 0
ENDMDL
MODEL 4
REMARK VINA RESULT:      -0.9      1.478      2.143
REMARK  0 active torsions:
REMARK  status: ('A' for Active; 'I' for Inactive)
ROOT
HETATM    1  C1  UNL     1     -33.916   7.456   4.529  1.00 20.00     0.068 C 
HETATM    2  C2  UNL     1     -34.400   6.381   3.564  1.00 20.00     0.184 C 
HETATM    3 CL3  UNL     1     -36.083   6.725   3.075  1.00 20.00    -0.084 Cl
HETATM    4 CL4  UNL     1     -33.359   6.360   2.113  1.00 20.00    -0.084 Cl
HETATM    5 CL5  UNL     1     -34.334   4.783   4.358  1.00 20.00    -0.084 Cl
ENDROOT
TORSDOF 0
ENDMDL
MODEL 5
REMARK VINA RESULT:      -0.9      1.466      2.521
REMARK  0 active torsions:
REMARK  status: ('A' for Active; 'I' for Inactive)
ROOT
HETATM    1  C1  UNL     1     -33.855   7.424   4.497  1.00 20.00     0.068 C 
HETATM    2  C2  UNL     1     -34.367   6.349   3.546  1.00 20.00     0.184 C 
HETATM    3 CL3  UNL     1     -34.297   4.754   4.347  1.00 20.00    -0.084 Cl
HETATM    4 CL4  UNL     1     -36.057   6.703   3.090  1.00 20.00    -0.084 Cl
HETATM    5 CL5  UNL     1     -33.357   6.313   2.076  1.00 20.00    -0.084 Cl
ENDROOT
TORSDOF 0
ENDMDL
MODEL 6
REMARK VINA RESULT:      -0.9      1.477      2.147
REMARK  0 active torsions:
REMARK  status: ('A' for Active; 'I' for Inactive)
ROOT
HETATM    1  C1  UNL     1     -33.919   7.453   4.529  1.00 20.00     0.068 C 
HETATM    2  C2  UNL     1     -34.403   6.379   3.564  1.00 20.00     0.184 C 
HETATM    3 CL3  UNL     1     -33.360   6.359   2.114  1.00 20.00    -0.084 Cl
HETATM    4 CL4  UNL     1     -34.337   4.781   4.357  1.00 20.00    -0.084 Cl
HETATM    5 CL5  UNL     1     -36.085   6.721   3.072  1.00 20.00    -0.084 Cl
ENDROOT
TORSDOF 0
ENDMDL
MODEL 7
REMARK VINA RESULT:      -0.8      1.501      2.115
REMARK  0 active torsions:
REMARK  status: ('A' for Active; 'I' for Inactive)
ROOT
HETATM    1  C1  UNL     1     -34.479   5.016   4.300  1.00 20.00     0.068 C 
HETATM    2  C2  UNL     1     -34.466   6.358   3.580  1.00 20.00     0.184 C 
HETATM    3 CL3  UNL     1     -36.119   6.770   3.044  1.00 20.00    -0.084 Cl
HETATM    4 CL4  UNL     1     -33.873   7.630   4.684  1.00 20.00    -0.084 Cl
HETATM    5 CL5  UNL     1     -33.393   6.268   2.156  1.00 20.00    -0.084 Cl
ENDROOT
TORSDOF 0
ENDMDL
MODEL 8
REMARK VINA RESULT:      -0.8      1.475      2.518
REMARK  0 active torsions:
REMARK  status: ('A' for Active; 'I' for Inactive)
ROOT
HETATM    1  C1  UNL     1     -33.506   6.391   2.322  1.00 20.00     0.068 C 
HETATM    2  C2  UNL     1     -34.370   6.360   3.576  1.00 20.00     0.184 C 
HETATM    3 CL3  UNL     1     -36.069   6.703   3.144  1.00 20.00    -0.084 Cl
HETATM    4 CL4  UNL     1     -34.271   4.748   4.337  1.00 20.00    -0.084 Cl
HETATM    5 CL5  UNL     1     -33.798   7.593   4.733  1.00 20.00    -0.084 Cl
ENDROOT
TORSDOF 0
ENDMDL
MODEL 9
REMARK VINA RESULT:      -0.8      1.477      2.166
REMARK  0 active torsions:
REMARK  status: ('A' for Active; 'I' for Inactive)
ROOT
HETATM    1  C1  UNL     1     -33.503   6.386   2.322  1.00 20.00     0.068 C 
HETATM    2  C2  UNL     1     -34.372   6.360   3.573  1.00 20.00     0.184 C 
HETATM    3 CL3  UNL     1     -33.800   7.596   4.728  1.00 20.00    -0.084 Cl
HETATM    4 CL4  UNL     1     -36.068   6.704   3.136  1.00 20.00    -0.084 Cl
HETATM    5 CL5  UNL     1     -34.277   4.750   4.340  1.00 20.00    -0.084 Cl
ENDROOT
TORSDOF 0
ENDMDL
