MODEL 1
REMARK VINA RESULT:      -2.0      0.000      0.000
REMARK  1 active torsions:
REMARK  status: ('A' for Active; 'I' for Inactive)
REMARK    1  A    between atoms: C2_2  and  C5_5 
ROOT
HETATM    1  C1  UNL     1     -33.353   5.303   2.305  1.00 20.00     0.088 A 
HETATM    2  C2  UNL     1     -33.911   6.367   2.982  1.00 20.00     0.147 A 
HETATM    3  C3  UNL     1     -32.379   7.460   1.854  1.00 20.00     0.071 A 
HETATM    4  C4  UNL     1     -31.548   8.568   1.337  1.00 20.00     0.078 C 
HETATM    5  N6  UNL     1     -33.353   7.605   2.726  1.00 20.00    -0.241 NA
HETATM    6  S10 UNL     1     -32.079   5.863   1.302  1.00 20.00    -0.085 SA
ENDROOT
BRANCH   2   7
HETATM    7  C5  UNL     1     -35.032   6.288   3.939  1.00 20.00     0.435 C 
HETATM    8  F7  UNL     1     -36.258   6.575   3.394  1.00 20.00    -0.165 F 
HETATM    9  F8  UNL     1     -35.195   5.053   4.514  1.00 20.00    -0.165 F 
HETATM   10  F9  UNL     1     -34.904   7.155   4.993  1.00 20.00    -0.165 F 
ENDBRANCH   2   7
TORSDOF 1
ENDMDL
MODEL 2
REMARK VINA RESULT:      -2.0      0.011      1.188
REMARK  1 active torsions:
REMARK  status: ('A' for Active; 'I' for Inactive)
REMARK    1  A    between atoms: C2_2  and  C5_5 
ROOT
HETATM    1  C1  UNL     1     -33.356   5.302   2.308  1.00 20.00     0.088 A 
HETATM    2  C2  UNL     1     -33.913   6.367   2.985  1.00 20.00     0.147 A 
HETATM    3  C3  UNL     1     -32.383   7.458   1.853  1.00 20.00     0.071 A 
HETATM    4  C4  UNL     1     -31.552   8.565   1.333  1.00 20.00     0.078 C 
HETATM    5  N6  UNL     1     -33.355   7.604   2.726  1.00 20.00    -0.241 NA
HETATM    6  S10 UNL     1     -32.085   5.860   1.302  1.00 20.00    -0.085 SA
ENDROOT
BRANCH   2   7
HETATM    7  C5  UNL     1     -35.032   6.290   3.944  1.00 20.00     0.435 C 
HETATM    8  F7  UNL     1     -35.200   5.053   4.514  1.00 20.00    -0.165 F 
HETATM    9  F8  UNL     1     -34.919   7.145   5.011  1.00 20.00    -0.165 F 
HETATM   10  F9  UNL     1     -36.247   6.586   3.382  1.00 20.00    -0.165 F 
ENDBRANCH   2   7
TORSDOF 1
ENDMDL
MODEL 3
REMARK VINA RESULT:      -1.9      0.023      1.192
REMARK  1 active torsions:
REMARK  status: ('A' for Active; 'I' for Inactive)
REMARK    1  A    between atoms: C2_2  and  C5_5 
ROOT
HETATM    1  C1  UNL     1     -33.340   5.321   2.307  1.00 20.00     0.088 A 
HETATM    2  C2  UNL     1     -33.908   6.382   2.981  1.00 20.00     0.147 A 
HETATM    3  C3  UNL     1     -32.379   7.483   1.857  1.00 20.00     0.071 A 
HETATM    4  C4  UNL     1     -31.554   8.596   1.340  1.00 20.00     0.078 C 
HETATM    5  N6  UNL     1     -33.357   7.623   2.725  1.00 20.00    -0.241 NA
HETATM    6  S10 UNL     1     -32.068   5.887   1.308  1.00 20.00    -0.085 SA
ENDROOT
BRANCH   2   7
HETATM    7  C5  UNL     1     -35.031   6.298   3.935  1.00 20.00     0.435 C 
HETATM    8  F7  UNL     1     -34.923   7.147   5.008  1.00 20.00    -0.165 F 
HETATM    9  F8  UNL     1     -36.255   6.591   3.390  1.00 20.00    -0.165 F 
HETATM   10  F9  UNL     1     -35.179   5.052   4.487  1.00 20.00    -0.165 F 
ENDBRANCH   2   7
TORSDOF 1
ENDMDL
MODEL 4
REMARK VINA RESULT:      -1.9      1.303      1.729
REMARK  1 active torsions:
REMARK  status: ('A' for Active; 'I' for Inactive)
REMARK    1  A    between atoms: C2_2  and  C5_5 
ROOT
HETATM    1  C1  UNL     1     -33.161   7.743   2.859  1.00 20.00     0.088 A 
HETATM    2  C2  UNL     1     -33.857   6.564   3.030  1.00 20.00     0.147 A 
HETATM    3  C3  UNL     1     -32.391   5.871   1.552  1.00 20.00     0.071 A 
HETATM    4  C4  UNL     1     -31.654   4.990   0.621  1.00 20.00     0.078 C 
HETATM    5  N6  UNL     1     -33.418   5.490   2.281  1.00 20.00    -0.241 NA
HETATM    6  S10 UNL     1     -31.902   7.507   1.719  1.00 20.00    -0.085 SA
ENDROOT
BRANCH   2   7
HETATM    7  C5  UNL     1     -35.010   6.367   3.930  1.00 20.00     0.435 C 
HETATM    8  F7  UNL     1     -36.227   6.620   3.348  1.00 20.00    -0.165 F 
HETATM    9  F8  UNL     1     -35.126   5.092   4.423  1.00 20.00    -0.165 F 
HETATM   10  F9  UNL     1     -34.975   7.172   5.038  1.00 20.00    -0.165 F 
ENDBRANCH   2   7
TORSDOF 1
ENDMDL
MODEL 5
REMARK VINA RESULT:      -1.1      3.151      4.120
REMARK  1 active torsions:
REMARK  status: ('A' for Active; 'I' for Inactive)
REMARK    1  A    between atoms: C2_2  and  C5_5 
ROOT
HETATM    1  C1  UNL     1     -34.345   7.490   3.371  1.00 20.00     0.088 A 
HETATM    2  C2  UNL     1     -33.171   7.029   2.813  1.00 20.00     0.147 A 
HETATM    3  C3  UNL     1     -33.900   5.141   3.660  1.00 20.00     0.071 A 
HETATM    4  C4  UNL     1     -33.975   3.712   4.032  1.00 20.00     0.078 C 
HETATM    5  N6  UNL     1     -32.914   5.681   2.979  1.00 20.00    -0.241 NA
HETATM    6  S10 UNL     1     -35.169   6.194   4.133  1.00 20.00    -0.085 SA
ENDROOT
BRANCH   2   7
HETATM    7  C5  UNL     1     -32.189   7.844   2.071  1.00 20.00     0.435 C 
HETATM    8  F7  UNL     1     -31.372   7.120   1.240  1.00 20.00    -0.165 F 
HETATM    9  F8  UNL     1     -32.749   8.795   1.257  1.00 20.00    -0.165 F 
HETATM   10  F9  UNL     1     -31.335   8.536   2.889  1.00 20.00    -0.165 F 
ENDBRANCH   2   7
TORSDOF 1
ENDMDL
MODEL 6
REMARK VINA RESULT:      -1.1      3.152      4.115
REMARK  1 active torsions:
REMARK  status: ('A' for Active; 'I' for Inactive)
REMARK    1  A    between atoms: C2_2  and  C5_5 
ROOT
HETATM    1  C1  UNL     1     -34.335   7.514   3.416  1.00 20.00     0.088 A 
HETATM    2  C2  UNL     1     -33.168   7.052   2.842  1.00 20.00     0.147 A 
HETATM    3  C3  UNL     1     -33.906   5.156   3.662  1.00 20.00     0.071 A 
HETATM    4  C4  UNL     1     -33.989   3.722   4.011  1.00 20.00     0.078 C 
HETATM    5  N6  UNL     1     -32.920   5.700   2.983  1.00 20.00    -0.241 NA
HETATM    6  S10 UNL     1     -35.163   6.211   4.162  1.00 20.00    -0.085 SA
ENDROOT
BRANCH   2   7
HETATM    7  C5  UNL     1     -32.185   7.872   2.106  1.00 20.00     0.435 C 
HETATM    8  F7  UNL     1     -32.744   8.843   1.313  1.00 20.00    -0.165 F 
HETATM    9  F8  UNL     1     -31.306   8.552   2.910  1.00 20.00    -0.165 F 
HETATM   10  F9  UNL     1     -31.395   7.138   1.260  1.00 20.00    -0.165 F 
ENDBRANCH   2   7
TORSDOF 1
ENDMDL
MODEL 7
REMARK VINA RESULT:      -0.8      3.006      4.011
REMARK  1 active torsions:
REMARK  status: ('A' for Active; 'I' for Inactive)
REMARK    1  A    between atoms: C2_2  and  C5_5 
ROOT
HETATM    1  C1  UNL     1     -32.551   5.835   1.758  1.00 20.00     0.088 A 
HETATM    2  C2  UNL     1     -32.683   7.139   2.190  1.00 20.00     0.147 A 
HETATM    3  C3  UNL     1     -34.268   6.227   3.402  1.00 20.00     0.071 A 
HETATM    4  C4  UNL     1     -35.378   6.075   4.367  1.00 20.00     0.078 C 
HETATM    5  N6  UNL     1     -33.669   7.366   3.131  1.00 20.00    -0.241 NA
HETATM    6  S10 UNL     1     -33.698   4.845   2.560  1.00 20.00    -0.085 SA
ENDROOT
BRANCH   2   7
HETATM    7  C5  UNL     1     -31.874   8.286   1.732  1.00 20.00     0.435 C 
HETATM    8  F7  UNL     1     -31.003   7.989   0.714  1.00 20.00    -0.165 F 
HETATM    9  F8  UNL     1     -32.611   9.339   1.254  1.00 20.00    -0.165 F 
HETATM   10  F9  UNL     1     -31.091   8.822   2.720  1.00 20.00    -0.165 F 
ENDBRANCH   2   7
TORSDOF 1
ENDMDL
MODEL 8
REMARK VINA RESULT:      -0.6      3.677      4.492
REMARK  1 active torsions:
REMARK  status: ('A' for Active; 'I' for Inactive)
REMARK    1  A    between atoms: C2_2  and  C5_5 
ROOT
HETATM    1  C1  UNL     1     -32.159   6.903   1.099  1.00 20.00     0.088 A 
HETATM    2  C2  UNL     1     -32.520   8.222   1.277  1.00 20.00     0.147 A 
HETATM    3  C3  UNL     1     -33.509   7.368   3.039  1.00 20.00     0.071 A 
HETATM    4  C4  UNL     1     -34.300   7.261   4.283  1.00 20.00     0.078 C 
HETATM    5  N6  UNL     1     -33.295   8.491   2.389  1.00 20.00    -0.241 NA
HETATM    6  S10 UNL     1     -32.808   5.952   2.369  1.00 20.00    -0.085 SA
ENDROOT
BRANCH   2   7
HETATM    7  C5  UNL     1     -32.152   9.345   0.391  1.00 20.00     0.435 C 
HETATM    8  F7  UNL     1     -32.943   9.464  -0.723  1.00 20.00    -0.165 F 
HETATM    9  F8  UNL     1     -32.216  10.577   0.989  1.00 20.00    -0.165 F 
HETATM   10  F9  UNL     1     -30.873   9.254  -0.093  1.00 20.00    -0.165 F 
ENDBRANCH   2   7
TORSDOF 1
ENDMDL
MODEL 9
REMARK VINA RESULT:      -0.3      1.531      2.038
REMARK  1 active torsions:
REMARK  status: ('A' for Active; 'I' for Inactive)
REMARK    1  A    between atoms: C2_2  and  C5_5 
ROOT
HETATM    1  C1  UNL     1     -33.549   7.953   4.467  1.00 20.00     0.088 A 
HETATM    2  C2  UNL     1     -34.097   6.949   3.697  1.00 20.00     0.147 A 
HETATM    3  C3  UNL     1     -32.494   7.571   2.335  1.00 20.00     0.071 A 
HETATM    4  C4  UNL     1     -31.612   7.634   1.150  1.00 20.00     0.078 C 
HETATM    5  N6  UNL     1     -33.494   6.729   2.474  1.00 20.00    -0.241 NA
HETATM    6  S10 UNL     1     -32.222   8.655   3.638  1.00 20.00    -0.085 SA
ENDROOT
BRANCH   2   7
HETATM    7  C5  UNL     1     -35.254   6.111   4.069  1.00 20.00     0.435 C 
HETATM    8  F7  UNL     1     -35.014   4.761   4.005  1.00 20.00    -0.165 F 
HETATM    9  F8  UNL     1     -35.710   6.316   5.346  1.00 20.00    -0.165 F 
HETATM   10  F9  UNL     1     -36.347   6.312   3.267  1.00 20.00    -0.165 F 
ENDBRANCH   2   7
TORSDOF 1
ENDMDL
