MODEL 1
REMARK VINA RESULT:      -2.2      0.000      0.000
REMARK  0 active torsions:
REMARK  status: ('A' for Active; 'I' for Inactive)
ROOT
HETATM    1  C1  UNL     1     -33.216   7.253   2.843  1.00 20.00     0.409 C 
HETATM    2  C2  UNL     1     -34.114   5.293   3.486  1.00 20.00     0.247 C 
HETATM    3  C3  UNL     1     -34.877   6.425   4.091  1.00 20.00     0.343 C 
HETATM    4  O4  UNL     1     -32.479   8.057   2.294  1.00 20.00    -0.229 OA
HETATM    5  O5  UNL     1     -33.346   5.940   2.478  1.00 20.00    -0.293 OA
HETATM    6  O6  UNL     1     -34.020   7.538   3.912  1.00 20.00    -0.260 OA
HETATM    7  F7  UNL     1     -36.008   6.656   3.378  1.00 20.00    -0.217 F 
ENDROOT
TORSDOF 0
ENDMDL
MODEL 2
REMARK VINA RESULT:      -1.9      1.752      2.736
REMARK  0 active torsions:
REMARK  status: ('A' for Active; 'I' for Inactive)
ROOT
HETATM    1  C1  UNL     1     -33.620   7.167   3.258  1.00 20.00     0.409 C 
HETATM    2  C2  UNL     1     -31.941   7.165   1.761  1.00 20.00     0.247 C 
HETATM    3  C3  UNL     1     -32.715   5.892   1.660  1.00 20.00     0.343 C 
HETATM    4  O4  UNL     1     -34.368   7.539   4.149  1.00 20.00    -0.229 OA
HETATM    5  O5  UNL     1     -32.804   7.993   2.532  1.00 20.00    -0.293 OA
HETATM    6  O6  UNL     1     -33.477   5.869   2.854  1.00 20.00    -0.260 OA
HETATM    7  F7  UNL     1     -33.581   5.956   0.619  1.00 20.00    -0.217 F 
ENDROOT
TORSDOF 0
ENDMDL
MODEL 3
REMARK VINA RESULT:      -1.9      1.932      2.702
REMARK  0 active torsions:
REMARK  status: ('A' for Active; 'I' for Inactive)
ROOT
HETATM    1  C1  UNL     1     -34.673   5.468   4.044  1.00 20.00     0.409 C 
HETATM    2  C2  UNL     1     -33.379   6.702   2.680  1.00 20.00     0.247 C 
HETATM    3  C3  UNL     1     -34.068   7.587   3.666  1.00 20.00     0.343 C 
HETATM    4  O4  UNL     1     -35.218   4.499   4.550  1.00 20.00    -0.229 OA
HETATM    5  O5  UNL     1     -33.567   5.408   3.240  1.00 20.00    -0.293 OA
HETATM    6  O6  UNL     1     -35.087   6.762   4.200  1.00 20.00    -0.260 OA
HETATM    7  F7  UNL     1     -33.221   7.903   4.678  1.00 20.00    -0.217 F 
ENDROOT
TORSDOF 0
ENDMDL
MODEL 4
REMARK VINA RESULT:      -1.8      1.248      1.895
REMARK  0 active torsions:
REMARK  status: ('A' for Active; 'I' for Inactive)
ROOT
HETATM    1  C1  UNL     1     -32.969   7.351   2.739  1.00 20.00     0.409 C 
HETATM    2  C2  UNL     1     -34.774   6.731   3.929  1.00 20.00     0.247 C 
HETATM    3  C3  UNL     1     -34.278   5.578   3.118  1.00 20.00     0.343 C 
HETATM    4  O4  UNL     1     -32.067   8.041   2.290  1.00 20.00    -0.229 OA
HETATM    5  O5  UNL     1     -33.685   7.644   3.868  1.00 20.00    -0.293 OA
HETATM    6  O6  UNL     1     -33.405   6.181   2.180  1.00 20.00    -0.260 OA
HETATM    7  F7  UNL     1     -33.539   4.748   3.895  1.00 20.00    -0.217 F 
ENDROOT
TORSDOF 0
ENDMDL
MODEL 5
REMARK VINA RESULT:      -1.6      1.163      1.163
REMARK  0 active torsions:
REMARK  status: ('A' for Active; 'I' for Inactive)
ROOT
HETATM    1  C1  UNL     1     -32.498   7.469   2.177  1.00 20.00     0.409 C 
HETATM    2  C2  UNL     1     -33.785   5.911   3.167  1.00 20.00     0.247 C 
HETATM    3  C3  UNL     1     -33.876   7.199   3.918  1.00 20.00     0.343 C 
HETATM    4  O4  UNL     1     -31.732   7.997   1.386  1.00 20.00    -0.229 OA
HETATM    5  O5  UNL     1     -33.187   6.310   1.939  1.00 20.00    -0.293 OA
HETATM    6  O6  UNL     1     -32.782   7.950   3.425  1.00 20.00    -0.260 OA
HETATM    7  F7  UNL     1     -35.013   7.855   3.578  1.00 20.00    -0.217 F 
ENDROOT
TORSDOF 0
ENDMDL
MODEL 6
REMARK VINA RESULT:      -1.5      2.385      3.149
REMARK  0 active torsions:
REMARK  status: ('A' for Active; 'I' for Inactive)
ROOT
HETATM    1  C1  UNL     1     -32.647   6.069   1.623  1.00 20.00     0.409 C 
HETATM    2  C2  UNL     1     -33.047   7.662   3.160  1.00 20.00     0.247 C 
HETATM    3  C3  UNL     1     -32.019   8.140   2.187  1.00 20.00     0.343 C 
HETATM    4  O4  UNL     1     -32.717   5.013   1.014  1.00 20.00    -0.229 OA
HETATM    5  O5  UNL     1     -33.593   6.526   2.501  1.00 20.00    -0.293 OA
HETATM    6  O6  UNL     1     -31.611   6.957   1.525  1.00 20.00    -0.260 OA
HETATM    7  F7  UNL     1     -32.594   8.951   1.264  1.00 20.00    -0.217 F 
ENDROOT
TORSDOF 0
ENDMDL
MODEL 7
REMARK VINA RESULT:      -1.5      2.263      2.933
REMARK  0 active torsions:
REMARK  status: ('A' for Active; 'I' for Inactive)
ROOT
HETATM    1  C1  UNL     1     -33.638   7.286   3.277  1.00 20.00     0.409 C 
HETATM    2  C2  UNL     1     -32.795   6.186   1.505  1.00 20.00     0.247 C 
HETATM    3  C3  UNL     1     -32.215   7.561   1.574  1.00 20.00     0.343 C 
HETATM    4  O4  UNL     1     -34.290   7.522   4.283  1.00 20.00    -0.229 OA
HETATM    5  O5  UNL     1     -33.381   6.032   2.792  1.00 20.00    -0.293 OA
HETATM    6  O6  UNL     1     -33.070   8.238   2.476  1.00 20.00    -0.260 OA
HETATM    7  F7  UNL     1     -30.979   7.517   2.130  1.00 20.00    -0.217 F 
ENDROOT
TORSDOF 0
ENDMDL
MODEL 8
REMARK VINA RESULT:      -1.4      1.854      2.985
REMARK  0 active torsions:
REMARK  status: ('A' for Active; 'I' for Inactive)
ROOT
HETATM    1  C1  UNL     1     -34.606   5.596   3.913  1.00 20.00     0.409 C 
HETATM    2  C2  UNL     1     -33.410   7.375   3.230  1.00 20.00     0.247 C 
HETATM    3  C3  UNL     1     -32.985   6.156   2.478  1.00 20.00     0.343 C 
HETATM    4  O4  UNL     1     -35.422   4.922   4.522  1.00 20.00    -0.229 OA
HETATM    5  O5  UNL     1     -34.636   6.961   3.823  1.00 20.00    -0.293 OA
HETATM    6  O6  UNL     1     -33.532   5.090   3.233  1.00 20.00    -0.260 OA
HETATM    7  F7  UNL     1     -33.570   6.138   1.255  1.00 20.00    -0.217 F 
ENDROOT
TORSDOF 0
ENDMDL
MODEL 9
REMARK VINA RESULT:      -1.2      2.141      3.228
REMARK  0 active torsions:
REMARK  status: ('A' for Active; 'I' for Inactive)
ROOT
HETATM    1  C1  UNL     1     -33.539   6.812   2.984  1.00 20.00     0.409 C 
HETATM    2  C2  UNL     1     -31.881   8.331   3.030  1.00 20.00     0.247 C 
HETATM    3  C3  UNL     1     -31.972   7.718   1.671  1.00 20.00     0.343 C 
HETATM    4  O4  UNL     1     -34.473   6.114   3.349  1.00 20.00    -0.229 OA
HETATM    5  O5  UNL     1     -33.110   7.939   3.630  1.00 20.00    -0.293 OA
HETATM    6  O6  UNL     1     -32.774   6.569   1.876  1.00 20.00    -0.260 OA
HETATM    7  F7  UNL     1     -32.644   8.546   0.833  1.00 20.00    -0.217 F 
ENDROOT
TORSDOF 0
ENDMDL
