MODEL 1
REMARK VINA RESULT:      -0.5      0.000      0.000
REMARK  1 active torsions:
REMARK  status: ('A' for Active; 'I' for Inactive)
REMARK    1  A    between atoms: C3_3  and  C5_5 
ROOT
HETATM    1  C1  UNL     1     -33.788   7.849   2.833  1.00 20.00     0.032 A 
HETATM    2  C2  UNL     1     -34.222   6.623   3.378  1.00 20.00    -0.044 A 
HETATM    3  C3  UNL     1     -32.766   7.642   1.921  1.00 20.00     0.068 A 
HETATM    4  C4  UNL     1     -33.529   5.557   2.873  1.00 20.00    -0.010 A 
HETATM    5  C6  UNL     1     -35.241   6.184   4.361  1.00 20.00     0.040 C 
HETATM    6  C7  UNL     1     -33.954   4.248   3.418  1.00 20.00     0.047 C 
HETATM    7  C8  UNL     1     -34.821   4.705   4.634  1.00 20.00     0.010 C 
HETATM    8  S10 UNL     1     -32.359   5.967   1.750  1.00 20.00    -0.089 SA
ENDROOT
BRANCH   3   9
HETATM    9  C5  UNL     1     -32.048   8.604   1.149  1.00 20.00     0.259 C 
HETATM   10  O9  UNL     1     -30.873   8.355   0.761  1.00 20.00    -0.273 OA
HETATM   11 CL11 UNL     1     -32.761  10.179   0.697  1.00 20.00    -0.038 Cl
ENDBRANCH   3   9
TORSDOF 1
ENDMDL
MODEL 2
REMARK VINA RESULT:      -0.3      3.257      4.691
REMARK  1 active torsions:
REMARK  status: ('A' for Active; 'I' for Inactive)
REMARK    1  A    between atoms: C3_3  and  C5_5 
ROOT
HETATM    1  C1  UNL     1     -33.805   7.245   3.542  1.00 20.00     0.032 A 
HETATM    2  C2  UNL     1     -33.031   7.917   2.573  1.00 20.00    -0.044 A 
HETATM    3  C3  UNL     1     -33.759   5.875   3.337  1.00 20.00     0.068 A 
HETATM    4  C4  UNL     1     -32.442   7.054   1.691  1.00 20.00    -0.010 A 
HETATM    5  C6  UNL     1     -32.686   9.324   2.261  1.00 20.00     0.040 C 
HETATM    6  C7  UNL     1     -31.617   7.719   0.657  1.00 20.00     0.047 C 
HETATM    7  C8  UNL     1     -32.070   9.203   0.832  1.00 20.00     0.010 C 
HETATM    8  S10 UNL     1     -32.778   5.441   1.977  1.00 20.00    -0.089 SA
ENDROOT
BRANCH   3   9
HETATM    9  C5  UNL     1     -34.396   4.838   4.082  1.00 20.00     0.259 C 
HETATM   10  O9  UNL     1     -35.567   5.003   4.524  1.00 20.00    -0.273 OA
HETATM   11 CL11 UNL     1     -33.588   3.281   4.420  1.00 20.00    -0.038 Cl
ENDBRANCH   3   9
TORSDOF 1
ENDMDL
MODEL 3
REMARK VINA RESULT:      -0.2      3.487      4.994
REMARK  1 active torsions:
REMARK  status: ('A' for Active; 'I' for Inactive)
REMARK    1  A    between atoms: C3_3  and  C5_5 
ROOT
HETATM    1  C1  UNL     1     -32.956   5.436   2.303  1.00 20.00     0.032 A 
HETATM    2  C2  UNL     1     -32.586   6.701   1.802  1.00 20.00    -0.044 A 
HETATM    3  C3  UNL     1     -33.767   5.572   3.418  1.00 20.00     0.068 A 
HETATM    4  C4  UNL     1     -33.116   7.725   2.537  1.00 20.00    -0.010 A 
HETATM    5  C6  UNL     1     -31.768   7.213   0.677  1.00 20.00     0.040 C 
HETATM    6  C7  UNL     1     -32.753   9.073   2.043  1.00 20.00     0.047 C 
HETATM    7  C8  UNL     1     -31.599   8.720   1.051  1.00 20.00     0.010 C 
HETATM    8  S10 UNL     1     -34.058   7.230   3.826  1.00 20.00    -0.089 SA
ENDROOT
BRANCH   3   9
HETATM    9  C5  UNL     1     -34.357   4.554   4.224  1.00 20.00     0.259 C 
HETATM   10  O9  UNL     1     -35.527   4.703   4.677  1.00 20.00    -0.273 OA
HETATM   11 CL11 UNL     1     -33.492   3.043   4.627  1.00 20.00    -0.038 Cl
ENDBRANCH   3   9
TORSDOF 1
ENDMDL
MODEL 4
REMARK VINA RESULT:       0.4      1.057      1.689
REMARK  1 active torsions:
REMARK  status: ('A' for Active; 'I' for Inactive)
REMARK    1  A    between atoms: C3_3  and  C5_5 
ROOT
HETATM    1  C1  UNL     1     -32.609   6.416   1.869  1.00 20.00     0.032 A 
HETATM    2  C2  UNL     1     -33.453   5.918   2.883  1.00 20.00    -0.044 A 
HETATM    3  C3  UNL     1     -32.686   7.798   1.806  1.00 20.00     0.068 A 
HETATM    4  C4  UNL     1     -34.124   6.915   3.535  1.00 20.00    -0.010 A 
HETATM    5  C6  UNL     1     -33.805   4.587   3.431  1.00 20.00     0.040 C 
HETATM    6  C7  UNL     1     -35.022   6.436   4.610  1.00 20.00     0.047 C 
HETATM    7  C8  UNL     1     -35.066   4.907   4.295  1.00 20.00     0.010 C 
HETATM    8  S10 UNL     1     -33.780   8.454   2.978  1.00 20.00    -0.089 SA
ENDROOT
BRANCH   3   9
HETATM    9  C5  UNL     1     -32.002   8.692   0.930  1.00 20.00     0.259 C 
HETATM   10  O9  UNL     1     -30.890   8.363   0.431  1.00 20.00    -0.273 OA
HETATM   11 CL11 UNL     1     -32.669  10.293   0.500  1.00 20.00    -0.038 Cl
ENDBRANCH   3   9
TORSDOF 1
ENDMDL
MODEL 5
REMARK VINA RESULT:       0.7      2.955      4.551
REMARK  1 active torsions:
REMARK  status: ('A' for Active; 'I' for Inactive)
REMARK    1  A    between atoms: C3_3  and  C5_5 
ROOT
HETATM    1  C1  UNL     1     -33.647   7.362   3.317  1.00 20.00     0.032 A 
HETATM    2  C2  UNL     1     -32.907   8.069   2.348  1.00 20.00    -0.044 A 
HETATM    3  C3  UNL     1     -33.550   5.996   3.104  1.00 20.00     0.068 A 
HETATM    4  C4  UNL     1     -32.290   7.236   1.457  1.00 20.00    -0.010 A 
HETATM    5  C6  UNL     1     -32.619   9.490   2.043  1.00 20.00     0.040 C 
HETATM    6  C7  UNL     1     -31.499   7.938   0.421  1.00 20.00     0.047 C 
HETATM    7  C8  UNL     1     -32.008   9.403   0.608  1.00 20.00     0.010 C 
HETATM    8  S10 UNL     1     -32.562   5.609   1.735  1.00 20.00    -0.089 SA
ENDROOT
BRANCH   3   9
HETATM    9  C5  UNL     1     -34.141   4.930   3.846  1.00 20.00     0.259 C 
HETATM   10  O9  UNL     1     -33.573   3.803   3.897  1.00 20.00    -0.273 OA
HETATM   11 CL11 UNL     1     -35.682   5.130   4.728  1.00 20.00    -0.038 Cl
ENDBRANCH   3   9
TORSDOF 1
ENDMDL
MODEL 6
REMARK VINA RESULT:       1.2      3.176      4.846
REMARK  1 active torsions:
REMARK  status: ('A' for Active; 'I' for Inactive)
REMARK    1  A    between atoms: C3_3  and  C5_5 
ROOT
HETATM    1  C1  UNL     1     -32.818   5.605   2.067  1.00 20.00     0.032 A 
HETATM    2  C2  UNL     1     -32.438   6.875   1.587  1.00 20.00    -0.044 A 
HETATM    3  C3  UNL     1     -33.620   5.728   3.190  1.00 20.00     0.068 A 
HETATM    4  C4  UNL     1     -32.953   7.891   2.345  1.00 20.00    -0.010 A 
HETATM    5  C6  UNL     1     -31.623   7.401   0.467  1.00 20.00     0.040 C 
HETATM    6  C7  UNL     1     -32.579   9.244   1.875  1.00 20.00     0.047 C 
HETATM    7  C8  UNL     1     -31.436   8.899   0.868  1.00 20.00     0.010 C 
HETATM    8  S10 UNL     1     -33.891   7.381   3.631  1.00 20.00    -0.089 SA
ENDROOT
BRANCH   3   9
HETATM    9  C5  UNL     1     -34.215   4.700   3.981  1.00 20.00     0.259 C 
HETATM   10  O9  UNL     1     -33.659   3.570   4.072  1.00 20.00    -0.273 OA
HETATM   11 CL11 UNL     1     -35.745   4.953   4.867  1.00 20.00    -0.038 Cl
ENDBRANCH   3   9
TORSDOF 1
ENDMDL
MODEL 7
REMARK VINA RESULT:       1.4      1.568      2.048
REMARK  1 active torsions:
REMARK  status: ('A' for Active; 'I' for Inactive)
REMARK    1  A    between atoms: C3_3  and  C5_5 
ROOT
HETATM    1  C1  UNL     1     -32.539   6.674   1.726  1.00 20.00     0.032 A 
HETATM    2  C2  UNL     1     -33.317   6.077   2.739  1.00 20.00    -0.044 A 
HETATM    3  C3  UNL     1     -32.741   8.045   1.702  1.00 20.00     0.068 A 
HETATM    4  C4  UNL     1     -34.062   6.992   3.429  1.00 20.00    -0.010 A 
HETATM    5  C6  UNL     1     -33.538   4.705   3.256  1.00 20.00     0.040 C 
HETATM    6  C7  UNL     1     -34.894   6.406   4.504  1.00 20.00     0.047 C 
HETATM    7  C8  UNL     1     -34.806   4.889   4.148  1.00 20.00     0.010 C 
HETATM    8  S10 UNL     1     -33.867   8.569   2.908  1.00 20.00    -0.089 SA
ENDROOT
BRANCH   3   9
HETATM    9  C5  UNL     1     -32.155   9.020   0.840  1.00 20.00     0.259 C 
HETATM   10  O9  UNL     1     -32.621  10.193   0.803  1.00 20.00    -0.273 OA
HETATM   11 CL11 UNL     1     -30.760   8.641  -0.210  1.00 20.00    -0.038 Cl
ENDBRANCH   3   9
TORSDOF 1
ENDMDL
