MODEL 1
REMARK VINA RESULT:       1.6      0.000      0.000
REMARK  0 active torsions:
REMARK  status: ('A' for Active; 'I' for Inactive)
ROOT
HETATM    1  C1  UNL     1     -34.082   6.645   3.074  1.00 20.00     0.064 C 
HETATM    2  C2  UNL     1     -31.519   8.290   2.487  1.00 20.00     0.011 C 
HETATM    3  C3  UNL     1     -31.509   8.551   0.129  1.00 20.00     0.010 C 
HETATM    4  C4  UNL     1     -33.553   7.210   1.822  1.00 20.00     0.101 C 
HETATM    5  C5  UNL     1     -31.222   7.495   1.216  1.00 20.00    -0.009 C 
HETATM    6  C6  UNL     1     -32.952   8.621   2.060  1.00 20.00     0.007 C 
HETATM    7  C7  UNL     1     -32.742   9.297   0.681  1.00 20.00    -0.013 C 
HETATM    8  C8  UNL     1     -32.354   6.435   1.204  1.00 20.00     0.003 C 
HETATM    9  C9  UNL     1     -32.509  10.800   0.788  1.00 20.00     0.010 C 
HETATM   10  C10 UNL     1     -31.936   5.150   1.919  1.00 20.00     0.011 C 
HETATM   11  N11 UNL     1     -34.499   6.200   4.060  1.00 20.00    -0.197 NA
ENDROOT
TORSDOF 0
ENDMDL
MODEL 2
REMARK VINA RESULT:       2.2      1.710      3.309
REMARK  0 active torsions:
REMARK  status: ('A' for Active; 'I' for Inactive)
ROOT
HETATM    1  C1  UNL     1     -34.684   5.322   4.134  1.00 20.00     0.064 C 
HETATM    2  C2  UNL     1     -33.925   6.561   1.393  1.00 20.00     0.011 C 
HETATM    3  C3  UNL     1     -31.603   7.013   1.570  1.00 20.00     0.010 C 
HETATM    4  C4  UNL     1     -33.385   5.734   3.578  1.00 20.00     0.101 C 
HETATM    5  C5  UNL     1     -32.966   7.561   2.038  1.00 20.00    -0.009 C 
HETATM    6  C6  UNL     1     -33.277   5.353   2.077  1.00 20.00     0.007 C 
HETATM    7  C7  UNL     1     -31.794   5.484   1.650  1.00 20.00    -0.013 C 
HETATM    8  C8  UNL     1     -33.137   7.270   3.552  1.00 20.00     0.003 C 
HETATM    9  C9  UNL     1     -31.496   4.793   0.323  1.00 20.00     0.010 C 
HETATM   10  C10 UNL     1     -34.223   8.143   4.179  1.00 20.00     0.011 C 
HETATM   11  N11 UNL     1     -35.708   4.997   4.572  1.00 20.00    -0.197 NA
ENDROOT
TORSDOF 0
ENDMDL
MODEL 3
REMARK VINA RESULT:       2.2      1.999      4.038
REMARK  0 active torsions:
REMARK  status: ('A' for Active; 'I' for Inactive)
ROOT
HETATM    1  C1  UNL     1     -32.279   5.417   1.097  1.00 20.00     0.064 C 
HETATM    2  C2  UNL     1     -32.723   6.281   4.042  1.00 20.00     0.011 C 
HETATM    3  C3  UNL     1     -34.706   7.581   3.986  1.00 20.00     0.010 C 
HETATM    4  C4  UNL     1     -33.376   6.160   1.739  1.00 20.00     0.101 C 
HETATM    5  C5  UNL     1     -33.209   7.670   3.630  1.00 20.00    -0.009 C 
HETATM    6  C6  UNL     1     -33.716   5.557   3.128  1.00 20.00     0.007 C 
HETATM    7  C7  UNL     1     -35.077   6.137   3.587  1.00 20.00    -0.013 C 
HETATM    8  C8  UNL     1     -33.053   7.641   2.087  1.00 20.00     0.003 C 
HETATM    9  C9  UNL     1     -35.693   5.357   4.744  1.00 20.00     0.010 C 
HETATM   10  C10 UNL     1     -31.685   8.160   1.645  1.00 20.00     0.011 C 
HETATM   11  N11 UNL     1     -31.414   4.832   0.591  1.00 20.00    -0.197 NA
ENDROOT
TORSDOF 0
ENDMDL
MODEL 4
REMARK VINA RESULT:       2.9      1.960      3.713
REMARK  0 active torsions:
REMARK  status: ('A' for Active; 'I' for Inactive)
ROOT
HETATM    1  C1  UNL     1     -32.594   9.330   1.306  1.00 20.00     0.064 C 
HETATM    2  C2  UNL     1     -34.002   6.568   1.210  1.00 20.00     0.011 C 
HETATM    3  C3  UNL     1     -33.143   5.399   3.088  1.00 20.00     0.010 C 
HETATM    4  C4  UNL     1     -32.561   8.187   2.234  1.00 20.00     0.101 C 
HETATM    5  C5  UNL     1     -32.740   5.836   1.665  1.00 20.00    -0.009 C 
HETATM    6  C6  UNL     1     -33.969   7.553   2.384  1.00 20.00     0.007 C 
HETATM    7  C7  UNL     1     -33.947   6.608   3.611  1.00 20.00    -0.013 C 
HETATM    8  C8  UNL     1     -31.698   6.981   1.763  1.00 20.00     0.003 C 
HETATM    9  C9  UNL     1     -35.343   6.215   4.082  1.00 20.00     0.010 C 
HETATM   10  C10 UNL     1     -30.932   7.165   0.453  1.00 20.00     0.011 C 
HETATM   11  N11 UNL     1     -32.620  10.230   0.575  1.00 20.00    -0.197 NA
ENDROOT
TORSDOF 0
ENDMDL
MODEL 5
REMARK VINA RESULT:       3.5      2.213      3.688
REMARK  0 active torsions:
REMARK  status: ('A' for Active; 'I' for Inactive)
ROOT
HETATM    1  C1  UNL     1     -32.095   8.476   1.001  1.00 20.00     0.064 C 
HETATM    2  C2  UNL     1     -34.558   7.576   2.658  1.00 20.00     0.011 C 
HETATM    3  C3  UNL     1     -33.652   6.203   4.367  1.00 20.00     0.010 C 
HETATM    4  C4  UNL     1     -32.200   7.688   2.240  1.00 20.00     0.101 C 
HETATM    5  C5  UNL     1     -33.989   6.172   2.863  1.00 20.00    -0.009 C 
HETATM    6  C6  UNL     1     -33.293   8.268   3.176  1.00 20.00     0.007 C 
HETATM    7  C7  UNL     1     -33.116   7.634   4.578  1.00 20.00    -0.013 C 
HETATM    8  C8  UNL     1     -32.670   6.217   2.047  1.00 20.00     0.003 C 
HETATM    9  C9  UNL     1     -33.878   8.383   5.668  1.00 20.00     0.010 C 
HETATM   10  C10 UNL     1     -32.877   5.754   0.606  1.00 20.00     0.011 C 
HETATM   11  N11 UNL     1     -32.013   9.096   0.024  1.00 20.00    -0.197 NA
ENDROOT
TORSDOF 0
ENDMDL
MODEL 6
REMARK VINA RESULT:       3.6      1.767      3.265
REMARK  0 active torsions:
REMARK  status: ('A' for Active; 'I' for Inactive)
ROOT
HETATM    1  C1  UNL     1     -33.469   4.153   3.935  1.00 20.00     0.064 C 
HETATM    2  C2  UNL     1     -34.095   6.126   1.625  1.00 20.00     0.011 C 
HETATM    3  C3  UNL     1     -33.385   8.237   2.439  1.00 20.00     0.010 C 
HETATM    4  C4  UNL     1     -33.188   5.590   3.779  1.00 20.00     0.101 C 
HETATM    5  C5  UNL     1     -34.535   7.222   2.594  1.00 20.00    -0.009 C 
HETATM    6  C6  UNL     1     -32.749   5.914   2.326  1.00 20.00     0.007 C 
HETATM    7  C7  UNL     1     -32.138   7.337   2.311  1.00 20.00    -0.013 C 
HETATM    8  C8  UNL     1     -34.415   6.526   3.975  1.00 20.00     0.003 C 
HETATM    9  C9  UNL     1     -31.343   7.628   1.041  1.00 20.00     0.010 C 
HETATM   10  C10 UNL     1     -35.723   5.853   4.387  1.00 20.00     0.011 C 
HETATM   11  N11 UNL     1     -33.690   3.021   4.059  1.00 20.00    -0.197 NA
ENDROOT
TORSDOF 0
ENDMDL
MODEL 7
REMARK VINA RESULT:       3.8      2.232      4.713
REMARK  0 active torsions:
REMARK  status: ('A' for Active; 'I' for Inactive)
ROOT
HETATM    1  C1  UNL     1     -32.360   7.432   1.816  1.00 20.00     0.064 C 
HETATM    2  C2  UNL     1     -33.214   6.533   4.659  1.00 20.00     0.011 C 
HETATM    3  C3  UNL     1     -35.276   5.409   4.331  1.00 20.00     0.010 C 
HETATM    4  C4  UNL     1     -33.495   6.618   2.279  1.00 20.00     0.101 C 
HETATM    5  C5  UNL     1     -34.686   6.833   4.382  1.00 20.00    -0.009 C 
HETATM    6  C6  UNL     1     -33.059   5.653   3.415  1.00 20.00     0.007 C 
HETATM    7  C7  UNL     1     -34.178   4.599   3.611  1.00 20.00    -0.013 C 
HETATM    8  C8  UNL     1     -34.651   7.418   2.946  1.00 20.00     0.003 C 
HETATM    9  C9  UNL     1     -33.720   3.393   4.425  1.00 20.00     0.010 C 
HETATM   10  C10 UNL     1     -34.505   8.940   2.956  1.00 20.00     0.011 C 
HETATM   11  N11 UNL     1     -31.465   8.074   1.450  1.00 20.00    -0.197 NA
ENDROOT
TORSDOF 0
ENDMDL
MODEL 8
REMARK VINA RESULT:       4.4      1.923      2.853
REMARK  0 active torsions:
REMARK  status: ('A' for Active; 'I' for Inactive)
ROOT
HETATM    1  C1  UNL     1     -33.118   4.692   0.604  1.00 20.00     0.064 C 
HETATM    2  C2  UNL     1     -34.287   7.199   2.007  1.00 20.00     0.011 C 
HETATM    3  C3  UNL     1     -32.542   7.953   3.426  1.00 20.00     0.010 C 
HETATM    4  C4  UNL     1     -32.510   5.661   1.531  1.00 20.00     0.101 C 
HETATM    5  C5  UNL     1     -33.615   6.850   3.334  1.00 20.00    -0.009 C 
HETATM    6  C6  UNL     1     -32.981   7.105   1.211  1.00 20.00     0.007 C 
HETATM    7  C7  UNL     1     -32.058   8.094   1.967  1.00 20.00    -0.013 C 
HETATM    8  C8  UNL     1     -32.926   5.496   3.021  1.00 20.00     0.003 C 
HETATM    9  C9  UNL     1     -32.177   9.526   1.453  1.00 20.00     0.010 C 
HETATM   10  C10 UNL     1     -33.832   4.309   3.346  1.00 20.00     0.011 C 
HETATM   11  N11 UNL     1     -33.596   3.929  -0.127  1.00 20.00    -0.197 NA
ENDROOT
TORSDOF 0
ENDMDL
