MODEL 1
REMARK VINA RESULT:      -2.0      0.000      0.000
REMARK  0 active torsions:
REMARK  status: ('A' for Active; 'I' for Inactive)
ROOT
HETATM    1  C1  UNL     1     -33.626   7.665   3.194  1.00 20.00     0.055 C 
HETATM    2  C2  UNL     1     -34.311   6.537   3.356  1.00 20.00    -0.046 C 
HETATM    3  C3  UNL     1     -32.571   7.296   2.231  1.00 20.00     0.150 C 
HETATM    4  C4  UNL     1     -35.259   6.077   4.388  1.00 20.00     0.202 C 
HETATM    5  C5  UNL     1     -32.577   5.815   1.921  1.00 20.00     0.094 C 
HETATM    6  C6  UNL     1     -33.881   4.337   3.640  1.00 20.00     0.177 C 
HETATM    7  C7  UNL     1     -33.889   5.374   2.540  1.00 20.00     0.048 C 
HETATM    8  O8  UNL     1     -31.763   8.099   1.787  1.00 20.00    -0.293 OA
HETATM    9  O9  UNL     1     -35.027   4.649   4.468  1.00 20.00    -0.386 OA
ENDROOT
TORSDOF 0
ENDMDL
MODEL 2
REMARK VINA RESULT:      -1.5      0.779      3.783
REMARK  0 active torsions:
REMARK  status: ('A' for Active; 'I' for Inactive)
ROOT
HETATM    1  C1  UNL     1     -33.769   5.048   2.865  1.00 20.00     0.055 C 
HETATM    2  C2  UNL     1     -33.244   6.116   2.271  1.00 20.00    -0.046 C 
HETATM    3  C3  UNL     1     -34.636   5.622   3.911  1.00 20.00     0.150 C 
HETATM    4  C4  UNL     1     -32.072   6.304   1.396  1.00 20.00     0.202 C 
HETATM    5  C5  UNL     1     -34.494   7.125   4.004  1.00 20.00     0.094 C 
HETATM    6  C6  UNL     1     -32.347   8.101   2.873  1.00 20.00     0.177 C 
HETATM    7  C7  UNL     1     -33.702   7.441   2.751  1.00 20.00     0.048 C 
HETATM    8  O8  UNL     1     -35.340   4.940   4.641  1.00 20.00    -0.293 OA
HETATM    9  O9  UNL     1     -31.587   7.627   1.736  1.00 20.00    -0.386 OA
ENDROOT
TORSDOF 0
ENDMDL
MODEL 3
REMARK VINA RESULT:      -1.5      0.498      1.813
REMARK  0 active torsions:
REMARK  status: ('A' for Active; 'I' for Inactive)
ROOT
HETATM    1  C1  UNL     1     -32.694   5.895   2.131  1.00 20.00     0.055 C 
HETATM    2  C2  UNL     1     -33.434   5.616   3.200  1.00 20.00    -0.046 C 
HETATM    3  C3  UNL     1     -32.715   7.369   2.068  1.00 20.00     0.150 C 
HETATM    4  C4  UNL     1     -34.107   4.388   3.663  1.00 20.00     0.202 C 
HETATM    5  C5  UNL     1     -33.642   7.968   3.102  1.00 20.00     0.094 C 
HETATM    6  C6  UNL     1     -35.381   6.300   4.120  1.00 20.00     0.177 C 
HETATM    7  C7  UNL     1     -33.951   6.768   3.976  1.00 20.00     0.048 C 
HETATM    8  O8  UNL     1     -32.090   8.009   1.236  1.00 20.00    -0.293 OA
HETATM    9  O9  UNL     1     -35.296   4.871   4.337  1.00 20.00    -0.386 OA
ENDROOT
TORSDOF 0
ENDMDL
MODEL 4
REMARK VINA RESULT:      -1.1      0.879      3.430
REMARK  0 active torsions:
REMARK  status: ('A' for Active; 'I' for Inactive)
ROOT
HETATM    1  C1  UNL     1     -34.167   7.486   3.827  1.00 20.00     0.055 C 
HETATM    2  C2  UNL     1     -33.063   7.374   3.094  1.00 20.00    -0.046 C 
HETATM    3  C3  UNL     1     -34.714   6.115   3.843  1.00 20.00     0.150 C 
HETATM    4  C4  UNL     1     -32.218   8.360   2.395  1.00 20.00     0.202 C 
HETATM    5  C5  UNL     1     -33.933   5.181   2.946  1.00 20.00     0.094 C 
HETATM    6  C6  UNL     1     -32.413   6.368   1.177  1.00 20.00     0.177 C 
HETATM    7  C7  UNL     1     -32.710   6.016   2.618  1.00 20.00     0.048 C 
HETATM    8  O8  UNL     1     -35.713   5.804   4.474  1.00 20.00    -0.293 OA
HETATM    9  O9  UNL     1     -31.737   7.647   1.228  1.00 20.00    -0.386 OA
ENDROOT
TORSDOF 0
ENDMDL
MODEL 5
REMARK VINA RESULT:       0.5      1.280      2.096
REMARK  0 active torsions:
REMARK  status: ('A' for Active; 'I' for Inactive)
ROOT
HETATM    1  C1  UNL     1     -33.156   4.766   2.403  1.00 20.00     0.055 C 
HETATM    2  C2  UNL     1     -33.796   5.387   3.389  1.00 20.00    -0.046 C 
HETATM    3  C3  UNL     1     -32.472   5.861   1.688  1.00 20.00     0.150 C 
HETATM    4  C4  UNL     1     -34.912   4.991   4.268  1.00 20.00     0.202 C 
HETATM    5  C5  UNL     1     -32.856   7.220   2.230  1.00 20.00     0.094 C 
HETATM    6  C6  UNL     1     -35.038   7.254   3.673  1.00 20.00     0.177 C 
HETATM    7  C7  UNL     1     -33.590   6.850   3.504  1.00 20.00     0.048 C 
HETATM    8  O8  UNL     1     -31.727   5.674   0.737  1.00 20.00    -0.293 OA
HETATM    9  O9  UNL     1     -35.624   6.230   4.512  1.00 20.00    -0.386 OA
ENDROOT
TORSDOF 0
ENDMDL
MODEL 6
REMARK VINA RESULT:       0.6      1.763      2.318
REMARK  0 active torsions:
REMARK  status: ('A' for Active; 'I' for Inactive)
ROOT
HETATM    1  C1  UNL     1     -31.877   7.091   1.926  1.00 20.00     0.055 C 
HETATM    2  C2  UNL     1     -32.976   7.398   2.608  1.00 20.00    -0.046 C 
HETATM    3  C3  UNL     1     -32.182   5.765   1.356  1.00 20.00     0.150 C 
HETATM    4  C4  UNL     1     -33.256   8.381   3.673  1.00 20.00     0.202 C 
HETATM    5  C5  UNL     1     -33.501   5.220   1.857  1.00 20.00     0.094 C 
HETATM    6  C6  UNL     1     -34.422   6.378   4.014  1.00 20.00     0.177 C 
HETATM    7  C7  UNL     1     -34.100   6.435   2.538  1.00 20.00     0.048 C 
HETATM    8  O8  UNL     1     -31.420   5.170   0.608  1.00 20.00    -0.293 OA
HETATM    9  O9  UNL     1     -34.260   7.735   4.493  1.00 20.00    -0.386 OA
ENDROOT
TORSDOF 0
ENDMDL
