MODEL 1
REMARK VINA RESULT:      -1.4      0.000      0.000
REMARK  0 active torsions:
REMARK  status: ('A' for Active; 'I' for Inactive)
ROOT
HETATM    1  C1  UNL     1     -32.249   5.661   1.577  1.00 20.00     0.015 A 
HETATM    2  C2  UNL     1     -31.791   6.812   1.078  1.00 20.00     0.083 A 
HETATM    3  C3  UNL     1     -33.231   5.647   2.630  1.00 20.00    -0.028 A 
HETATM    4  C4  UNL     1     -33.684   6.820   3.099  1.00 20.00     0.063 A 
HETATM    5  C5  UNL     1     -32.285   8.103   1.597  1.00 20.00     0.287 A 
HETATM    6  C6  UNL     1     -33.696   4.319   3.160  1.00 20.00     0.041 C 
HETATM    7  C7  UNL     1     -34.722   6.932   4.176  1.00 20.00     0.066 C 
HETATM    8  C8  UNL     1     -34.470   4.441   4.478  1.00 20.00     0.005 C 
HETATM    9  C9  UNL     1     -35.448   5.611   4.442  1.00 20.00     0.007 C 
HETATM   10  O10 UNL     1     -31.864   9.162   1.144  1.00 20.00    -0.260 OA
HETATM   11  O11 UNL     1     -33.222   8.057   2.594  1.00 20.00    -0.279 OA
ENDROOT
TORSDOF 0
ENDMDL
MODEL 2
REMARK VINA RESULT:      -0.4      1.955      4.411
REMARK  0 active torsions:
REMARK  status: ('A' for Active; 'I' for Inactive)
ROOT
HETATM    1  C1  UNL     1     -34.225   7.709   3.922  1.00 20.00     0.015 A 
HETATM    2  C2  UNL     1     -34.967   6.783   4.534  1.00 20.00     0.083 A 
HETATM    3  C3  UNL     1     -33.276   7.346   2.903  1.00 20.00    -0.028 A 
HETATM    4  C4  UNL     1     -33.155   6.051   2.573  1.00 20.00     0.063 A 
HETATM    5  C5  UNL     1     -34.831   5.357   4.176  1.00 20.00     0.287 A 
HETATM    6  C6  UNL     1     -32.460   8.433   2.261  1.00 20.00     0.041 C 
HETATM    7  C7  UNL     1     -32.218   5.553   1.512  1.00 20.00     0.066 C 
HETATM    8  C8  UNL     1     -31.274   7.891   1.454  1.00 20.00     0.005 C 
HETATM    9  C9  UNL     1     -31.677   6.676   0.624  1.00 20.00     0.007 C 
HETATM   10  O10 UNL     1     -35.508   4.502   4.738  1.00 20.00    -0.260 OA
HETATM   11  O11 UNL     1     -33.924   5.043   3.200  1.00 20.00    -0.279 OA
ENDROOT
TORSDOF 0
ENDMDL
MODEL 3
REMARK VINA RESULT:      -0.1      2.051      4.444
REMARK  0 active torsions:
REMARK  status: ('A' for Active; 'I' for Inactive)
ROOT
HETATM    1  C1  UNL     1     -34.842   6.534   4.017  1.00 20.00     0.015 A 
HETATM    2  C2  UNL     1     -34.976   5.274   4.440  1.00 20.00     0.083 A 
HETATM    3  C3  UNL     1     -33.802   6.901   3.092  1.00 20.00    -0.028 A 
HETATM    4  C4  UNL     1     -32.969   5.945   2.653  1.00 20.00     0.063 A 
HETATM    5  C5  UNL     1     -34.057   4.223   3.962  1.00 20.00     0.287 A 
HETATM    6  C6  UNL     1     -33.694   8.338   2.665  1.00 20.00     0.041 C 
HETATM    7  C7  UNL     1     -31.865   6.200   1.671  1.00 20.00     0.066 C 
HETATM    8  C8  UNL     1     -32.370   8.653   1.960  1.00 20.00     0.005 C 
HETATM    9  C9  UNL     1     -31.993   7.555   0.972  1.00 20.00     0.007 C 
HETATM   10  O10 UNL     1     -34.174   3.065   4.349  1.00 20.00    -0.260 OA
HETATM   11  O11 UNL     1     -33.082   4.601   3.078  1.00 20.00    -0.279 OA
ENDROOT
TORSDOF 0
ENDMDL
MODEL 4
REMARK VINA RESULT:       0.2      1.019      2.140
REMARK  0 active torsions:
REMARK  status: ('A' for Active; 'I' for Inactive)
ROOT
HETATM    1  C1  UNL     1     -33.522   8.364   3.229  1.00 20.00     0.015 A 
HETATM    2  C2  UNL     1     -32.629   8.738   2.308  1.00 20.00     0.083 A 
HETATM    3  C3  UNL     1     -33.838   6.974   3.435  1.00 20.00    -0.028 A 
HETATM    4  C4  UNL     1     -33.210   6.056   2.685  1.00 20.00     0.063 A 
HETATM    5  C5  UNL     1     -31.941   7.729   1.478  1.00 20.00     0.287 A 
HETATM    6  C6  UNL     1     -34.862   6.618   4.477  1.00 20.00     0.041 C 
HETATM    7  C7  UNL     1     -33.438   4.580   2.824  1.00 20.00     0.066 C 
HETATM    8  C8  UNL     1     -35.345   5.167   4.366  1.00 20.00     0.005 C 
HETATM    9  C9  UNL     1     -34.183   4.213   4.109  1.00 20.00     0.007 C 
HETATM   10  O10 UNL     1     -31.123   8.068   0.630  1.00 20.00    -0.260 OA
HETATM   11  O11 UNL     1     -32.259   6.416   1.702  1.00 20.00    -0.279 OA
ENDROOT
TORSDOF 0
ENDMDL
MODEL 5
REMARK VINA RESULT:       0.9      1.815      3.963
REMARK  0 active torsions:
REMARK  status: ('A' for Active; 'I' for Inactive)
ROOT
HETATM    1  C1  UNL     1     -33.189   4.388   2.867  1.00 20.00     0.015 A 
HETATM    2  C2  UNL     1     -34.152   4.061   3.733  1.00 20.00     0.083 A 
HETATM    3  C3  UNL     1     -32.924   5.764   2.535  1.00 20.00    -0.028 A 
HETATM    4  C4  UNL     1     -33.662   6.718   3.124  1.00 20.00     0.063 A 
HETATM    5  C5  UNL     1     -34.967   5.111   4.377  1.00 20.00     0.287 A 
HETATM    6  C6  UNL     1     -31.837   6.066   1.541  1.00 20.00     0.041 C 
HETATM    7  C7  UNL     1     -33.462   8.184   2.877  1.00 20.00     0.066 C 
HETATM    8  C8  UNL     1     -31.881   7.511   1.032  1.00 20.00     0.005 C 
HETATM    9  C9  UNL     1     -32.142   8.493   2.170  1.00 20.00     0.007 C 
HETATM   10  O10 UNL     1     -35.854   4.815   5.172  1.00 20.00    -0.260 OA
HETATM   11  O11 UNL     1     -34.687   6.409   4.047  1.00 20.00    -0.279 OA
ENDROOT
TORSDOF 0
ENDMDL
MODEL 6
REMARK VINA RESULT:       1.3      1.782      2.504
REMARK  0 active torsions:
REMARK  status: ('A' for Active; 'I' for Inactive)
ROOT
HETATM    1  C1  UNL     1     -32.675   7.489   2.135  1.00 20.00     0.015 A 
HETATM    2  C2  UNL     1     -31.840   6.944   1.246  1.00 20.00     0.083 A 
HETATM    3  C3  UNL     1     -33.543   6.669   2.939  1.00 20.00    -0.028 A 
HETATM    4  C4  UNL     1     -33.491   5.337   2.783  1.00 20.00     0.063 A 
HETATM    5  C5  UNL     1     -31.786   5.479   1.070  1.00 20.00     0.287 A 
HETATM    6  C6  UNL     1     -34.470   7.344   3.911  1.00 20.00     0.041 C 
HETATM    7  C7  UNL     1     -34.328   4.380   3.580  1.00 20.00     0.066 C 
HETATM    8  C8  UNL     1     -35.556   6.404   4.449  1.00 20.00     0.005 C 
HETATM    9  C9  UNL     1     -34.980   5.035   4.799  1.00 20.00     0.007 C 
HETATM   10  O10 UNL     1     -31.023   4.974   0.253  1.00 20.00    -0.260 OA
HETATM   11  O11 UNL     1     -32.619   4.726   1.853  1.00 20.00    -0.279 OA
ENDROOT
TORSDOF 0
ENDMDL
