MODEL 1
REMARK VINA RESULT:       1.1      0.000      0.000
REMARK  0 active torsions:
REMARK  status: ('A' for Active; 'I' for Inactive)
ROOT
HETATM    1  C1  UNL     1     -34.607   4.834   4.464  1.00 20.00     0.087 A 
HETATM    2  C2  UNL     1     -32.847   4.277   2.892  1.00 20.00     0.063 A 
HETATM    3  C3  UNL     1     -33.691   6.572   3.034  1.00 20.00     0.114 A 
HETATM    4  C4  UNL     1     -33.746   3.903   3.894  1.00 20.00     0.120 A 
HETATM    5  C5  UNL     1     -34.590   6.167   4.044  1.00 20.00     0.149 A 
HETATM    6  C6  UNL     1     -32.835   5.618   2.476  1.00 20.00     0.042 A 
HETATM    7  C7  UNL     1     -32.631   7.864   1.594  1.00 20.00     0.145 A 
HETATM    8  N8  UNL     1     -33.563   7.854   2.519  1.00 20.00    -0.230 NA
HETATM    9  F9  UNL     1     -33.778   2.629   4.311  1.00 20.00    -0.206 F 
HETATM   10  F10 UNL     1     -35.426   7.052   4.607  1.00 20.00    -0.203 F 
HETATM   11  S11 UNL     1     -31.854   6.374   1.276  1.00 20.00    -0.060 SA
HETATM   12 BR12 UNL     1     -32.170   9.461   0.655  1.00 20.00    -0.021 Br
ENDROOT
TORSDOF 0
ENDMDL
MODEL 2
REMARK VINA RESULT:       2.4      1.955      2.633
REMARK  0 active torsions:
REMARK  status: ('A' for Active; 'I' for Inactive)
ROOT
HETATM    1  C1  UNL     1     -33.120   4.470   2.736  1.00 20.00     0.087 A 
HETATM    2  C2  UNL     1     -34.273   6.340   3.759  1.00 20.00     0.063 A 
HETATM    3  C3  UNL     1     -32.765   6.711   1.865  1.00 20.00     0.114 A 
HETATM    4  C4  UNL     1     -33.994   4.973   3.693  1.00 20.00     0.120 A 
HETATM    5  C5  UNL     1     -32.500   5.325   1.820  1.00 20.00     0.149 A 
HETATM    6  C6  UNL     1     -33.648   7.194   2.836  1.00 20.00     0.042 A 
HETATM    7  C7  UNL     1     -32.694   8.856   1.356  1.00 20.00     0.145 A 
HETATM    8  N8  UNL     1     -32.227   7.675   1.025  1.00 20.00    -0.230 NA
HETATM    9  F9  UNL     1     -34.578   4.137   4.562  1.00 20.00    -0.206 F 
HETATM   10  F10 UNL     1     -31.661   4.822   0.903  1.00 20.00    -0.203 F 
HETATM   11  S11 UNL     1     -33.789   8.904   2.669  1.00 20.00    -0.060 SA
HETATM   12 BR12 UNL     1     -32.176  10.437   0.419  1.00 20.00    -0.021 Br
ENDROOT
TORSDOF 0
ENDMDL
MODEL 3
REMARK VINA RESULT:       2.9      3.517      4.992
REMARK  0 active torsions:
REMARK  status: ('A' for Active; 'I' for Inactive)
ROOT
HETATM    1  C1  UNL     1     -31.533   7.448   0.584  1.00 20.00     0.087 A 
HETATM    2  C2  UNL     1     -32.836   8.843   2.079  1.00 20.00     0.063 A 
HETATM    3  C3  UNL     1     -32.956   6.403   2.254  1.00 20.00     0.114 A 
HETATM    4  C4  UNL     1     -31.929   8.706   1.026  1.00 20.00     0.120 A 
HETATM    5  C5  UNL     1     -32.038   6.292   1.188  1.00 20.00     0.149 A 
HETATM    6  C6  UNL     1     -33.339   7.678   2.681  1.00 20.00     0.042 A 
HETATM    7  C7  UNL     1     -34.339   5.822   3.872  1.00 20.00     0.145 A 
HETATM    8  N8  UNL     1     -33.537   5.350   2.946  1.00 20.00    -0.230 NA
HETATM    9  F9  UNL     1     -31.434   9.801   0.434  1.00 20.00    -0.206 F 
HETATM   10  F10 UNL     1     -31.644   5.087   0.751  1.00 20.00    -0.203 F 
HETATM   11  S11 UNL     1     -34.458   7.525   3.984  1.00 20.00    -0.060 SA
HETATM   12 BR12 UNL     1     -35.322   4.665   5.030  1.00 20.00    -0.021 Br
ENDROOT
TORSDOF 0
ENDMDL
MODEL 4
REMARK VINA RESULT:       3.6      3.118      4.340
REMARK  0 active torsions:
REMARK  status: ('A' for Active; 'I' for Inactive)
ROOT
HETATM    1  C1  UNL     1     -33.205   8.883   2.337  1.00 20.00     0.087 A 
HETATM    2  C2  UNL     1     -32.068   7.174   1.048  1.00 20.00     0.063 A 
HETATM    3  C3  UNL     1     -33.278   6.574   3.091  1.00 20.00     0.114 A 
HETATM    4  C4  UNL     1     -32.433   8.508   1.244  1.00 20.00     0.120 A 
HETATM    5  C5  UNL     1     -33.633   7.929   3.265  1.00 20.00     0.149 A 
HETATM    6  C6  UNL     1     -32.501   6.221   1.983  1.00 20.00     0.042 A 
HETATM    7  C7  UNL     1     -33.126   4.404   3.457  1.00 20.00     0.145 A 
HETATM    8  N8  UNL     1     -33.628   5.522   3.926  1.00 20.00    -0.230 NA
HETATM    9  F9  UNL     1     -32.033   9.438   0.366  1.00 20.00    -0.206 F 
HETATM   10  F10 UNL     1     -34.379   8.308   4.313  1.00 20.00    -0.203 F 
HETATM   11  S11 UNL     1     -32.216   4.521   2.014  1.00 20.00    -0.060 SA
HETATM   12 BR12 UNL     1     -33.399   2.735   4.344  1.00 20.00    -0.021 Br
ENDROOT
TORSDOF 0
ENDMDL
