MODEL 1
REMARK VINA RESULT:      -0.5      0.000      0.000
REMARK  0 active torsions:
REMARK  status: ('A' for Active; 'I' for Inactive)
ROOT
HETATM    1  C1  UNL     1     -33.626   6.963   3.085  1.00 20.00     0.050 A 
HETATM    2  C2  UNL     1     -33.229   5.735   2.594  1.00 20.00     0.010 A 
HETATM    3  C3  UNL     1     -32.185   7.640   1.583  1.00 20.00     0.168 A 
HETATM    4  C4  UNL     1     -34.616   7.111   4.189  1.00 20.00     0.060 C 
HETATM    5  C5  UNL     1     -33.755   4.415   3.046  1.00 20.00     0.048 C 
HETATM    6  C6  UNL     1     -35.406   5.809   4.407  1.00 20.00     0.006 C 
HETATM    7  C7  UNL     1     -34.491   4.571   4.389  1.00 20.00     0.006 C 
HETATM    8  N8  UNL     1     -33.022   8.060   2.508  1.00 20.00    -0.233 NA
HETATM    9  S9  UNL     1     -32.074   5.937   1.362  1.00 20.00    -0.061 SA
HETATM   10 CL10 UNL     1     -31.234   8.697   0.626  1.00 20.00    -0.054 Cl
ENDROOT
TORSDOF 0
ENDMDL
MODEL 2
REMARK VINA RESULT:       0.4      1.235      2.047
REMARK  0 active torsions:
REMARK  status: ('A' for Active; 'I' for Inactive)
ROOT
HETATM    1  C1  UNL     1     -33.127   6.186   2.429  1.00 20.00     0.050 A 
HETATM    2  C2  UNL     1     -33.589   7.255   3.171  1.00 20.00     0.010 A 
HETATM    3  C3  UNL     1     -32.015   7.796   1.447  1.00 20.00     0.168 A 
HETATM    4  C4  UNL     1     -33.587   4.787   2.653  1.00 20.00     0.060 C 
HETATM    5  C5  UNL     1     -34.548   7.164   4.309  1.00 20.00     0.048 C 
HETATM    6  C6  UNL     1     -34.282   4.640   4.018  1.00 20.00     0.006 C 
HETATM    7  C7  UNL     1     -35.259   5.798   4.293  1.00 20.00     0.006 C 
HETATM    8  N8  UNL     1     -32.225   6.497   1.433  1.00 20.00    -0.233 NA
HETATM    9  S9  UNL     1     -32.875   8.702   2.631  1.00 20.00    -0.061 SA
HETATM   10 CL10 UNL     1     -30.951   8.587   0.362  1.00 20.00    -0.054 Cl
ENDROOT
TORSDOF 0
ENDMDL
MODEL 3
REMARK VINA RESULT:       1.3      2.955      4.410
REMARK  0 active torsions:
REMARK  status: ('A' for Active; 'I' for Inactive)
ROOT
HETATM    1  C1  UNL     1     -33.105   6.148   2.406  1.00 20.00     0.050 A 
HETATM    2  C2  UNL     1     -33.202   7.411   2.956  1.00 20.00     0.010 A 
HETATM    3  C3  UNL     1     -34.593   5.737   3.957  1.00 20.00     0.168 A 
HETATM    4  C4  UNL     1     -32.181   5.825   1.283  1.00 20.00     0.060 C 
HETATM    5  C5  UNL     1     -32.459   8.616   2.487  1.00 20.00     0.048 C 
HETATM    6  C6  UNL     1     -31.689   7.102   0.578  1.00 20.00     0.006 C 
HETATM    7  C7  UNL     1     -31.284   8.194   1.585  1.00 20.00     0.006 C 
HETATM    8  N8  UNL     1     -33.900   5.183   2.985  1.00 20.00    -0.233 NA
HETATM    9  S9  UNL     1     -34.330   7.416   4.229  1.00 20.00    -0.061 SA
HETATM   10 CL10 UNL     1     -35.709   4.871   4.927  1.00 20.00    -0.054 Cl
ENDROOT
TORSDOF 0
ENDMDL
MODEL 4
REMARK VINA RESULT:       2.1      2.762      3.953
REMARK  0 active torsions:
REMARK  status: ('A' for Active; 'I' for Inactive)
ROOT
HETATM    1  C1  UNL     1     -33.420   7.132   3.022  1.00 20.00     0.050 A 
HETATM    2  C2  UNL     1     -32.984   5.998   2.365  1.00 20.00     0.010 A 
HETATM    3  C3  UNL     1     -34.661   5.643   4.039  1.00 20.00     0.168 A 
HETATM    4  C4  UNL     1     -32.911   8.496   2.704  1.00 20.00     0.060 C 
HETATM    5  C5  UNL     1     -31.933   5.964   1.308  1.00 20.00     0.048 C 
HETATM    6  C6  UNL     1     -31.607   8.430   1.890  1.00 20.00     0.006 C 
HETATM    7  C7  UNL     1     -31.685   7.383   0.764  1.00 20.00     0.006 C 
HETATM    8  N8  UNL     1     -34.389   6.930   3.982  1.00 20.00    -0.233 NA
HETATM    9  S9  UNL     1     -33.790   4.623   2.961  1.00 20.00    -0.061 SA
HETATM   10 CL10 UNL     1     -35.816   4.975   5.114  1.00 20.00    -0.054 Cl
ENDROOT
TORSDOF 0
ENDMDL
