MODEL 1
REMARK VINA RESULT:      -1.6      0.000      0.000
REMARK  0 active torsions:
REMARK  status: ('A' for Active; 'I' for Inactive)
ROOT
HETATM    1  C1  UNL     1     -33.861   4.806   3.677  1.00 20.00     0.105 C 
HETATM    2  C2  UNL     1     -32.219   6.987   1.146  1.00 20.00     0.068 A 
HETATM    3  C3  UNL     1     -33.327   8.379   2.780  1.00 20.00     0.068 A 
HETATM    4  C4  UNL     1     -33.419   5.973   2.981  1.00 20.00     0.121 A 
HETATM    5  C5  UNL     1     -32.650   5.847   1.825  1.00 20.00     0.141 A 
HETATM    6  C6  UNL     1     -33.758   7.240   3.459  1.00 20.00     0.141 A 
HETATM    7  C7  UNL     1     -32.558   8.252   1.623  1.00 20.00     0.040 A 
HETATM    8  N8  UNL     1     -34.220   3.857   4.242  1.00 20.00    -0.191 NA
HETATM    9  F9  UNL     1     -32.317   4.636   1.353  1.00 20.00    -0.204 F 
HETATM   10  F10 UNL     1     -34.498   7.378   4.569  1.00 20.00    -0.204 F 
HETATM   11 CL11 UNL     1     -32.026   9.659   0.786  1.00 20.00    -0.084 Cl
ENDROOT
TORSDOF 0
ENDMDL
MODEL 2
REMARK VINA RESULT:      -1.6      0.014      2.497
REMARK  0 active torsions:
REMARK  status: ('A' for Active; 'I' for Inactive)
ROOT
HETATM    1  C1  UNL     1     -33.868   4.815   3.682  1.00 20.00     0.105 C 
HETATM    2  C2  UNL     1     -33.312   8.384   2.781  1.00 20.00     0.068 A 
HETATM    3  C3  UNL     1     -32.220   6.983   1.144  1.00 20.00     0.068 A 
HETATM    4  C4  UNL     1     -33.421   5.979   2.984  1.00 20.00     0.121 A 
HETATM    5  C5  UNL     1     -33.749   7.248   3.462  1.00 20.00     0.141 A 
HETATM    6  C6  UNL     1     -32.656   5.847   1.825  1.00 20.00     0.141 A 
HETATM    7  C7  UNL     1     -32.547   8.252   1.622  1.00 20.00     0.040 A 
HETATM    8  N8  UNL     1     -34.231   3.869   4.249  1.00 20.00    -0.191 NA
HETATM    9  F9  UNL     1     -34.482   7.391   4.576  1.00 20.00    -0.204 F 
HETATM   10  F10 UNL     1     -32.331   4.634   1.353  1.00 20.00    -0.204 F 
HETATM   11 CL11 UNL     1     -32.008   9.654   0.781  1.00 20.00    -0.084 Cl
ENDROOT
TORSDOF 0
ENDMDL
MODEL 3
REMARK VINA RESULT:      -0.7      3.170      4.529
REMARK  0 active torsions:
REMARK  status: ('A' for Active; 'I' for Inactive)
ROOT
HETATM    1  C1  UNL     1     -32.513   8.413   1.380  1.00 20.00     0.105 C 
HETATM    2  C2  UNL     1     -34.137   6.194   3.890  1.00 20.00     0.068 A 
HETATM    3  C3  UNL     1     -32.744   4.852   2.442  1.00 20.00     0.068 A 
HETATM    4  C4  UNL     1     -32.889   7.240   2.105  1.00 20.00     0.121 A 
HETATM    5  C5  UNL     1     -33.769   7.339   3.182  1.00 20.00     0.141 A 
HETATM    6  C6  UNL     1     -32.377   5.996   1.735  1.00 20.00     0.141 A 
HETATM    7  C7  UNL     1     -33.624   4.951   3.520  1.00 20.00     0.040 A 
HETATM    8  N8  UNL     1     -32.207   9.365   0.791  1.00 20.00    -0.191 NA
HETATM    9  F9  UNL     1     -34.271   8.527   3.549  1.00 20.00    -0.204 F 
HETATM   10  F10 UNL     1     -31.530   5.885   0.701  1.00 20.00    -0.204 F 
HETATM   11 CL11 UNL     1     -34.078   3.538   4.392  1.00 20.00    -0.084 Cl
ENDROOT
TORSDOF 0
ENDMDL
MODEL 4
REMARK VINA RESULT:      -0.7      3.170      3.787
REMARK  0 active torsions:
REMARK  status: ('A' for Active; 'I' for Inactive)
ROOT
HETATM    1  C1  UNL     1     -32.507   8.416   1.379  1.00 20.00     0.105 C 
HETATM    2  C2  UNL     1     -32.744   4.855   2.437  1.00 20.00     0.068 A 
HETATM    3  C3  UNL     1     -34.133   6.197   3.887  1.00 20.00     0.068 A 
HETATM    4  C4  UNL     1     -32.885   7.243   2.102  1.00 20.00     0.121 A 
HETATM    5  C5  UNL     1     -32.374   6.000   1.730  1.00 20.00     0.141 A 
HETATM    6  C6  UNL     1     -33.764   7.342   3.181  1.00 20.00     0.141 A 
HETATM    7  C7  UNL     1     -33.623   4.954   3.515  1.00 20.00     0.040 A 
HETATM    8  N8  UNL     1     -32.199   9.370   0.792  1.00 20.00    -0.191 NA
HETATM    9  F9  UNL     1     -31.528   5.889   0.696  1.00 20.00    -0.204 F 
HETATM   10  F10 UNL     1     -34.263   8.531   3.552  1.00 20.00    -0.204 F 
HETATM   11 CL11 UNL     1     -34.079   3.541   4.387  1.00 20.00    -0.084 Cl
ENDROOT
TORSDOF 0
ENDMDL
MODEL 5
REMARK VINA RESULT:       0.9      2.637      3.300
REMARK  0 active torsions:
REMARK  status: ('A' for Active; 'I' for Inactive)
ROOT
HETATM    1  C1  UNL     1     -33.771   7.951   4.389  1.00 20.00     0.105 C 
HETATM    2  C2  UNL     1     -33.417   4.950   2.215  1.00 20.00     0.068 A 
HETATM    3  C3  UNL     1     -31.957   6.690   1.393  1.00 20.00     0.068 A 
HETATM    4  C4  UNL     1     -33.332   7.086   3.340  1.00 20.00     0.121 A 
HETATM    5  C5  UNL     1     -33.847   5.793   3.239  1.00 20.00     0.141 A 
HETATM    6  C6  UNL     1     -32.387   7.534   2.417  1.00 20.00     0.141 A 
HETATM    7  C7  UNL     1     -32.473   5.397   1.292  1.00 20.00     0.040 A 
HETATM    8  N8  UNL     1     -34.129   8.654   5.241  1.00 20.00    -0.191 NA
HETATM    9  F9  UNL     1     -34.756   5.349   4.119  1.00 20.00    -0.204 F 
HETATM   10  F10 UNL     1     -31.883   8.774   2.499  1.00 20.00    -0.204 F 
HETATM   11 CL11 UNL     1     -31.942   4.356   0.028  1.00 20.00    -0.084 Cl
ENDROOT
TORSDOF 0
ENDMDL
MODEL 6
REMARK VINA RESULT:       0.9      2.637      3.212
REMARK  0 active torsions:
REMARK  status: ('A' for Active; 'I' for Inactive)
ROOT
HETATM    1  C1  UNL     1     -33.775   7.948   4.389  1.00 20.00     0.105 C 
HETATM    2  C2  UNL     1     -31.956   6.688   1.395  1.00 20.00     0.068 A 
HETATM    3  C3  UNL     1     -33.418   4.948   2.214  1.00 20.00     0.068 A 
HETATM    4  C4  UNL     1     -33.333   7.084   3.340  1.00 20.00     0.121 A 
HETATM    5  C5  UNL     1     -32.387   7.532   2.419  1.00 20.00     0.141 A 
HETATM    6  C6  UNL     1     -33.849   5.791   3.237  1.00 20.00     0.141 A 
HETATM    7  C7  UNL     1     -32.471   5.396   1.293  1.00 20.00     0.040 A 
HETATM    8  N8  UNL     1     -34.134   8.650   5.241  1.00 20.00    -0.191 NA
HETATM    9  F9  UNL     1     -31.882   8.771   2.505  1.00 20.00    -0.204 F 
HETATM   10  F10 UNL     1     -34.759   5.345   4.116  1.00 20.00    -0.204 F 
HETATM   11 CL11 UNL     1     -31.940   4.354   0.030  1.00 20.00    -0.084 Cl
ENDROOT
TORSDOF 0
ENDMDL
MODEL 7
REMARK VINA RESULT:       1.0      3.172      4.458
REMARK  0 active torsions:
REMARK  status: ('A' for Active; 'I' for Inactive)
ROOT
HETATM    1  C1  UNL     1     -31.475   8.049   0.786  1.00 20.00     0.105 C 
HETATM    2  C2  UNL     1     -33.994   7.341   3.434  1.00 20.00     0.068 A 
HETATM    3  C3  UNL     1     -33.241   5.250   2.490  1.00 20.00     0.068 A 
HETATM    4  C4  UNL     1     -32.345   7.338   1.669  1.00 20.00     0.121 A 
HETATM    5  C5  UNL     1     -33.145   8.037   2.572  1.00 20.00     0.141 A 
HETATM    6  C6  UNL     1     -32.393   5.944   1.628  1.00 20.00     0.141 A 
HETATM    7  C7  UNL     1     -34.042   5.949   3.393  1.00 20.00     0.040 A 
HETATM    8  N8  UNL     1     -30.769   8.627   0.068  1.00 20.00    -0.191 NA
HETATM    9  F9  UNL     1     -33.111   9.376   2.623  1.00 20.00    -0.204 F 
HETATM   10  F10 UNL     1     -31.630   5.258   0.764  1.00 20.00    -0.204 F 
HETATM   11 CL11 UNL     1     -35.089   5.091   4.456  1.00 20.00    -0.084 Cl
ENDROOT
TORSDOF 0
ENDMDL
MODEL 8
REMARK VINA RESULT:       1.1      2.550      3.210
REMARK  0 active torsions:
REMARK  status: ('A' for Active; 'I' for Inactive)
ROOT
HETATM    1  C1  UNL     1     -32.112   4.999   0.892  1.00 20.00     0.105 C 
HETATM    2  C2  UNL     1     -33.992   6.242   3.854  1.00 20.00     0.068 A 
HETATM    3  C3  UNL     1     -32.725   8.067   2.908  1.00 20.00     0.068 A 
HETATM    4  C4  UNL     1     -32.618   5.873   1.902  1.00 20.00     0.121 A 
HETATM    5  C5  UNL     1     -33.499   5.387   2.868  1.00 20.00     0.141 A 
HETATM    6  C6  UNL     1     -32.231   7.214   1.922  1.00 20.00     0.141 A 
HETATM    7  C7  UNL     1     -33.606   7.582   3.874  1.00 20.00     0.040 A 
HETATM    8  N8  UNL     1     -31.700   4.287   0.071  1.00 20.00    -0.191 NA
HETATM    9  F9  UNL     1     -33.879   4.102   2.862  1.00 20.00    -0.204 F 
HETATM   10  F10 UNL     1     -31.384   7.696   1.000  1.00 20.00    -0.204 F 
HETATM   11 CL11 UNL     1     -34.215   8.636   5.090  1.00 20.00    -0.084 Cl
ENDROOT
TORSDOF 0
ENDMDL
MODEL 9
REMARK VINA RESULT:       1.1      2.551      3.142
REMARK  0 active torsions:
REMARK  status: ('A' for Active; 'I' for Inactive)
ROOT
HETATM    1  C1  UNL     1     -32.112   4.998   0.890  1.00 20.00     0.105 C 
HETATM    2  C2  UNL     1     -32.725   8.067   2.907  1.00 20.00     0.068 A 
HETATM    3  C3  UNL     1     -33.993   6.241   3.853  1.00 20.00     0.068 A 
HETATM    4  C4  UNL     1     -32.618   5.873   1.901  1.00 20.00     0.121 A 
HETATM    5  C5  UNL     1     -32.230   7.213   1.921  1.00 20.00     0.141 A 
HETATM    6  C6  UNL     1     -33.499   5.387   2.867  1.00 20.00     0.141 A 
HETATM    7  C7  UNL     1     -33.605   7.581   3.873  1.00 20.00     0.040 A 
HETATM    8  N8  UNL     1     -31.701   4.287   0.069  1.00 20.00    -0.191 NA
HETATM    9  F9  UNL     1     -31.385   7.695   0.998  1.00 20.00    -0.204 F 
HETATM   10  F10 UNL     1     -33.882   4.102   2.860  1.00 20.00    -0.204 F 
HETATM   11 CL11 UNL     1     -34.216   8.634   5.090  1.00 20.00    -0.084 Cl
ENDROOT
TORSDOF 0
ENDMDL
