MODEL 1
REMARK VINA RESULT:      -2.1      0.000      0.000
REMARK  3 active torsions:
REMARK  status: ('A' for Active; 'I' for Inactive)
REMARK    1  A    between atoms: C1_1  and  C6_6 
REMARK    2  A    between atoms: C4_4  and  C7_7 
REMARK    3  A    between atoms: C6_6  and  C7_7 
ROOT
HETATM    1  C7  UNL     1     -32.014   8.067   2.041  1.00 20.00     0.019 C 
ENDROOT
BRANCH   1   2
HETATM    2  C4  UNL     1     -32.835   6.810   2.120  1.00 20.00    -0.043 A 
HETATM    3  C2  UNL     1     -32.168   5.504   1.756  1.00 20.00     0.010 A 
HETATM    4  C3  UNL     1     -33.184   6.109   0.829  1.00 20.00     0.010 A 
HETATM    5  C5  UNL     1     -33.853   6.797   3.227  1.00 20.00     0.015 C 
ENDBRANCH   1   2
BRANCH   1   6
HETATM    6  C6  UNL     1     -31.822   8.546   0.608  1.00 20.00     0.114 C 
BRANCH   6   7
HETATM    7  C1  UNL     1     -32.549   9.835   0.208  1.00 20.00     0.172 C 
HETATM    8  O8  UNL     1     -32.607  10.742   1.083  1.00 20.00    -0.648 OA
HETATM    9  O9  UNL     1     -32.997   9.832  -0.975  1.00 20.00    -0.648 OA
ENDBRANCH   6   7
ENDBRANCH   1   6
TORSDOF 3
ENDMDL
MODEL 2
REMARK VINA RESULT:      -2.1      3.617      4.768
REMARK  3 active torsions:
REMARK  status: ('A' for Active; 'I' for Inactive)
REMARK    1  A    between atoms: C1_1  and  C6_6 
REMARK    2  A    between atoms: C4_4  and  C7_7 
REMARK    3  A    between atoms: C6_6  and  C7_7 
ROOT
HETATM    1  C7  UNL     1     -33.369   7.175   3.450  1.00 20.00     0.019 C 
ENDROOT
BRANCH   1   2
HETATM    2  C4  UNL     1     -32.639   7.215   2.136  1.00 20.00    -0.043 A 
HETATM    3  C2  UNL     1     -31.378   8.041   2.052  1.00 20.00     0.010 A 
HETATM    4  C3  UNL     1     -32.629   8.517   1.371  1.00 20.00     0.010 A 
HETATM    5  C5  UNL     1     -32.698   5.935   1.348  1.00 20.00     0.015 C 
ENDBRANCH   1   2
BRANCH   1   6
HETATM    6  C6  UNL     1     -34.657   6.365   3.375  1.00 20.00     0.114 C 
BRANCH   6   7
HETATM    7  C1  UNL     1     -34.675   5.027   4.124  1.00 20.00     0.172 C 
HETATM    8  O8  UNL     1     -33.679   4.272   3.952  1.00 20.00    -0.648 OA
HETATM    9  O9  UNL     1     -35.700   4.850   4.843  1.00 20.00    -0.648 OA
ENDBRANCH   6   7
ENDBRANCH   1   6
TORSDOF 3
ENDMDL
MODEL 3
REMARK VINA RESULT:      -2.1      1.696      2.970
REMARK  3 active torsions:
REMARK  status: ('A' for Active; 'I' for Inactive)
REMARK    1  A    between atoms: C1_1  and  C6_6 
REMARK    2  A    between atoms: C4_4  and  C7_7 
REMARK    3  A    between atoms: C6_6  and  C7_7 
ROOT
HETATM    1  C7  UNL     1     -33.668   6.168   1.874  1.00 20.00     0.019 C 
ENDROOT
BRANCH   1   2
HETATM    2  C4  UNL     1     -34.124   5.937   3.287  1.00 20.00    -0.043 A 
HETATM    3  C2  UNL     1     -35.453   6.520   3.707  1.00 20.00     0.010 A 
HETATM    4  C3  UNL     1     -34.177   7.125   4.218  1.00 20.00     0.010 A 
HETATM    5  C5  UNL     1     -33.724   4.607   3.865  1.00 20.00     0.015 C 
ENDBRANCH   1   2
BRANCH   1   6
HETATM    6  C6  UNL     1     -32.204   6.582   1.796  1.00 20.00     0.114 C 
BRANCH   6   7
HETATM    7  C1  UNL     1     -31.911   8.087   1.804  1.00 20.00     0.172 C 
HETATM    8  O8  UNL     1     -32.230   8.727   0.765  1.00 20.00    -0.648 OA
HETATM    9  O9  UNL     1     -31.388   8.507   2.876  1.00 20.00    -0.648 OA
ENDBRANCH   6   7
ENDBRANCH   1   6
TORSDOF 3
ENDMDL
MODEL 4
REMARK VINA RESULT:      -2.0      1.335      2.203
REMARK  3 active torsions:
REMARK  status: ('A' for Active; 'I' for Inactive)
REMARK    1  A    between atoms: C1_1  and  C6_6 
REMARK    2  A    between atoms: C4_4  and  C7_7 
REMARK    3  A    between atoms: C6_6  and  C7_7 
ROOT
HETATM    1  C7  UNL     1     -33.282   7.033   2.213  1.00 20.00     0.019 C 
ENDROOT
BRANCH   1   2
HETATM    2  C4  UNL     1     -33.989   6.964   3.537  1.00 20.00    -0.043 A 
HETATM    3  C2  UNL     1     -34.416   5.606   4.043  1.00 20.00     0.010 A 
HETATM    4  C3  UNL     1     -35.449   6.574   3.542  1.00 20.00     0.010 A 
HETATM    5  C5  UNL     1     -33.528   7.979   4.547  1.00 20.00     0.015 C 
ENDBRANCH   1   2
BRANCH   1   6
HETATM    6  C6  UNL     1     -32.168   8.071   2.202  1.00 20.00     0.114 C 
BRANCH   6   7
HETATM    7  C1  UNL     1     -32.054   8.947   0.948  1.00 20.00     0.172 C 
HETATM    8  O8  UNL     1     -32.833   9.936   0.881  1.00 20.00    -0.648 OA
HETATM    9  O9  UNL     1     -31.167   8.568   0.130  1.00 20.00    -0.648 OA
ENDBRANCH   6   7
ENDBRANCH   1   6
TORSDOF 3
ENDMDL
MODEL 5
REMARK VINA RESULT:      -1.9      0.578      1.705
REMARK  3 active torsions:
REMARK  status: ('A' for Active; 'I' for Inactive)
REMARK    1  A    between atoms: C1_1  and  C6_6 
REMARK    2  A    between atoms: C4_4  and  C7_7 
REMARK    3  A    between atoms: C6_6  and  C7_7 
ROOT
HETATM    1  C7  UNL     1     -32.320   8.261   2.402  1.00 20.00     0.019 C 
ENDROOT
BRANCH   1   2
HETATM    2  C4  UNL     1     -33.180   7.041   2.578  1.00 20.00    -0.043 A 
HETATM    3  C2  UNL     1     -34.620   7.242   2.990  1.00 20.00     0.010 A 
HETATM    4  C3  UNL     1     -33.631   6.688   3.976  1.00 20.00     0.010 A 
HETATM    5  C5  UNL     1     -32.868   5.914   1.632  1.00 20.00     0.015 C 
ENDBRANCH   1   2
BRANCH   1   6
HETATM    6  C6  UNL     1     -31.947   8.505   0.945  1.00 20.00     0.114 C 
BRANCH   6   7
HETATM    7  C1  UNL     1     -32.528   9.761   0.285  1.00 20.00     0.172 C 
HETATM    8  O8  UNL     1     -32.584  10.798   1.001  1.00 20.00    -0.648 OA
HETATM    9  O9  UNL     1     -32.874   9.599  -0.921  1.00 20.00    -0.648 OA
ENDBRANCH   6   7
ENDBRANCH   1   6
TORSDOF 3
ENDMDL
MODEL 6
REMARK VINA RESULT:      -1.7      3.699      4.819
REMARK  3 active torsions:
REMARK  status: ('A' for Active; 'I' for Inactive)
REMARK    1  A    between atoms: C1_1  and  C6_6 
REMARK    2  A    between atoms: C4_4  and  C7_7 
REMARK    3  A    between atoms: C6_6  and  C7_7 
ROOT
HETATM    1  C7  UNL     1     -33.517   6.528   2.376  1.00 20.00     0.019 C 
ENDROOT
BRANCH   1   2
HETATM    2  C4  UNL     1     -32.571   7.694   2.453  1.00 20.00    -0.043 A 
HETATM    3  C2  UNL     1     -32.451   8.591   1.243  1.00 20.00     0.010 A 
HETATM    4  C3  UNL     1     -31.329   7.656   1.595  1.00 20.00     0.010 A 
HETATM    5  C5  UNL     1     -32.468   8.327   3.814  1.00 20.00     0.015 C 
ENDBRANCH   1   2
BRANCH   1   6
HETATM    6  C6  UNL     1     -34.362   6.380   3.635  1.00 20.00     0.114 C 
BRANCH   6   7
HETATM    7  C1  UNL     1     -34.597   4.953   4.144  1.00 20.00     0.172 C 
HETATM    8  O8  UNL     1     -33.686   4.114   3.907  1.00 20.00    -0.648 OA
HETATM    9  O9  UNL     1     -35.691   4.796   4.759  1.00 20.00    -0.648 OA
ENDBRANCH   6   7
ENDBRANCH   1   6
TORSDOF 3
ENDMDL
MODEL 7
REMARK VINA RESULT:      -1.6      4.882      6.230
REMARK  3 active torsions:
REMARK  status: ('A' for Active; 'I' for Inactive)
REMARK    1  A    between atoms: C1_1  and  C6_6 
REMARK    2  A    between atoms: C4_4  and  C7_7 
REMARK    3  A    between atoms: C6_6  and  C7_7 
ROOT
HETATM    1  C7  UNL     1     -34.487   4.900   4.227  1.00 20.00     0.019 C 
ENDROOT
BRANCH   1   2
HETATM    2  C4  UNL     1     -34.252   6.182   3.478  1.00 20.00    -0.043 A 
HETATM    3  C2  UNL     1     -34.174   7.464   4.275  1.00 20.00     0.010 A 
HETATM    4  C3  UNL     1     -35.378   7.187   3.421  1.00 20.00     0.010 A 
HETATM    5  C5  UNL     1     -33.365   6.048   2.271  1.00 20.00     0.015 C 
ENDBRANCH   1   2
BRANCH   1   6
HETATM    6  C6  UNL     1     -33.569   3.778   3.762  1.00 20.00     0.114 C 
BRANCH   6   7
HETATM    7  C1  UNL     1     -33.175   2.730   4.810  1.00 20.00     0.172 C 
HETATM    8  O8  UNL     1     -33.547   1.545   4.588  1.00 20.00    -0.648 OA
HETATM    9  O9  UNL     1     -32.504   3.192   5.778  1.00 20.00    -0.648 OA
ENDBRANCH   6   7
ENDBRANCH   1   6
TORSDOF 3
ENDMDL
MODEL 8
REMARK VINA RESULT:      -1.4      4.777      6.061
REMARK  3 active torsions:
REMARK  status: ('A' for Active; 'I' for Inactive)
REMARK    1  A    between atoms: C1_1  and  C6_6 
REMARK    2  A    between atoms: C4_4  and  C7_7 
REMARK    3  A    between atoms: C6_6  and  C7_7 
ROOT
HETATM    1  C7  UNL     1     -33.478   5.096   3.455  1.00 20.00     0.019 C 
ENDROOT
BRANCH   1   2
HETATM    2  C4  UNL     1     -34.117   6.451   3.577  1.00 20.00    -0.043 A 
HETATM    3  C2  UNL     1     -33.546   7.581   2.754  1.00 20.00     0.010 A 
HETATM    4  C3  UNL     1     -33.324   7.552   4.239  1.00 20.00     0.010 A 
HETATM    5  C5  UNL     1     -35.605   6.422   3.799  1.00 20.00     0.015 C 
ENDBRANCH   1   2
BRANCH   1   6
HETATM    6  C6  UNL     1     -34.133   4.060   4.358  1.00 20.00     0.114 C 
BRANCH   6   7
HETATM    7  C1  UNL     1     -33.247   2.904   4.838  1.00 20.00     0.172 C 
HETATM    8  O8  UNL     1     -33.535   1.756   4.403  1.00 20.00    -0.648 OA
HETATM    9  O9  UNL     1     -32.313   3.256   5.615  1.00 20.00    -0.648 OA
ENDBRANCH   6   7
ENDBRANCH   1   6
TORSDOF 3
ENDMDL
MODEL 9
REMARK VINA RESULT:      -1.4      3.620      4.713
REMARK  3 active torsions:
REMARK  status: ('A' for Active; 'I' for Inactive)
REMARK    1  A    between atoms: C1_1  and  C6_6 
REMARK    2  A    between atoms: C4_4  and  C7_7 
REMARK    3  A    between atoms: C6_6  and  C7_7 
ROOT
HETATM    1  C7  UNL     1     -33.207   6.991   3.387  1.00 20.00     0.019 C 
ENDROOT
BRANCH   1   2
HETATM    2  C4  UNL     1     -32.614   6.946   2.006  1.00 20.00    -0.043 A 
HETATM    3  C2  UNL     1     -33.216   5.987   1.007  1.00 20.00     0.010 A 
HETATM    4  C3  UNL     1     -31.864   5.700   1.597  1.00 20.00     0.010 A 
HETATM    5  C5  UNL     1     -32.110   8.270   1.499  1.00 20.00     0.015 C 
ENDBRANCH   1   2
BRANCH   1   6
HETATM    6  C6  UNL     1     -34.587   6.348   3.447  1.00 20.00     0.114 C 
BRANCH   6   7
HETATM    7  C1  UNL     1     -34.683   4.987   4.149  1.00 20.00     0.172 C 
HETATM    8  O8  UNL     1     -33.720   4.194   3.972  1.00 20.00    -0.648 OA
HETATM    9  O9  UNL     1     -35.732   4.834   4.839  1.00 20.00    -0.648 OA
ENDBRANCH   6   7
ENDBRANCH   1   6
TORSDOF 3
ENDMDL
