MODEL 1
REMARK VINA RESULT:       6.2      0.000      0.000
REMARK  0 active torsions:
REMARK  status: ('A' for Active; 'I' for Inactive)
ROOT
HETATM    1  C1  UNL     1     -32.765   7.322   2.622  1.00 20.00     0.135 C 
HETATM    2  C2  UNL     1     -35.079   6.719   2.038  1.00 20.00     0.017 C 
HETATM    3  C3  UNL     1     -34.547   7.743   4.266  1.00 20.00     0.017 C 
HETATM    4  C4  UNL     1     -33.344   4.936   2.441  1.00 20.00     0.037 C 
HETATM    5  C5  UNL     1     -32.811   5.962   4.674  1.00 20.00     0.037 C 
HETATM    6  C6  UNL     1     -35.182   5.314   4.122  1.00 20.00     0.030 C 
HETATM    7  C7  UNL     1     -33.610   6.324   1.844  1.00 20.00     0.058 C 
HETATM    8  C8  UNL     1     -33.068   7.367   4.111  1.00 20.00     0.058 C 
HETATM    9  C9  UNL     1     -35.437   6.716   3.538  1.00 20.00    -0.011 C 
HETATM   10  C10 UNL     1     -33.700   4.931   3.944  1.00 20.00     0.039 C 
HETATM   11  O11 UNL     1     -31.913   8.029   2.092  1.00 20.00    -0.297 OA
HETATM   12 CL12 UNL     1     -33.413   3.303   4.624  1.00 20.00    -0.119 Cl
ENDROOT
TORSDOF 0
ENDMDL
MODEL 2
REMARK VINA RESULT:       6.3      3.109      4.300
REMARK  0 active torsions:
REMARK  status: ('A' for Active; 'I' for Inactive)
ROOT
HETATM    1  C1  UNL     1     -33.686   7.032   2.825  1.00 20.00     0.135 C 
HETATM    2  C2  UNL     1     -31.651   6.167   1.742  1.00 20.00     0.017 C 
HETATM    3  C3  UNL     1     -31.526   8.091   3.349  1.00 20.00     0.017 C 
HETATM    4  C4  UNL     1     -33.401   7.395   0.406  1.00 20.00     0.037 C 
HETATM    5  C5  UNL     1     -33.276   9.322   2.017  1.00 20.00     0.037 C 
HETATM    6  C6  UNL     1     -31.184   8.487   0.890  1.00 20.00     0.030 C 
HETATM    7  C7  UNL     1     -33.155   6.399   1.548  1.00 20.00     0.058 C 
HETATM    8  C8  UNL     1     -33.028   8.356   3.184  1.00 20.00     0.058 C 
HETATM    9  C9  UNL     1     -30.943   7.502   2.049  1.00 20.00    -0.011 C 
HETATM   10  C10 UNL     1     -32.695   8.733   0.713  1.00 20.00     0.039 C 
HETATM   11  O11 UNL     1     -34.568   6.519   3.507  1.00 20.00    -0.297 OA
HETATM   12 CL12 UNL     1     -32.965   9.877  -0.634  1.00 20.00    -0.119 Cl
ENDROOT
TORSDOF 0
ENDMDL
MODEL 3
REMARK VINA RESULT:       6.4      1.679      3.179
REMARK  0 active torsions:
REMARK  status: ('A' for Active; 'I' for Inactive)
ROOT
HETATM    1  C1  UNL     1     -32.758   8.136   1.066  1.00 20.00     0.135 C 
HETATM    2  C2  UNL     1     -31.148   6.750   2.310  1.00 20.00     0.017 C 
HETATM    3  C3  UNL     1     -32.630   5.730   0.560  1.00 20.00     0.017 C 
HETATM    4  C4  UNL     1     -33.171   7.723   3.457  1.00 20.00     0.037 C 
HETATM    5  C5  UNL     1     -34.655   6.702   1.703  1.00 20.00     0.037 C 
HETATM    6  C6  UNL     1     -33.050   5.251   2.992  1.00 20.00     0.030 C 
HETATM    7  C7  UNL     1     -32.073   7.969   2.413  1.00 20.00     0.058 C 
HETATM    8  C8  UNL     1     -33.580   6.933   0.632  1.00 20.00     0.058 C 
HETATM    9  C9  UNL     1     -31.962   5.497   1.929  1.00 20.00    -0.011 C 
HETATM   10  C10 UNL     1     -33.988   6.470   3.077  1.00 20.00     0.039 C 
HETATM   11  O11 UNL     1     -32.655   9.154   0.387  1.00 20.00    -0.297 OA
HETATM   12 CL12 UNL     1     -35.247   6.176   4.312  1.00 20.00    -0.119 Cl
ENDROOT
TORSDOF 0
ENDMDL
MODEL 4
REMARK VINA RESULT:       7.0      3.133      4.331
REMARK  0 active torsions:
REMARK  status: ('A' for Active; 'I' for Inactive)
ROOT
HETATM    1  C1  UNL     1     -31.828   6.228   1.588  1.00 20.00     0.135 C 
HETATM    2  C2  UNL     1     -31.448   8.034   3.216  1.00 20.00     0.017 C 
HETATM    3  C3  UNL     1     -33.759   7.143   2.810  1.00 20.00     0.017 C 
HETATM    4  C4  UNL     1     -31.170   8.446   0.745  1.00 20.00     0.037 C 
HETATM    5  C5  UNL     1     -33.485   7.552   0.338  1.00 20.00     0.037 C 
HETATM    6  C6  UNL     1     -33.133   9.432   1.977  1.00 20.00     0.030 C 
HETATM    7  C7  UNL     1     -30.963   7.442   1.887  1.00 20.00     0.058 C 
HETATM    8  C8  UNL     1     -33.313   6.535   1.474  1.00 20.00     0.058 C 
HETATM    9  C9  UNL     1     -32.940   8.413   3.115  1.00 20.00    -0.011 C 
HETATM   10  C10 UNL     1     -32.664   8.824   0.641  1.00 20.00     0.039 C 
HETATM   11  O11 UNL     1     -31.367   5.098   1.450  1.00 20.00    -0.297 OA
HETATM   12 CL12 UNL     1     -32.891  10.013  -0.675  1.00 20.00    -0.119 Cl
ENDROOT
TORSDOF 0
ENDMDL
MODEL 5
REMARK VINA RESULT:       7.4      2.495      3.574
REMARK  0 active torsions:
REMARK  status: ('A' for Active; 'I' for Inactive)
ROOT
HETATM    1  C1  UNL     1     -33.530   5.034   3.269  1.00 20.00     0.135 C 
HETATM    2  C2  UNL     1     -35.092   6.684   2.322  1.00 20.00     0.017 C 
HETATM    3  C3  UNL     1     -33.586   5.344   0.828  1.00 20.00     0.017 C 
HETATM    4  C4  UNL     1     -33.097   7.424   3.672  1.00 20.00     0.037 C 
HETATM    5  C5  UNL     1     -31.588   6.081   2.176  1.00 20.00     0.037 C 
HETATM    6  C6  UNL     1     -33.144   7.793   1.182  1.00 20.00     0.030 C 
HETATM    7  C7  UNL     1     -34.205   6.371   3.533  1.00 20.00     0.058 C 
HETATM    8  C8  UNL     1     -32.672   5.007   2.013  1.00 20.00     0.058 C 
HETATM    9  C9  UNL     1     -34.242   6.723   1.036  1.00 20.00    -0.011 C 
HETATM   10  C10 UNL     1     -32.243   7.463   2.387  1.00 20.00     0.039 C 
HETATM   11  O11 UNL     1     -33.666   4.062   4.006  1.00 20.00    -0.297 OA
HETATM   12 CL12 UNL     1     -30.972   8.711   2.548  1.00 20.00    -0.119 Cl
ENDROOT
TORSDOF 0
ENDMDL
MODEL 6
REMARK VINA RESULT:       7.4      2.083      3.158
REMARK  0 active torsions:
REMARK  status: ('A' for Active; 'I' for Inactive)
ROOT
HETATM    1  C1  UNL     1     -33.027   5.261   0.670  1.00 20.00     0.135 C 
HETATM    2  C2  UNL     1     -32.877   7.716   0.567  1.00 20.00     0.017 C 
HETATM    3  C3  UNL     1     -31.210   6.387   1.890  1.00 20.00     0.017 C 
HETATM    4  C4  UNL     1     -34.761   6.590   1.806  1.00 20.00     0.037 C 
HETATM    5  C5  UNL     1     -33.091   5.258   3.131  1.00 20.00     0.037 C 
HETATM    6  C6  UNL     1     -32.939   7.771   3.081  1.00 20.00     0.030 C 
HETATM    7  C7  UNL     1     -33.854   6.534   0.569  1.00 20.00     0.058 C 
HETATM    8  C8  UNL     1     -32.158   5.181   1.915  1.00 20.00     0.058 C 
HETATM    9  C9  UNL     1     -32.019   7.698   1.848  1.00 20.00    -0.011 C 
HETATM   10  C10 UNL     1     -33.904   6.570   3.090  1.00 20.00     0.039 C 
HETATM   11  O11 UNL     1     -33.060   4.376  -0.180  1.00 20.00    -0.297 OA
HETATM   12 CL12 UNL     1     -34.968   6.663   4.523  1.00 20.00    -0.119 Cl
ENDROOT
TORSDOF 0
ENDMDL
MODEL 7
REMARK VINA RESULT:       7.5      1.984      2.686
REMARK  0 active torsions:
REMARK  status: ('A' for Active; 'I' for Inactive)
ROOT
HETATM    1  C1  UNL     1     -32.566   8.915   1.302  1.00 20.00     0.135 C 
HETATM    2  C2  UNL     1     -34.366   7.936   2.666  1.00 20.00     0.017 C 
HETATM    3  C3  UNL     1     -32.054   8.206   3.603  1.00 20.00     0.017 C 
HETATM    4  C4  UNL     1     -33.421   6.689   0.690  1.00 20.00     0.037 C 
HETATM    5  C5  UNL     1     -31.104   6.961   1.628  1.00 20.00     0.037 C 
HETATM    6  C6  UNL     1     -32.915   5.914   3.032  1.00 20.00     0.030 C 
HETATM    7  C7  UNL     1     -33.825   8.065   1.236  1.00 20.00     0.058 C 
HETATM    8  C8  UNL     1     -31.472   8.341   2.190  1.00 20.00     0.058 C 
HETATM    9  C9  UNL     1     -33.301   7.300   3.581  1.00 20.00    -0.011 C 
HETATM   10  C10 UNL     1     -32.352   6.052   1.604  1.00 20.00     0.039 C 
HETATM   11  O11 UNL     1     -32.443   9.973   0.692  1.00 20.00    -0.297 OA
HETATM   12 CL12 UNL     1     -31.908   4.439   0.974  1.00 20.00    -0.119 Cl
ENDROOT
TORSDOF 0
ENDMDL
MODEL 8
REMARK VINA RESULT:       7.6      2.243      3.154
REMARK  0 active torsions:
REMARK  status: ('A' for Active; 'I' for Inactive)
ROOT
HETATM    1  C1  UNL     1     -31.739   5.951   1.597  1.00 20.00     0.135 C 
HETATM    2  C2  UNL     1     -33.804   6.841   0.596  1.00 20.00     0.017 C 
HETATM    3  C3  UNL     1     -31.768   8.289   0.826  1.00 20.00     0.017 C 
HETATM    4  C4  UNL     1     -33.694   6.292   3.053  1.00 20.00     0.037 C 
HETATM    5  C5  UNL     1     -31.653   7.742   3.284  1.00 20.00     0.037 C 
HETATM    6  C6  UNL     1     -33.766   8.693   2.297  1.00 20.00     0.030 C 
HETATM    7  C7  UNL     1     -33.257   5.866   1.646  1.00 20.00     0.058 C 
HETATM    8  C8  UNL     1     -31.184   7.338   1.880  1.00 20.00     0.058 C 
HETATM    9  C9  UNL     1     -33.308   8.271   0.889  1.00 20.00    -0.011 C 
HETATM   10  C10 UNL     1     -33.196   7.723   3.350  1.00 20.00     0.039 C 
HETATM   11  O11 UNL     1     -31.024   4.984   1.350  1.00 20.00    -0.297 OA
HETATM   12 CL12 UNL     1     -33.733   8.220   4.981  1.00 20.00    -0.119 Cl
ENDROOT
TORSDOF 0
ENDMDL
MODEL 9
REMARK VINA RESULT:       7.7      2.158      3.277
REMARK  0 active torsions:
REMARK  status: ('A' for Active; 'I' for Inactive)
ROOT
HETATM    1  C1  UNL     1     -34.867   6.319   3.737  1.00 20.00     0.135 C 
HETATM    2  C2  UNL     1     -32.762   7.404   4.408  1.00 20.00     0.017 C 
HETATM    3  C3  UNL     1     -34.214   8.417   2.629  1.00 20.00     0.017 C 
HETATM    4  C4  UNL     1     -32.743   5.220   3.151  1.00 20.00     0.037 C 
HETATM    5  C5  UNL     1     -34.198   6.234   1.369  1.00 20.00     0.037 C 
HETATM    6  C6  UNL     1     -32.028   7.344   2.003  1.00 20.00     0.030 C 
HETATM    7  C7  UNL     1     -33.454   6.047   4.230  1.00 20.00     0.058 C 
HETATM    8  C8  UNL     1     -34.932   7.077   2.421  1.00 20.00     0.058 C 
HETATM    9  C9  UNL     1     -32.758   8.177   3.073  1.00 20.00    -0.011 C 
HETATM   10  C10 UNL     1     -32.739   5.990   1.813  1.00 20.00     0.039 C 
HETATM   11  O11 UNL     1     -35.868   5.957   4.349  1.00 20.00    -0.297 OA
HETATM   12 CL12 UNL     1     -31.886   5.030   0.570  1.00 20.00    -0.119 Cl
ENDROOT
TORSDOF 0
ENDMDL
