MODEL 1
REMARK VINA RESULT:      -1.9      0.000      0.000
REMARK  2 active torsions:
REMARK  status: ('A' for Active; 'I' for Inactive)
REMARK    1  A    between atoms: C2_2  and  C7_7 
REMARK    2  A    between atoms: C3_3  and  C6_6 
ROOT
HETATM    1  C1  UNL     1     -32.925   7.788   2.857  1.00 20.00     0.066 A 
HETATM    2  C2  UNL     1     -33.346   6.448   2.913  1.00 20.00     0.068 A 
HETATM    3  C3  UNL     1     -32.230   7.862   1.678  1.00 20.00     0.094 A 
HETATM    4  N8  UNL     1     -32.944   5.745   1.851  1.00 20.00    -0.133 NA
HETATM    5  O9  UNL     1     -32.235   6.649   1.069  1.00 20.00    -0.216 OA
ENDROOT
BRANCH   2   6
HETATM    6  C7  UNL     1     -34.162   5.774   4.002  1.00 20.00     0.032 C 
HETATM    7  C4  UNL     1     -34.065   4.250   3.914  1.00 20.00     0.016 C 
HETATM    8  C5  UNL     1     -35.623   6.231   3.973  1.00 20.00     0.016 C 
ENDBRANCH   2   6
BRANCH   3   9
HETATM    9  C6  UNL     1     -31.518   8.942   0.984  1.00 20.00     0.181 C 
HETATM   10 CL10 UNL     1     -32.611   9.851  -0.098  1.00 20.00    -0.123 Cl
ENDBRANCH   3   9
TORSDOF 2
ENDMDL
MODEL 2
REMARK VINA RESULT:      -1.9      1.332      1.788
REMARK  2 active torsions:
REMARK  status: ('A' for Active; 'I' for Inactive)
REMARK    1  A    between atoms: C2_2  and  C7_7 
REMARK    2  A    between atoms: C3_3  and  C6_6 
ROOT
HETATM    1  C1  UNL     1     -32.901   6.242   1.877  1.00 20.00     0.066 A 
HETATM    2  C2  UNL     1     -33.668   6.159   3.051  1.00 20.00     0.068 A 
HETATM    3  C3  UNL     1     -32.417   7.524   1.893  1.00 20.00     0.094 A 
HETATM    4  N8  UNL     1     -33.660   7.302   3.744  1.00 20.00    -0.133 NA
HETATM    5  O9  UNL     1     -32.863   8.166   3.002  1.00 20.00    -0.216 OA
ENDROOT
BRANCH   2   6
HETATM    6  C7  UNL     1     -34.453   4.967   3.568  1.00 20.00     0.032 C 
HETATM    7  C4  UNL     1     -35.509   5.391   4.592  1.00 20.00     0.016 C 
HETATM    8  C5  UNL     1     -33.529   3.895   4.149  1.00 20.00     0.016 C 
ENDBRANCH   2   6
BRANCH   3   9
HETATM    9  C6  UNL     1     -31.555   8.296   0.989  1.00 20.00     0.181 C 
HETATM   10 CL10 UNL     1     -32.425   9.693   0.296  1.00 20.00    -0.123 Cl
ENDBRANCH   3   9
TORSDOF 2
ENDMDL
MODEL 3
REMARK VINA RESULT:      -1.0      2.527      4.569
REMARK  2 active torsions:
REMARK  status: ('A' for Active; 'I' for Inactive)
REMARK    1  A    between atoms: C2_2  and  C7_7 
REMARK    2  A    between atoms: C3_3  and  C6_6 
ROOT
HETATM    1  C1  UNL     1     -33.434   7.848   2.930  1.00 20.00     0.066 A 
HETATM    2  C2  UNL     1     -32.553   7.823   1.836  1.00 20.00     0.068 A 
HETATM    3  C3  UNL     1     -33.771   6.532   3.108  1.00 20.00     0.094 A 
HETATM    4  N8  UNL     1     -32.357   6.586   1.370  1.00 20.00    -0.133 NA
HETATM    5  O9  UNL     1     -33.135   5.769   2.182  1.00 20.00    -0.216 OA
ENDROOT
BRANCH   2   6
HETATM    6  C7  UNL     1     -31.850   8.998   1.180  1.00 20.00     0.032 C 
HETATM    7  C4  UNL     1     -32.827  10.134   0.870  1.00 20.00     0.016 C 
HETATM    8  C5  UNL     1     -31.094   8.569  -0.080  1.00 20.00     0.016 C 
ENDBRANCH   2   6
BRANCH   3   9
HETATM    9  C6  UNL     1     -34.642   5.824   4.054  1.00 20.00     0.181 C 
HETATM   10 CL10 UNL     1     -34.137   4.123   4.259  1.00 20.00    -0.123 Cl
ENDBRANCH   3   9
TORSDOF 2
ENDMDL
MODEL 4
REMARK VINA RESULT:      -0.8      3.040      4.735
REMARK  2 active torsions:
REMARK  status: ('A' for Active; 'I' for Inactive)
REMARK    1  A    between atoms: C2_2  and  C7_7 
REMARK    2  A    between atoms: C3_3  and  C6_6 
ROOT
HETATM    1  C1  UNL     1     -33.284   6.261   2.627  1.00 20.00     0.066 A 
HETATM    2  C2  UNL     1     -32.960   7.628   2.649  1.00 20.00     0.068 A 
HETATM    3  C3  UNL     1     -34.182   6.122   3.652  1.00 20.00     0.094 A 
HETATM    4  N8  UNL     1     -33.608   8.287   3.613  1.00 20.00    -0.133 NA
HETATM    5  O9  UNL     1     -34.384   7.325   4.248  1.00 20.00    -0.216 OA
ENDROOT
BRANCH   2   6
HETATM    6  C7  UNL     1     -32.002   8.373   1.736  1.00 20.00     0.032 C 
HETATM    7  C4  UNL     1     -32.718   9.474   0.950  1.00 20.00     0.016 C 
HETATM    8  C5  UNL     1     -31.268   7.417   0.792  1.00 20.00     0.016 C 
ENDBRANCH   2   6
BRANCH   3   9
HETATM    9  C6  UNL     1     -34.929   4.984   4.202  1.00 20.00     0.181 C 
HETATM   10 CL10 UNL     1     -33.875   3.557   4.418  1.00 20.00    -0.123 Cl
ENDBRANCH   3   9
TORSDOF 2
ENDMDL
MODEL 5
REMARK VINA RESULT:      -0.6      3.006      4.642
REMARK  2 active torsions:
REMARK  status: ('A' for Active; 'I' for Inactive)
REMARK    1  A    between atoms: C2_2  and  C7_7 
REMARK    2  A    between atoms: C3_3  and  C6_6 
ROOT
HETATM    1  C1  UNL     1     -33.346   6.089   2.432  1.00 20.00     0.066 A 
HETATM    2  C2  UNL     1     -32.954   7.436   2.359  1.00 20.00     0.068 A 
HETATM    3  C3  UNL     1     -34.155   6.044   3.538  1.00 20.00     0.094 A 
HETATM    4  N8  UNL     1     -33.479   8.172   3.344  1.00 20.00    -0.133 NA
HETATM    5  O9  UNL     1     -34.242   7.281   4.090  1.00 20.00    -0.216 OA
ENDROOT
BRANCH   2   6
HETATM    6  C7  UNL     1     -32.047   8.087   1.331  1.00 20.00     0.032 C 
HETATM    7  C4  UNL     1     -30.643   8.328   1.892  1.00 20.00     0.016 C 
HETATM    8  C5  UNL     1     -32.650   9.386   0.791  1.00 20.00     0.016 C 
ENDBRANCH   2   6
BRANCH   3   9
HETATM    9  C6  UNL     1     -34.905   4.973   4.206  1.00 20.00     0.181 C 
HETATM   10 CL10 UNL     1     -33.886   3.530   4.468  1.00 20.00    -0.123 Cl
ENDBRANCH   3   9
TORSDOF 2
ENDMDL
MODEL 6
REMARK VINA RESULT:      -0.2      2.764      4.692
REMARK  2 active torsions:
REMARK  status: ('A' for Active; 'I' for Inactive)
REMARK    1  A    between atoms: C2_2  and  C7_7 
REMARK    2  A    between atoms: C3_3  and  C6_6 
ROOT
HETATM    1  C1  UNL     1     -32.720   6.607   1.805  1.00 20.00     0.066 A 
HETATM    2  C2  UNL     1     -32.530   7.987   1.989  1.00 20.00     0.068 A 
HETATM    3  C3  UNL     1     -33.441   6.228   2.907  1.00 20.00     0.094 A 
HETATM    4  N8  UNL     1     -33.090   8.430   3.119  1.00 20.00    -0.133 NA
HETATM    5  O9  UNL     1     -33.667   7.307   3.698  1.00 20.00    -0.216 OA
ENDROOT
BRANCH   2   6
HETATM    6  C7  UNL     1     -31.794   8.954   1.080  1.00 20.00     0.032 C 
HETATM    7  C4  UNL     1     -32.710  10.085   0.604  1.00 20.00     0.016 C 
HETATM    8  C5  UNL     1     -31.155   8.233  -0.109  1.00 20.00     0.016 C 
ENDBRANCH   2   6
BRANCH   3   9
HETATM    9  C6  UNL     1     -33.985   4.946   3.374  1.00 20.00     0.181 C 
HETATM   10 CL10 UNL     1     -35.364   5.189   4.483  1.00 20.00    -0.123 Cl
ENDBRANCH   3   9
TORSDOF 2
ENDMDL
MODEL 7
REMARK VINA RESULT:      -0.2      2.579      2.969
REMARK  2 active torsions:
REMARK  status: ('A' for Active; 'I' for Inactive)
REMARK    1  A    between atoms: C2_2  and  C7_7 
REMARK    2  A    between atoms: C3_3  and  C6_6 
ROOT
HETATM    1  C1  UNL     1     -33.322   5.645   2.222  1.00 20.00     0.066 A 
HETATM    2  C2  UNL     1     -33.360   6.932   2.784  1.00 20.00     0.068 A 
HETATM    3  C3  UNL     1     -32.272   5.704   1.343  1.00 20.00     0.094 A 
HETATM    4  N8  UNL     1     -32.406   7.729   2.293  1.00 20.00    -0.133 NA
HETATM    5  O9  UNL     1     -31.718   6.943   1.377  1.00 20.00    -0.216 OA
ENDROOT
BRANCH   2   6
HETATM    6  C7  UNL     1     -34.324   7.462   3.830  1.00 20.00     0.032 C 
HETATM    7  C4  UNL     1     -33.581   8.037   5.039  1.00 20.00     0.016 C 
HETATM    8  C5  UNL     1     -35.328   6.392   4.264  1.00 20.00     0.016 C 
ENDBRANCH   2   6
BRANCH   3   9
HETATM    9  C6  UNL     1     -31.663   4.738   0.421  1.00 20.00     0.181 C 
HETATM   10 CL10 UNL     1     -32.905   3.861  -0.517  1.00 20.00    -0.123 Cl
ENDBRANCH   3   9
TORSDOF 2
ENDMDL
MODEL 8
REMARK VINA RESULT:      -0.1      3.223      4.712
REMARK  2 active torsions:
REMARK  status: ('A' for Active; 'I' for Inactive)
REMARK    1  A    between atoms: C2_2  and  C7_7 
REMARK    2  A    between atoms: C3_3  and  C6_6 
ROOT
HETATM    1  C1  UNL     1     -33.074   5.777   2.882  1.00 20.00     0.066 A 
HETATM    2  C2  UNL     1     -33.253   7.168   2.978  1.00 20.00     0.068 A 
HETATM    3  C3  UNL     1     -34.033   5.267   3.719  1.00 20.00     0.094 A 
HETATM    4  N8  UNL     1     -34.247   7.496   3.809  1.00 20.00    -0.133 NA
HETATM    5  O9  UNL     1     -34.738   6.283   4.277  1.00 20.00    -0.216 OA
ENDROOT
BRANCH   2   6
HETATM    6  C7  UNL     1     -32.470   8.257   2.268  1.00 20.00     0.032 C 
HETATM    7  C4  UNL     1     -31.832   7.740   0.976  1.00 20.00     0.016 C 
HETATM    8  C5  UNL     1     -31.415   8.880   3.185  1.00 20.00     0.016 C 
ENDBRANCH   2   6
BRANCH   3   9
HETATM    9  C6  UNL     1     -34.422   3.906   4.108  1.00 20.00     0.181 C 
HETATM   10 CL10 UNL     1     -33.057   3.025   4.851  1.00 20.00    -0.123 Cl
ENDBRANCH   3   9
TORSDOF 2
ENDMDL
