MODEL 1
REMARK VINA RESULT:       0.8      0.000      0.000
REMARK  1 active torsions:
REMARK  status: ('A' for Active; 'I' for Inactive)
REMARK    1  A    between atoms: C3_3  and  C8_8 
ROOT
HETATM    1  C1  UNL     1     -31.244   8.038   2.937  1.00 20.00    -0.026 C 
HETATM    2  C2  UNL     1     -32.468   8.331   3.399  1.00 20.00    -0.025 C 
HETATM    3  C4  UNL     1     -32.564   8.516   1.100  1.00 20.00     0.018 C 
HETATM    4  C5  UNL     1     -32.098   6.216   1.503  1.00 20.00     0.022 C 
HETATM    5  C6  UNL     1     -31.405   7.598   1.501  1.00 20.00     0.009 C 
HETATM    6  C7  UNL     1     -33.447   8.076   2.273  1.00 20.00     0.021 C 
HETATM    7  C8  UNL     1     -33.532   6.555   2.002  1.00 20.00     0.080 C 
ENDROOT
BRANCH   7   8
HETATM    8  C3  UNL     1     -33.939   5.757   3.202  1.00 20.00     0.223 C 
HETATM    9  O9  UNL     1     -33.335   4.741   3.537  1.00 20.00    -0.279 OA
HETATM   10 CL10 UNL     1     -35.315   6.445   4.009  1.00 20.00    -0.043 Cl
ENDBRANCH   7   8
TORSDOF 1
ENDMDL
MODEL 2
REMARK VINA RESULT:       0.9      1.819      2.154
REMARK  1 active torsions:
REMARK  status: ('A' for Active; 'I' for Inactive)
REMARK    1  A    between atoms: C3_3  and  C8_8 
ROOT
HETATM    1  C1  UNL     1     -32.647   7.781   4.348  1.00 20.00    -0.026 C 
HETATM    2  C2  UNL     1     -33.889   7.664   4.840  1.00 20.00    -0.025 C 
HETATM    3  C4  UNL     1     -34.108   8.239   2.615  1.00 20.00     0.018 C 
HETATM    4  C5  UNL     1     -33.065   6.099   2.587  1.00 20.00     0.022 C 
HETATM    5  C6  UNL     1     -32.742   7.587   2.853  1.00 20.00     0.009 C 
HETATM    6  C7  UNL     1     -34.811   7.381   3.673  1.00 20.00     0.021 C 
HETATM    7  C8  UNL     1     -34.520   5.964   3.121  1.00 20.00     0.080 C 
ENDROOT
BRANCH   7   8
HETATM    8  C3  UNL     1     -34.671   4.882   4.145  1.00 20.00     0.223 C 
HETATM    9  O9  UNL     1     -35.644   4.834   4.894  1.00 20.00    -0.279 OA
HETATM   10 CL10 UNL     1     -33.341   3.766   4.118  1.00 20.00    -0.043 Cl
ENDBRANCH   7   8
TORSDOF 1
ENDMDL
MODEL 3
REMARK VINA RESULT:       1.1      1.501      2.448
REMARK  1 active torsions:
REMARK  status: ('A' for Active; 'I' for Inactive)
REMARK    1  A    between atoms: C3_3  and  C8_8 
ROOT
HETATM    1  C1  UNL     1     -33.434   6.961   0.609  1.00 20.00    -0.026 C 
HETATM    2  C2  UNL     1     -33.226   5.718   1.067  1.00 20.00    -0.025 C 
HETATM    3  C4  UNL     1     -31.490   7.017   1.859  1.00 20.00     0.018 C 
HETATM    4  C5  UNL     1     -33.439   7.921   2.886  1.00 20.00     0.022 C 
HETATM    5  C6  UNL     1     -32.696   7.903   1.530  1.00 20.00     0.009 C 
HETATM    6  C7  UNL     1     -32.357   5.832   2.301  1.00 20.00     0.021 C 
HETATM    7  C8  UNL     1     -33.170   6.492   3.441  1.00 20.00     0.080 C 
ENDROOT
BRANCH   7   8
HETATM    8  C3  UNL     1     -34.425   5.751   3.785  1.00 20.00     0.223 C 
HETATM    9  O9  UNL     1     -35.519   6.309   3.809  1.00 20.00    -0.279 OA
HETATM   10 CL10 UNL     1     -34.122   4.075   4.126  1.00 20.00    -0.043 Cl
ENDBRANCH   7   8
TORSDOF 1
ENDMDL
MODEL 4
REMARK VINA RESULT:       1.2      2.232      3.533
REMARK  1 active torsions:
REMARK  status: ('A' for Active; 'I' for Inactive)
REMARK    1  A    between atoms: C3_3  and  C8_8 
ROOT
HETATM    1  C1  UNL     1     -35.931   6.550   3.258  1.00 20.00    -0.026 C 
HETATM    2  C2  UNL     1     -35.154   7.602   2.959  1.00 20.00    -0.025 C 
HETATM    3  C4  UNL     1     -34.479   6.848   5.033  1.00 20.00     0.018 C 
HETATM    4  C5  UNL     1     -33.987   5.053   3.548  1.00 20.00     0.022 C 
HETATM    5  C6  UNL     1     -35.181   5.718   4.271  1.00 20.00     0.009 C 
HETATM    6  C7  UNL     1     -33.880   7.464   3.764  1.00 20.00     0.021 C 
HETATM    7  C8  UNL     1     -33.062   6.263   3.230  1.00 20.00     0.080 C 
ENDROOT
BRANCH   7   8
HETATM    8  C3  UNL     1     -32.720   6.374   1.776  1.00 20.00     0.223 C 
HETATM    9  O9  UNL     1     -33.007   5.488   0.976  1.00 20.00    -0.279 OA
HETATM   10 CL10 UNL     1     -31.904   7.863   1.409  1.00 20.00    -0.043 Cl
ENDBRANCH   7   8
TORSDOF 1
ENDMDL
MODEL 5
REMARK VINA RESULT:       1.6      2.310      3.641
REMARK  1 active torsions:
REMARK  status: ('A' for Active; 'I' for Inactive)
REMARK    1  A    between atoms: C3_3  and  C8_8 
ROOT
HETATM    1  C1  UNL     1     -33.760   5.259   3.840  1.00 20.00    -0.026 C 
HETATM    2  C2  UNL     1     -33.571   5.589   2.554  1.00 20.00    -0.025 C 
HETATM    3  C4  UNL     1     -35.562   6.560   3.203  1.00 20.00     0.018 C 
HETATM    4  C5  UNL     1     -33.906   7.624   4.543  1.00 20.00     0.022 C 
HETATM    5  C6  UNL     1     -34.687   6.294   4.432  1.00 20.00     0.009 C 
HETATM    6  C7  UNL     1     -34.364   6.851   2.292  1.00 20.00     0.021 C 
HETATM    7  C8  UNL     1     -33.715   8.032   3.053  1.00 20.00     0.080 C 
ENDROOT
BRANCH   7   8
HETATM    8  C3  UNL     1     -32.282   8.263   2.687  1.00 20.00     0.223 C 
HETATM    9  O9  UNL     1     -31.412   8.403   3.543  1.00 20.00    -0.279 OA
HETATM   10 CL10 UNL     1     -32.044   8.297   0.967  1.00 20.00    -0.043 Cl
ENDBRANCH   7   8
TORSDOF 1
ENDMDL
MODEL 6
REMARK VINA RESULT:       1.6      2.237      3.593
REMARK  1 active torsions:
REMARK  status: ('A' for Active; 'I' for Inactive)
REMARK    1  A    between atoms: C3_3  and  C8_8 
ROOT
HETATM    1  C1  UNL     1     -34.007   5.322   4.378  1.00 20.00    -0.026 C 
HETATM    2  C2  UNL     1     -33.899   5.080   3.063  1.00 20.00    -0.025 C 
HETATM    3  C4  UNL     1     -35.638   6.575   3.322  1.00 20.00     0.018 C 
HETATM    4  C5  UNL     1     -33.710   7.755   4.070  1.00 20.00     0.022 C 
HETATM    5  C6  UNL     1     -34.696   6.657   4.528  1.00 20.00     0.009 C 
HETATM    6  C7  UNL     1     -34.507   6.260   2.337  1.00 20.00     0.021 C 
HETATM    7  C8  UNL     1     -33.608   7.504   2.537  1.00 20.00     0.080 C 
ENDROOT
BRANCH   7   8
HETATM    8  C3  UNL     1     -32.201   7.305   2.067  1.00 20.00     0.223 C 
HETATM    9  O9  UNL     1     -31.325   8.139   2.282  1.00 20.00    -0.279 OA
HETATM   10 CL10 UNL     1     -32.000   5.801   1.221  1.00 20.00    -0.043 Cl
ENDBRANCH   7   8
TORSDOF 1
ENDMDL
MODEL 7
REMARK VINA RESULT:       1.9      1.374      1.865
REMARK  1 active torsions:
REMARK  status: ('A' for Active; 'I' for Inactive)
REMARK    1  A    between atoms: C3_3  and  C8_8 
ROOT
HETATM    1  C1  UNL     1     -31.492   7.155   1.838  1.00 20.00    -0.026 C 
HETATM    2  C2  UNL     1     -32.677   7.764   1.687  1.00 20.00    -0.025 C 
HETATM    3  C4  UNL     1     -32.779   5.801   0.476  1.00 20.00     0.018 C 
HETATM    4  C5  UNL     1     -32.532   5.104   2.740  1.00 20.00     0.022 C 
HETATM    5  C6  UNL     1     -31.709   5.686   1.567  1.00 20.00     0.009 C 
HETATM    6  C7  UNL     1     -33.688   6.697   1.326  1.00 20.00     0.021 C 
HETATM    7  C8  UNL     1     -33.922   5.777   2.549  1.00 20.00     0.080 C 
ENDROOT
BRANCH   7   8
HETATM    8  C3  UNL     1     -34.390   6.511   3.767  1.00 20.00     0.223 C 
HETATM    9  O9  UNL     1     -33.916   7.598   4.087  1.00 20.00    -0.279 OA
HETATM   10 CL10 UNL     1     -35.638   5.647   4.612  1.00 20.00    -0.043 Cl
ENDBRANCH   7   8
TORSDOF 1
ENDMDL
MODEL 8
REMARK VINA RESULT:       2.1      2.235      3.274
REMARK  1 active torsions:
REMARK  status: ('A' for Active; 'I' for Inactive)
REMARK    1  A    between atoms: C3_3  and  C8_8 
ROOT
HETATM    1  C1  UNL     1     -34.187   7.721   4.335  1.00 20.00    -0.026 C 
HETATM    2  C2  UNL     1     -33.203   6.825   4.496  1.00 20.00    -0.025 C 
HETATM    3  C4  UNL     1     -35.148   5.624   4.177  1.00 20.00     0.018 C 
HETATM    4  C5  UNL     1     -34.820   6.799   2.132  1.00 20.00     0.022 C 
HETATM    5  C6  UNL     1     -35.299   7.028   3.584  1.00 20.00     0.009 C 
HETATM    6  C7  UNL     1     -33.654   5.537   3.842  1.00 20.00     0.021 C 
HETATM    7  C8  UNL     1     -33.702   5.730   2.307  1.00 20.00     0.080 C 
ENDROOT
BRANCH   7   8
HETATM    8  C3  UNL     1     -32.391   6.152   1.718  1.00 20.00     0.223 C 
HETATM    9  O9  UNL     1     -31.554   5.331   1.353  1.00 20.00    -0.279 OA
HETATM   10 CL10 UNL     1     -32.240   7.880   1.630  1.00 20.00    -0.043 Cl
ENDBRANCH   7   8
TORSDOF 1
ENDMDL
MODEL 9
REMARK VINA RESULT:       2.3      2.231      2.929
REMARK  1 active torsions:
REMARK  status: ('A' for Active; 'I' for Inactive)
REMARK    1  A    between atoms: C3_3  and  C8_8 
ROOT
HETATM    1  C1  UNL     1     -32.730   9.061   1.077  1.00 20.00    -0.026 C 
HETATM    2  C2  UNL     1     -31.740   8.313   0.567  1.00 20.00    -0.025 C 
HETATM    3  C4  UNL     1     -31.407   8.390   2.850  1.00 20.00     0.018 C 
HETATM    4  C5  UNL     1     -33.480   7.248   2.579  1.00 20.00     0.022 C 
HETATM    5  C6  UNL     1     -32.879   8.672   2.528  1.00 20.00     0.009 C 
HETATM    6  C7  UNL     1     -31.236   7.417   1.678  1.00 20.00     0.021 C 
HETATM    7  C8  UNL     1     -32.321   6.369   2.025  1.00 20.00     0.080 C 
ENDROOT
BRANCH   7   8
HETATM    8  C3  UNL     1     -32.732   5.527   0.857  1.00 20.00     0.223 C 
HETATM    9  O9  UNL     1     -33.853   5.612   0.363  1.00 20.00    -0.279 OA
HETATM   10 CL10 UNL     1     -31.457   4.471   0.332  1.00 20.00    -0.043 Cl
ENDBRANCH   7   8
TORSDOF 1
ENDMDL
