MODEL 1
REMARK VINA RESULT:      -3.3      0.000      0.000
REMARK  3 active torsions:
REMARK  status: ('A' for Active; 'I' for Inactive)
REMARK    1  A    between atoms: C2_2  and  O6_6 
REMARK    2  A    between atoms: C3_3  and  C4_4 
REMARK    3  A    between atoms: C3_3  and  O6_6 
ROOT
HETATM    1  C1  UNL     1     -32.211   8.949   0.944  1.00 20.00     0.085 C 
HETATM    2  C2  UNL     1     -31.965   7.803   1.820  1.00 20.00     0.291 C 
HETATM    3  N5  UNL     1     -32.406   9.858   0.249  1.00 20.00    -0.195 NA
ENDROOT
BRANCH   2   4
HETATM    4  O6  UNL     1     -32.977   7.711   2.813  1.00 20.00    -0.369 OA
BRANCH   4   5
HETATM    5  C3  UNL     1     -33.686   6.482   2.721  1.00 20.00     0.286 C 
BRANCH   5   6
HETATM    6  C4  UNL     1     -34.763   6.455   3.774  1.00 20.00     0.408 C 
HETATM    7  F7  UNL     1     -34.542   7.411   4.704  1.00 20.00    -0.169 F 
HETATM    8  F8  UNL     1     -34.798   5.265   4.408  1.00 20.00    -0.169 F 
HETATM    9  F9  UNL     1     -35.980   6.680   3.236  1.00 20.00    -0.169 F 
ENDBRANCH   5   6
ENDBRANCH   4   5
ENDBRANCH   2   4
TORSDOF 3
ENDMDL
MODEL 2
REMARK VINA RESULT:      -3.3      0.052      1.252
REMARK  3 active torsions:
REMARK  status: ('A' for Active; 'I' for Inactive)
REMARK    1  A    between atoms: C2_2  and  O6_6 
REMARK    2  A    between atoms: C3_3  and  C4_4 
REMARK    3  A    between atoms: C3_3  and  O6_6 
ROOT
HETATM    1  C1  UNL     1     -32.204   8.926   0.956  1.00 20.00     0.085 C 
HETATM    2  C2  UNL     1     -31.990   7.783   1.844  1.00 20.00     0.291 C 
HETATM    3  N5  UNL     1     -32.374   9.832   0.252  1.00 20.00    -0.195 NA
ENDROOT
BRANCH   2   4
HETATM    4  O6  UNL     1     -33.023   7.709   2.817  1.00 20.00    -0.369 OA
BRANCH   4   5
HETATM    5  C3  UNL     1     -33.701   6.461   2.763  1.00 20.00     0.286 C 
BRANCH   5   6
HETATM    6  C4  UNL     1     -34.800   6.453   3.793  1.00 20.00     0.408 C 
HETATM    7  F7  UNL     1     -35.995   6.709   3.216  1.00 20.00    -0.169 F 
HETATM    8  F8  UNL     1     -34.591   7.393   4.739  1.00 20.00    -0.169 F 
HETATM    9  F9  UNL     1     -34.889   5.253   4.405  1.00 20.00    -0.169 F 
ENDBRANCH   5   6
ENDBRANCH   4   5
ENDBRANCH   2   4
TORSDOF 3
ENDMDL
MODEL 3
REMARK VINA RESULT:      -3.3      0.015      1.263
REMARK  3 active torsions:
REMARK  status: ('A' for Active; 'I' for Inactive)
REMARK    1  A    between atoms: C2_2  and  O6_6 
REMARK    2  A    between atoms: C3_3  and  C4_4 
REMARK    3  A    between atoms: C3_3  and  O6_6 
ROOT
HETATM    1  C1  UNL     1     -32.213   8.950   0.945  1.00 20.00     0.085 C 
HETATM    2  C2  UNL     1     -31.976   7.798   1.816  1.00 20.00     0.291 C 
HETATM    3  N5  UNL     1     -32.401   9.863   0.255  1.00 20.00    -0.195 NA
ENDROOT
BRANCH   2   4
HETATM    4  O6  UNL     1     -32.985   7.711   2.811  1.00 20.00    -0.369 OA
BRANCH   4   5
HETATM    5  C3  UNL     1     -33.683   6.474   2.740  1.00 20.00     0.286 C 
BRANCH   5   6
HETATM    6  C4  UNL     1     -34.770   6.461   3.783  1.00 20.00     0.408 C 
HETATM    7  F7  UNL     1     -34.816   5.262   4.405  1.00 20.00    -0.169 F 
HETATM    8  F8  UNL     1     -35.981   6.684   3.230  1.00 20.00    -0.169 F 
HETATM    9  F9  UNL     1     -34.557   7.404   4.724  1.00 20.00    -0.169 F 
ENDBRANCH   5   6
ENDBRANCH   4   5
ENDBRANCH   2   4
TORSDOF 3
ENDMDL
MODEL 4
REMARK VINA RESULT:      -2.9      3.525      4.435
REMARK  3 active torsions:
REMARK  status: ('A' for Active; 'I' for Inactive)
REMARK    1  A    between atoms: C2_2  and  O6_6 
REMARK    2  A    between atoms: C3_3  and  C4_4 
REMARK    3  A    between atoms: C3_3  and  O6_6 
ROOT
HETATM    1  C1  UNL     1     -34.489   5.060   4.084  1.00 20.00     0.085 C 
HETATM    2  C2  UNL     1     -34.942   6.445   3.946  1.00 20.00     0.291 C 
HETATM    3  N5  UNL     1     -34.131   3.962   4.192  1.00 20.00    -0.195 NA
ENDROOT
BRANCH   2   4
HETATM    4  O6  UNL     1     -33.851   7.294   3.621  1.00 20.00    -0.369 OA
BRANCH   4   5
HETATM    5  C3  UNL     1     -33.294   6.966   2.355  1.00 20.00     0.286 C 
BRANCH   5   6
HETATM    6  C4  UNL     1     -32.145   7.896   2.066  1.00 20.00     0.408 C 
HETATM    7  F7  UNL     1     -31.140   7.234   1.451  1.00 20.00    -0.169 F 
HETATM    8  F8  UNL     1     -31.650   8.431   3.202  1.00 20.00    -0.169 F 
HETATM    9  F9  UNL     1     -32.524   8.907   1.257  1.00 20.00    -0.169 F 
ENDBRANCH   5   6
ENDBRANCH   4   5
ENDBRANCH   2   4
TORSDOF 3
ENDMDL
MODEL 5
REMARK VINA RESULT:      -2.8      3.523      4.469
REMARK  3 active torsions:
REMARK  status: ('A' for Active; 'I' for Inactive)
REMARK    1  A    between atoms: C2_2  and  O6_6 
REMARK    2  A    between atoms: C3_3  and  C4_4 
REMARK    3  A    between atoms: C3_3  and  O6_6 
ROOT
HETATM    1  C1  UNL     1     -34.491   5.061   4.089  1.00 20.00     0.085 C 
HETATM    2  C2  UNL     1     -34.937   6.448   3.949  1.00 20.00     0.291 C 
HETATM    3  N5  UNL     1     -34.138   3.962   4.200  1.00 20.00    -0.195 NA
ENDROOT
BRANCH   2   4
HETATM    4  O6  UNL     1     -33.840   7.292   3.627  1.00 20.00    -0.369 OA
BRANCH   4   5
HETATM    5  C3  UNL     1     -33.293   6.974   2.354  1.00 20.00     0.286 C 
BRANCH   5   6
HETATM    6  C4  UNL     1     -32.142   7.902   2.067  1.00 20.00     0.408 C 
HETATM    7  F7  UNL     1     -31.667   8.439   3.213  1.00 20.00    -0.169 F 
HETATM    8  F8  UNL     1     -32.521   8.917   1.263  1.00 20.00    -0.169 F 
HETATM    9  F9  UNL     1     -31.124   7.249   1.467  1.00 20.00    -0.169 F 
ENDBRANCH   5   6
ENDBRANCH   4   5
ENDBRANCH   2   4
TORSDOF 3
ENDMDL
MODEL 6
REMARK VINA RESULT:      -2.8      3.536      4.460
REMARK  3 active torsions:
REMARK  status: ('A' for Active; 'I' for Inactive)
REMARK    1  A    between atoms: C2_2  and  O6_6 
REMARK    2  A    between atoms: C3_3  and  C4_4 
REMARK    3  A    between atoms: C3_3  and  O6_6 
ROOT
HETATM    1  C1  UNL     1     -34.478   5.058   4.093  1.00 20.00     0.085 C 
HETATM    2  C2  UNL     1     -34.916   6.447   3.956  1.00 20.00     0.291 C 
HETATM    3  N5  UNL     1     -34.131   3.956   4.201  1.00 20.00    -0.195 NA
ENDROOT
BRANCH   2   4
HETATM    4  O6  UNL     1     -33.817   7.284   3.622  1.00 20.00    -0.369 OA
BRANCH   4   5
HETATM    5  C3  UNL     1     -33.339   7.020   2.310  1.00 20.00     0.286 C 
BRANCH   5   6
HETATM    6  C4  UNL     1     -32.137   7.886   2.039  1.00 20.00     0.408 C 
HETATM    7  F7  UNL     1     -32.461   8.900   1.206  1.00 20.00    -0.169 F 
HETATM    8  F8  UNL     1     -31.145   7.179   1.460  1.00 20.00    -0.169 F 
HETATM    9  F9  UNL     1     -31.658   8.428   3.178  1.00 20.00    -0.169 F 
ENDBRANCH   5   6
ENDBRANCH   4   5
ENDBRANCH   2   4
TORSDOF 3
ENDMDL
MODEL 7
REMARK VINA RESULT:      -2.6      4.021      4.729
REMARK  3 active torsions:
REMARK  status: ('A' for Active; 'I' for Inactive)
REMARK    1  A    between atoms: C2_2  and  O6_6 
REMARK    2  A    between atoms: C3_3  and  C4_4 
REMARK    3  A    between atoms: C3_3  and  O6_6 
ROOT
HETATM    1  C1  UNL     1     -33.608   6.629   2.913  1.00 20.00     0.085 C 
HETATM    2  C2  UNL     1     -32.665   6.440   1.810  1.00 20.00     0.291 C 
HETATM    3  N5  UNL     1     -34.355   6.779   3.787  1.00 20.00    -0.195 NA
ENDROOT
BRANCH   2   4
HETATM    4  O6  UNL     1     -31.874   7.606   1.627  1.00 20.00    -0.369 OA
BRANCH   4   5
HETATM    5  C3  UNL     1     -32.682   8.768   1.494  1.00 20.00     0.286 C 
BRANCH   5   6
HETATM    6  C4  UNL     1     -32.227   9.549   0.288  1.00 20.00     0.408 C 
HETATM    7  F7  UNL     1     -32.191  10.872   0.565  1.00 20.00    -0.169 F 
HETATM    8  F8  UNL     1     -33.064   9.370  -0.755  1.00 20.00    -0.169 F 
HETATM    9  F9  UNL     1     -30.989   9.177  -0.098  1.00 20.00    -0.169 F 
ENDBRANCH   5   6
ENDBRANCH   4   5
ENDBRANCH   2   4
TORSDOF 3
ENDMDL
MODEL 8
REMARK VINA RESULT:      -2.5      4.061      4.761
REMARK  3 active torsions:
REMARK  status: ('A' for Active; 'I' for Inactive)
REMARK    1  A    between atoms: C2_2  and  O6_6 
REMARK    2  A    between atoms: C3_3  and  C4_4 
REMARK    3  A    between atoms: C3_3  and  O6_6 
ROOT
HETATM    1  C1  UNL     1     -33.566   6.605   2.863  1.00 20.00     0.085 C 
HETATM    2  C2  UNL     1     -32.618   6.501   1.754  1.00 20.00     0.291 C 
HETATM    3  N5  UNL     1     -34.318   6.687   3.743  1.00 20.00    -0.195 NA
ENDROOT
BRANCH   2   4
HETATM    4  O6  UNL     1     -31.859   7.697   1.635  1.00 20.00    -0.369 OA
BRANCH   4   5
HETATM    5  C3  UNL     1     -32.698   8.831   1.460  1.00 20.00     0.286 C 
BRANCH   5   6
HETATM    6  C4  UNL     1     -32.233   9.606   0.254  1.00 20.00     0.408 C 
HETATM    7  F7  UNL     1     -31.019   9.172  -0.150  1.00 20.00    -0.169 F 
HETATM    8  F8  UNL     1     -32.129  10.923   0.530  1.00 20.00    -0.169 F 
HETATM    9  F9  UNL     1     -33.086   9.459  -0.781  1.00 20.00    -0.169 F 
ENDBRANCH   5   6
ENDBRANCH   4   5
ENDBRANCH   2   4
TORSDOF 3
ENDMDL
MODEL 9
REMARK VINA RESULT:      -2.3      3.729      4.377
REMARK  3 active torsions:
REMARK  status: ('A' for Active; 'I' for Inactive)
REMARK    1  A    between atoms: C2_2  and  O6_6 
REMARK    2  A    between atoms: C3_3  and  C4_4 
REMARK    3  A    between atoms: C3_3  and  O6_6 
ROOT
HETATM    1  C1  UNL     1     -34.464   6.777   3.927  1.00 20.00     0.085 C 
HETATM    2  C2  UNL     1     -35.508   5.765   4.098  1.00 20.00     0.291 C 
HETATM    3  N5  UNL     1     -33.637   7.579   3.792  1.00 20.00    -0.195 NA
ENDROOT
BRANCH   2   4
HETATM    4  O6  UNL     1     -34.965   4.584   4.672  1.00 20.00    -0.369 OA
BRANCH   4   5
HETATM    5  C3  UNL     1     -33.935   4.035   3.860  1.00 20.00     0.286 C 
BRANCH   5   6
HETATM    6  C4  UNL     1     -33.154   3.032   4.668  1.00 20.00     0.408 C 
HETATM    7  F7  UNL     1     -33.571   1.775   4.396  1.00 20.00    -0.169 F 
HETATM    8  F8  UNL     1     -33.311   3.240   5.991  1.00 20.00    -0.169 F 
HETATM    9  F9  UNL     1     -31.836   3.096   4.385  1.00 20.00    -0.169 F 
ENDBRANCH   5   6
ENDBRANCH   4   5
ENDBRANCH   2   4
TORSDOF 3
ENDMDL
