MODEL 1
REMARK VINA RESULT:       2.5      0.000      0.000
REMARK  0 active torsions:
REMARK  status: ('A' for Active; 'I' for Inactive)
ROOT
HETATM    1  C1  UNL     1     -33.695   8.951   2.248  1.00 20.00     0.042 C 
HETATM    2  C2  UNL     1     -33.359   6.462   2.635  1.00 20.00     0.042 C 
HETATM    3  C3  UNL     1     -31.005   8.026   2.291  1.00 20.00     0.174 C 
HETATM    4  C4  UNL     1     -31.864   7.715   1.056  1.00 20.00     0.017 C 
HETATM    5  C5  UNL     1     -32.945   8.816   0.909  1.00 20.00    -0.009 C 
HETATM    6  C6  UNL     1     -32.612   6.379   1.289  1.00 20.00    -0.009 C 
HETATM    7  C7  UNL     1     -33.203   7.873   3.234  1.00 20.00     0.058 C 
HETATM    8  C8  UNL     1     -32.377  10.156   0.441  1.00 20.00     0.010 C 
HETATM    9  C9  UNL     1     -31.693   5.159   1.225  1.00 20.00     0.010 C 
HETATM   10  C10 UNL     1     -33.932   7.982   4.570  1.00 20.00     0.046 C 
HETATM   11  O11 UNL     1     -31.802   8.100   3.481  1.00 20.00    -0.380 OA
ENDROOT
TORSDOF 0
ENDMDL
MODEL 2
REMARK VINA RESULT:       2.9      0.871      3.195
REMARK  0 active torsions:
REMARK  status: ('A' for Active; 'I' for Inactive)
ROOT
HETATM    1  C1  UNL     1     -33.503   6.462   2.678  1.00 20.00     0.042 C 
HETATM    2  C2  UNL     1     -32.925   7.444   0.406  1.00 20.00     0.042 C 
HETATM    3  C3  UNL     1     -31.224   8.162   2.574  1.00 20.00     0.174 C 
HETATM    4  C4  UNL     1     -32.617   8.804   2.493  1.00 20.00     0.017 C 
HETATM    5  C5  UNL     1     -33.629   7.894   3.234  1.00 20.00    -0.009 C 
HETATM    6  C6  UNL     1     -33.061   8.856   1.010  1.00 20.00    -0.009 C 
HETATM    7  C7  UNL     1     -32.506   6.444   1.501  1.00 20.00     0.058 C 
HETATM    8  C8  UNL     1     -33.468   7.928   4.753  1.00 20.00     0.010 C 
HETATM    9  C9  UNL     1     -32.296   9.897   0.193  1.00 20.00     0.010 C 
HETATM   10  C10 UNL     1     -32.362   5.037   0.930  1.00 20.00     0.046 C 
HETATM   11  O11 UNL     1     -31.217   6.846   2.003  1.00 20.00    -0.380 OA
ENDROOT
TORSDOF 0
ENDMDL
MODEL 3
REMARK VINA RESULT:       3.3      1.495      3.133
REMARK  0 active torsions:
REMARK  status: ('A' for Active; 'I' for Inactive)
ROOT
HETATM    1  C1  UNL     1     -33.171   7.978   2.874  1.00 20.00     0.042 C 
HETATM    2  C2  UNL     1     -31.321   6.995   1.435  1.00 20.00     0.042 C 
HETATM    3  C3  UNL     1     -33.976   6.155   0.844  1.00 20.00     0.174 C 
HETATM    4  C4  UNL     1     -33.294   5.593   2.100  1.00 20.00     0.017 C 
HETATM    5  C5  UNL     1     -33.570   6.548   3.288  1.00 20.00    -0.009 C 
HETATM    6  C6  UNL     1     -31.761   5.585   1.877  1.00 20.00    -0.009 C 
HETATM    7  C7  UNL     1     -32.525   7.956   1.474  1.00 20.00     0.058 C 
HETATM    8  C8  UNL     1     -35.014   6.485   3.785  1.00 20.00     0.010 C 
HETATM    9  C9  UNL     1     -31.305   4.514   0.886  1.00 20.00     0.010 C 
HETATM   10  C10 UNL     1     -32.119   9.360   1.038  1.00 20.00     0.046 C 
HETATM   11  O11 UNL     1     -33.509   7.475   0.537  1.00 20.00    -0.380 OA
ENDROOT
TORSDOF 0
ENDMDL
MODEL 4
REMARK VINA RESULT:       3.5      1.696      3.230
REMARK  0 active torsions:
REMARK  status: ('A' for Active; 'I' for Inactive)
ROOT
HETATM    1  C1  UNL     1     -31.418   6.861   1.507  1.00 20.00     0.042 C 
HETATM    2  C2  UNL     1     -32.847   5.361   2.978  1.00 20.00     0.042 C 
HETATM    3  C3  UNL     1     -34.204   6.808   0.936  1.00 20.00     0.174 C 
HETATM    4  C4  UNL     1     -33.730   7.572   2.181  1.00 20.00     0.017 C 
HETATM    5  C5  UNL     1     -32.279   8.063   1.943  1.00 20.00    -0.009 C 
HETATM    6  C6  UNL     1     -33.681   6.594   3.381  1.00 20.00    -0.009 C 
HETATM    7  C7  UNL     1     -32.255   5.568   1.571  1.00 20.00     0.058 C 
HETATM    8  C8  UNL     1     -32.192   9.215   0.942  1.00 20.00     0.010 C 
HETATM    9  C9  UNL     1     -35.068   6.198   3.887  1.00 20.00     0.010 C 
HETATM   10  C10 UNL     1     -31.426   4.360   1.145  1.00 20.00     0.046 C 
HETATM   11  O11 UNL     1     -33.348   5.697   0.641  1.00 20.00    -0.380 OA
ENDROOT
TORSDOF 0
ENDMDL
MODEL 5
REMARK VINA RESULT:       3.7      1.503      3.290
REMARK  0 active torsions:
REMARK  status: ('A' for Active; 'I' for Inactive)
ROOT
HETATM    1  C1  UNL     1     -32.785   5.319   2.897  1.00 20.00     0.042 C 
HETATM    2  C2  UNL     1     -33.128   7.834   3.021  1.00 20.00     0.042 C 
HETATM    3  C3  UNL     1     -33.609   6.606   0.497  1.00 20.00     0.174 C 
HETATM    4  C4  UNL     1     -32.155   6.785   0.958  1.00 20.00     0.017 C 
HETATM    5  C5  UNL     1     -31.738   5.544   1.788  1.00 20.00    -0.009 C 
HETATM    6  C6  UNL     1     -32.076   8.007   1.907  1.00 20.00    -0.009 C 
HETATM    7  C7  UNL     1     -33.818   6.464   2.881  1.00 20.00     0.058 C 
HETATM    8  C8  UNL     1     -31.539   4.291   0.936  1.00 20.00     0.010 C 
HETATM    9  C9  UNL     1     -32.236   9.341   1.178  1.00 20.00     0.010 C 
HETATM   10  C10 UNL     1     -34.867   6.267   3.970  1.00 20.00     0.046 C 
HETATM   11  O11 UNL     1     -34.497   6.434   1.610  1.00 20.00    -0.380 OA
ENDROOT
TORSDOF 0
ENDMDL
MODEL 6
REMARK VINA RESULT:       4.6      0.807      3.223
REMARK  0 active torsions:
REMARK  status: ('A' for Active; 'I' for Inactive)
ROOT
HETATM    1  C1  UNL     1     -32.926   7.435   0.396  1.00 20.00     0.042 C 
HETATM    2  C2  UNL     1     -33.706   8.922   2.304  1.00 20.00     0.042 C 
HETATM    3  C3  UNL     1     -31.315   7.438   2.741  1.00 20.00     0.174 C 
HETATM    4  C4  UNL     1     -32.657   6.691   2.778  1.00 20.00     0.017 C 
HETATM    5  C5  UNL     1     -33.008   6.223   1.343  1.00 20.00    -0.009 C 
HETATM    6  C6  UNL     1     -33.769   7.678   3.213  1.00 20.00    -0.009 C 
HETATM    7  C7  UNL     1     -32.643   8.715   1.207  1.00 20.00     0.058 C 
HETATM    8  C8  UNL     1     -32.134   5.066   0.859  1.00 20.00     0.010 C 
HETATM    9  C9  UNL     1     -33.690   8.054   4.692  1.00 20.00     0.010 C 
HETATM   10  C10 UNL     1     -32.558   9.933   0.293  1.00 20.00     0.046 C 
HETATM   11  O11 UNL     1     -31.363   8.562   1.851  1.00 20.00    -0.380 OA
ENDROOT
TORSDOF 0
ENDMDL
MODEL 7
REMARK VINA RESULT:       5.5      1.617      2.217
REMARK  0 active torsions:
REMARK  status: ('A' for Active; 'I' for Inactive)
ROOT
HETATM    1  C1  UNL     1     -33.421   7.717   3.047  1.00 20.00     0.042 C 
HETATM    2  C2  UNL     1     -34.842   6.049   1.761  1.00 20.00     0.042 C 
HETATM    3  C3  UNL     1     -32.155   5.280   2.306  1.00 20.00     0.174 C 
HETATM    4  C4  UNL     1     -32.408   6.331   1.215  1.00 20.00     0.017 C 
HETATM    5  C5  UNL     1     -32.426   7.736   1.870  1.00 20.00    -0.009 C 
HETATM    6  C6  UNL     1     -33.816   6.099   0.611  1.00 20.00    -0.009 C 
HETATM    7  C7  UNL     1     -34.144   6.357   3.099  1.00 20.00     0.058 C 
HETATM    8  C8  UNL     1     -31.041   8.212   2.307  1.00 20.00     0.010 C 
HETATM    9  C9  UNL     1     -33.891   4.853  -0.270  1.00 20.00     0.010 C 
HETATM   10  C10 UNL     1     -35.137   6.311   4.256  1.00 20.00     0.046 C 
HETATM   11  O11 UNL     1     -33.155   5.335   3.332  1.00 20.00    -0.380 OA
ENDROOT
TORSDOF 0
ENDMDL
