MODEL 1
REMARK VINA RESULT:      -2.8      0.000      0.000
REMARK  2 active torsions:
REMARK  status: ('A' for Active; 'I' for Inactive)
REMARK    1  A    between atoms: C1_1  and  C2_2 
REMARK    2  A    between atoms: C2_2  and  C3_3 
ROOT
HETATM    1  C2  UNL     1     -33.602   5.743   3.369  1.00 20.00     0.213 C 
ENDROOT
BRANCH   1   2
HETATM    2  C1  UNL     1     -33.060   6.260   2.048  1.00 20.00     0.227 C 
HETATM    3  O4  UNL     1     -33.109   5.615   1.006  1.00 20.00    -0.280 OA
HETATM    4 CL8  UNL     1     -32.377   7.854   2.219  1.00 20.00    -0.043 Cl
ENDBRANCH   1   2
BRANCH   1   5
HETATM    5  C3  UNL     1     -34.815   6.510   3.845  1.00 20.00     0.395 C 
HETATM    6  F5  UNL     1     -35.592   6.898   2.812  1.00 20.00    -0.171 F 
HETATM    7  F6  UNL     1     -34.464   7.609   4.544  1.00 20.00    -0.171 F 
HETATM    8  F7  UNL     1     -35.572   5.736   4.655  1.00 20.00    -0.171 F 
ENDBRANCH   1   5
TORSDOF 2
ENDMDL
MODEL 2
REMARK VINA RESULT:      -2.7      0.016      1.336
REMARK  2 active torsions:
REMARK  status: ('A' for Active; 'I' for Inactive)
REMARK    1  A    between atoms: C1_1  and  C2_2 
REMARK    2  A    between atoms: C2_2  and  C3_3 
ROOT
HETATM    1  C2  UNL     1     -33.590   5.742   3.369  1.00 20.00     0.213 C 
ENDROOT
BRANCH   1   2
HETATM    2  C1  UNL     1     -33.058   6.264   2.046  1.00 20.00     0.227 C 
HETATM    3  O4  UNL     1     -33.122   5.626   1.000  1.00 20.00    -0.280 OA
HETATM    4 CL8  UNL     1     -32.363   7.853   2.220  1.00 20.00    -0.043 Cl
ENDBRANCH   1   2
BRANCH   1   5
HETATM    5  C3  UNL     1     -34.806   6.501   3.852  1.00 20.00     0.395 C 
HETATM    6  F5  UNL     1     -34.457   7.611   4.535  1.00 20.00    -0.171 F 
HETATM    7  F6  UNL     1     -35.580   5.738   4.652  1.00 20.00    -0.171 F 
HETATM    8  F7  UNL     1     -35.564   6.890   2.803  1.00 20.00    -0.171 F 
ENDBRANCH   1   5
TORSDOF 2
ENDMDL
MODEL 3
REMARK VINA RESULT:      -2.7      0.011      1.335
REMARK  2 active torsions:
REMARK  status: ('A' for Active; 'I' for Inactive)
REMARK    1  A    between atoms: C1_1  and  C2_2 
REMARK    2  A    between atoms: C2_2  and  C3_3 
ROOT
HETATM    1  C2  UNL     1     -33.593   5.749   3.374  1.00 20.00     0.213 C 
ENDROOT
BRANCH   1   2
HETATM    2  C1  UNL     1     -33.058   6.268   2.052  1.00 20.00     0.227 C 
HETATM    3  O4  UNL     1     -33.115   5.625   1.008  1.00 20.00    -0.280 OA
HETATM    4 CL8  UNL     1     -32.370   7.860   2.222  1.00 20.00    -0.043 Cl
ENDBRANCH   1   2
BRANCH   1   5
HETATM    5  C3  UNL     1     -34.820   6.499   3.844  1.00 20.00     0.395 C 
HETATM    6  F5  UNL     1     -35.583   5.740   4.657  1.00 20.00    -0.171 F 
HETATM    7  F6  UNL     1     -35.582   6.902   2.805  1.00 20.00    -0.171 F 
HETATM    8  F7  UNL     1     -34.460   7.602   4.537  1.00 20.00    -0.171 F 
ENDBRANCH   1   5
TORSDOF 2
ENDMDL
MODEL 4
REMARK VINA RESULT:      -2.7      1.324      1.324
REMARK  2 active torsions:
REMARK  status: ('A' for Active; 'I' for Inactive)
REMARK    1  A    between atoms: C1_1  and  C2_2 
REMARK    2  A    between atoms: C2_2  and  C3_3 
ROOT
HETATM    1  C2  UNL     1     -33.829   5.640   3.364  1.00 20.00     0.213 C 
ENDROOT
BRANCH   1   2
HETATM    2  C1  UNL     1     -33.061   6.456   2.340  1.00 20.00     0.227 C 
HETATM    3  O4  UNL     1     -32.852   7.659   2.462  1.00 20.00    -0.280 OA
HETATM    4 CL8  UNL     1     -32.535   5.470   1.002  1.00 20.00    -0.043 Cl
ENDBRANCH   1   2
BRANCH   1   5
HETATM    5  C3  UNL     1     -35.010   6.387   3.942  1.00 20.00     0.395 C 
HETATM    6  F5  UNL     1     -35.859   6.794   2.977  1.00 20.00    -0.171 F 
HETATM    7  F6  UNL     1     -34.615   7.472   4.642  1.00 20.00    -0.171 F 
HETATM    8  F7  UNL     1     -35.703   5.590   4.785  1.00 20.00    -0.171 F 
ENDBRANCH   1   5
TORSDOF 2
ENDMDL
MODEL 5
REMARK VINA RESULT:      -2.7      2.715      3.295
REMARK  2 active torsions:
REMARK  status: ('A' for Active; 'I' for Inactive)
REMARK    1  A    between atoms: C1_1  and  C2_2 
REMARK    2  A    between atoms: C2_2  and  C3_3 
ROOT
HETATM    1  C2  UNL     1     -33.414   5.599   3.085  1.00 20.00     0.213 C 
ENDROOT
BRANCH   1   2
HETATM    2  C1  UNL     1     -34.439   6.541   3.691  1.00 20.00     0.227 C 
HETATM    3  O4  UNL     1     -35.648   6.338   3.637  1.00 20.00    -0.280 OA
HETATM    4 CL8  UNL     1     -33.677   7.912   4.450  1.00 20.00    -0.043 Cl
ENDBRANCH   1   2
BRANCH   1   5
HETATM    5  C3  UNL     1     -32.860   6.103   1.772  1.00 20.00     0.395 C 
HETATM    6  F5  UNL     1     -32.475   7.393   1.858  1.00 20.00    -0.171 F 
HETATM    7  F6  UNL     1     -33.768   5.999   0.779  1.00 20.00    -0.171 F 
HETATM    8  F7  UNL     1     -31.777   5.379   1.410  1.00 20.00    -0.171 F 
ENDBRANCH   1   5
TORSDOF 2
ENDMDL
MODEL 6
REMARK VINA RESULT:      -2.6      1.324      1.877
REMARK  2 active torsions:
REMARK  status: ('A' for Active; 'I' for Inactive)
REMARK    1  A    between atoms: C1_1  and  C2_2 
REMARK    2  A    between atoms: C2_2  and  C3_3 
ROOT
HETATM    1  C2  UNL     1     -33.795   5.656   3.371  1.00 20.00     0.213 C 
ENDROOT
BRANCH   1   2
HETATM    2  C1  UNL     1     -33.059   6.463   2.317  1.00 20.00     0.227 C 
HETATM    3  O4  UNL     1     -32.814   7.659   2.438  1.00 20.00    -0.280 OA
HETATM    4 CL8  UNL     1     -32.624   5.476   0.947  1.00 20.00    -0.043 Cl
ENDBRANCH   1   2
BRANCH   1   5
HETATM    5  C3  UNL     1     -34.986   6.391   3.944  1.00 20.00     0.395 C 
HETATM    6  F5  UNL     1     -34.607   7.489   4.631  1.00 20.00    -0.171 F 
HETATM    7  F6  UNL     1     -35.703   5.602   4.772  1.00 20.00    -0.171 F 
HETATM    8  F7  UNL     1     -35.810   6.796   2.952  1.00 20.00    -0.171 F 
ENDBRANCH   1   5
TORSDOF 2
ENDMDL
MODEL 7
REMARK VINA RESULT:      -2.6      1.324      1.887
REMARK  2 active torsions:
REMARK  status: ('A' for Active; 'I' for Inactive)
REMARK    1  A    between atoms: C1_1  and  C2_2 
REMARK    2  A    between atoms: C2_2  and  C3_3 
ROOT
HETATM    1  C2  UNL     1     -33.815   5.648   3.370  1.00 20.00     0.213 C 
ENDROOT
BRANCH   1   2
HETATM    2  C1  UNL     1     -33.063   6.463   2.333  1.00 20.00     0.227 C 
HETATM    3  O4  UNL     1     -32.839   7.662   2.457  1.00 20.00    -0.280 OA
HETATM    4 CL8  UNL     1     -32.578   5.479   0.978  1.00 20.00    -0.043 Cl
ENDBRANCH   1   2
BRANCH   1   5
HETATM    5  C3  UNL     1     -35.006   6.384   3.942  1.00 20.00     0.395 C 
HETATM    6  F5  UNL     1     -35.703   5.609   4.799  1.00 20.00    -0.171 F 
HETATM    7  F6  UNL     1     -35.845   6.798   2.969  1.00 20.00    -0.171 F 
HETATM    8  F7  UNL     1     -34.600   7.479   4.622  1.00 20.00    -0.171 F 
ENDBRANCH   1   5
TORSDOF 2
ENDMDL
MODEL 8
REMARK VINA RESULT:      -2.6      3.300      3.827
REMARK  2 active torsions:
REMARK  status: ('A' for Active; 'I' for Inactive)
REMARK    1  A    between atoms: C1_1  and  C2_2 
REMARK    2  A    between atoms: C2_2  and  C3_3 
ROOT
HETATM    1  C2  UNL     1     -33.242   6.843   2.477  1.00 20.00     0.213 C 
ENDROOT
BRANCH   1   2
HETATM    2  C1  UNL     1     -34.007   7.208   3.736  1.00 20.00     0.227 C 
HETATM    3  O4  UNL     1     -33.640   8.085   4.512  1.00 20.00    -0.280 OA
HETATM    4 CL8  UNL     1     -35.440   6.232   3.919  1.00 20.00    -0.043 Cl
ENDBRANCH   1   2
BRANCH   1   5
HETATM    5  C3  UNL     1     -32.190   7.866   2.114  1.00 20.00     0.395 C 
HETATM    6  F5  UNL     1     -31.591   8.373   3.211  1.00 20.00    -0.171 F 
HETATM    7  F6  UNL     1     -32.717   8.890   1.410  1.00 20.00    -0.171 F 
HETATM    8  F7  UNL     1     -31.228   7.300   1.350  1.00 20.00    -0.171 F 
ENDBRANCH   1   5
TORSDOF 2
ENDMDL
MODEL 9
REMARK VINA RESULT:      -2.5      3.296      3.753
REMARK  2 active torsions:
REMARK  status: ('A' for Active; 'I' for Inactive)
REMARK    1  A    between atoms: C1_1  and  C2_2 
REMARK    2  A    between atoms: C2_2  and  C3_3 
ROOT
HETATM    1  C2  UNL     1     -33.238   6.843   2.450  1.00 20.00     0.213 C 
ENDROOT
BRANCH   1   2
HETATM    2  C1  UNL     1     -33.991   7.198   3.720  1.00 20.00     0.227 C 
HETATM    3  O4  UNL     1     -33.618   8.071   4.498  1.00 20.00    -0.280 OA
HETATM    4 CL8  UNL     1     -35.417   6.214   3.913  1.00 20.00    -0.043 Cl
ENDBRANCH   1   2
BRANCH   1   5
HETATM    5  C3  UNL     1     -32.174   7.858   2.098  1.00 20.00     0.395 C 
HETATM    6  F5  UNL     1     -31.216   7.319   1.315  1.00 20.00    -0.171 F 
HETATM    7  F6  UNL     1     -31.582   8.358   3.203  1.00 20.00    -0.171 F 
HETATM    8  F7  UNL     1     -32.717   8.894   1.422  1.00 20.00    -0.171 F 
ENDBRANCH   1   5
TORSDOF 2
ENDMDL
