MODEL 1
REMARK VINA RESULT:      -2.1      0.000      0.000
REMARK  1 active torsions:
REMARK  status: ('A' for Active; 'I' for Inactive)
REMARK    1  A    between atoms: C1_1  and  C2_2 
ROOT
HETATM    1  C1  UNL     1     -33.143   6.875   2.496  1.00 20.00     0.208 C 
HETATM    2  O3  UNL     1     -33.207   5.781   1.956  1.00 20.00    -0.284 OA
HETATM    3 BR5  UNL     1     -31.906   8.114   1.731  1.00 20.00    -0.008 Br
ENDROOT
BRANCH   1   4
HETATM    4  C2  UNL     1     -33.930   7.338   3.687  1.00 20.00     0.205 C 
HETATM    5 CL4  UNL     1     -35.308   6.262   3.963  1.00 20.00    -0.122 Cl
ENDBRANCH   1   4
TORSDOF 1
ENDMDL
MODEL 2
REMARK VINA RESULT:      -2.0      2.853      3.005
REMARK  1 active torsions:
REMARK  status: ('A' for Active; 'I' for Inactive)
REMARK    1  A    between atoms: C1_1  and  C2_2 
ROOT
HETATM    1  C1  UNL     1     -32.832   6.993   2.180  1.00 20.00     0.208 C 
HETATM    2  O3  UNL     1     -32.963   5.960   1.543  1.00 20.00    -0.284 OA
HETATM    3 BR5  UNL     1     -34.052   7.244   3.629  1.00 20.00    -0.008 Br
ENDROOT
BRANCH   1   4
HETATM    4  C2  UNL     1     -31.819   8.075   1.943  1.00 20.00     0.205 C 
HETATM    5 CL4  UNL     1     -32.402   9.196   0.703  1.00 20.00    -0.122 Cl
ENDBRANCH   1   4
TORSDOF 1
ENDMDL
MODEL 3
REMARK VINA RESULT:      -2.0      1.157      1.157
REMARK  1 active torsions:
REMARK  status: ('A' for Active; 'I' for Inactive)
REMARK    1  A    between atoms: C1_1  and  C2_2 
ROOT
HETATM    1  C1  UNL     1     -32.968   6.268   2.102  1.00 20.00     0.208 C 
HETATM    2  O3  UNL     1     -32.653   5.397   1.306  1.00 20.00    -0.284 OA
HETATM    3 BR5  UNL     1     -32.087   7.951   1.892  1.00 20.00    -0.008 Br
ENDROOT
BRANCH   1   4
HETATM    4  C2  UNL     1     -33.967   6.152   3.215  1.00 20.00     0.205 C 
HETATM    5 CL4  UNL     1     -34.081   7.684   4.095  1.00 20.00    -0.122 Cl
ENDBRANCH   1   4
TORSDOF 1
ENDMDL
MODEL 4
REMARK VINA RESULT:      -1.9      1.721      1.721
REMARK  1 active torsions:
REMARK  status: ('A' for Active; 'I' for Inactive)
REMARK    1  A    between atoms: C1_1  and  C2_2 
ROOT
HETATM    1  C1  UNL     1     -32.831   7.448   2.509  1.00 20.00     0.208 C 
HETATM    2  O3  UNL     1     -32.182   8.315   1.944  1.00 20.00    -0.284 OA
HETATM    3 BR5  UNL     1     -32.834   5.728   1.675  1.00 20.00    -0.008 Br
ENDROOT
BRANCH   1   4
HETATM    4  C2  UNL     1     -33.615   7.595   3.780  1.00 20.00     0.205 C 
HETATM    5 CL4  UNL     1     -34.985   6.473   3.785  1.00 20.00    -0.122 Cl
ENDBRANCH   1   4
TORSDOF 1
ENDMDL
MODEL 5
REMARK VINA RESULT:      -1.8      2.350      2.417
REMARK  1 active torsions:
REMARK  status: ('A' for Active; 'I' for Inactive)
REMARK    1  A    between atoms: C1_1  and  C2_2 
ROOT
HETATM    1  C1  UNL     1     -34.161   6.480   3.587  1.00 20.00     0.208 C 
HETATM    2  O3  UNL     1     -34.141   7.626   4.008  1.00 20.00    -0.284 OA
HETATM    3 BR5  UNL     1     -33.079   6.133   2.050  1.00 20.00    -0.008 Br
ENDROOT
BRANCH   1   4
HETATM    4  C2  UNL     1     -34.942   5.328   4.149  1.00 20.00     0.205 C 
HETATM    5 CL4  UNL     1     -33.928   3.878   4.216  1.00 20.00    -0.122 Cl
ENDBRANCH   1   4
TORSDOF 1
ENDMDL
MODEL 6
REMARK VINA RESULT:      -1.7      3.445      3.502
REMARK  1 active torsions:
REMARK  status: ('A' for Active; 'I' for Inactive)
REMARK    1  A    between atoms: C1_1  and  C2_2 
ROOT
HETATM    1  C1  UNL     1     -34.465   4.781   4.149  1.00 20.00     0.208 C 
HETATM    2  O3  UNL     1     -35.562   4.787   4.685  1.00 20.00    -0.284 OA
HETATM    3 BR5  UNL     1     -33.392   3.231   4.454  1.00 20.00    -0.008 Br
ENDROOT
BRANCH   1   4
HETATM    4  C2  UNL     1     -33.881   5.859   3.282  1.00 20.00     0.205 C 
HETATM    5 CL4  UNL     1     -34.202   7.450   3.988  1.00 20.00    -0.122 Cl
ENDBRANCH   1   4
TORSDOF 1
ENDMDL
MODEL 7
REMARK VINA RESULT:      -1.7      3.172      3.310
REMARK  1 active torsions:
REMARK  status: ('A' for Active; 'I' for Inactive)
REMARK    1  A    between atoms: C1_1  and  C2_2 
ROOT
HETATM    1  C1  UNL     1     -33.754   7.033   3.484  1.00 20.00     0.208 C 
HETATM    2  O3  UNL     1     -33.423   7.945   4.226  1.00 20.00    -0.284 OA
HETATM    3 BR5  UNL     1     -35.301   6.044   4.012  1.00 20.00    -0.008 Br
ENDROOT
BRANCH   1   4
HETATM    4  C2  UNL     1     -33.075   6.616   2.212  1.00 20.00     0.205 C 
HETATM    5 CL4  UNL     1     -31.944   7.871   1.684  1.00 20.00    -0.122 Cl
ENDBRANCH   1   4
TORSDOF 1
ENDMDL
MODEL 8
REMARK VINA RESULT:      -1.7      2.684      2.831
REMARK  1 active torsions:
REMARK  status: ('A' for Active; 'I' for Inactive)
REMARK    1  A    between atoms: C1_1  and  C2_2 
ROOT
HETATM    1  C1  UNL     1     -33.646   5.864   3.063  1.00 20.00     0.208 C 
HETATM    2  O3  UNL     1     -33.912   4.797   3.593  1.00 20.00    -0.284 OA
HETATM    3 BR5  UNL     1     -34.243   7.428   3.983  1.00 20.00    -0.008 Br
ENDROOT
BRANCH   1   4
HETATM    4  C2  UNL     1     -32.903   6.068   1.774  1.00 20.00     0.205 C 
HETATM    5 CL4  UNL     1     -32.097   7.644   1.778  1.00 20.00    -0.122 Cl
ENDBRANCH   1   4
TORSDOF 1
ENDMDL
MODEL 9
REMARK VINA RESULT:      -1.6      3.388      3.496
REMARK  1 active torsions:
REMARK  status: ('A' for Active; 'I' for Inactive)
REMARK    1  A    between atoms: C1_1  and  C2_2 
ROOT
HETATM    1  C1  UNL     1     -34.620   5.084   4.137  1.00 20.00     0.208 C 
HETATM    2  O3  UNL     1     -35.634   4.797   4.753  1.00 20.00    -0.284 OA
HETATM    3 BR5  UNL     1     -34.358   6.942   3.774  1.00 20.00    -0.008 Br
ENDROOT
BRANCH   1   4
HETATM    4  C2  UNL     1     -33.568   4.135   3.644  1.00 20.00     0.205 C 
HETATM    5 CL4  UNL     1     -33.189   2.940   4.894  1.00 20.00    -0.122 Cl
ENDBRANCH   1   4
TORSDOF 1
ENDMDL
