MODEL 1
REMARK VINA RESULT:       0.0      0.000      0.000
REMARK  0 active torsions:
REMARK  status: ('A' for Active; 'I' for Inactive)
ROOT
HETATM    1  C1  UNL     1     -32.012   6.258   1.562  1.00 20.00     0.345 C 
HETATM    2  C2  UNL     1     -33.740   5.559   3.123  1.00 20.00     0.345 C 
HETATM    3  C3  UNL     1     -32.690   8.072   3.518  1.00 20.00     0.151 C 
HETATM    4  N4  UNL     1     -33.286   5.565   1.735  1.00 20.00     0.101 N 
HETATM    5  S5  UNL     1     -32.117   8.056   1.799  1.00 20.00    -0.129 SA
HETATM    6  S6  UNL     1     -34.257   7.191   3.733  1.00 20.00    -0.129 SA
HETATM    7  H13 UNL     1     -33.993   6.007   1.150  1.00 20.00     0.317 HD
ENDROOT
TORSDOF 0
ENDMDL
MODEL 2
REMARK VINA RESULT:       0.1      1.659      3.040
REMARK  0 active torsions:
REMARK  status: ('A' for Active; 'I' for Inactive)
ROOT
HETATM    1  C1  UNL     1     -33.360   7.859   3.845  1.00 20.00     0.345 C 
HETATM    2  C2  UNL     1     -31.978   7.186   1.961  1.00 20.00     0.345 C 
HETATM    3  C3  UNL     1     -33.594   5.238   3.040  1.00 20.00     0.151 C 
HETATM    4  N4  UNL     1     -32.817   8.231   2.542  1.00 20.00     0.101 N 
HETATM    5  S5  UNL     1     -34.614   6.546   3.768  1.00 20.00    -0.129 SA
HETATM    6  S6  UNL     1     -32.902   5.713   1.435  1.00 20.00    -0.129 SA
HETATM    7  H13 UNL     1     -33.583   8.444   1.904  1.00 20.00     0.317 HD
ENDROOT
TORSDOF 0
ENDMDL
MODEL 3
REMARK VINA RESULT:       0.2      1.622      2.323
REMARK  0 active torsions:
REMARK  status: ('A' for Active; 'I' for Inactive)
ROOT
HETATM    1  C1  UNL     1     -32.977   5.715   1.583  1.00 20.00     0.345 C 
HETATM    2  C2  UNL     1     -32.482   8.021   2.176  1.00 20.00     0.345 C 
HETATM    3  C3  UNL     1     -34.422   6.771   3.675  1.00 20.00     0.151 C 
HETATM    4  N4  UNL     1     -31.942   6.729   1.762  1.00 20.00     0.101 N 
HETATM    5  S5  UNL     1     -33.751   5.176   3.137  1.00 20.00    -0.129 SA
HETATM    6  S6  UNL     1     -33.138   8.032   3.871  1.00 20.00    -0.129 SA
HETATM    7  H13 UNL     1     -31.268   6.407   2.455  1.00 20.00     0.317 HD
ENDROOT
TORSDOF 0
ENDMDL
MODEL 4
REMARK VINA RESULT:       0.4      1.827      2.369
REMARK  0 active torsions:
REMARK  status: ('A' for Active; 'I' for Inactive)
ROOT
HETATM    1  C1  UNL     1     -33.172   8.261   2.746  1.00 20.00     0.345 C 
HETATM    2  C2  UNL     1     -34.567   6.559   3.779  1.00 20.00     0.345 C 
HETATM    3  C3  UNL     1     -33.042   5.744   1.637  1.00 20.00     0.151 C 
HETATM    4  N4  UNL     1     -33.689   7.706   3.993  1.00 20.00     0.101 N 
HETATM    5  S5  UNL     1     -31.974   7.183   1.905  1.00 20.00    -0.129 SA
HETATM    6  S6  UNL     1     -33.702   5.074   3.185  1.00 20.00    -0.129 SA
HETATM    7  H13 UNL     1     -32.910   7.430   4.589  1.00 20.00     0.317 HD
ENDROOT
TORSDOF 0
ENDMDL
MODEL 5
REMARK VINA RESULT:       0.4      1.123      2.330
REMARK  0 active torsions:
REMARK  status: ('A' for Active; 'I' for Inactive)
ROOT
HETATM    1  C1  UNL     1     -34.451   6.417   3.535  1.00 20.00     0.345 C 
HETATM    2  C2  UNL     1     -33.050   5.794   1.649  1.00 20.00     0.345 C 
HETATM    3  C3  UNL     1     -32.868   8.409   2.486  1.00 20.00     0.151 C 
HETATM    4  N4  UNL     1     -33.591   5.396   2.945  1.00 20.00     0.101 N 
HETATM    5  S5  UNL     1     -33.557   7.902   4.083  1.00 20.00    -0.129 SA
HETATM    6  S6  UNL     1     -31.821   7.130   1.746  1.00 20.00    -0.129 SA
HETATM    7  H13 UNL     1     -32.824   5.190   3.583  1.00 20.00     0.317 HD
ENDROOT
TORSDOF 0
ENDMDL
MODEL 6
REMARK VINA RESULT:       0.5      1.595      2.524
REMARK  0 active torsions:
REMARK  status: ('A' for Active; 'I' for Inactive)
ROOT
HETATM    1  C1  UNL     1     -33.822   5.524   3.213  1.00 20.00     0.345 C 
HETATM    2  C2  UNL     1     -33.320   7.824   3.823  1.00 20.00     0.345 C 
HETATM    3  C3  UNL     1     -31.853   6.769   1.747  1.00 20.00     0.151 C 
HETATM    4  N4  UNL     1     -34.360   6.817   3.626  1.00 20.00     0.101 N 
HETATM    5  S5  UNL     1     -33.144   5.516   1.528  1.00 20.00    -0.129 SA
HETATM    6  S6  UNL     1     -32.522   8.365   2.282  1.00 20.00    -0.129 SA
HETATM    7  H13 UNL     1     -35.022   7.147   2.925  1.00 20.00     0.317 HD
ENDROOT
TORSDOF 0
ENDMDL
MODEL 7
REMARK VINA RESULT:       1.7      2.020      2.091
REMARK  0 active torsions:
REMARK  status: ('A' for Active; 'I' for Inactive)
ROOT
HETATM    1  C1  UNL     1     -32.796   4.518   3.104  1.00 20.00     0.345 C 
HETATM    2  C2  UNL     1     -34.630   4.826   4.670  1.00 20.00     0.345 C 
HETATM    3  C3  UNL     1     -33.833   7.062   3.278  1.00 20.00     0.151 C 
HETATM    4  N4  UNL     1     -34.023   3.959   3.664  1.00 20.00     0.101 N 
HETATM    5  S5  UNL     1     -33.070   5.973   2.048  1.00 20.00    -0.129 SA
HETATM    6  S6  UNL     1     -35.341   6.353   3.989  1.00 20.00    -0.129 SA
HETATM    7  H13 UNL     1     -34.692   3.791   2.914  1.00 20.00     0.317 HD
ENDROOT
TORSDOF 0
ENDMDL
