MODEL 1
REMARK VINA RESULT:      -1.1      0.000      0.000
REMARK  4 active torsions:
REMARK  status: ('A' for Active; 'I' for Inactive)
REMARK    1  A    between atoms: C1_1  and  N8_8 
REMARK    2  A    between atoms: C1_1  and  N9_9 
REMARK    3  A    between atoms: C6_6  and  N8_8 
REMARK    4  A    between atoms: C7_7  and  N9_9 
ROOT
HETATM    1  N9  UNL     1     -33.501   6.382   2.391  1.00 20.00    -0.220 NA
ENDROOT
BRANCH   1   2
HETATM    2  C1  UNL     1     -32.823   7.326   2.242  1.00 20.00     0.091 C 
BRANCH   2   3
HETATM    3  N8  UNL     1     -32.141   8.268   2.071  1.00 20.00    -0.231 NA
BRANCH   3   4
HETATM    4  C6  UNL     1     -31.931   8.618   0.664  1.00 20.00     0.156 C 
HETATM    5  C2  UNL     1     -32.511   9.993   0.405  1.00 20.00     0.029 C 
ENDBRANCH   3   4
ENDBRANCH   2   3
ENDBRANCH   1   2
BRANCH   1   6
HETATM    6  C7  UNL     1     -34.368   6.442   3.578  1.00 20.00     0.053 C 
HETATM    7  C3  UNL     1     -35.783   6.799   3.125  1.00 20.00     0.041 C 
HETATM    8  C4  UNL     1     -34.346   5.066   4.243  1.00 20.00     0.041 C 
HETATM    9  C5  UNL     1     -33.814   7.506   4.525  1.00 20.00     0.041 C 
ENDBRANCH   1   6
TORSDOF 4
ENDMDL
MODEL 2
REMARK VINA RESULT:      -1.1      0.015      1.455
REMARK  4 active torsions:
REMARK  status: ('A' for Active; 'I' for Inactive)
REMARK    1  A    between atoms: C1_1  and  N8_8 
REMARK    2  A    between atoms: C1_1  and  N9_9 
REMARK    3  A    between atoms: C6_6  and  N8_8 
REMARK    4  A    between atoms: C7_7  and  N9_9 
ROOT
HETATM    1  N9  UNL     1     -33.500   6.379   2.402  1.00 20.00    -0.220 NA
ENDROOT
BRANCH   1   2
HETATM    2  C1  UNL     1     -32.827   7.326   2.250  1.00 20.00     0.091 C 
BRANCH   2   3
HETATM    3  N8  UNL     1     -32.147   8.270   2.076  1.00 20.00    -0.231 NA
BRANCH   3   4
HETATM    4  C6  UNL     1     -31.937   8.614   0.668  1.00 20.00     0.156 C 
HETATM    5  C2  UNL     1     -32.502   9.996   0.407  1.00 20.00     0.029 C 
ENDBRANCH   3   4
ENDBRANCH   2   3
ENDBRANCH   1   2
BRANCH   1   6
HETATM    6  C7  UNL     1     -34.369   6.442   3.587  1.00 20.00     0.053 C 
HETATM    7  C3  UNL     1     -33.818   7.505   4.535  1.00 20.00     0.041 C 
HETATM    8  C4  UNL     1     -35.774   6.817   3.116  1.00 20.00     0.041 C 
HETATM    9  C5  UNL     1     -34.375   5.066   4.253  1.00 20.00     0.041 C 
ENDBRANCH   1   6
TORSDOF 4
ENDMDL
MODEL 3
REMARK VINA RESULT:      -1.1      0.041      1.444
REMARK  4 active torsions:
REMARK  status: ('A' for Active; 'I' for Inactive)
REMARK    1  A    between atoms: C1_1  and  N8_8 
REMARK    2  A    between atoms: C1_1  and  N9_9 
REMARK    3  A    between atoms: C6_6  and  N8_8 
REMARK    4  A    between atoms: C7_7  and  N9_9 
ROOT
HETATM    1  N9  UNL     1     -33.494   6.386   2.425  1.00 20.00    -0.220 NA
ENDROOT
BRANCH   1   2
HETATM    2  C1  UNL     1     -32.830   7.338   2.265  1.00 20.00     0.091 C 
BRANCH   2   3
HETATM    3  N8  UNL     1     -32.153   8.283   2.089  1.00 20.00    -0.231 NA
BRANCH   3   4
HETATM    4  C6  UNL     1     -31.937   8.621   0.680  1.00 20.00     0.156 C 
HETATM    5  C2  UNL     1     -32.512   9.996   0.408  1.00 20.00     0.029 C 
ENDBRANCH   3   4
ENDBRANCH   2   3
ENDBRANCH   1   2
BRANCH   1   6
HETATM    6  C7  UNL     1     -34.387   6.461   3.590  1.00 20.00     0.053 C 
HETATM    7  C3  UNL     1     -34.416   5.092   4.267  1.00 20.00     0.041 C 
HETATM    8  C4  UNL     1     -33.828   7.520   4.540  1.00 20.00     0.041 C 
HETATM    9  C5  UNL     1     -35.781   6.859   3.104  1.00 20.00     0.041 C 
ENDBRANCH   1   6
TORSDOF 4
ENDMDL
MODEL 4
REMARK VINA RESULT:      -0.4      1.340      4.222
REMARK  4 active torsions:
REMARK  status: ('A' for Active; 'I' for Inactive)
REMARK    1  A    between atoms: C1_1  and  N8_8 
REMARK    2  A    between atoms: C1_1  and  N9_9 
REMARK    3  A    between atoms: C6_6  and  N8_8 
REMARK    4  A    between atoms: C7_7  and  N9_9 
ROOT
HETATM    1  N9  UNL     1     -33.605   8.264   2.403  1.00 20.00    -0.220 NA
ENDROOT
BRANCH   1   2
HETATM    2  C1  UNL     1     -33.889   7.663   3.368  1.00 20.00     0.091 C 
BRANCH   2   3
HETATM    3  N8  UNL     1     -34.196   7.062   4.331  1.00 20.00    -0.231 NA
BRANCH   3   4
HETATM    4  C6  UNL     1     -35.171   5.994   4.095  1.00 20.00     0.156 C 
HETATM    5  C2  UNL     1     -34.457   4.658   4.120  1.00 20.00     0.029 C 
ENDBRANCH   3   4
ENDBRANCH   2   3
ENDBRANCH   1   2
BRANCH   1   6
HETATM    6  C7  UNL     1     -32.260   7.971   1.885  1.00 20.00     0.053 C 
HETATM    7  C3  UNL     1     -32.028   8.823   0.638  1.00 20.00     0.041 C 
HETATM    8  C4  UNL     1     -31.251   8.327   2.976  1.00 20.00     0.041 C 
HETATM    9  C5  UNL     1     -32.187   6.482   1.549  1.00 20.00     0.041 C 
ENDBRANCH   1   6
TORSDOF 4
ENDMDL
MODEL 5
REMARK VINA RESULT:      -0.4      1.349      4.215
REMARK  4 active torsions:
REMARK  status: ('A' for Active; 'I' for Inactive)
REMARK    1  A    between atoms: C1_1  and  N8_8 
REMARK    2  A    between atoms: C1_1  and  N9_9 
REMARK    3  A    between atoms: C6_6  and  N8_8 
REMARK    4  A    between atoms: C7_7  and  N9_9 
ROOT
HETATM    1  N9  UNL     1     -33.632   8.215   2.368  1.00 20.00    -0.220 NA
ENDROOT
BRANCH   1   2
HETATM    2  C1  UNL     1     -33.906   7.634   3.348  1.00 20.00     0.091 C 
BRANCH   2   3
HETATM    3  N8  UNL     1     -34.199   7.042   4.320  1.00 20.00    -0.231 NA
BRANCH   3   4
HETATM    4  C6  UNL     1     -35.168   5.965   4.106  1.00 20.00     0.156 C 
HETATM    5  C2  UNL     1     -34.441   4.635   4.117  1.00 20.00     0.029 C 
ENDBRANCH   3   4
ENDBRANCH   2   3
ENDBRANCH   1   2
BRANCH   1   6
HETATM    6  C7  UNL     1     -32.259   7.985   1.894  1.00 20.00     0.053 C 
HETATM    7  C3  UNL     1     -32.110   6.504   1.547  1.00 20.00     0.041 C 
HETATM    8  C4  UNL     1     -32.040   8.853   0.655  1.00 20.00     0.041 C 
HETATM    9  C5  UNL     1     -31.291   8.384   3.007  1.00 20.00     0.041 C 
ENDBRANCH   1   6
TORSDOF 4
ENDMDL
MODEL 6
REMARK VINA RESULT:      -0.4      1.345      4.199
REMARK  4 active torsions:
REMARK  status: ('A' for Active; 'I' for Inactive)
REMARK    1  A    between atoms: C1_1  and  N8_8 
REMARK    2  A    between atoms: C1_1  and  N9_9 
REMARK    3  A    between atoms: C6_6  and  N8_8 
REMARK    4  A    between atoms: C7_7  and  N9_9 
ROOT
HETATM    1  N9  UNL     1     -33.613   8.220   2.351  1.00 20.00    -0.220 NA
ENDROOT
BRANCH   1   2
HETATM    2  C1  UNL     1     -33.890   7.646   3.335  1.00 20.00     0.091 C 
BRANCH   2   3
HETATM    3  N8  UNL     1     -34.184   7.059   4.310  1.00 20.00    -0.231 NA
BRANCH   3   4
HETATM    4  C6  UNL     1     -35.165   5.991   4.103  1.00 20.00     0.156 C 
HETATM    5  C2  UNL     1     -34.451   4.655   4.113  1.00 20.00     0.029 C 
ENDBRANCH   3   4
ENDBRANCH   2   3
ENDBRANCH   1   2
BRANCH   1   6
HETATM    6  C7  UNL     1     -32.243   7.976   1.876  1.00 20.00     0.053 C 
HETATM    7  C3  UNL     1     -31.269   8.370   2.986  1.00 20.00     0.041 C 
HETATM    8  C4  UNL     1     -32.118   6.488   1.553  1.00 20.00     0.041 C 
HETATM    9  C5  UNL     1     -32.010   8.819   0.623  1.00 20.00     0.041 C 
ENDBRANCH   1   6
TORSDOF 4
ENDMDL
MODEL 7
REMARK VINA RESULT:      -0.4      1.596      2.460
REMARK  4 active torsions:
REMARK  status: ('A' for Active; 'I' for Inactive)
REMARK    1  A    between atoms: C1_1  and  N8_8 
REMARK    2  A    between atoms: C1_1  and  N9_9 
REMARK    3  A    between atoms: C6_6  and  N8_8 
REMARK    4  A    between atoms: C7_7  and  N9_9 
ROOT
HETATM    1  N9  UNL     1     -32.628   7.451   2.297  1.00 20.00    -0.220 NA
ENDROOT
BRANCH   1   2
HETATM    2  C1  UNL     1     -32.063   8.084   1.488  1.00 20.00     0.091 C 
BRANCH   2   3
HETATM    3  N8  UNL     1     -31.500   8.738   0.691  1.00 20.00    -0.231 NA
BRANCH   3   4
HETATM    4  C6  UNL     1     -32.376   9.548  -0.159  1.00 20.00     0.156 C 
HETATM    5  C2  UNL     1     -32.798  10.787   0.603  1.00 20.00     0.029 C 
ENDBRANCH   3   4
ENDBRANCH   2   3
ENDBRANCH   1   2
BRANCH   1   6
HETATM    6  C7  UNL     1     -32.951   6.081   1.871  1.00 20.00     0.053 C 
HETATM    7  C3  UNL     1     -31.645   5.345   1.579  1.00 20.00     0.041 C 
HETATM    8  C4  UNL     1     -33.707   5.403   3.014  1.00 20.00     0.041 C 
HETATM    9  C5  UNL     1     -33.825   6.158   0.620  1.00 20.00     0.041 C 
ENDBRANCH   1   6
TORSDOF 4
ENDMDL
MODEL 8
REMARK VINA RESULT:      -0.1      1.350      4.266
REMARK  4 active torsions:
REMARK  status: ('A' for Active; 'I' for Inactive)
REMARK    1  A    between atoms: C1_1  and  N8_8 
REMARK    2  A    between atoms: C1_1  and  N9_9 
REMARK    3  A    between atoms: C6_6  and  N8_8 
REMARK    4  A    between atoms: C7_7  and  N9_9 
ROOT
HETATM    1  N9  UNL     1     -33.131   7.168   3.183  1.00 20.00    -0.220 NA
ENDROOT
BRANCH   1   2
HETATM    2  C1  UNL     1     -34.155   6.664   3.447  1.00 20.00     0.091 C 
BRANCH   2   3
HETATM    3  N8  UNL     1     -35.185   6.174   3.730  1.00 20.00    -0.231 NA
BRANCH   3   4
HETATM    4  C6  UNL     1     -35.082   5.014   4.619  1.00 20.00     0.156 C 
HETATM    5  C2  UNL     1     -34.039   4.061   4.070  1.00 20.00     0.029 C 
ENDBRANCH   3   4
ENDBRANCH   2   3
ENDBRANCH   1   2
BRANCH   1   6
HETATM    6  C7  UNL     1     -32.662   6.899   1.815  1.00 20.00     0.053 C 
HETATM    7  C3  UNL     1     -31.880   8.116   1.324  1.00 20.00     0.041 C 
HETATM    8  C4  UNL     1     -31.761   5.665   1.865  1.00 20.00     0.041 C 
HETATM    9  C5  UNL     1     -33.880   6.640   0.930  1.00 20.00     0.041 C 
ENDBRANCH   1   6
TORSDOF 4
ENDMDL
MODEL 9
REMARK VINA RESULT:       0.0      1.819      4.676
REMARK  4 active torsions:
REMARK  status: ('A' for Active; 'I' for Inactive)
REMARK    1  A    between atoms: C1_1  and  N8_8 
REMARK    2  A    between atoms: C1_1  and  N9_9 
REMARK    3  A    between atoms: C6_6  and  N8_8 
REMARK    4  A    between atoms: C7_7  and  N9_9 
ROOT
HETATM    1  N9  UNL     1     -33.523   6.519   3.044  1.00 20.00    -0.220 NA
ENDROOT
BRANCH   1   2
HETATM    2  C1  UNL     1     -33.960   5.485   3.381  1.00 20.00     0.091 C 
BRANCH   2   3
HETATM    3  N8  UNL     1     -34.420   4.456   3.712  1.00 20.00    -0.231 NA
BRANCH   3   4
HETATM    4  C6  UNL     1     -33.807   3.874   4.909  1.00 20.00     0.156 C 
HETATM    5  C2  UNL     1     -33.077   2.604   4.524  1.00 20.00     0.029 C 
ENDBRANCH   3   4
ENDBRANCH   2   3
ENDBRANCH   1   2
BRANCH   1   6
HETATM    6  C7  UNL     1     -32.777   6.474   1.778  1.00 20.00     0.053 C 
HETATM    7  C3  UNL     1     -31.789   5.310   1.840  1.00 20.00     0.041 C 
HETATM    8  C4  UNL     1     -33.785   6.265   0.648  1.00 20.00     0.041 C 
HETATM    9  C5  UNL     1     -32.042   7.803   1.604  1.00 20.00     0.041 C 
ENDBRANCH   1   6
TORSDOF 4
ENDMDL
