MODEL 1
REMARK VINA RESULT:       2.6      0.000      0.000
REMARK  0 active torsions:
REMARK  status: ('A' for Active; 'I' for Inactive)
ROOT
HETATM    1  C1  UNL     1     -33.864   4.471   3.928  1.00 20.00     0.129 C 
HETATM    2  C2  UNL     1     -33.286   4.959   2.609  1.00 20.00     0.093 C 
HETATM    3  C3  UNL     1     -35.168   5.080   4.422  1.00 20.00     0.093 C 
HETATM    4  C4  UNL     1     -32.980   7.302   3.544  1.00 20.00     0.017 C 
HETATM    5  C5  UNL     1     -34.087   7.374   4.612  1.00 20.00     0.017 C 
HETATM    6  C6  UNL     1     -33.468   6.458   2.364  1.00 20.00     0.054 C 
HETATM    7  C7  UNL     1     -35.305   6.577   4.134  1.00 20.00     0.054 C 
HETATM    8  O8  UNL     1     -33.346   3.526   4.528  1.00 20.00    -0.298 OA
HETATM    9  S9  UNL     1     -35.234   6.832   2.349  1.00 20.00    -0.159 SA
ENDROOT
TORSDOF 0
ENDMDL
MODEL 2
REMARK VINA RESULT:       2.9      2.380      3.306
REMARK  0 active torsions:
REMARK  status: ('A' for Active; 'I' for Inactive)
ROOT
HETATM    1  C1  UNL     1     -33.697   7.239   3.538  1.00 20.00     0.129 C 
HETATM    2  C2  UNL     1     -32.406   7.995   3.264  1.00 20.00     0.093 C 
HETATM    3  C3  UNL     1     -33.837   5.820   3.004  1.00 20.00     0.093 C 
HETATM    4  C4  UNL     1     -32.832   7.929   0.759  1.00 20.00     0.017 C 
HETATM    5  C5  UNL     1     -33.675   6.650   0.606  1.00 20.00     0.017 C 
HETATM    6  C6  UNL     1     -31.809   7.730   1.881  1.00 20.00     0.054 C 
HETATM    7  C7  UNL     1     -33.206   5.607   1.627  1.00 20.00     0.054 C 
HETATM    8  O8  UNL     1     -34.564   7.722   4.269  1.00 20.00    -0.298 OA
HETATM    9  S9  UNL     1     -31.441   5.968   1.736  1.00 20.00    -0.159 SA
ENDROOT
TORSDOF 0
ENDMDL
MODEL 3
REMARK VINA RESULT:       3.2      1.356      1.651
REMARK  0 active torsions:
REMARK  status: ('A' for Active; 'I' for Inactive)
ROOT
HETATM    1  C1  UNL     1     -33.640   5.672   3.106  1.00 20.00     0.129 C 
HETATM    2  C2  UNL     1     -32.920   6.292   1.918  1.00 20.00     0.093 C 
HETATM    3  C3  UNL     1     -34.630   6.527   3.885  1.00 20.00     0.093 C 
HETATM    4  C4  UNL     1     -31.777   7.991   3.424  1.00 20.00     0.017 C 
HETATM    5  C5  UNL     1     -32.782   8.129   4.582  1.00 20.00     0.017 C 
HETATM    6  C6  UNL     1     -32.538   7.760   2.116  1.00 20.00     0.054 C 
HETATM    7  C7  UNL     1     -34.207   7.989   4.036  1.00 20.00     0.054 C 
HETATM    8  O8  UNL     1     -33.506   4.474   3.364  1.00 20.00    -0.298 OA
HETATM    9  S9  UNL     1     -34.044   8.718   2.393  1.00 20.00    -0.159 SA
ENDROOT
TORSDOF 0
ENDMDL
MODEL 4
REMARK VINA RESULT:       3.3      1.985      2.822
REMARK  0 active torsions:
REMARK  status: ('A' for Active; 'I' for Inactive)
ROOT
HETATM    1  C1  UNL     1     -33.004   5.917   1.995  1.00 20.00     0.129 C 
HETATM    2  C2  UNL     1     -33.350   5.086   3.220  1.00 20.00     0.093 C 
HETATM    3  C3  UNL     1     -32.685   7.394   2.183  1.00 20.00     0.093 C 
HETATM    4  C4  UNL     1     -35.424   6.488   3.656  1.00 20.00     0.017 C 
HETATM    5  C5  UNL     1     -35.034   7.846   3.046  1.00 20.00     0.017 C 
HETATM    6  C6  UNL     1     -34.183   5.830   4.265  1.00 20.00     0.054 C 
HETATM    7  C7  UNL     1     -33.534   8.083   3.252  1.00 20.00     0.054 C 
HETATM    8  O8  UNL     1     -32.877   5.385   0.890  1.00 20.00    -0.298 OA
HETATM    9  S9  UNL     1     -33.248   7.266   4.836  1.00 20.00    -0.159 SA
ENDROOT
TORSDOF 0
ENDMDL
MODEL 5
REMARK VINA RESULT:       3.3      2.068      3.424
REMARK  0 active torsions:
REMARK  status: ('A' for Active; 'I' for Inactive)
ROOT
HETATM    1  C1  UNL     1     -33.011   7.734   3.683  1.00 20.00     0.129 C 
HETATM    2  C2  UNL     1     -34.225   6.823   3.598  1.00 20.00     0.093 C 
HETATM    3  C3  UNL     1     -32.289   8.108   2.396  1.00 20.00     0.093 C 
HETATM    4  C4  UNL     1     -32.806   4.923   2.683  1.00 20.00     0.017 C 
HETATM    5  C5  UNL     1     -31.666   5.678   1.976  1.00 20.00     0.017 C 
HETATM    6  C6  UNL     1     -34.106   5.720   2.544  1.00 20.00     0.054 C 
HETATM    7  C7  UNL     1     -32.215   6.975   1.371  1.00 20.00     0.054 C 
HETATM    8  O8  UNL     1     -32.685   8.247   4.755  1.00 20.00    -0.298 OA
HETATM    9  S9  UNL     1     -33.895   6.488   0.923  1.00 20.00    -0.159 SA
ENDROOT
TORSDOF 0
ENDMDL
MODEL 6
REMARK VINA RESULT:       3.5      2.605      3.290
REMARK  0 active torsions:
REMARK  status: ('A' for Active; 'I' for Inactive)
ROOT
HETATM    1  C1  UNL     1     -32.455   7.756   1.999  1.00 20.00     0.129 C 
HETATM    2  C2  UNL     1     -32.919   6.365   1.595  1.00 20.00     0.093 C 
HETATM    3  C3  UNL     1     -32.261   8.058   3.478  1.00 20.00     0.093 C 
HETATM    4  C4  UNL     1     -35.119   6.677   2.828  1.00 20.00     0.017 C 
HETATM    5  C5  UNL     1     -34.732   7.674   3.936  1.00 20.00     0.017 C 
HETATM    6  C6  UNL     1     -33.937   5.743   2.552  1.00 20.00     0.054 C 
HETATM    7  C7  UNL     1     -33.295   7.396   4.390  1.00 20.00     0.054 C 
HETATM    8  O8  UNL     1     -32.139   8.584   1.143  1.00 20.00    -0.298 OA
HETATM    9  S9  UNL     1     -33.186   5.606   4.188  1.00 20.00    -0.159 SA
ENDROOT
TORSDOF 0
ENDMDL
MODEL 7
REMARK VINA RESULT:       3.8      2.710      3.407
REMARK  0 active torsions:
REMARK  status: ('A' for Active; 'I' for Inactive)
ROOT
HETATM    1  C1  UNL     1     -32.282   7.964   2.122  1.00 20.00     0.129 C 
HETATM    2  C2  UNL     1     -31.961   6.641   1.445  1.00 20.00     0.093 C 
HETATM    3  C3  UNL     1     -32.931   7.939   3.499  1.00 20.00     0.093 C 
HETATM    4  C4  UNL     1     -34.425   6.025   1.354  1.00 20.00     0.017 C 
HETATM    5  C5  UNL     1     -34.997   6.789   2.562  1.00 20.00     0.017 C 
HETATM    6  C6  UNL     1     -33.006   5.549   1.680  1.00 20.00     0.054 C 
HETATM    7  C7  UNL     1     -33.954   6.817   3.684  1.00 20.00     0.054 C 
HETATM    8  O8  UNL     1     -31.924   9.030   1.618  1.00 20.00    -0.298 OA
HETATM    9  S9  UNL     1     -33.124   5.231   3.453  1.00 20.00    -0.159 SA
ENDROOT
TORSDOF 0
ENDMDL
MODEL 8
REMARK VINA RESULT:       4.0      3.924      4.895
REMARK  0 active torsions:
REMARK  status: ('A' for Active; 'I' for Inactive)
ROOT
HETATM    1  C1  UNL     1     -32.498   9.409   0.265  1.00 20.00     0.129 C 
HETATM    2  C2  UNL     1     -31.269   8.514   0.217  1.00 20.00     0.093 C 
HETATM    3  C3  UNL     1     -33.006   9.875   1.622  1.00 20.00     0.093 C 
HETATM    4  C4  UNL     1     -32.484   6.680   1.490  1.00 20.00     0.017 C 
HETATM    5  C5  UNL     1     -33.507   7.480   2.317  1.00 20.00     0.017 C 
HETATM    6  C6  UNL     1     -31.194   7.494   1.354  1.00 20.00     0.054 C 
HETATM    7  C7  UNL     1     -32.890   8.822   2.726  1.00 20.00     0.054 C 
HETATM    8  O8  UNL     1     -33.004   9.836  -0.774  1.00 20.00    -0.298 OA
HETATM    9  S9  UNL     1     -31.151   8.382   2.927  1.00 20.00    -0.159 SA
ENDROOT
TORSDOF 0
ENDMDL
MODEL 9
REMARK VINA RESULT:       4.0      2.433      3.443
REMARK  0 active torsions:
REMARK  status: ('A' for Active; 'I' for Inactive)
ROOT
HETATM    1  C1  UNL     1     -32.899   6.040   1.759  1.00 20.00     0.129 C 
HETATM    2  C2  UNL     1     -33.653   6.289   3.056  1.00 20.00     0.093 C 
HETATM    3  C3  UNL     1     -31.616   6.818   1.502  1.00 20.00     0.093 C 
HETATM    4  C4  UNL     1     -34.087   8.708   2.408  1.00 20.00     0.017 C 
HETATM    5  C5  UNL     1     -32.889   9.020   1.492  1.00 20.00     0.017 C 
HETATM    6  C6  UNL     1     -33.642   7.748   3.515  1.00 20.00     0.054 C 
HETATM    7  C7  UNL     1     -31.654   8.265   1.997  1.00 20.00     0.054 C 
HETATM    8  O8  UNL     1     -33.259   5.151   0.985  1.00 20.00    -0.298 OA
HETATM    9  S9  UNL     1     -31.931   8.260   3.781  1.00 20.00    -0.159 SA
ENDROOT
TORSDOF 0
ENDMDL
