MODEL 1
REMARK VINA RESULT:      -2.8      0.000      0.000
REMARK  3 active torsions:
REMARK  status: ('A' for Active; 'I' for Inactive)
REMARK    1  A    between atoms: C1_1  and  C2_2 
REMARK    2  A    between atoms: C4_4  and  C6_6 
REMARK    3  A    between atoms: C6_6  and  O7_7 
ROOT
HETATM    1  C2  UNL     1     -33.277   7.496   2.758  1.00 20.00    -0.002 C 
HETATM    2  C4  UNL     1     -33.898   6.404   3.228  1.00 20.00    -0.001 C 
ENDROOT
BRANCH   1   3
HETATM    3  C1  UNL     1     -32.059   7.442   1.983  1.00 20.00    -0.005 C 
HETATM    4  C3  UNL     1     -31.744   8.349   1.045  1.00 20.00    -0.031 C 
HETATM    5  C5  UNL     1     -32.612   9.513   0.696  1.00 20.00     0.036 C 
ENDBRANCH   1   3
BRANCH   2   6
HETATM    6  C6  UNL     1     -35.160   6.451   4.026  1.00 20.00     0.191 C 
BRANCH   6   7
HETATM    7  O7  UNL     1     -35.522   5.136   4.429  1.00 20.00    -0.397 OA
HETATM    8  H17 UNL     1     -36.482   5.059   4.306  1.00 20.00     0.209 HD
ENDBRANCH   6   7
ENDBRANCH   2   6
TORSDOF 3
ENDMDL
MODEL 2
REMARK VINA RESULT:      -2.7      2.515      4.507
REMARK  3 active torsions:
REMARK  status: ('A' for Active; 'I' for Inactive)
REMARK    1  A    between atoms: C1_1  and  C2_2 
REMARK    2  A    between atoms: C4_4  and  C6_6 
REMARK    3  A    between atoms: C6_6  and  O7_7 
ROOT
HETATM    1  C2  UNL     1     -33.732   7.094   3.528  1.00 20.00    -0.002 C 
HETATM    2  C4  UNL     1     -33.278   7.064   2.267  1.00 20.00    -0.001 C 
ENDROOT
BRANCH   1   3
HETATM    3  C1  UNL     1     -34.997   6.523   3.928  1.00 20.00    -0.005 C 
HETATM    4  C3  UNL     1     -35.152   5.229   4.247  1.00 20.00    -0.031 C 
HETATM    5  C5  UNL     1     -34.038   4.233   4.226  1.00 20.00     0.036 C 
ENDBRANCH   1   3
BRANCH   2   6
HETATM    6  C6  UNL     1     -31.968   7.648   1.846  1.00 20.00     0.191 C 
BRANCH   6   7
HETATM    7  O7  UNL     1     -32.191   8.845   1.111  1.00 20.00    -0.397 OA
HETATM    8  H17 UNL     1     -31.632   8.795   0.318  1.00 20.00     0.209 HD
ENDBRANCH   6   7
ENDBRANCH   2   6
TORSDOF 3
ENDMDL
MODEL 3
REMARK VINA RESULT:      -2.3      1.177      1.656
REMARK  3 active torsions:
REMARK  status: ('A' for Active; 'I' for Inactive)
REMARK    1  A    between atoms: C1_1  and  C2_2 
REMARK    2  A    between atoms: C4_4  and  C6_6 
REMARK    3  A    between atoms: C6_6  and  O7_7 
ROOT
HETATM    1  C2  UNL     1     -33.435   7.379   3.615  1.00 20.00    -0.002 C 
HETATM    2  C4  UNL     1     -34.558   6.700   3.342  1.00 20.00    -0.001 C 
ENDROOT
BRANCH   1   3
HETATM    3  C1  UNL     1     -32.589   7.954   2.593  1.00 20.00    -0.005 C 
HETATM    4  C3  UNL     1     -32.047   7.235   1.599  1.00 20.00    -0.031 C 
HETATM    5  C5  UNL     1     -32.252   5.765   1.434  1.00 20.00     0.036 C 
ENDBRANCH   1   3
BRANCH   2   6
HETATM    6  C6  UNL     1     -35.440   6.106   4.392  1.00 20.00     0.191 C 
BRANCH   6   7
HETATM    7  O7  UNL     1     -35.244   4.699   4.444  1.00 20.00    -0.397 OA
HETATM    8  H17 UNL     1     -34.295   4.543   4.305  1.00 20.00     0.209 HD
ENDBRANCH   6   7
ENDBRANCH   2   6
TORSDOF 3
ENDMDL
MODEL 4
REMARK VINA RESULT:      -2.2      3.001      4.498
REMARK  3 active torsions:
REMARK  status: ('A' for Active; 'I' for Inactive)
REMARK    1  A    between atoms: C1_1  and  C2_2 
REMARK    2  A    between atoms: C4_4  and  C6_6 
REMARK    3  A    between atoms: C6_6  and  O7_7 
ROOT
HETATM    1  C2  UNL     1     -32.517   7.928   1.890  1.00 20.00    -0.002 C 
HETATM    2  C4  UNL     1     -32.346   8.438   0.662  1.00 20.00    -0.001 C 
ENDROOT
BRANCH   1   3
HETATM    3  C1  UNL     1     -32.619   6.511   2.152  1.00 20.00    -0.005 C 
HETATM    4  C3  UNL     1     -33.537   5.979   2.971  1.00 20.00    -0.031 C 
HETATM    5  C5  UNL     1     -34.558   6.786   3.706  1.00 20.00     0.036 C 
ENDBRANCH   1   3
BRANCH   2   6
HETATM    6  C6  UNL     1     -32.236   9.903   0.383  1.00 20.00     0.191 C 
BRANCH   6   7
HETATM    7  O7  UNL     1     -33.012  10.233  -0.761  1.00 20.00    -0.397 OA
HETATM    8  H17 UNL     1     -33.852  10.596  -0.434  1.00 20.00     0.209 HD
ENDBRANCH   6   7
ENDBRANCH   2   6
TORSDOF 3
ENDMDL
MODEL 5
REMARK VINA RESULT:      -2.0      2.769      3.574
REMARK  3 active torsions:
REMARK  status: ('A' for Active; 'I' for Inactive)
REMARK    1  A    between atoms: C1_1  and  C2_2 
REMARK    2  A    between atoms: C4_4  and  C6_6 
REMARK    3  A    between atoms: C6_6  and  O7_7 
ROOT
HETATM    1  C2  UNL     1     -34.111   5.246   3.696  1.00 20.00    -0.002 C 
HETATM    2  C4  UNL     1     -34.269   4.155   4.460  1.00 20.00    -0.001 C 
ENDROOT
BRANCH   1   3
HETATM    3  C1  UNL     1     -34.976   6.400   3.775  1.00 20.00    -0.005 C 
HETATM    4  C3  UNL     1     -34.528   7.637   4.038  1.00 20.00    -0.031 C 
HETATM    5  C5  UNL     1     -33.089   7.962   4.278  1.00 20.00     0.036 C 
ENDBRANCH   1   3
BRANCH   2   6
HETATM    6  C6  UNL     1     -33.376   2.959   4.387  1.00 20.00     0.191 C 
BRANCH   6   7
HETATM    7  O7  UNL     1     -32.521   2.928   5.523  1.00 20.00    -0.397 OA
HETATM    8  H17 UNL     1     -32.671   2.075   5.963  1.00 20.00     0.209 HD
ENDBRANCH   6   7
ENDBRANCH   2   6
TORSDOF 3
ENDMDL
MODEL 6
REMARK VINA RESULT:      -1.8      2.693      4.229
REMARK  3 active torsions:
REMARK  status: ('A' for Active; 'I' for Inactive)
REMARK    1  A    between atoms: C1_1  and  C2_2 
REMARK    2  A    between atoms: C4_4  and  C6_6 
REMARK    3  A    between atoms: C6_6  and  O7_7 
ROOT
HETATM    1  C2  UNL     1     -32.956   7.133   1.532  1.00 20.00    -0.002 C 
HETATM    2  C4  UNL     1     -31.840   7.860   1.688  1.00 20.00    -0.001 C 
ENDROOT
BRANCH   1   3
HETATM    3  C1  UNL     1     -33.280   5.993   2.360  1.00 20.00    -0.005 C 
HETATM    4  C3  UNL     1     -33.991   6.087   3.493  1.00 20.00    -0.031 C 
HETATM    5  C5  UNL     1     -34.528   7.374   4.029  1.00 20.00     0.036 C 
ENDBRANCH   1   3
BRANCH   2   6
HETATM    6  C6  UNL     1     -31.500   9.043   0.840  1.00 20.00     0.191 C 
BRANCH   6   7
HETATM    7  O7  UNL     1     -32.678   9.548   0.226  1.00 20.00    -0.397 OA
HETATM    8  H17 UNL     1     -32.482   9.645  -0.721  1.00 20.00     0.209 HD
ENDBRANCH   6   7
ENDBRANCH   2   6
TORSDOF 3
ENDMDL
MODEL 7
REMARK VINA RESULT:      -1.6      2.181      2.919
REMARK  3 active torsions:
REMARK  status: ('A' for Active; 'I' for Inactive)
REMARK    1  A    between atoms: C1_1  and  C2_2 
REMARK    2  A    between atoms: C4_4  and  C6_6 
REMARK    3  A    between atoms: C6_6  and  O7_7 
ROOT
HETATM    1  C2  UNL     1     -33.842   5.452   3.469  1.00 20.00    -0.002 C 
HETATM    2  C4  UNL     1     -34.144   4.492   4.355  1.00 20.00    -0.001 C 
ENDROOT
BRANCH   1   3
HETATM    3  C1  UNL     1     -34.330   6.808   3.575  1.00 20.00    -0.005 C 
HETATM    4  C3  UNL     1     -33.680   7.864   3.064  1.00 20.00    -0.031 C 
HETATM    5  C5  UNL     1     -32.383   7.762   2.329  1.00 20.00     0.036 C 
ENDBRANCH   1   3
BRANCH   2   6
HETATM    6  C6  UNL     1     -33.640   3.088   4.255  1.00 20.00     0.191 C 
BRANCH   6   7
HETATM    7  O7  UNL     1     -32.666   2.855   5.265  1.00 20.00    -0.397 OA
HETATM    8  H17 UNL     1     -32.279   1.983   5.084  1.00 20.00     0.209 HD
ENDBRANCH   6   7
ENDBRANCH   2   6
TORSDOF 3
ENDMDL
MODEL 8
REMARK VINA RESULT:      -1.5      3.221      4.495
REMARK  3 active torsions:
REMARK  status: ('A' for Active; 'I' for Inactive)
REMARK    1  A    between atoms: C1_1  and  C2_2 
REMARK    2  A    between atoms: C4_4  and  C6_6 
REMARK    3  A    between atoms: C6_6  and  O7_7 
ROOT
HETATM    1  C2  UNL     1     -32.074   8.130   1.473  1.00 20.00    -0.002 C 
HETATM    2  C4  UNL     1     -32.718   9.272   1.190  1.00 20.00    -0.001 C 
ENDROOT
BRANCH   1   3
HETATM    3  C1  UNL     1     -32.509   7.210   2.499  1.00 20.00    -0.005 C 
HETATM    4  C3  UNL     1     -32.910   5.957   2.239  1.00 20.00    -0.031 C 
HETATM    5  C5  UNL     1     -32.953   5.369   0.866  1.00 20.00     0.036 C 
ENDBRANCH   1   3
BRANCH   2   6
HETATM    6  C6  UNL     1     -32.277  10.227   0.128  1.00 20.00     0.191 C 
BRANCH   6   7
HETATM    7  O7  UNL     1     -33.011   9.989  -1.066  1.00 20.00    -0.397 OA
HETATM    8  H17 UNL     1     -32.870   9.057  -1.301  1.00 20.00     0.209 HD
ENDBRANCH   6   7
ENDBRANCH   2   6
TORSDOF 3
ENDMDL
MODEL 9
REMARK VINA RESULT:      -1.4      2.420      2.768
REMARK  3 active torsions:
REMARK  status: ('A' for Active; 'I' for Inactive)
REMARK    1  A    between atoms: C1_1  and  C2_2 
REMARK    2  A    between atoms: C4_4  and  C6_6 
REMARK    3  A    between atoms: C6_6  and  O7_7 
ROOT
HETATM    1  C2  UNL     1     -32.051   7.917   1.430  1.00 20.00    -0.002 C 
HETATM    2  C4  UNL     1     -32.930   7.057   1.966  1.00 20.00    -0.001 C 
ENDROOT
BRANCH   1   3
HETATM    3  C1  UNL     1     -32.123   9.347   1.627  1.00 20.00    -0.005 C 
HETATM    4  C3  UNL     1     -32.444  10.208   0.650  1.00 20.00    -0.031 C 
HETATM    5  C5  UNL     1     -32.763   9.791  -0.749  1.00 20.00     0.036 C 
ENDBRANCH   1   3
BRANCH   2   6
HETATM    6  C6  UNL     1     -32.860   5.577   1.771  1.00 20.00     0.191 C 
BRANCH   6   7
HETATM    7  O7  UNL     1     -31.649   5.237   1.109  1.00 20.00    -0.397 OA
HETATM    8  H17 UNL     1     -30.925   5.456   1.718  1.00 20.00     0.209 HD
ENDBRANCH   6   7
ENDBRANCH   2   6
TORSDOF 3
ENDMDL
