MODEL 1
REMARK VINA RESULT:      -2.9      0.000      0.000
REMARK  2 active torsions:
REMARK  status: ('A' for Active; 'I' for Inactive)
REMARK    1  A    between atoms: C1_1  and  C3_3 
REMARK    2  A    between atoms: C2_2  and  C5_5 
ROOT
HETATM    1  C1  UNL     1     -34.843   6.752   3.975  1.00 20.00     0.003 C 
HETATM    2  C2  UNL     1     -35.093   5.448   4.142  1.00 20.00     0.041 C 
ENDROOT
BRANCH   1   3
HETATM    3  C3  UNL     1     -33.550   7.253   3.562  1.00 20.00    -0.004 C 
HETATM    4  C4  UNL     1     -33.202   7.416   2.278  1.00 20.00    -0.031 C 
HETATM    5  C6  UNL     1     -31.872   7.932   1.839  1.00 20.00     0.036 C 
ENDBRANCH   1   3
BRANCH   2   6
HETATM    6  C5  UNL     1     -34.010   4.474   3.897  1.00 20.00     0.258 C 
HETATM    7  O7  UNL     1     -33.960   3.400   4.482  1.00 20.00    -0.302 OA
ENDBRANCH   2   6
TORSDOF 2
ENDMDL
MODEL 2
REMARK VINA RESULT:      -2.8      3.297      4.949
REMARK  2 active torsions:
REMARK  status: ('A' for Active; 'I' for Inactive)
REMARK    1  A    between atoms: C1_1  and  C3_3 
REMARK    2  A    between atoms: C2_2  and  C5_5 
ROOT
HETATM    1  C1  UNL     1     -31.968   7.520   1.833  1.00 20.00     0.003 C 
HETATM    2  C2  UNL     1     -31.640   8.439   0.916  1.00 20.00     0.041 C 
ENDROOT
BRANCH   1   3
HETATM    3  C3  UNL     1     -33.195   7.582   2.596  1.00 20.00    -0.004 C 
HETATM    4  C4  UNL     1     -33.769   6.504   3.150  1.00 20.00    -0.031 C 
HETATM    5  C6  UNL     1     -35.035   6.555   3.940  1.00 20.00     0.036 C 
ENDBRANCH   1   3
BRANCH   2   6
HETATM    6  C5  UNL     1     -32.565   9.564   0.668  1.00 20.00     0.258 C 
HETATM    7  O7  UNL     1     -32.805   9.967  -0.464  1.00 20.00    -0.302 OA
ENDBRANCH   2   6
TORSDOF 2
ENDMDL
MODEL 3
REMARK VINA RESULT:      -2.7      1.953      2.840
REMARK  2 active torsions:
REMARK  status: ('A' for Active; 'I' for Inactive)
REMARK    1  A    between atoms: C1_1  and  C3_3 
REMARK    2  A    between atoms: C2_2  and  C5_5 
ROOT
HETATM    1  C1  UNL     1     -32.351   6.806   1.726  1.00 20.00     0.003 C 
HETATM    2  C2  UNL     1     -33.179   6.170   2.564  1.00 20.00     0.041 C 
ENDROOT
BRANCH   1   3
HETATM    3  C3  UNL     1     -32.280   8.248   1.642  1.00 20.00    -0.004 C 
HETATM    4  C4  UNL     1     -32.476   8.927   0.503  1.00 20.00    -0.031 C 
HETATM    5  C6  UNL     1     -32.406  10.416   0.404  1.00 20.00     0.036 C 
ENDBRANCH   1   3
BRANCH   2   6
HETATM    6  C5  UNL     1     -34.059   6.968   3.442  1.00 20.00     0.258 C 
HETATM    7  O7  UNL     1     -35.101   6.514   3.900  1.00 20.00    -0.302 OA
ENDBRANCH   2   6
TORSDOF 2
ENDMDL
MODEL 4
REMARK VINA RESULT:      -2.6      2.169      3.763
REMARK  2 active torsions:
REMARK  status: ('A' for Active; 'I' for Inactive)
REMARK    1  A    between atoms: C1_1  and  C3_3 
REMARK    2  A    between atoms: C2_2  and  C5_5 
ROOT
HETATM    1  C1  UNL     1     -35.065   6.103   3.945  1.00 20.00     0.003 C 
HETATM    2  C2  UNL     1     -34.571   7.346   3.883  1.00 20.00     0.041 C 
ENDROOT
BRANCH   1   3
HETATM    3  C3  UNL     1     -34.246   4.927   3.755  1.00 20.00    -0.004 C 
HETATM    4  C4  UNL     1     -34.050   4.007   4.711  1.00 20.00    -0.031 C 
HETATM    5  C6  UNL     1     -33.206   2.788   4.526  1.00 20.00     0.036 C 
ENDBRANCH   1   3
BRANCH   2   6
HETATM    6  C5  UNL     1     -33.132   7.531   3.610  1.00 20.00     0.258 C 
HETATM    7  O7  UNL     1     -32.714   7.793   2.489  1.00 20.00    -0.302 OA
ENDBRANCH   2   6
TORSDOF 2
ENDMDL
MODEL 5
REMARK VINA RESULT:      -2.0      1.736      2.200
REMARK  2 active torsions:
REMARK  status: ('A' for Active; 'I' for Inactive)
REMARK    1  A    between atoms: C1_1  and  C3_3 
REMARK    2  A    between atoms: C2_2  and  C5_5 
ROOT
HETATM    1  C1  UNL     1     -33.389   7.375   3.226  1.00 20.00     0.003 C 
HETATM    2  C2  UNL     1     -34.359   7.200   4.132  1.00 20.00     0.041 C 
ENDROOT
BRANCH   1   3
HETATM    3  C3  UNL     1     -33.289   6.575   2.026  1.00 20.00    -0.004 C 
HETATM    4  C4  UNL     1     -32.281   5.721   1.795  1.00 20.00    -0.031 C 
HETATM    5  C6  UNL     1     -32.166   4.889   0.561  1.00 20.00     0.036 C 
ENDBRANCH   1   3
BRANCH   2   6
HETATM    6  C5  UNL     1     -35.371   6.149   3.904  1.00 20.00     0.258 C 
HETATM    7  O7  UNL     1     -35.336   5.078   4.497  1.00 20.00    -0.302 OA
ENDBRANCH   2   6
TORSDOF 2
ENDMDL
MODEL 6
REMARK VINA RESULT:      -1.9      1.869      3.492
REMARK  2 active torsions:
REMARK  status: ('A' for Active; 'I' for Inactive)
REMARK    1  A    between atoms: C1_1  and  C3_3 
REMARK    2  A    between atoms: C2_2  and  C5_5 
ROOT
HETATM    1  C1  UNL     1     -32.746   8.061   2.690  1.00 20.00     0.003 C 
HETATM    2  C2  UNL     1     -32.023   7.532   1.695  1.00 20.00     0.041 C 
ENDROOT
BRANCH   1   3
HETATM    3  C3  UNL     1     -33.462   7.252   3.651  1.00 20.00    -0.004 C 
HETATM    4  C4  UNL     1     -34.689   6.760   3.428  1.00 20.00    -0.031 C 
HETATM    5  C6  UNL     1     -35.438   5.924   4.412  1.00 20.00     0.036 C 
ENDBRANCH   1   3
BRANCH   2   6
HETATM    6  C5  UNL     1     -31.947   6.062   1.569  1.00 20.00     0.258 C 
HETATM    7  O7  UNL     1     -32.762   5.427   0.911  1.00 20.00    -0.302 OA
ENDBRANCH   2   6
TORSDOF 2
ENDMDL
MODEL 7
REMARK VINA RESULT:      -1.7      4.033      5.105
REMARK  2 active torsions:
REMARK  status: ('A' for Active; 'I' for Inactive)
REMARK    1  A    between atoms: C1_1  and  C3_3 
REMARK    2  A    between atoms: C2_2  and  C5_5 
ROOT
HETATM    1  C1  UNL     1     -32.282   8.458   2.085  1.00 20.00     0.003 C 
HETATM    2  C2  UNL     1     -32.435   9.589   1.384  1.00 20.00     0.041 C 
ENDROOT
BRANCH   1   3
HETATM    3  C3  UNL     1     -31.907   7.204   1.471  1.00 20.00    -0.004 C 
HETATM    4  C4  UNL     1     -32.645   6.089   1.569  1.00 20.00    -0.031 C 
HETATM    5  C6  UNL     1     -32.269   4.788   0.939  1.00 20.00     0.036 C 
ENDBRANCH   1   3
BRANCH   2   6
HETATM    6  C5  UNL     1     -32.213   9.562  -0.076  1.00 20.00     0.258 C 
HETATM    7  O7  UNL     1     -33.068   9.939  -0.867  1.00 20.00    -0.302 OA
ENDBRANCH   2   6
TORSDOF 2
ENDMDL
MODEL 8
REMARK VINA RESULT:      -1.7      2.449      3.197
REMARK  2 active torsions:
REMARK  status: ('A' for Active; 'I' for Inactive)
REMARK    1  A    between atoms: C1_1  and  C3_3 
REMARK    2  A    between atoms: C2_2  and  C5_5 
ROOT
HETATM    1  C1  UNL     1     -32.525   8.016   2.570  1.00 20.00     0.003 C 
HETATM    2  C2  UNL     1     -32.930   6.747   2.700  1.00 20.00     0.041 C 
ENDROOT
BRANCH   1   3
HETATM    3  C3  UNL     1     -32.073   8.566   1.312  1.00 20.00    -0.004 C 
HETATM    4  C4  UNL     1     -32.650   9.623   0.722  1.00 20.00    -0.031 C 
HETATM    5  C6  UNL     1     -32.192  10.200  -0.577  1.00 20.00     0.036 C 
ENDBRANCH   1   3
BRANCH   2   6
HETATM    6  C5  UNL     1     -32.916   5.866   1.515  1.00 20.00     0.258 C 
HETATM    7  O7  UNL     1     -31.949   5.166   1.239  1.00 20.00    -0.302 OA
ENDBRANCH   2   6
TORSDOF 2
ENDMDL
MODEL 9
REMARK VINA RESULT:      -1.6      2.064      3.752
REMARK  2 active torsions:
REMARK  status: ('A' for Active; 'I' for Inactive)
REMARK    1  A    between atoms: C1_1  and  C3_3 
REMARK    2  A    between atoms: C2_2  and  C5_5 
ROOT
HETATM    1  C1  UNL     1     -34.313   6.029   3.765  1.00 20.00     0.003 C 
HETATM    2  C2  UNL     1     -33.735   6.712   2.769  1.00 20.00     0.041 C 
ENDROOT
BRANCH   1   3
HETATM    3  C3  UNL     1     -34.279   4.586   3.845  1.00 20.00    -0.004 C 
HETATM    4  C4  UNL     1     -33.348   3.910   4.532  1.00 20.00    -0.031 C 
HETATM    5  C6  UNL     1     -33.303   2.420   4.622  1.00 20.00     0.036 C 
ENDBRANCH   1   3
BRANCH   2   6
HETATM    6  C5  UNL     1     -33.032   5.967   1.705  1.00 20.00     0.258 C 
HETATM    7  O7  UNL     1     -31.809   5.925   1.644  1.00 20.00    -0.302 OA
ENDBRANCH   2   6
TORSDOF 2
ENDMDL
