MODEL 1
REMARK VINA RESULT:       0.5      0.000      0.000
REMARK  2 active torsions:
REMARK  status: ('A' for Active; 'I' for Inactive)
REMARK    1  A    between atoms: C4_4  and  C10_10 
REMARK    2  A    between atoms: C10_10  and  O11_11 
ROOT
HETATM    1  C1  UNL     1     -33.523   5.660   3.323  1.00 20.00    -0.069 C 
HETATM    2  C2  UNL     1     -34.097   4.645   3.973  1.00 20.00    -0.085 C 
HETATM    3  C3  UNL     1     -32.357   5.732   2.361  1.00 20.00     0.043 C 
HETATM    4  C4  UNL     1     -32.959   7.100   1.952  1.00 20.00     0.025 C 
HETATM    5  C5  UNL     1     -33.785   7.168   3.291  1.00 20.00    -0.018 C 
HETATM    6  C6  UNL     1     -35.270   4.844   4.891  1.00 20.00     0.043 C 
HETATM    7  C7  UNL     1     -33.608   3.230   3.834  1.00 20.00     0.043 C 
HETATM    8  C8  UNL     1     -33.165   7.928   4.464  1.00 20.00     0.020 C 
HETATM    9  C9  UNL     1     -35.241   7.576   3.070  1.00 20.00     0.020 C 
ENDROOT
BRANCH   4  10
HETATM   10  C10 UNL     1     -31.954   8.201   1.648  1.00 20.00     0.170 C 
BRANCH  10  11
HETATM   11  O11 UNL     1     -32.539   9.112   0.731  1.00 20.00    -0.400 OA
HETATM   12  H29 UNL     1     -33.346   9.456   1.150  1.00 20.00     0.209 HD
ENDBRANCH  10  11
ENDBRANCH   4  10
TORSDOF 2
ENDMDL
MODEL 2
REMARK VINA RESULT:       0.9      2.250      4.167
REMARK  2 active torsions:
REMARK  status: ('A' for Active; 'I' for Inactive)
REMARK    1  A    between atoms: C4_4  and  C10_10 
REMARK    2  A    between atoms: C10_10  and  O11_11 
ROOT
HETATM    1  C1  UNL     1     -32.992   7.046   2.310  1.00 20.00    -0.069 C 
HETATM    2  C2  UNL     1     -32.501   8.095   1.647  1.00 20.00    -0.085 C 
HETATM    3  C3  UNL     1     -32.832   5.552   2.124  1.00 20.00     0.043 C 
HETATM    4  C4  UNL     1     -33.319   5.459   3.593  1.00 20.00     0.025 C 
HETATM    5  C5  UNL     1     -33.931   6.907   3.511  1.00 20.00    -0.018 C 
HETATM    6  C6  UNL     1     -32.819   9.510   2.043  1.00 20.00     0.043 C 
HETATM    7  C7  UNL     1     -31.596   7.937   0.457  1.00 20.00     0.043 C 
HETATM    8  C8  UNL     1     -35.413   7.027   3.154  1.00 20.00     0.020 C 
HETATM    9  C9  UNL     1     -33.578   7.770   4.722  1.00 20.00     0.020 C 
ENDROOT
BRANCH   4  10
HETATM   10  C10 UNL     1     -34.235   4.287   3.912  1.00 20.00     0.170 C 
BRANCH  10  11
HETATM   11  O11 UNL     1     -33.485   3.294   4.593  1.00 20.00    -0.400 OA
HETATM   12  H29 UNL     1     -33.033   3.737   5.331  1.00 20.00     0.209 HD
ENDBRANCH  10  11
ENDBRANCH   4  10
TORSDOF 2
ENDMDL
MODEL 3
REMARK VINA RESULT:       0.9      1.217      2.644
REMARK  2 active torsions:
REMARK  status: ('A' for Active; 'I' for Inactive)
REMARK    1  A    between atoms: C4_4  and  C10_10 
REMARK    2  A    between atoms: C10_10  and  O11_11 
ROOT
HETATM    1  C1  UNL     1     -33.511   6.554   2.744  1.00 20.00    -0.069 C 
HETATM    2  C2  UNL     1     -34.198   5.831   3.631  1.00 20.00    -0.085 C 
HETATM    3  C3  UNL     1     -33.375   8.045   2.522  1.00 20.00     0.043 C 
HETATM    4  C4  UNL     1     -32.095   7.670   1.732  1.00 20.00     0.025 C 
HETATM    5  C5  UNL     1     -32.595   6.185   1.573  1.00 20.00    -0.018 C 
HETATM    6  C6  UNL     1     -34.163   4.329   3.638  1.00 20.00     0.043 C 
HETATM    7  C7  UNL     1     -35.059   6.469   4.685  1.00 20.00     0.043 C 
HETATM    8  C8  UNL     1     -33.346   5.829   0.289  1.00 20.00     0.020 C 
HETATM    9  C9  UNL     1     -31.510   5.156   1.888  1.00 20.00     0.020 C 
ENDROOT
BRANCH   4  10
HETATM   10  C10 UNL     1     -31.823   8.496   0.484  1.00 20.00     0.170 C 
BRANCH  10  11
HETATM   11  O11 UNL     1     -32.413   9.775   0.647  1.00 20.00    -0.400 OA
HETATM   12  H29 UNL     1     -32.106  10.325  -0.093  1.00 20.00     0.209 HD
ENDBRANCH  10  11
ENDBRANCH   4  10
TORSDOF 2
ENDMDL
MODEL 4
REMARK VINA RESULT:       1.3      2.222      4.583
REMARK  2 active torsions:
REMARK  status: ('A' for Active; 'I' for Inactive)
REMARK    1  A    between atoms: C4_4  and  C10_10 
REMARK    2  A    between atoms: C10_10  and  O11_11 
ROOT
HETATM    1  C1  UNL     1     -32.822   7.411   2.083  1.00 20.00    -0.069 C 
HETATM    2  C2  UNL     1     -32.311   8.443   1.407  1.00 20.00    -0.085 C 
HETATM    3  C3  UNL     1     -33.459   7.298   3.451  1.00 20.00     0.043 C 
HETATM    4  C4  UNL     1     -34.043   5.966   2.914  1.00 20.00     0.025 C 
HETATM    5  C5  UNL     1     -32.958   5.918   1.774  1.00 20.00    -0.018 C 
HETATM    6  C6  UNL     1     -31.724   8.286   0.032  1.00 20.00     0.043 C 
HETATM    7  C7  UNL     1     -32.285   9.835   1.974  1.00 20.00     0.043 C 
HETATM    8  C8  UNL     1     -31.686   5.112   2.045  1.00 20.00     0.020 C 
HETATM    9  C9  UNL     1     -33.549   5.582   0.406  1.00 20.00     0.020 C 
ENDROOT
BRANCH   4  10
HETATM   10  C10 UNL     1     -34.112   4.824   3.917  1.00 20.00     0.170 C 
BRANCH  10  11
HETATM   11  O11 UNL     1     -35.406   4.805   4.497  1.00 20.00    -0.400 OA
HETATM   12  H29 UNL     1     -35.647   5.728   4.683  1.00 20.00     0.209 HD
ENDBRANCH  10  11
ENDBRANCH   4  10
TORSDOF 2
ENDMDL
MODEL 5
REMARK VINA RESULT:       2.1      2.452      4.128
REMARK  2 active torsions:
REMARK  status: ('A' for Active; 'I' for Inactive)
REMARK    1  A    between atoms: C4_4  and  C10_10 
REMARK    2  A    between atoms: C10_10  and  O11_11 
ROOT
HETATM    1  C1  UNL     1     -32.980   7.217   2.561  1.00 20.00    -0.069 C 
HETATM    2  C2  UNL     1     -31.957   7.760   1.898  1.00 20.00    -0.085 C 
HETATM    3  C3  UNL     1     -33.757   5.932   2.371  1.00 20.00     0.043 C 
HETATM    4  C4  UNL     1     -34.196   6.143   3.843  1.00 20.00     0.025 C 
HETATM    5  C5  UNL     1     -33.807   7.667   3.768  1.00 20.00    -0.018 C 
HETATM    6  C6  UNL     1     -31.353   9.077   2.299  1.00 20.00     0.043 C 
HETATM    7  C7  UNL     1     -31.336   7.094   0.701  1.00 20.00     0.043 C 
HETATM    8  C8  UNL     1     -34.917   8.661   3.422  1.00 20.00     0.020 C 
HETATM    9  C9  UNL     1     -33.000   8.134   4.979  1.00 20.00     0.020 C 
ENDROOT
BRANCH   4  10
HETATM   10  C10 UNL     1     -35.632   5.762   4.165  1.00 20.00     0.170 C 
BRANCH  10  11
HETATM   11  O11 UNL     1     -35.628   4.543   4.891  1.00 20.00    -0.400 OA
HETATM   12  H29 UNL     1     -35.437   4.766   5.818  1.00 20.00     0.209 HD
ENDBRANCH  10  11
ENDBRANCH   4  10
TORSDOF 2
ENDMDL
MODEL 6
REMARK VINA RESULT:       2.8      1.529      2.365
REMARK  2 active torsions:
REMARK  status: ('A' for Active; 'I' for Inactive)
REMARK    1  A    between atoms: C4_4  and  C10_10 
REMARK    2  A    between atoms: C10_10  and  O11_11 
ROOT
HETATM    1  C1  UNL     1     -32.408   6.842   1.656  1.00 20.00    -0.069 C 
HETATM    2  C2  UNL     1     -32.409   5.516   1.811  1.00 20.00    -0.085 C 
HETATM    3  C3  UNL     1     -31.922   7.743   0.541  1.00 20.00     0.043 C 
HETATM    4  C4  UNL     1     -32.847   8.806   1.185  1.00 20.00     0.025 C 
HETATM    5  C5  UNL     1     -32.874   8.003   2.539  1.00 20.00    -0.018 C 
HETATM    6  C6  UNL     1     -32.964   4.855   3.041  1.00 20.00     0.043 C 
HETATM    7  C7  UNL     1     -31.852   4.590   0.766  1.00 20.00     0.043 C 
HETATM    8  C8  UNL     1     -31.866   8.404   3.617  1.00 20.00     0.020 C 
HETATM    9  C9  UNL     1     -34.282   7.862   3.118  1.00 20.00     0.020 C 
ENDROOT
BRANCH   4  10
HETATM   10  C10 UNL     1     -32.318  10.232   1.183  1.00 20.00     0.170 C 
BRANCH  10  11
HETATM   11  O11 UNL     1     -32.462  10.769  -0.122  1.00 20.00    -0.400 OA
HETATM   12  H29 UNL     1     -32.955  11.602  -0.033  1.00 20.00     0.209 HD
ENDBRANCH  10  11
ENDBRANCH   4  10
TORSDOF 2
ENDMDL
MODEL 7
REMARK VINA RESULT:       3.0      2.552      4.972
REMARK  2 active torsions:
REMARK  status: ('A' for Active; 'I' for Inactive)
REMARK    1  A    between atoms: C4_4  and  C10_10 
REMARK    2  A    between atoms: C10_10  and  O11_11 
ROOT
HETATM    1  C1  UNL     1     -32.709   8.874   1.296  1.00 20.00    -0.069 C 
HETATM    2  C2  UNL     1     -32.245   9.474   0.198  1.00 20.00    -0.085 C 
HETATM    3  C3  UNL     1     -33.903   9.147   2.186  1.00 20.00     0.043 C 
HETATM    4  C4  UNL     1     -33.706   7.686   2.663  1.00 20.00     0.025 C 
HETATM    5  C5  UNL     1     -32.226   7.681   2.126  1.00 20.00    -0.018 C 
HETATM    6  C6  UNL     1     -31.010   8.995  -0.513  1.00 20.00     0.043 C 
HETATM    7  C7  UNL     1     -32.923  10.672  -0.405  1.00 20.00     0.043 C 
HETATM    8  C8  UNL     1     -31.115   8.028   3.118  1.00 20.00     0.020 C 
HETATM    9  C9  UNL     1     -31.887   6.422   1.329  1.00 20.00     0.020 C 
ENDROOT
BRANCH   4  10
HETATM   10  C10 UNL     1     -33.955   7.435   4.143  1.00 20.00     0.170 C 
BRANCH  10  11
HETATM   11  O11 UNL     1     -35.064   6.560   4.276  1.00 20.00    -0.400 OA
HETATM   12  H29 UNL     1     -34.888   5.995   5.046  1.00 20.00     0.209 HD
ENDBRANCH  10  11
ENDBRANCH   4  10
TORSDOF 2
ENDMDL
MODEL 8
REMARK VINA RESULT:       3.1      2.081      3.005
REMARK  2 active torsions:
REMARK  status: ('A' for Active; 'I' for Inactive)
REMARK    1  A    between atoms: C4_4  and  C10_10 
REMARK    2  A    between atoms: C10_10  and  O11_11 
ROOT
HETATM    1  C1  UNL     1     -33.474   6.528   2.756  1.00 20.00    -0.069 C 
HETATM    2  C2  UNL     1     -34.359   7.038   3.615  1.00 20.00    -0.085 C 
HETATM    3  C3  UNL     1     -33.157   5.109   2.333  1.00 20.00     0.043 C 
HETATM    4  C4  UNL     1     -32.489   5.774   1.102  1.00 20.00     0.025 C 
HETATM    5  C5  UNL     1     -32.400   7.151   1.860  1.00 20.00    -0.018 C 
HETATM    6  C6  UNL     1     -34.475   8.516   3.860  1.00 20.00     0.043 C 
HETATM    7  C7  UNL     1     -35.302   6.170   4.400  1.00 20.00     0.043 C 
HETATM    8  C8  UNL     1     -31.095   7.471   2.590  1.00 20.00     0.020 C 
HETATM    9  C9  UNL     1     -32.863   8.330   1.004  1.00 20.00     0.020 C 
ENDROOT
BRANCH   4  10
HETATM   10  C10 UNL     1     -31.208   5.117   0.611  1.00 20.00     0.170 C 
BRANCH  10  11
HETATM   11  O11 UNL     1     -31.549   4.003  -0.199  1.00 20.00    -0.400 OA
HETATM   12  H29 UNL     1     -30.843   3.345  -0.088  1.00 20.00     0.209 HD
ENDBRANCH  10  11
ENDBRANCH   4  10
TORSDOF 2
ENDMDL
MODEL 9
REMARK VINA RESULT:       3.4      2.491      4.824
REMARK  2 active torsions:
REMARK  status: ('A' for Active; 'I' for Inactive)
REMARK    1  A    between atoms: C4_4  and  C10_10 
REMARK    2  A    between atoms: C10_10  and  O11_11 
ROOT
HETATM    1  C1  UNL     1     -32.513   8.757   0.930  1.00 20.00    -0.069 C 
HETATM    2  C2  UNL     1     -32.607  10.026   0.527  1.00 20.00    -0.085 C 
HETATM    3  C3  UNL     1     -32.573   7.440   0.188  1.00 20.00     0.043 C 
HETATM    4  C4  UNL     1     -31.878   6.859   1.446  1.00 20.00     0.025 C 
HETATM    5  C5  UNL     1     -32.328   8.102   2.302  1.00 20.00    -0.018 C 
HETATM    6  C6  UNL     1     -32.512  11.179   1.487  1.00 20.00     0.043 C 
HETATM    7  C7  UNL     1     -32.816  10.393  -0.916  1.00 20.00     0.043 C 
HETATM    8  C8  UNL     1     -33.623   7.974   3.105  1.00 20.00     0.020 C 
HETATM    9  C9  UNL     1     -31.197   8.676   3.155  1.00 20.00     0.020 C 
ENDROOT
BRANCH   4  10
HETATM   10  C10 UNL     1     -32.330   5.470   1.869  1.00 20.00     0.170 C 
BRANCH  10  11
HETATM   11  O11 UNL     1     -31.568   4.507   1.159  1.00 20.00    -0.400 OA
HETATM   12  H29 UNL     1     -32.162   3.764   0.961  1.00 20.00     0.209 HD
ENDBRANCH  10  11
ENDBRANCH   4  10
TORSDOF 2
ENDMDL
