MODEL 1
REMARK VINA RESULT:       1.2      0.000      0.000
REMARK  2 active torsions:
REMARK  status: ('A' for Active; 'I' for Inactive)
REMARK    1  A    between atoms: C4_4  and  C10_10 
REMARK    2  A    between atoms: C10_10  and  O11_11 
ROOT
HETATM    1  C1  UNL     1     -32.816   7.989   1.868  1.00 20.00    -0.069 C 
HETATM    2  C2  UNL     1     -32.558   8.934   0.960  1.00 20.00    -0.085 C 
HETATM    3  C3  UNL     1     -33.024   8.052   3.362  1.00 20.00     0.043 C 
HETATM    4  C4  UNL     1     -33.543   6.599   3.239  1.00 20.00     0.025 C 
HETATM    5  C5  UNL     1     -32.985   6.475   1.773  1.00 20.00    -0.018 C 
HETATM    6  C6  UNL     1     -32.389   8.616  -0.499  1.00 20.00     0.043 C 
HETATM    7  C7  UNL     1     -32.418  10.384   1.333  1.00 20.00     0.043 C 
HETATM    8  C8  UNL     1     -31.664   5.703   1.695  1.00 20.00     0.020 C 
HETATM    9  C9  UNL     1     -33.961   5.999   0.699  1.00 20.00     0.020 C 
ENDROOT
BRANCH   4  10
HETATM   10  C10 UNL     1     -35.042   6.447   3.488  1.00 20.00     0.170 C 
BRANCH  10  11
HETATM   11  O11 UNL     1     -35.253   5.328   4.332  1.00 20.00    -0.400 OA
HETATM   12  H29 UNL     1     -36.110   5.460   4.770  1.00 20.00     0.209 HD
ENDBRANCH  10  11
ENDBRANCH   4  10
TORSDOF 2
ENDMDL
MODEL 2
REMARK VINA RESULT:       1.3      2.356      4.286
REMARK  2 active torsions:
REMARK  status: ('A' for Active; 'I' for Inactive)
REMARK    1  A    between atoms: C4_4  and  C10_10 
REMARK    2  A    between atoms: C10_10  and  O11_11 
ROOT
HETATM    1  C1  UNL     1     -33.815   5.670   2.841  1.00 20.00    -0.069 C 
HETATM    2  C2  UNL     1     -34.122   4.767   3.776  1.00 20.00    -0.085 C 
HETATM    3  C3  UNL     1     -34.267   7.094   2.624  1.00 20.00     0.043 C 
HETATM    4  C4  UNL     1     -33.107   7.188   1.602  1.00 20.00     0.025 C 
HETATM    5  C5  UNL     1     -32.911   5.627   1.612  1.00 20.00    -0.018 C 
HETATM    6  C6  UNL     1     -33.530   3.385   3.779  1.00 20.00     0.043 C 
HETATM    7  C7  UNL     1     -35.080   5.069   4.894  1.00 20.00     0.043 C 
HETATM    8  C8  UNL     1     -33.539   4.934   0.399  1.00 20.00     0.020 C 
HETATM    9  C9  UNL     1     -31.497   5.108   1.867  1.00 20.00     0.020 C 
ENDROOT
BRANCH   4  10
HETATM   10  C10 UNL     1     -31.958   8.092   2.042  1.00 20.00     0.170 C 
BRANCH  10  11
HETATM   11  O11 UNL     1     -31.838   9.160   1.118  1.00 20.00    -0.400 OA
HETATM   12  H29 UNL     1     -32.344   9.907   1.479  1.00 20.00     0.209 HD
ENDBRANCH  10  11
ENDBRANCH   4  10
TORSDOF 2
ENDMDL
MODEL 3
REMARK VINA RESULT:       1.8      1.631      2.938
REMARK  2 active torsions:
REMARK  status: ('A' for Active; 'I' for Inactive)
REMARK    1  A    between atoms: C4_4  and  C10_10 
REMARK    2  A    between atoms: C10_10  and  O11_11 
ROOT
HETATM    1  C1  UNL     1     -33.201   6.709   2.427  1.00 20.00    -0.069 C 
HETATM    2  C2  UNL     1     -32.447   7.718   1.980  1.00 20.00    -0.085 C 
HETATM    3  C3  UNL     1     -33.280   5.254   2.032  1.00 20.00     0.043 C 
HETATM    4  C4  UNL     1     -34.113   5.065   3.324  1.00 20.00     0.025 C 
HETATM    5  C5  UNL     1     -34.291   6.620   3.491  1.00 20.00    -0.018 C 
HETATM    6  C6  UNL     1     -32.554   9.107   2.543  1.00 20.00     0.043 C 
HETATM    7  C7  UNL     1     -31.438   7.534   0.881  1.00 20.00     0.043 C 
HETATM    8  C8  UNL     1     -35.661   7.123   3.025  1.00 20.00     0.020 C 
HETATM    9  C9  UNL     1     -33.922   7.217   4.848  1.00 20.00     0.020 C 
ENDROOT
BRANCH   4  10
HETATM   10  C10 UNL     1     -33.404   4.269   4.416  1.00 20.00     0.170 C 
BRANCH  10  11
HETATM   11  O11 UNL     1     -33.854   2.925   4.366  1.00 20.00    -0.400 OA
HETATM   12  H29 UNL     1     -33.154   2.407   3.935  1.00 20.00     0.209 HD
ENDBRANCH  10  11
ENDBRANCH   4  10
TORSDOF 2
ENDMDL
MODEL 4
REMARK VINA RESULT:       2.1      2.325      4.423
REMARK  2 active torsions:
REMARK  status: ('A' for Active; 'I' for Inactive)
REMARK    1  A    between atoms: C4_4  and  C10_10 
REMARK    2  A    between atoms: C10_10  and  O11_11 
ROOT
HETATM    1  C1  UNL     1     -33.293   6.484   3.034  1.00 20.00    -0.069 C 
HETATM    2  C2  UNL     1     -34.087   5.495   3.456  1.00 20.00    -0.085 C 
HETATM    3  C3  UNL     1     -32.086   6.494   2.128  1.00 20.00     0.043 C 
HETATM    4  C4  UNL     1     -32.257   8.033   2.103  1.00 20.00     0.025 C 
HETATM    5  C5  UNL     1     -33.270   7.985   3.306  1.00 20.00    -0.018 C 
HETATM    6  C6  UNL     1     -35.250   5.740   4.375  1.00 20.00     0.043 C 
HETATM    7  C7  UNL     1     -33.872   4.066   3.042  1.00 20.00     0.043 C 
HETATM    8  C8  UNL     1     -32.632   8.366   4.646  1.00 20.00     0.020 C 
HETATM    9  C9  UNL     1     -34.607   8.699   3.115  1.00 20.00     0.020 C 
ENDROOT
BRANCH   4  10
HETATM   10  C10 UNL     1     -32.714   8.591   0.758  1.00 20.00     0.170 C 
BRANCH  10  11
HETATM   11  O11 UNL     1     -32.310   9.946   0.665  1.00 20.00    -0.400 OA
HETATM   12  H29 UNL     1     -32.625  10.393   1.467  1.00 20.00     0.209 HD
ENDBRANCH  10  11
ENDBRANCH   4  10
TORSDOF 2
ENDMDL
MODEL 5
REMARK VINA RESULT:       3.4      2.279      3.825
REMARK  2 active torsions:
REMARK  status: ('A' for Active; 'I' for Inactive)
REMARK    1  A    between atoms: C4_4  and  C10_10 
REMARK    2  A    between atoms: C10_10  and  O11_11 
ROOT
HETATM    1  C1  UNL     1     -33.435   6.400   2.887  1.00 20.00    -0.069 C 
HETATM    2  C2  UNL     1     -34.512   6.859   3.530  1.00 20.00    -0.085 C 
HETATM    3  C3  UNL     1     -32.792   5.035   2.840  1.00 20.00     0.043 C 
HETATM    4  C4  UNL     1     -31.974   5.585   1.645  1.00 20.00     0.025 C 
HETATM    5  C5  UNL     1     -32.415   7.061   1.964  1.00 20.00    -0.018 C 
HETATM    6  C6  UNL     1     -34.962   8.289   3.417  1.00 20.00     0.043 C 
HETATM    7  C7  UNL     1     -35.352   5.979   4.414  1.00 20.00     0.043 C 
HETATM    8  C8  UNL     1     -31.338   7.865   2.699  1.00 20.00     0.020 C 
HETATM    9  C9  UNL     1     -33.012   7.869   0.814  1.00 20.00     0.020 C 
ENDROOT
BRANCH   4  10
HETATM   10  C10 UNL     1     -32.340   4.966   0.299  1.00 20.00     0.170 C 
BRANCH  10  11
HETATM   11  O11 UNL     1     -31.307   4.076  -0.090  1.00 20.00    -0.400 OA
HETATM   12  H29 UNL     1     -31.708   3.195  -0.175  1.00 20.00     0.209 HD
ENDBRANCH  10  11
ENDBRANCH   4  10
TORSDOF 2
ENDMDL
MODEL 6
REMARK VINA RESULT:       3.7      2.299      4.636
REMARK  2 active torsions:
REMARK  status: ('A' for Active; 'I' for Inactive)
REMARK    1  A    between atoms: C4_4  and  C10_10 
REMARK    2  A    between atoms: C10_10  and  O11_11 
ROOT
HETATM    1  C1  UNL     1     -33.614   5.237   3.474  1.00 20.00    -0.069 C 
HETATM    2  C2  UNL     1     -34.087   4.317   4.321  1.00 20.00    -0.085 C 
HETATM    3  C3  UNL     1     -32.444   5.226   2.520  1.00 20.00     0.043 C 
HETATM    4  C4  UNL     1     -33.065   6.513   1.922  1.00 20.00     0.025 C 
HETATM    5  C5  UNL     1     -34.045   6.663   3.143  1.00 20.00    -0.018 C 
HETATM    6  C6  UNL     1     -35.292   4.568   5.183  1.00 20.00     0.043 C 
HETATM    7  C7  UNL     1     -33.447   2.965   4.470  1.00 20.00     0.043 C 
HETATM    8  C8  UNL     1     -33.580   7.708   4.163  1.00 20.00     0.020 C 
HETATM    9  C9  UNL     1     -35.529   6.833   2.824  1.00 20.00     0.020 C 
ENDROOT
BRANCH   4  10
HETATM   10  C10 UNL     1     -33.637   6.337   0.517  1.00 20.00     0.170 C 
BRANCH  10  11
HETATM   11  O11 UNL     1     -33.423   4.998   0.102  1.00 20.00    -0.400 OA
HETATM   12  H29 UNL     1     -33.997   4.436   0.648  1.00 20.00     0.209 HD
ENDBRANCH  10  11
ENDBRANCH   4  10
TORSDOF 2
ENDMDL
MODEL 7
REMARK VINA RESULT:       3.9      2.075      3.550
REMARK  2 active torsions:
REMARK  status: ('A' for Active; 'I' for Inactive)
REMARK    1  A    between atoms: C4_4  and  C10_10 
REMARK    2  A    between atoms: C10_10  and  O11_11 
ROOT
HETATM    1  C1  UNL     1     -33.015   7.475   3.224  1.00 20.00    -0.069 C 
HETATM    2  C2  UNL     1     -32.637   8.193   4.286  1.00 20.00    -0.085 C 
HETATM    3  C3  UNL     1     -32.566   7.489   1.783  1.00 20.00     0.043 C 
HETATM    4  C4  UNL     1     -33.342   6.155   1.645  1.00 20.00     0.025 C 
HETATM    5  C5  UNL     1     -34.055   6.375   3.031  1.00 20.00    -0.018 C 
HETATM    6  C6  UNL     1     -33.245   7.991   5.645  1.00 20.00     0.043 C 
HETATM    7  C7  UNL     1     -31.576   9.254   4.196  1.00 20.00     0.043 C 
HETATM    8  C8  UNL     1     -35.491   6.892   2.893  1.00 20.00     0.020 C 
HETATM    9  C9  UNL     1     -33.980   5.229   4.037  1.00 20.00     0.020 C 
ENDROOT
BRANCH   4  10
HETATM   10  C10 UNL     1     -32.453   4.931   1.444  1.00 20.00     0.170 C 
BRANCH  10  11
HETATM   11  O11 UNL     1     -32.694   4.399   0.152  1.00 20.00    -0.400 OA
HETATM   12  H29 UNL     1     -33.427   4.907  -0.232  1.00 20.00     0.209 HD
ENDBRANCH  10  11
ENDBRANCH   4  10
TORSDOF 2
ENDMDL
