MODEL 1
REMARK VINA RESULT:      -0.2      0.000      0.000
REMARK  1 active torsions:
REMARK  status: ('A' for Active; 'I' for Inactive)
REMARK    1  A    between atoms: C6_6  and  C10_10 
ROOT
HETATM    1  C1  UNL     1     -33.139   4.245   2.828  1.00 20.00     0.053 C 
HETATM    2  C2  UNL     1     -33.702   3.947   4.009  1.00 20.00    -0.080 C 
HETATM    3  C3  UNL     1     -33.336   5.578   2.201  1.00 20.00     0.154 C 
HETATM    4  C4  UNL     1     -34.613   4.894   4.747  1.00 20.00     0.034 C 
HETATM    5  C5  UNL     1     -35.177   5.989   3.844  1.00 20.00     0.017 C 
HETATM    6  C6  UNL     1     -34.110   6.638   2.963  1.00 20.00     0.063 C 
HETATM    7  C7  UNL     1     -33.451   2.628   4.679  1.00 20.00     0.043 C 
HETATM    8  O11 UNL     1     -32.821   5.814   1.109  1.00 20.00    -0.293 OA
ENDROOT
BRANCH   6   9
HETATM    9  C10 UNL     1     -33.142   7.515   3.752  1.00 20.00    -0.011 C 
HETATM   10  C8  UNL     1     -32.374   8.445   2.814  1.00 20.00     0.010 C 
HETATM   11  C9  UNL     1     -33.889   8.321   4.813  1.00 20.00     0.010 C 
ENDBRANCH   6   9
TORSDOF 1
ENDMDL
MODEL 2
REMARK VINA RESULT:      -0.0      2.201      3.683
REMARK  1 active torsions:
REMARK  status: ('A' for Active; 'I' for Inactive)
REMARK    1  A    between atoms: C6_6  and  C10_10 
ROOT
HETATM    1  C1  UNL     1     -33.332   7.678   3.882  1.00 20.00     0.053 C 
HETATM    2  C2  UNL     1     -34.049   6.715   3.285  1.00 20.00    -0.080 C 
HETATM    3  C3  UNL     1     -32.171   8.303   3.198  1.00 20.00     0.154 C 
HETATM    4  C4  UNL     1     -33.703   6.154   1.930  1.00 20.00     0.034 C 
HETATM    5  C5  UNL     1     -32.260   6.447   1.524  1.00 20.00     0.017 C 
HETATM    6  C6  UNL     1     -31.860   7.901   1.767  1.00 20.00     0.063 C 
HETATM    7  C7  UNL     1     -35.264   6.128   3.943  1.00 20.00     0.043 C 
HETATM    8  O11 UNL     1     -31.522   9.172   3.779  1.00 20.00    -0.293 OA
ENDROOT
BRANCH   6   9
HETATM    9  C10 UNL     1     -32.535   8.871   0.802  1.00 20.00    -0.011 C 
HETATM   10  C8  UNL     1     -32.666  10.256   1.436  1.00 20.00     0.010 C 
HETATM   11  C9  UNL     1     -31.756   8.954  -0.510  1.00 20.00     0.010 C 
ENDBRANCH   6   9
TORSDOF 1
ENDMDL
MODEL 3
REMARK VINA RESULT:       0.5      1.735      4.329
REMARK  1 active torsions:
REMARK  status: ('A' for Active; 'I' for Inactive)
REMARK    1  A    between atoms: C6_6  and  C10_10 
ROOT
HETATM    1  C1  UNL     1     -32.647   7.680   0.498  1.00 20.00     0.053 C 
HETATM    2  C2  UNL     1     -32.462   8.986   0.739  1.00 20.00    -0.080 C 
HETATM    3  C3  UNL     1     -32.682   6.693   1.608  1.00 20.00     0.154 C 
HETATM    4  C4  UNL     1     -32.213   9.538   2.119  1.00 20.00     0.034 C 
HETATM    5  C5  UNL     1     -31.753   8.467   3.106  1.00 20.00     0.017 C 
HETATM    6  C6  UNL     1     -32.599   7.196   3.037  1.00 20.00     0.063 C 
HETATM    7  C7  UNL     1     -32.495   9.995  -0.372  1.00 20.00     0.043 C 
HETATM    8  O11 UNL     1     -32.836   5.500   1.352  1.00 20.00    -0.293 OA
ENDROOT
BRANCH   6   9
HETATM    9  C10 UNL     1     -34.004   7.388   3.598  1.00 20.00    -0.011 C 
HETATM   10  C8  UNL     1     -34.710   6.041   3.752  1.00 20.00     0.010 C 
HETATM   11  C9  UNL     1     -33.954   8.121   4.937  1.00 20.00     0.010 C 
ENDBRANCH   6   9
TORSDOF 1
ENDMDL
MODEL 4
REMARK VINA RESULT:       1.8      1.624      4.242
REMARK  1 active torsions:
REMARK  status: ('A' for Active; 'I' for Inactive)
REMARK    1  A    between atoms: C6_6  and  C10_10 
ROOT
HETATM    1  C1  UNL     1     -33.528   7.643   3.113  1.00 20.00     0.053 C 
HETATM    2  C2  UNL     1     -32.506   7.577   2.246  1.00 20.00    -0.080 C 
HETATM    3  C3  UNL     1     -34.319   6.434   3.457  1.00 20.00     0.154 C 
HETATM    4  C4  UNL     1     -32.130   6.315   1.516  1.00 20.00     0.034 C 
HETATM    5  C5  UNL     1     -33.256   5.283   1.507  1.00 20.00     0.017 C 
HETATM    6  C6  UNL     1     -33.896   5.094   2.882  1.00 20.00     0.063 C 
HETATM    7  C7  UNL     1     -31.660   8.781   1.948  1.00 20.00     0.043 C 
HETATM    8  O11 UNL     1     -35.261   6.530   4.242  1.00 20.00    -0.293 OA
ENDROOT
BRANCH   6   9
HETATM    9  C10 UNL     1     -32.981   4.376   3.869  1.00 20.00    -0.011 C 
HETATM   10  C8  UNL     1     -33.762   3.329   4.662  1.00 20.00     0.010 C 
HETATM   11  C9  UNL     1     -31.806   3.728   3.139  1.00 20.00     0.010 C 
ENDBRANCH   6   9
TORSDOF 1
ENDMDL
MODEL 5
REMARK VINA RESULT:       2.1      2.072      3.054
REMARK  1 active torsions:
REMARK  status: ('A' for Active; 'I' for Inactive)
REMARK    1  A    between atoms: C6_6  and  C10_10 
ROOT
HETATM    1  C1  UNL     1     -31.364   6.563   1.505  1.00 20.00     0.053 C 
HETATM    2  C2  UNL     1     -31.963   5.433   1.101  1.00 20.00    -0.080 C 
HETATM    3  C3  UNL     1     -32.145   7.661   2.132  1.00 20.00     0.154 C 
HETATM    4  C4  UNL     1     -33.452   5.217   1.187  1.00 20.00     0.034 C 
HETATM    5  C5  UNL     1     -34.227   6.524   1.342  1.00 20.00     0.017 C 
HETATM    6  C6  UNL     1     -33.624   7.449   2.398  1.00 20.00     0.063 C 
HETATM    7  C7  UNL     1     -31.170   4.294   0.530  1.00 20.00     0.043 C 
HETATM    8  O11 UNL     1     -31.569   8.693   2.476  1.00 20.00    -0.293 OA
ENDROOT
BRANCH   6   9
HETATM    9  C10 UNL     1     -33.823   6.935   3.820  1.00 20.00    -0.011 C 
HETATM   10  C8  UNL     1     -33.651   8.068   4.830  1.00 20.00     0.010 C 
HETATM   11  C9  UNL     1     -35.198   6.287   3.971  1.00 20.00     0.010 C 
ENDBRANCH   6   9
TORSDOF 1
ENDMDL
MODEL 6
REMARK VINA RESULT:       2.8      2.436      3.828
REMARK  1 active torsions:
REMARK  status: ('A' for Active; 'I' for Inactive)
REMARK    1  A    between atoms: C6_6  and  C10_10 
ROOT
HETATM    1  C1  UNL     1     -33.526   6.338   2.357  1.00 20.00     0.053 C 
HETATM    2  C2  UNL     1     -32.758   5.775   1.412  1.00 20.00    -0.080 C 
HETATM    3  C3  UNL     1     -33.279   7.729   2.816  1.00 20.00     0.154 C 
HETATM    4  C4  UNL     1     -31.568   6.468   0.801  1.00 20.00     0.034 C 
HETATM    5  C5  UNL     1     -31.068   7.634   1.651  1.00 20.00     0.017 C 
HETATM    6  C6  UNL     1     -32.197   8.545   2.131  1.00 20.00     0.063 C 
HETATM    7  C7  UNL     1     -33.045   4.395   0.896  1.00 20.00     0.043 C 
HETATM    8  O11 UNL     1     -33.990   8.210   3.697  1.00 20.00    -0.293 OA
ENDROOT
BRANCH   6   9
HETATM    9  C10 UNL     1     -32.811   9.372   1.007  1.00 20.00    -0.011 C 
HETATM   10  C8  UNL     1     -32.841  10.853   1.383  1.00 20.00     0.010 C 
HETATM   11  C9  UNL     1     -32.040   9.165  -0.296  1.00 20.00     0.010 C 
ENDBRANCH   6   9
TORSDOF 1
ENDMDL
