MODEL 1
REMARK VINA RESULT:      -0.2      0.000      0.000
REMARK  1 active torsions:
REMARK  status: ('A' for Active; 'I' for Inactive)
REMARK    1  A    between atoms: C2_2  and  C3_3 
ROOT
HETATM    1  C1  UNL     1     -32.961   7.549   2.211  1.00 20.00     0.010 C 
HETATM    2  C2  UNL     1     -32.543   8.791   1.936  1.00 20.00     0.074 C 
HETATM    3  C4  UNL     1     -32.853   6.417   1.219  1.00 20.00     0.058 C 
HETATM    4  C5  UNL     1     -32.986   5.179   2.109  1.00 20.00     0.026 C 
HETATM    5  C6  UNL     1     -33.842   5.640   3.290  1.00 20.00     0.122 C 
HETATM    6  C8  UNL     1     -33.951   7.824   4.524  1.00 20.00     0.149 C 
HETATM    7  N9  UNL     1     -33.526   7.058   3.375  1.00 20.00    -0.388 N 
ENDROOT
BRANCH   2   8
HETATM    8  C3  UNL     1     -31.943   9.113   0.615  1.00 20.00     0.147 C 
HETATM    9  C7  UNL     1     -32.726  10.046  -0.271  1.00 20.00     0.096 C 
HETATM   10  O10 UNL     1     -30.854   8.667   0.262  1.00 20.00    -0.294 OA
ENDBRANCH   2   8
TORSDOF 1
ENDMDL
MODEL 2
REMARK VINA RESULT:       0.2      1.606      2.616
REMARK  1 active torsions:
REMARK  status: ('A' for Active; 'I' for Inactive)
REMARK    1  A    between atoms: C2_2  and  C3_3 
ROOT
HETATM    1  C1  UNL     1     -33.436   6.248   3.070  1.00 20.00     0.010 C 
HETATM    2  C2  UNL     1     -32.397   6.468   2.253  1.00 20.00     0.074 C 
HETATM    3  C4  UNL     1     -34.242   7.369   3.680  1.00 20.00     0.058 C 
HETATM    4  C5  UNL     1     -35.533   6.662   4.098  1.00 20.00     0.026 C 
HETATM    5  C6  UNL     1     -35.113   5.218   4.379  1.00 20.00     0.122 C 
HETATM    6  C8  UNL     1     -33.421   3.726   3.277  1.00 20.00     0.149 C 
HETATM    7  N9  UNL     1     -33.971   5.045   3.493  1.00 20.00    -0.388 N 
ENDROOT
BRANCH   2   8
HETATM    8  C3  UNL     1     -31.987   7.854   1.906  1.00 20.00     0.147 C 
HETATM    9  C7  UNL     1     -32.448   8.379   0.572  1.00 20.00     0.096 C 
HETATM   10  O10 UNL     1     -31.327   8.554   2.671  1.00 20.00    -0.294 OA
ENDBRANCH   2   8
TORSDOF 1
ENDMDL
MODEL 3
REMARK VINA RESULT:       0.2      2.819      4.994
REMARK  1 active torsions:
REMARK  status: ('A' for Active; 'I' for Inactive)
REMARK    1  A    between atoms: C2_2  and  C3_3 
ROOT
HETATM    1  C1  UNL     1     -33.412   6.160   3.142  1.00 20.00     0.010 C 
HETATM    2  C2  UNL     1     -33.304   4.826   3.179  1.00 20.00     0.074 C 
HETATM    3  C4  UNL     1     -34.271   6.933   4.112  1.00 20.00     0.058 C 
HETATM    4  C5  UNL     1     -33.711   8.353   3.996  1.00 20.00     0.026 C 
HETATM    5  C6  UNL     1     -33.164   8.440   2.569  1.00 20.00     0.122 C 
HETATM    6  C8  UNL     1     -32.016   6.748   1.114  1.00 20.00     0.149 C 
HETATM    7  N9  UNL     1     -32.799   7.060   2.287  1.00 20.00    -0.388 N 
ENDROOT
BRANCH   2   8
HETATM    8  C3  UNL     1     -34.041   4.035   4.198  1.00 20.00     0.147 C 
HETATM    9  C7  UNL     1     -33.318   2.852   4.786  1.00 20.00     0.096 C 
HETATM   10  O10 UNL     1     -35.174   4.336   4.569  1.00 20.00    -0.294 OA
ENDBRANCH   2   8
TORSDOF 1
ENDMDL
MODEL 4
REMARK VINA RESULT:       0.5      1.301      2.186
REMARK  1 active torsions:
REMARK  status: ('A' for Active; 'I' for Inactive)
REMARK    1  A    between atoms: C2_2  and  C3_3 
ROOT
HETATM    1  C1  UNL     1     -32.779   7.118   1.881  1.00 20.00     0.010 C 
HETATM    2  C2  UNL     1     -32.195   7.841   0.917  1.00 20.00     0.074 C 
HETATM    3  C4  UNL     1     -33.517   7.748   3.037  1.00 20.00     0.058 C 
HETATM    4  C5  UNL     1     -34.374   6.592   3.556  1.00 20.00     0.026 C 
HETATM    5  C6  UNL     1     -33.582   5.331   3.205  1.00 20.00     0.122 C 
HETATM    6  C8  UNL     1     -32.150   4.756   1.224  1.00 20.00     0.149 C 
HETATM    7  N9  UNL     1     -32.847   5.742   2.018  1.00 20.00    -0.388 N 
ENDROOT
BRANCH   2   8
HETATM    8  C3  UNL     1     -32.251   9.326   0.947  1.00 20.00     0.147 C 
HETATM    9  C7  UNL     1     -32.680  10.009  -0.325  1.00 20.00     0.096 C 
HETATM   10  O10 UNL     1     -31.987   9.973   1.958  1.00 20.00    -0.294 OA
ENDBRANCH   2   8
TORSDOF 1
ENDMDL
MODEL 5
REMARK VINA RESULT:       0.6      2.695      4.115
REMARK  1 active torsions:
REMARK  status: ('A' for Active; 'I' for Inactive)
REMARK    1  A    between atoms: C2_2  and  C3_3 
ROOT
HETATM    1  C1  UNL     1     -33.218   7.153   2.951  1.00 20.00     0.010 C 
HETATM    2  C2  UNL     1     -34.181   7.205   3.880  1.00 20.00     0.074 C 
HETATM    3  C4  UNL     1     -33.181   6.093   1.877  1.00 20.00     0.058 C 
HETATM    4  C5  UNL     1     -32.246   6.708   0.833  1.00 20.00     0.026 C 
HETATM    5  C6  UNL     1     -31.309   7.614   1.635  1.00 20.00     0.122 C 
HETATM    6  C8  UNL     1     -31.700   9.051   3.656  1.00 20.00     0.149 C 
HETATM    7  N9  UNL     1     -32.136   7.996   2.770  1.00 20.00    -0.388 N 
ENDROOT
BRANCH   2   8
HETATM    8  C3  UNL     1     -35.276   6.200   3.892  1.00 20.00     0.147 C 
HETATM    9  C7  UNL     1     -34.979   4.887   4.567  1.00 20.00     0.096 C 
HETATM   10  O10 UNL     1     -36.380   6.426   3.401  1.00 20.00    -0.294 OA
ENDBRANCH   2   8
TORSDOF 1
ENDMDL
MODEL 6
REMARK VINA RESULT:       0.8      2.893      4.619
REMARK  1 active torsions:
REMARK  status: ('A' for Active; 'I' for Inactive)
REMARK    1  A    between atoms: C2_2  and  C3_3 
ROOT
HETATM    1  C1  UNL     1     -33.128   6.124   2.514  1.00 20.00     0.010 C 
HETATM    2  C2  UNL     1     -33.754   5.032   2.971  1.00 20.00     0.074 C 
HETATM    3  C4  UNL     1     -33.402   7.505   3.058  1.00 20.00     0.058 C 
HETATM    4  C5  UNL     1     -32.171   8.293   2.605  1.00 20.00     0.026 C 
HETATM    5  C6  UNL     1     -31.713   7.596   1.322  1.00 20.00     0.122 C 
HETATM    6  C8  UNL     1     -31.706   5.178   0.646  1.00 20.00     0.149 C 
HETATM    7  N9  UNL     1     -32.158   6.226   1.533  1.00 20.00    -0.388 N 
ENDROOT
BRANCH   2   8
HETATM    8  C3  UNL     1     -34.765   5.136   4.054  1.00 20.00     0.147 C 
HETATM    9  C7  UNL     1     -35.596   6.391   4.082  1.00 20.00     0.096 C 
HETATM   10  O10 UNL     1     -34.940   4.239   4.877  1.00 20.00    -0.294 OA
ENDBRANCH   2   8
TORSDOF 1
ENDMDL
MODEL 7
REMARK VINA RESULT:       1.4      2.502      4.499
REMARK  1 active torsions:
REMARK  status: ('A' for Active; 'I' for Inactive)
REMARK    1  A    between atoms: C2_2  and  C3_3 
ROOT
HETATM    1  C1  UNL     1     -33.053   6.479   2.354  1.00 20.00     0.010 C 
HETATM    2  C2  UNL     1     -33.867   5.610   2.966  1.00 20.00     0.074 C 
HETATM    3  C4  UNL     1     -33.041   7.952   2.684  1.00 20.00     0.058 C 
HETATM    4  C5  UNL     1     -31.693   8.409   2.123  1.00 20.00     0.026 C 
HETATM    5  C6  UNL     1     -31.412   7.455   0.960  1.00 20.00     0.122 C 
HETATM    6  C8  UNL     1     -31.891   5.010   0.652  1.00 20.00     0.149 C 
HETATM    7  N9  UNL     1     -32.108   6.245   1.371  1.00 20.00    -0.388 N 
ENDROOT
BRANCH   2   8
HETATM    8  C3  UNL     1     -34.810   6.067   4.019  1.00 20.00     0.147 C 
HETATM    9  C7  UNL     1     -35.533   4.994   4.788  1.00 20.00     0.096 C 
HETATM   10  O10 UNL     1     -34.981   7.257   4.275  1.00 20.00    -0.294 OA
ENDBRANCH   2   8
TORSDOF 1
ENDMDL
MODEL 8
REMARK VINA RESULT:       1.6      2.747      4.718
REMARK  1 active torsions:
REMARK  status: ('A' for Active; 'I' for Inactive)
REMARK    1  A    between atoms: C2_2  and  C3_3 
ROOT
HETATM    1  C1  UNL     1     -33.411   5.790   3.345  1.00 20.00     0.010 C 
HETATM    2  C2  UNL     1     -33.968   4.966   4.242  1.00 20.00     0.074 C 
HETATM    3  C4  UNL     1     -32.468   5.304   2.271  1.00 20.00     0.058 C 
HETATM    4  C5  UNL     1     -32.495   6.452   1.259  1.00 20.00     0.026 C 
HETATM    5  C6  UNL     1     -32.798   7.699   2.093  1.00 20.00     0.122 C 
HETATM    6  C8  UNL     1     -34.261   8.051   4.102  1.00 20.00     0.149 C 
HETATM    7  N9  UNL     1     -33.570   7.157   3.201  1.00 20.00    -0.388 N 
ENDROOT
BRANCH   2   8
HETATM    8  C3  UNL     1     -33.675   3.510   4.217  1.00 20.00     0.147 C 
HETATM    9  C7  UNL     1     -32.794   2.980   5.318  1.00 20.00     0.096 C 
HETATM   10  O10 UNL     1     -34.142   2.761   3.361  1.00 20.00    -0.294 OA
ENDBRANCH   2   8
TORSDOF 1
ENDMDL
MODEL 9
REMARK VINA RESULT:       1.7      2.372      3.809
REMARK  1 active torsions:
REMARK  status: ('A' for Active; 'I' for Inactive)
REMARK    1  A    between atoms: C2_2  and  C3_3 
ROOT
HETATM    1  C1  UNL     1     -32.891   7.099   2.391  1.00 20.00     0.010 C 
HETATM    2  C2  UNL     1     -33.524   7.969   3.188  1.00 20.00     0.074 C 
HETATM    3  C4  UNL     1     -32.970   5.605   2.592  1.00 20.00     0.058 C 
HETATM    4  C5  UNL     1     -32.528   5.061   1.231  1.00 20.00     0.026 C 
HETATM    5  C6  UNL     1     -31.589   6.132   0.670  1.00 20.00     0.122 C 
HETATM    6  C8  UNL     1     -31.631   8.637   0.824  1.00 20.00     0.149 C 
HETATM    7  N9  UNL     1     -32.098   7.349   1.284  1.00 20.00    -0.388 N 
ENDROOT
BRANCH   2   8
HETATM    8  C3  UNL     1     -34.348   7.489   4.328  1.00 20.00     0.147 C 
HETATM    9  C7  UNL     1     -35.361   6.417   4.023  1.00 20.00     0.096 C 
HETATM   10  O10 UNL     1     -34.203   7.919   5.470  1.00 20.00    -0.294 OA
ENDBRANCH   2   8
TORSDOF 1
ENDMDL
