MODEL 1
REMARK VINA RESULT:      -1.2      0.000      0.000
REMARK  0 active torsions:
REMARK  status: ('A' for Active; 'I' for Inactive)
ROOT
HETATM    1  C1  UNL     1     -32.380   8.295   2.330  1.00 20.00     0.027 A 
HETATM    2  C2  UNL     1     -31.609   7.635   1.384  1.00 20.00     0.116 A 
HETATM    3  C3  UNL     1     -32.638   5.598   1.770  1.00 20.00     0.124 A 
HETATM    4  C4  UNL     1     -33.302   7.524   3.010  1.00 20.00    -0.049 A 
HETATM    5  C5  UNL     1     -33.440   6.162   2.736  1.00 20.00    -0.030 A 
HETATM    6  C6  UNL     1     -34.284   7.962   4.050  1.00 20.00     0.040 C 
HETATM    7  C7  UNL     1     -34.664   6.612   4.679  1.00 20.00     0.014 C 
HETATM    8  C8  UNL     1     -34.536   5.556   3.560  1.00 20.00     0.017 C 
HETATM    9  C9  UNL     1     -34.241   4.168   4.105  1.00 20.00     0.015 C 
HETATM   10  N10 UNL     1     -31.712   6.312   1.088  1.00 20.00    -0.273 NA
ENDROOT
TORSDOF 0
ENDMDL
MODEL 2
REMARK VINA RESULT:      -1.2      1.633      3.313
REMARK  0 active torsions:
REMARK  status: ('A' for Active; 'I' for Inactive)
ROOT
HETATM    1  C1  UNL     1     -34.538   7.358   3.994  1.00 20.00     0.027 A 
HETATM    2  C2  UNL     1     -35.228   6.241   4.440  1.00 20.00     0.116 A 
HETATM    3  C3  UNL     1     -33.926   4.778   3.208  1.00 20.00     0.124 A 
HETATM    4  C4  UNL     1     -33.508   7.123   3.105  1.00 20.00    -0.049 A 
HETATM    5  C5  UNL     1     -33.191   5.825   2.701  1.00 20.00    -0.030 A 
HETATM    6  C6  UNL     1     -32.577   8.118   2.486  1.00 20.00     0.040 C 
HETATM    7  C7  UNL     1     -32.006   7.296   1.320  1.00 20.00     0.014 C 
HETATM    8  C8  UNL     1     -32.009   5.822   1.780  1.00 20.00     0.017 C 
HETATM    9  C9  UNL     1     -32.103   4.852   0.613  1.00 20.00     0.015 C 
HETATM   10  N10 UNL     1     -34.952   4.962   4.072  1.00 20.00    -0.273 NA
ENDROOT
TORSDOF 0
ENDMDL
MODEL 3
REMARK VINA RESULT:      -0.4      1.724      4.009
REMARK  0 active torsions:
REMARK  status: ('A' for Active; 'I' for Inactive)
ROOT
HETATM    1  C1  UNL     1     -34.208   4.629   3.419  1.00 20.00     0.027 A 
HETATM    2  C2  UNL     1     -34.982   5.287   4.363  1.00 20.00     0.116 A 
HETATM    3  C3  UNL     1     -34.254   7.380   3.698  1.00 20.00     0.124 A 
HETATM    4  C4  UNL     1     -33.427   5.428   2.608  1.00 20.00    -0.049 A 
HETATM    5  C5  UNL     1     -33.442   6.817   2.740  1.00 20.00    -0.030 A 
HETATM    6  C6  UNL     1     -32.525   5.007   1.490  1.00 20.00     0.040 C 
HETATM    7  C7  UNL     1     -31.666   6.269   1.318  1.00 20.00     0.014 C 
HETATM    8  C8  UNL     1     -32.559   7.464   1.716  1.00 20.00     0.017 C 
HETATM    9  C9  UNL     1     -31.750   8.649   2.220  1.00 20.00     0.015 C 
HETATM   10  N10 UNL     1     -35.026   6.636   4.524  1.00 20.00    -0.273 NA
ENDROOT
TORSDOF 0
ENDMDL
MODEL 4
REMARK VINA RESULT:       0.1      1.781      3.419
REMARK  0 active torsions:
REMARK  status: ('A' for Active; 'I' for Inactive)
ROOT
HETATM    1  C1  UNL     1     -35.197   6.262   4.392  1.00 20.00     0.027 A 
HETATM    2  C2  UNL     1     -35.291   4.912   4.693  1.00 20.00     0.116 A 
HETATM    3  C3  UNL     1     -33.449   4.359   3.406  1.00 20.00     0.124 A 
HETATM    4  C4  UNL     1     -34.170   6.628   3.545  1.00 20.00    -0.049 A 
HETATM    5  C5  UNL     1     -33.282   5.676   3.041  1.00 20.00    -0.030 A 
HETATM    6  C6  UNL     1     -33.804   8.001   3.075  1.00 20.00     0.040 C 
HETATM    7  C7  UNL     1     -32.908   7.668   1.872  1.00 20.00     0.014 C 
HETATM    8  C8  UNL     1     -32.228   6.320   2.192  1.00 20.00     0.017 C 
HETATM    9  C9  UNL     1     -31.851   5.549   0.937  1.00 20.00     0.015 C 
HETATM   10  N10 UNL     1     -34.448   3.953   4.223  1.00 20.00    -0.273 NA
ENDROOT
TORSDOF 0
ENDMDL
MODEL 5
REMARK VINA RESULT:       0.7      0.781      2.418
REMARK  0 active torsions:
REMARK  status: ('A' for Active; 'I' for Inactive)
ROOT
HETATM    1  C1  UNL     1     -32.629   5.371   1.515  1.00 20.00     0.027 A 
HETATM    2  C2  UNL     1     -31.765   6.261   0.896  1.00 20.00     0.116 A 
HETATM    3  C3  UNL     1     -32.290   7.987   2.345  1.00 20.00     0.124 A 
HETATM    4  C4  UNL     1     -33.344   5.862   2.589  1.00 20.00    -0.049 A 
HETATM    5  C5  UNL     1     -33.181   7.181   3.016  1.00 20.00    -0.030 A 
HETATM    6  C6  UNL     1     -34.315   5.133   3.463  1.00 20.00     0.040 C 
HETATM    7  C7  UNL     1     -35.043   6.309   4.134  1.00 20.00     0.014 C 
HETATM    8  C8  UNL     1     -34.020   7.462   4.226  1.00 20.00     0.017 C 
HETATM    9  C9  UNL     1     -34.688   8.827   4.245  1.00 20.00     0.015 C 
HETATM   10  N10 UNL     1     -31.578   7.552   1.280  1.00 20.00    -0.273 NA
ENDROOT
TORSDOF 0
ENDMDL
MODEL 6
REMARK VINA RESULT:       1.1      1.660      2.827
REMARK  0 active torsions:
REMARK  status: ('A' for Active; 'I' for Inactive)
ROOT
HETATM    1  C1  UNL     1     -31.628   8.078   0.319  1.00 20.00     0.027 A 
HETATM    2  C2  UNL     1     -31.939   9.428   0.391  1.00 20.00     0.116 A 
HETATM    3  C3  UNL     1     -33.219   9.167   2.302  1.00 20.00     0.124 A 
HETATM    4  C4  UNL     1     -32.171   7.274   1.300  1.00 20.00    -0.049 A 
HETATM    5  C5  UNL     1     -32.976   7.812   2.306  1.00 20.00    -0.030 A 
HETATM    6  C6  UNL     1     -31.985   5.802   1.496  1.00 20.00     0.040 C 
HETATM    7  C7  UNL     1     -33.155   5.483   2.439  1.00 20.00     0.014 C 
HETATM    8  C8  UNL     1     -33.399   6.755   3.280  1.00 20.00     0.017 C 
HETATM    9  C9  UNL     1     -34.837   6.861   3.763  1.00 20.00     0.015 C 
HETATM   10  N10 UNL     1     -32.719   9.992   1.353  1.00 20.00    -0.273 NA
ENDROOT
TORSDOF 0
ENDMDL
MODEL 7
REMARK VINA RESULT:       1.4      1.836      3.752
REMARK  0 active torsions:
REMARK  status: ('A' for Active; 'I' for Inactive)
ROOT
HETATM    1  C1  UNL     1     -33.072   4.046   3.038  1.00 20.00     0.027 A 
HETATM    2  C2  UNL     1     -33.943   3.575   4.010  1.00 20.00     0.116 A 
HETATM    3  C3  UNL     1     -34.881   5.660   4.370  1.00 20.00     0.124 A 
HETATM    4  C4  UNL     1     -33.139   5.397   2.763  1.00 20.00    -0.049 A 
HETATM    5  C5  UNL     1     -34.048   6.221   3.430  1.00 20.00    -0.030 A 
HETATM    6  C6  UNL     1     -32.355   6.174   1.753  1.00 20.00     0.040 C 
HETATM    7  C7  UNL     1     -32.578   7.610   2.251  1.00 20.00     0.014 C 
HETATM    8  C8  UNL     1     -33.969   7.630   2.923  1.00 20.00     0.017 C 
HETATM    9  C9  UNL     1     -34.081   8.706   3.990  1.00 20.00     0.015 C 
HETATM   10  N10 UNL     1     -34.842   4.343   4.681  1.00 20.00    -0.273 NA
ENDROOT
TORSDOF 0
ENDMDL
MODEL 8
REMARK VINA RESULT:       1.6      1.394      2.465
REMARK  0 active torsions:
REMARK  status: ('A' for Active; 'I' for Inactive)
ROOT
HETATM    1  C1  UNL     1     -33.092   8.127   4.358  1.00 20.00     0.027 A 
HETATM    2  C2  UNL     1     -32.080   8.969   3.920  1.00 20.00     0.116 A 
HETATM    3  C3  UNL     1     -31.752   7.777   1.964  1.00 20.00     0.124 A 
HETATM    4  C4  UNL     1     -33.404   7.067   3.530  1.00 20.00    -0.049 A 
HETATM    5  C5  UNL     1     -32.734   6.881   2.320  1.00 20.00    -0.030 A 
HETATM    6  C6  UNL     1     -34.461   6.025   3.722  1.00 20.00     0.040 C 
HETATM    7  C7  UNL     1     -33.997   4.952   2.724  1.00 20.00     0.014 C 
HETATM    8  C8  UNL     1     -33.284   5.701   1.577  1.00 20.00     0.017 C 
HETATM    9  C9  UNL     1     -32.245   4.836   0.880  1.00 20.00     0.015 C 
HETATM   10  N10 UNL     1     -31.403   8.822   2.750  1.00 20.00    -0.273 NA
ENDROOT
TORSDOF 0
ENDMDL
