MODEL 1
REMARK VINA RESULT:      -2.6      0.000      0.000
REMARK  3 active torsions:
REMARK  status: ('A' for Active; 'I' for Inactive)
REMARK    1  A    between atoms: C1_1  and  C4_4 
REMARK    2  A    between atoms: C4_4  and  C5_5 
REMARK    3  A    between atoms: N6_6  and  O7_7 
ROOT
HETATM    1  C1  UNL     1     -32.790   7.174   2.301  1.00 20.00     0.035 C 
HETATM    2  C2  UNL     1     -32.788   5.874   1.529  1.00 20.00     0.068 C 
HETATM    3  N6  UNL     1     -33.560   7.414   3.318  1.00 20.00    -0.146 NA
ENDROOT
BRANCH   1   4
HETATM    4  C4  UNL     1     -31.804   8.248   1.883  1.00 20.00     0.056 C 
BRANCH   4   5
HETATM    5  C5  UNL     1     -32.036   8.715   0.448  1.00 20.00     0.001 C 
HETATM    6  C3  UNL     1     -32.547  10.146   0.369  1.00 20.00     0.005 C 
ENDBRANCH   4   5
ENDBRANCH   1   4
BRANCH   3   7
HETATM    7  O7  UNL     1     -34.384   6.322   3.594  1.00 20.00    -0.266 OA
HETATM    8  H18 UNL     1     -34.303   5.803   2.777  1.00 20.00     0.247 HD
ENDBRANCH   3   7
TORSDOF 3
ENDMDL
MODEL 2
REMARK VINA RESULT:      -2.3      2.579      3.838
REMARK  3 active torsions:
REMARK  status: ('A' for Active; 'I' for Inactive)
REMARK    1  A    between atoms: C1_1  and  C4_4 
REMARK    2  A    between atoms: C4_4  and  C5_5 
REMARK    3  A    between atoms: N6_6  and  O7_7 
ROOT
HETATM    1  C1  UNL     1     -32.990   7.228   2.613  1.00 20.00     0.035 C 
HETATM    2  C2  UNL     1     -33.009   5.960   1.791  1.00 20.00     0.068 C 
HETATM    3  N6  UNL     1     -32.292   8.280   2.310  1.00 20.00    -0.146 NA
ENDROOT
BRANCH   1   4
HETATM    4  C4  UNL     1     -33.870   7.288   3.847  1.00 20.00     0.056 C 
BRANCH   4   5
HETATM    5  C5  UNL     1     -35.159   6.488   3.673  1.00 20.00     0.001 C 
HETATM    6  C3  UNL     1     -35.165   5.198   4.480  1.00 20.00     0.005 C 
ENDBRANCH   4   5
ENDBRANCH   1   4
BRANCH   3   7
HETATM    7  O7  UNL     1     -31.562   8.079   1.137  1.00 20.00    -0.266 OA
HETATM    8  H18 UNL     1     -32.135   8.502   0.475  1.00 20.00     0.247 HD
ENDBRANCH   3   7
TORSDOF 3
ENDMDL
MODEL 3
REMARK VINA RESULT:      -2.3      3.184      4.776
REMARK  3 active torsions:
REMARK  status: ('A' for Active; 'I' for Inactive)
REMARK    1  A    between atoms: C1_1  and  C4_4 
REMARK    2  A    between atoms: C4_4  and  C5_5 
REMARK    3  A    between atoms: N6_6  and  O7_7 
ROOT
HETATM    1  C1  UNL     1     -33.930   6.166   3.434  1.00 20.00     0.035 C 
HETATM    2  C2  UNL     1     -34.160   7.526   4.053  1.00 20.00     0.068 C 
HETATM    3  N6  UNL     1     -33.223   5.964   2.364  1.00 20.00    -0.146 NA
ENDROOT
BRANCH   1   4
HETATM    4  C4  UNL     1     -34.532   4.959   4.128  1.00 20.00     0.056 C 
BRANCH   4   5
HETATM    5  C5  UNL     1     -33.762   3.677   3.823  1.00 20.00     0.001 C 
HETATM    6  C3  UNL     1     -33.117   3.068   5.059  1.00 20.00     0.005 C 
ENDBRANCH   4   5
ENDBRANCH   1   4
BRANCH   3   7
HETATM    7  O7  UNL     1     -32.715   7.164   1.863  1.00 20.00    -0.266 OA
HETATM    8  H18 UNL     1     -33.341   7.811   2.230  1.00 20.00     0.247 HD
ENDBRANCH   3   7
TORSDOF 3
ENDMDL
MODEL 4
REMARK VINA RESULT:      -2.2      1.586      2.195
REMARK  3 active torsions:
REMARK  status: ('A' for Active; 'I' for Inactive)
REMARK    1  A    between atoms: C1_1  and  C4_4 
REMARK    2  A    between atoms: C4_4  and  C5_5 
REMARK    3  A    between atoms: N6_6  and  O7_7 
ROOT
HETATM    1  C1  UNL     1     -33.925   6.468   3.297  1.00 20.00     0.035 C 
HETATM    2  C2  UNL     1     -34.216   7.711   4.106  1.00 20.00     0.068 C 
HETATM    3  N6  UNL     1     -34.501   5.321   3.495  1.00 20.00    -0.146 NA
ENDROOT
BRANCH   1   4
HETATM    4  C4  UNL     1     -32.928   6.577   2.160  1.00 20.00     0.056 C 
BRANCH   4   5
HETATM    5  C5  UNL     1     -32.081   7.844   2.258  1.00 20.00     0.001 C 
HETATM    6  C3  UNL     1     -32.177   8.716   1.015  1.00 20.00     0.005 C 
ENDBRANCH   4   5
ENDBRANCH   1   4
BRANCH   3   7
HETATM    7  O7  UNL     1     -35.410   5.390   4.552  1.00 20.00    -0.266 OA
HETATM    8  H18 UNL     1     -35.773   6.284   4.440  1.00 20.00     0.247 HD
ENDBRANCH   3   7
TORSDOF 3
ENDMDL
MODEL 5
REMARK VINA RESULT:      -2.2      2.474      3.868
REMARK  3 active torsions:
REMARK  status: ('A' for Active; 'I' for Inactive)
REMARK    1  A    between atoms: C1_1  and  C4_4 
REMARK    2  A    between atoms: C4_4  and  C5_5 
REMARK    3  A    between atoms: N6_6  and  O7_7 
ROOT
HETATM    1  C1  UNL     1     -33.058   6.951   2.560  1.00 20.00     0.035 C 
HETATM    2  C2  UNL     1     -32.124   8.014   2.029  1.00 20.00     0.068 C 
HETATM    3  N6  UNL     1     -33.108   5.735   2.107  1.00 20.00    -0.146 NA
ENDROOT
BRANCH   1   4
HETATM    4  C4  UNL     1     -33.967   7.318   3.717  1.00 20.00     0.056 C 
BRANCH   4   5
HETATM    5  C5  UNL     1     -35.261   6.507   3.712  1.00 20.00     0.001 C 
HETATM    6  C3  UNL     1     -35.147   5.212   4.503  1.00 20.00     0.005 C 
ENDBRANCH   4   5
ENDBRANCH   1   4
BRANCH   3   7
HETATM    7  O7  UNL     1     -32.194   5.547   1.069  1.00 20.00    -0.266 OA
HETATM    8  H18 UNL     1     -32.644   5.989   0.329  1.00 20.00     0.247 HD
ENDBRANCH   3   7
TORSDOF 3
ENDMDL
MODEL 6
REMARK VINA RESULT:      -1.9      1.349      1.564
REMARK  3 active torsions:
REMARK  status: ('A' for Active; 'I' for Inactive)
REMARK    1  A    between atoms: C1_1  and  C4_4 
REMARK    2  A    between atoms: C4_4  and  C5_5 
REMARK    3  A    between atoms: N6_6  and  O7_7 
ROOT
HETATM    1  C1  UNL     1     -32.738   7.331   2.370  1.00 20.00     0.035 C 
HETATM    2  C2  UNL     1     -33.689   7.407   3.542  1.00 20.00     0.068 C 
HETATM    3  N6  UNL     1     -32.556   6.266   1.650  1.00 20.00    -0.146 NA
ENDROOT
BRANCH   1   4
HETATM    4  C4  UNL     1     -31.978   8.586   1.989  1.00 20.00     0.056 C 
BRANCH   4   5
HETATM    5  C5  UNL     1     -32.096   8.900   0.499  1.00 20.00     0.001 C 
HETATM    6  C3  UNL     1     -32.588  10.315   0.232  1.00 20.00     0.005 C 
ENDBRANCH   4   5
ENDBRANCH   1   4
BRANCH   3   7
HETATM    7  O7  UNL     1     -33.345   5.209   2.107  1.00 20.00    -0.266 OA
HETATM    8  H18 UNL     1     -32.722   4.464   2.060  1.00 20.00     0.247 HD
ENDBRANCH   3   7
TORSDOF 3
ENDMDL
MODEL 7
REMARK VINA RESULT:      -1.8      1.635      2.036
REMARK  3 active torsions:
REMARK  status: ('A' for Active; 'I' for Inactive)
REMARK    1  A    between atoms: C1_1  and  C4_4 
REMARK    2  A    between atoms: C4_4  and  C5_5 
REMARK    3  A    between atoms: N6_6  and  O7_7 
ROOT
HETATM    1  C1  UNL     1     -33.757   7.096   3.391  1.00 20.00     0.035 C 
HETATM    2  C2  UNL     1     -35.019   6.354   3.765  1.00 20.00     0.068 C 
HETATM    3  N6  UNL     1     -33.183   7.981   4.148  1.00 20.00    -0.146 NA
ENDROOT
BRANCH   1   4
HETATM    4  C4  UNL     1     -33.100   6.759   2.067  1.00 20.00     0.056 C 
BRANCH   4   5
HETATM    5  C5  UNL     1     -31.901   7.658   1.774  1.00 20.00     0.001 C 
HETATM    6  C3  UNL     1     -32.260   8.855   0.906  1.00 20.00     0.005 C 
ENDBRANCH   4   5
ENDBRANCH   1   4
BRANCH   3   7
HETATM    7  O7  UNL     1     -33.889   8.158   5.340  1.00 20.00    -0.266 OA
HETATM    8  H18 UNL     1     -34.365   7.313   5.413  1.00 20.00     0.247 HD
ENDBRANCH   3   7
TORSDOF 3
ENDMDL
MODEL 8
REMARK VINA RESULT:      -1.7      3.263      3.655
REMARK  3 active torsions:
REMARK  status: ('A' for Active; 'I' for Inactive)
REMARK    1  A    between atoms: C1_1  and  C4_4 
REMARK    2  A    between atoms: C4_4  and  C5_5 
REMARK    3  A    between atoms: N6_6  and  O7_7 
ROOT
HETATM    1  C1  UNL     1     -34.304   5.253   3.698  1.00 20.00     0.035 C 
HETATM    2  C2  UNL     1     -33.294   5.231   2.573  1.00 20.00     0.068 C 
HETATM    3  N6  UNL     1     -34.564   4.236   4.462  1.00 20.00    -0.146 NA
ENDROOT
BRANCH   1   4
HETATM    4  C4  UNL     1     -35.030   6.556   3.974  1.00 20.00     0.056 C 
BRANCH   4   5
HETATM    5  C5  UNL     1     -34.123   7.770   3.787  1.00 20.00     0.001 C 
HETATM    6  C3  UNL     1     -33.315   8.100   5.034  1.00 20.00     0.005 C 
ENDBRANCH   4   5
ENDBRANCH   1   4
BRANCH   3   7
HETATM    7  O7  UNL     1     -33.797   3.127   4.101  1.00 20.00    -0.266 OA
HETATM    8  H18 UNL     1     -33.965   2.522   4.844  1.00 20.00     0.247 HD
ENDBRANCH   3   7
TORSDOF 3
ENDMDL
MODEL 9
REMARK VINA RESULT:      -1.7      2.674      4.264
REMARK  3 active torsions:
REMARK  status: ('A' for Active; 'I' for Inactive)
REMARK    1  A    between atoms: C1_1  and  C4_4 
REMARK    2  A    between atoms: C4_4  and  C5_5 
REMARK    3  A    between atoms: N6_6  and  O7_7 
ROOT
HETATM    1  C1  UNL     1     -33.879   7.272   3.805  1.00 20.00     0.035 C 
HETATM    2  C2  UNL     1     -32.974   7.398   2.601  1.00 20.00     0.068 C 
HETATM    3  N6  UNL     1     -33.635   7.818   4.958  1.00 20.00    -0.146 NA
ENDROOT
BRANCH   1   4
HETATM    4  C4  UNL     1     -35.169   6.492   3.645  1.00 20.00     0.056 C 
BRANCH   4   5
HETATM    5  C5  UNL     1     -35.178   5.216   4.484  1.00 20.00     0.001 C 
HETATM    6  C3  UNL     1     -34.097   4.230   4.067  1.00 20.00     0.005 C 
ENDBRANCH   4   5
ENDBRANCH   1   4
BRANCH   3   7
HETATM    7  O7  UNL     1     -32.431   8.523   4.936  1.00 20.00    -0.266 OA
HETATM    8  H18 UNL     1     -31.844   7.897   4.480  1.00 20.00     0.247 HD
ENDBRANCH   3   7
TORSDOF 3
ENDMDL
