MODEL 1
REMARK VINA RESULT:      -1.8      0.000      0.000
REMARK  1 active torsions:
REMARK  status: ('A' for Active; 'I' for Inactive)
REMARK    1  A    between atoms: C1_1  and  C2_2 
ROOT
HETATM    1  C1  UNL     1     -33.730   6.626   3.125  1.00 20.00     0.028 C 
HETATM    2  C4  UNL     1     -32.871   7.721   3.720  1.00 20.00     0.059 C 
HETATM    3  C5  UNL     1     -32.307   8.609   2.618  1.00 20.00     0.008 C 
HETATM    4  C6  UNL     1     -31.980   7.835   1.341  1.00 20.00     0.022 C 
HETATM    5  C7  UNL     1     -32.041   6.328   1.552  1.00 20.00     0.149 C 
HETATM    6  N9  UNL     1     -33.349   5.942   2.095  1.00 20.00    -0.294 NA
ENDROOT
BRANCH   1   7
HETATM    7  C2  UNL     1     -35.018   6.333   3.781  1.00 20.00     0.022 C 
HETATM    8  C3  UNL     1     -35.239   5.193   4.399  1.00 20.00    -0.029 C 
HETATM    9  C8  UNL     1     -34.203   4.120   4.481  1.00 20.00     0.036 C 
ENDBRANCH   1   7
TORSDOF 1
ENDMDL
MODEL 2
REMARK VINA RESULT:      -1.5      1.033      1.772
REMARK  1 active torsions:
REMARK  status: ('A' for Active; 'I' for Inactive)
REMARK    1  A    between atoms: C1_1  and  C2_2 
ROOT
HETATM    1  C1  UNL     1     -34.024   6.683   3.015  1.00 20.00     0.028 C 
HETATM    2  C4  UNL     1     -33.921   6.001   1.668  1.00 20.00     0.059 C 
HETATM    3  C5  UNL     1     -32.461   5.766   1.303  1.00 20.00     0.008 C 
HETATM    4  C6  UNL     1     -31.540   6.883   1.792  1.00 20.00     0.022 C 
HETATM    5  C7  UNL     1     -32.320   8.092   2.291  1.00 20.00     0.149 C 
HETATM    6  N9  UNL     1     -33.274   7.690   3.331  1.00 20.00    -0.294 NA
ENDROOT
BRANCH   1   7
HETATM    7  C2  UNL     1     -35.038   6.183   3.962  1.00 20.00     0.022 C 
HETATM    8  C3  UNL     1     -34.972   4.974   4.476  1.00 20.00    -0.029 C 
HETATM    9  C8  UNL     1     -33.867   4.028   4.139  1.00 20.00     0.036 C 
ENDBRANCH   1   7
TORSDOF 1
ENDMDL
MODEL 3
REMARK VINA RESULT:      -1.2      1.735      4.363
REMARK  1 active torsions:
REMARK  status: ('A' for Active; 'I' for Inactive)
REMARK    1  A    between atoms: C1_1  and  C2_2 
ROOT
HETATM    1  C1  UNL     1     -32.266   7.770   2.062  1.00 20.00     0.028 C 
HETATM    2  C4  UNL     1     -32.939   6.417   2.161  1.00 20.00     0.059 C 
HETATM    3  C5  UNL     1     -34.237   6.528   2.950  1.00 20.00     0.008 C 
HETATM    4  C6  UNL     1     -34.159   7.552   4.082  1.00 20.00     0.022 C 
HETATM    5  C7  UNL     1     -32.733   8.027   4.327  1.00 20.00     0.149 C 
HETATM    6  N9  UNL     1     -32.149   8.551   3.086  1.00 20.00    -0.294 NA
ENDROOT
BRANCH   1   7
HETATM    7  C2  UNL     1     -31.711   8.165   0.755  1.00 20.00     0.022 C 
HETATM    8  C3  UNL     1     -32.002   9.320   0.197  1.00 20.00    -0.029 C 
HETATM    9  C8  UNL     1     -32.912  10.309   0.849  1.00 20.00     0.036 C 
ENDBRANCH   1   7
TORSDOF 1
ENDMDL
MODEL 4
REMARK VINA RESULT:      -0.7      1.764      3.117
REMARK  1 active torsions:
REMARK  status: ('A' for Active; 'I' for Inactive)
REMARK    1  A    between atoms: C1_1  and  C2_2 
ROOT
HETATM    1  C1  UNL     1     -34.081   4.489   3.688  1.00 20.00     0.028 C 
HETATM    2  C4  UNL     1     -33.443   5.353   2.622  1.00 20.00     0.059 C 
HETATM    3  C5  UNL     1     -33.203   6.761   3.154  1.00 20.00     0.008 C 
HETATM    4  C6  UNL     1     -34.292   7.224   4.121  1.00 20.00     0.022 C 
HETATM    5  C7  UNL     1     -35.493   6.287   4.123  1.00 20.00     0.149 C 
HETATM    6  N9  UNL     1     -35.067   4.912   4.411  1.00 20.00    -0.294 NA
ENDROOT
BRANCH   1   7
HETATM    7  C2  UNL     1     -33.562   3.121   3.863  1.00 20.00     0.022 C 
HETATM    8  C3  UNL     1     -32.862   2.772   4.921  1.00 20.00    -0.029 C 
HETATM    9  C8  UNL     1     -32.548   3.737   6.017  1.00 20.00     0.036 C 
ENDBRANCH   1   7
TORSDOF 1
ENDMDL
MODEL 5
REMARK VINA RESULT:      -0.6      1.357      4.048
REMARK  1 active torsions:
REMARK  status: ('A' for Active; 'I' for Inactive)
REMARK    1  A    between atoms: C1_1  and  C2_2 
ROOT
HETATM    1  C1  UNL     1     -32.574   7.532   2.061  1.00 20.00     0.028 C 
HETATM    2  C4  UNL     1     -33.697   8.166   2.853  1.00 20.00     0.059 C 
HETATM    3  C5  UNL     1     -34.130   7.246   3.988  1.00 20.00     0.008 C 
HETATM    4  C6  UNL     1     -34.046   5.766   3.617  1.00 20.00     0.022 C 
HETATM    5  C7  UNL     1     -33.808   5.560   2.128  1.00 20.00     0.149 C 
HETATM    6  N9  UNL     1     -32.610   6.291   1.697  1.00 20.00    -0.294 NA
ENDROOT
BRANCH   1   7
HETATM    7  C2  UNL     1     -31.434   8.387   1.684  1.00 20.00     0.022 C 
HETATM    8  C3  UNL     1     -31.516   9.261   0.703  1.00 20.00    -0.029 C 
HETATM    9  C8  UNL     1     -32.766   9.446  -0.092  1.00 20.00     0.036 C 
ENDBRANCH   1   7
TORSDOF 1
ENDMDL
MODEL 6
REMARK VINA RESULT:      -0.6      1.085      4.047
REMARK  1 active torsions:
REMARK  status: ('A' for Active; 'I' for Inactive)
REMARK    1  A    between atoms: C1_1  and  C2_2 
ROOT
HETATM    1  C1  UNL     1     -33.401   5.913   2.699  1.00 20.00     0.028 C 
HETATM    2  C4  UNL     1     -33.127   4.767   3.649  1.00 20.00     0.059 C 
HETATM    3  C5  UNL     1     -34.431   4.243   4.237  1.00 20.00     0.008 C 
HETATM    4  C6  UNL     1     -35.464   5.346   4.469  1.00 20.00     0.022 C 
HETATM    5  C7  UNL     1     -34.863   6.736   4.312  1.00 20.00     0.149 C 
HETATM    6  N9  UNL     1     -34.220   6.869   2.999  1.00 20.00    -0.294 NA
ENDROOT
BRANCH   1   7
HETATM    7  C2  UNL     1     -32.675   5.928   1.416  1.00 20.00     0.022 C 
HETATM    8  C3  UNL     1     -31.916   6.941   1.059  1.00 20.00    -0.029 C 
HETATM    9  C8  UNL     1     -31.738   8.144   1.927  1.00 20.00     0.036 C 
ENDBRANCH   1   7
TORSDOF 1
ENDMDL
MODEL 7
REMARK VINA RESULT:      -0.1      1.204      2.163
REMARK  1 active torsions:
REMARK  status: ('A' for Active; 'I' for Inactive)
REMARK    1  A    between atoms: C1_1  and  C2_2 
ROOT
HETATM    1  C1  UNL     1     -33.482   6.526   2.914  1.00 20.00     0.028 C 
HETATM    2  C4  UNL     1     -33.246   5.721   1.654  1.00 20.00     0.059 C 
HETATM    3  C5  UNL     1     -31.814   5.906   1.167  1.00 20.00     0.008 C 
HETATM    4  C6  UNL     1     -31.278   7.315   1.419  1.00 20.00     0.022 C 
HETATM    5  C7  UNL     1     -32.377   8.277   1.851  1.00 20.00     0.149 C 
HETATM    6  N9  UNL     1     -33.082   7.752   3.026  1.00 20.00    -0.294 NA
ENDROOT
BRANCH   1   7
HETATM    7  C2  UNL     1     -34.217   5.877   4.014  1.00 20.00     0.022 C 
HETATM    8  C3  UNL     1     -35.523   5.977   4.131  1.00 20.00    -0.029 C 
HETATM    9  C8  UNL     1     -36.349   6.754   3.159  1.00 20.00     0.036 C 
ENDBRANCH   1   7
TORSDOF 1
ENDMDL
MODEL 8
REMARK VINA RESULT:      -0.1      1.670      4.234
REMARK  1 active torsions:
REMARK  status: ('A' for Active; 'I' for Inactive)
REMARK    1  A    between atoms: C1_1  and  C2_2 
ROOT
HETATM    1  C1  UNL     1     -32.448   8.235   2.069  1.00 20.00     0.028 C 
HETATM    2  C4  UNL     1     -31.380   7.250   1.642  1.00 20.00     0.059 C 
HETATM    3  C5  UNL     1     -32.019   5.980   1.094  1.00 20.00     0.008 C 
HETATM    4  C6  UNL     1     -33.316   5.610   1.813  1.00 20.00     0.022 C 
HETATM    5  C7  UNL     1     -33.528   6.436   3.074  1.00 20.00     0.149 C 
HETATM    6  N9  UNL     1     -33.478   7.869   2.761  1.00 20.00    -0.294 NA
ENDROOT
BRANCH   1   7
HETATM    7  C2  UNL     1     -32.264   9.649   1.695  1.00 20.00     0.022 C 
HETATM    8  C3  UNL     1     -32.376  10.060   0.450  1.00 20.00    -0.029 C 
HETATM    9  C8  UNL     1     -32.697   9.123  -0.668  1.00 20.00     0.036 C 
ENDBRANCH   1   7
TORSDOF 1
ENDMDL
MODEL 9
REMARK VINA RESULT:       0.1      1.422      3.371
REMARK  1 active torsions:
REMARK  status: ('A' for Active; 'I' for Inactive)
REMARK    1  A    between atoms: C1_1  and  C2_2 
ROOT
HETATM    1  C1  UNL     1     -33.280   6.274   2.187  1.00 20.00     0.028 C 
HETATM    2  C4  UNL     1     -34.014   5.497   3.259  1.00 20.00     0.059 C 
HETATM    3  C5  UNL     1     -34.935   6.421   4.046  1.00 20.00     0.008 C 
HETATM    4  C6  UNL     1     -34.360   7.826   4.220  1.00 20.00     0.022 C 
HETATM    5  C7  UNL     1     -32.897   7.902   3.805  1.00 20.00     0.149 C 
HETATM    6  N9  UNL     1     -32.731   7.421   2.428  1.00 20.00    -0.294 NA
ENDROOT
BRANCH   1   7
HETATM    7  C2  UNL     1     -33.178   5.664   0.849  1.00 20.00     0.022 C 
HETATM    8  C3  UNL     1     -32.177   4.877   0.518  1.00 20.00    -0.029 C 
HETATM    9  C8  UNL     1     -31.079   4.545   1.475  1.00 20.00     0.036 C 
ENDBRANCH   1   7
TORSDOF 1
ENDMDL
