MODEL 1
REMARK VINA RESULT:      -1.3      0.000      0.000
REMARK  0 active torsions:
REMARK  status: ('A' for Active; 'I' for Inactive)
ROOT
HETATM    1  C1  UNL     1     -32.240   8.942   1.023  1.00 20.00     0.064 C 
HETATM    2  C2  UNL     1     -32.420   8.163   3.369  1.00 20.00     0.045 C 
HETATM    3  C3  UNL     1     -31.829   6.551   1.530  1.00 20.00     0.045 C 
HETATM    4  C4  UNL     1     -33.819   7.553   3.354  1.00 20.00     0.169 C 
HETATM    5  C5  UNL     1     -33.263   6.036   1.623  1.00 20.00     0.169 C 
HETATM    6  C6  UNL     1     -31.706   7.997   2.023  1.00 20.00     0.097 C 
HETATM    7  N7  UNL     1     -32.659   9.685   0.237  1.00 20.00    -0.197 NA
HETATM    8  O8  UNL     1     -33.770   6.187   2.947  1.00 20.00    -0.391 OA
ENDROOT
TORSDOF 0
ENDMDL
MODEL 2
REMARK VINA RESULT:      -0.5      2.982      3.769
REMARK  0 active torsions:
REMARK  status: ('A' for Active; 'I' for Inactive)
ROOT
HETATM    1  C1  UNL     1     -33.832   4.538   3.782  1.00 20.00     0.064 C 
HETATM    2  C2  UNL     1     -34.570   6.903   3.715  1.00 20.00     0.045 C 
HETATM    3  C3  UNL     1     -33.495   5.842   1.703  1.00 20.00     0.045 C 
HETATM    4  C4  UNL     1     -33.243   7.617   3.956  1.00 20.00     0.169 C 
HETATM    5  C5  UNL     1     -32.231   6.618   2.062  1.00 20.00     0.169 C 
HETATM    6  C6  UNL     1     -34.388   5.602   2.925  1.00 20.00     0.097 C 
HETATM    7  N7  UNL     1     -33.395   3.701   4.457  1.00 20.00    -0.197 NA
HETATM    8  O8  UNL     1     -32.557   7.839   2.725  1.00 20.00    -0.391 OA
ENDROOT
TORSDOF 0
ENDMDL
MODEL 3
REMARK VINA RESULT:      -0.1      2.764      3.625
REMARK  0 active torsions:
REMARK  status: ('A' for Active; 'I' for Inactive)
ROOT
HETATM    1  C1  UNL     1     -33.639   7.688   4.284  1.00 20.00     0.064 C 
HETATM    2  C2  UNL     1     -33.446   5.874   2.606  1.00 20.00     0.045 C 
HETATM    3  C3  UNL     1     -35.583   6.203   3.892  1.00 20.00     0.045 C 
HETATM    4  C4  UNL     1     -33.168   4.681   3.516  1.00 20.00     0.169 C 
HETATM    5  C5  UNL     1     -35.180   4.990   4.726  1.00 20.00     0.169 C 
HETATM    6  C6  UNL     1     -34.369   6.902   3.271  1.00 20.00     0.097 C 
HETATM    7  N7  UNL     1     -33.064   8.306   5.081  1.00 20.00    -0.197 NA
HETATM    8  O8  UNL     1     -34.388   4.087   3.957  1.00 20.00    -0.391 OA
ENDROOT
TORSDOF 0
ENDMDL
MODEL 4
REMARK VINA RESULT:       0.6      2.395      3.499
REMARK  0 active torsions:
REMARK  status: ('A' for Active; 'I' for Inactive)
ROOT
HETATM    1  C1  UNL     1     -35.396   6.586   3.439  1.00 20.00     0.064 C 
HETATM    2  C2  UNL     1     -33.336   5.277   3.008  1.00 20.00     0.045 C 
HETATM    3  C3  UNL     1     -33.193   7.668   3.777  1.00 20.00     0.045 C 
HETATM    4  C4  UNL     1     -32.972   5.781   1.615  1.00 20.00     0.169 C 
HETATM    5  C5  UNL     1     -32.837   8.031   2.339  1.00 20.00     0.169 C 
HETATM    6  C6  UNL     1     -33.999   6.367   3.859  1.00 20.00     0.097 C 
HETATM    7  N7  UNL     1     -36.495   6.758   3.109  1.00 20.00    -0.197 NA
HETATM    8  O8  UNL     1     -32.161   6.952   1.696  1.00 20.00    -0.391 OA
ENDROOT
TORSDOF 0
ENDMDL
MODEL 5
REMARK VINA RESULT:       0.8      2.328      3.172
REMARK  0 active torsions:
REMARK  status: ('A' for Active; 'I' for Inactive)
ROOT
HETATM    1  C1  UNL     1     -33.422   8.008   4.611  1.00 20.00     0.064 C 
HETATM    2  C2  UNL     1     -33.389   7.686   2.154  1.00 20.00     0.045 C 
HETATM    3  C3  UNL     1     -34.794   6.200   3.619  1.00 20.00     0.045 C 
HETATM    4  C4  UNL     1     -32.409   6.522   2.039  1.00 20.00     0.169 C 
HETATM    5  C5  UNL     1     -33.731   5.123   3.417  1.00 20.00     0.169 C 
HETATM    6  C6  UNL     1     -34.223   7.610   3.438  1.00 20.00     0.097 C 
HETATM    7  N7  UNL     1     -32.792   8.322   5.534  1.00 20.00    -0.197 NA
HETATM    8  O8  UNL     1     -33.091   5.274   2.151  1.00 20.00    -0.391 OA
ENDROOT
TORSDOF 0
ENDMDL
MODEL 6
REMARK VINA RESULT:       0.9      1.969      2.832
REMARK  0 active torsions:
REMARK  status: ('A' for Active; 'I' for Inactive)
ROOT
HETATM    1  C1  UNL     1     -33.545   5.439   0.542  1.00 20.00     0.064 C 
HETATM    2  C2  UNL     1     -31.820   6.809   1.678  1.00 20.00     0.045 C 
HETATM    3  C3  UNL     1     -33.396   5.373   3.014  1.00 20.00     0.045 C 
HETATM    4  C4  UNL     1     -32.659   8.007   2.115  1.00 20.00     0.169 C 
HETATM    5  C5  UNL     1     -34.142   6.655   3.373  1.00 20.00     0.169 C 
HETATM    6  C6  UNL     1     -32.628   5.505   1.695  1.00 20.00     0.097 C 
HETATM    7  N7  UNL     1     -34.267   5.387  -0.365  1.00 20.00    -0.197 NA
HETATM    8  O8  UNL     1     -33.252   7.770   3.391  1.00 20.00    -0.391 OA
ENDROOT
TORSDOF 0
ENDMDL
MODEL 7
REMARK VINA RESULT:       0.9      2.488      2.999
REMARK  0 active torsions:
REMARK  status: ('A' for Active; 'I' for Inactive)
ROOT
HETATM    1  C1  UNL     1     -33.148   5.894   1.773  1.00 20.00     0.064 C 
HETATM    2  C2  UNL     1     -34.262   6.951   3.719  1.00 20.00     0.045 C 
HETATM    3  C3  UNL     1     -33.000   4.792   3.987  1.00 20.00     0.045 C 
HETATM    4  C4  UNL     1     -35.544   6.126   3.789  1.00 20.00     0.169 C 
HETATM    5  C5  UNL     1     -34.356   4.093   4.042  1.00 20.00     0.169 C 
HETATM    6  C6  UNL     1     -33.070   6.121   3.229  1.00 20.00     0.097 C 
HETATM    7  N7  UNL     1     -33.210   5.715   0.628  1.00 20.00    -0.197 NA
HETATM    8  O8  UNL     1     -35.350   4.959   4.587  1.00 20.00    -0.391 OA
ENDROOT
TORSDOF 0
ENDMDL
MODEL 8
REMARK VINA RESULT:       1.3      1.548      2.558
REMARK  0 active torsions:
REMARK  status: ('A' for Active; 'I' for Inactive)
ROOT
HETATM    1  C1  UNL     1     -32.154   7.806   2.242  1.00 20.00     0.064 C 
HETATM    2  C2  UNL     1     -33.119   5.580   1.735  1.00 20.00     0.045 C 
HETATM    3  C3  UNL     1     -34.539   7.384   2.764  1.00 20.00     0.045 C 
HETATM    4  C4  UNL     1     -33.070   4.933   3.116  1.00 20.00     0.169 C 
HETATM    5  C5  UNL     1     -34.407   6.631   4.084  1.00 20.00     0.169 C 
HETATM    6  C6  UNL     1     -33.371   7.090   1.816  1.00 20.00     0.097 C 
HETATM    7  N7  UNL     1     -31.196   8.369   2.577  1.00 20.00    -0.197 NA
HETATM    8  O8  UNL     1     -34.252   5.231   3.856  1.00 20.00    -0.391 OA
ENDROOT
TORSDOF 0
ENDMDL
MODEL 9
REMARK VINA RESULT:       1.4      2.147      2.902
REMARK  0 active torsions:
REMARK  status: ('A' for Active; 'I' for Inactive)
ROOT
HETATM    1  C1  UNL     1     -32.015   5.589   1.462  1.00 20.00     0.064 C 
HETATM    2  C2  UNL     1     -34.257   6.349   2.199  1.00 20.00     0.045 C 
HETATM    3  C3  UNL     1     -32.401   8.008   1.836  1.00 20.00     0.045 C 
HETATM    4  C4  UNL     1     -34.015   6.518   3.696  1.00 20.00     0.169 C 
HETATM    5  C5  UNL     1     -32.269   8.080   3.354  1.00 20.00     0.169 C 
HETATM    6  C6  UNL     1     -33.006   6.678   1.374  1.00 20.00     0.097 C 
HETATM    7  N7  UNL     1     -31.235   4.733   1.530  1.00 20.00    -0.197 NA
HETATM    8  O8  UNL     1     -33.523   7.825   3.984  1.00 20.00    -0.391 OA
ENDROOT
TORSDOF 0
ENDMDL
