MODEL 1
REMARK VINA RESULT:       0.3      0.000      0.000
REMARK  0 active torsions:
REMARK  status: ('A' for Active; 'I' for Inactive)
ROOT
HETATM    1  C1  UNL     1     -34.412   7.465   3.784  1.00 20.00     0.011 C 
HETATM    2  C2  UNL     1     -34.610   5.956   3.944  1.00 20.00     0.011 C 
HETATM    3  C3  UNL     1     -32.966   7.948   3.851  1.00 20.00     0.075 C 
HETATM    4  C4  UNL     1     -33.651   5.017   3.217  1.00 20.00     0.075 C 
HETATM    5  C5  UNL     1     -31.876   6.499   1.714  1.00 20.00     0.147 C 
HETATM    6  S6  UNL     1     -32.245   8.203   2.195  1.00 20.00    -0.159 SA
HETATM    7  S7  UNL     1     -33.338   5.457   1.484  1.00 20.00    -0.159 SA
ENDROOT
TORSDOF 0
ENDMDL
MODEL 2
REMARK VINA RESULT:       0.7      1.318      2.519
REMARK  0 active torsions:
REMARK  status: ('A' for Active; 'I' for Inactive)
ROOT
HETATM    1  C1  UNL     1     -33.308   4.993   2.967  1.00 20.00     0.011 C 
HETATM    2  C2  UNL     1     -34.524   5.424   3.792  1.00 20.00     0.011 C 
HETATM    3  C3  UNL     1     -33.119   5.729   1.644  1.00 20.00     0.075 C 
HETATM    4  C4  UNL     1     -34.830   6.915   3.908  1.00 20.00     0.075 C 
HETATM    5  C5  UNL     1     -32.888   8.358   2.584  1.00 20.00     0.147 C 
HETATM    6  S6  UNL     1     -31.900   7.080   1.772  1.00 20.00    -0.159 SA
HETATM    7  S7  UNL     1     -33.387   7.953   4.277  1.00 20.00    -0.159 SA
ENDROOT
TORSDOF 0
ENDMDL
MODEL 3
REMARK VINA RESULT:       0.8      1.532      2.662
REMARK  0 active torsions:
REMARK  status: ('A' for Active; 'I' for Inactive)
ROOT
HETATM    1  C1  UNL     1     -31.815   7.578   2.193  1.00 20.00     0.011 C 
HETATM    2  C2  UNL     1     -32.045   6.371   1.279  1.00 20.00     0.011 C 
HETATM    3  C3  UNL     1     -33.057   8.401   2.519  1.00 20.00     0.075 C 
HETATM    4  C4  UNL     1     -33.271   5.497   1.528  1.00 20.00     0.075 C 
HETATM    5  C5  UNL     1     -34.633   6.431   3.737  1.00 20.00     0.147 C 
HETATM    6  S6  UNL     1     -33.768   7.967   4.141  1.00 20.00    -0.159 SA
HETATM    7  S7  UNL     1     -33.544   5.062   3.270  1.00 20.00    -0.159 SA
ENDROOT
TORSDOF 0
ENDMDL
MODEL 4
REMARK VINA RESULT:       0.9      1.382      3.053
REMARK  0 active torsions:
REMARK  status: ('A' for Active; 'I' for Inactive)
ROOT
HETATM    1  C1  UNL     1     -32.205   8.054   1.730  1.00 20.00     0.011 C 
HETATM    2  C2  UNL     1     -32.310   8.666   3.130  1.00 20.00     0.011 C 
HETATM    3  C3  UNL     1     -31.776   6.591   1.685  1.00 20.00     0.075 C 
HETATM    4  C4  UNL     1     -32.957   7.838   4.236  1.00 20.00     0.075 C 
HETATM    5  C5  UNL     1     -33.836   5.440   3.196  1.00 20.00     0.147 C 
HETATM    6  S6  UNL     1     -33.196   5.460   1.505  1.00 20.00    -0.159 SA
HETATM    7  S7  UNL     1     -34.508   7.024   3.758  1.00 20.00    -0.159 SA
ENDROOT
TORSDOF 0
ENDMDL
MODEL 5
REMARK VINA RESULT:       1.0      1.404      2.690
REMARK  0 active torsions:
REMARK  status: ('A' for Active; 'I' for Inactive)
ROOT
HETATM    1  C1  UNL     1     -32.862   7.940   4.190  1.00 20.00     0.011 C 
HETATM    2  C2  UNL     1     -32.097   8.558   3.017  1.00 20.00     0.011 C 
HETATM    3  C3  UNL     1     -34.265   7.435   3.865  1.00 20.00     0.075 C 
HETATM    4  C4  UNL     1     -32.163   7.862   1.661  1.00 20.00     0.075 C 
HETATM    5  C5  UNL     1     -33.651   5.551   1.884  1.00 20.00     0.147 C 
HETATM    6  S6  UNL     1     -34.301   5.635   3.570  1.00 20.00    -0.159 SA
HETATM    7  S7  UNL     1     -31.922   6.064   1.725  1.00 20.00    -0.159 SA
ENDROOT
TORSDOF 0
ENDMDL
MODEL 6
REMARK VINA RESULT:       1.0      1.366      3.237
REMARK  0 active torsions:
REMARK  status: ('A' for Active; 'I' for Inactive)
ROOT
HETATM    1  C1  UNL     1     -33.367   5.366   1.637  1.00 20.00     0.011 C 
HETATM    2  C2  UNL     1     -32.057   6.020   1.187  1.00 20.00     0.011 C 
HETATM    3  C3  UNL     1     -33.559   5.254   3.146  1.00 20.00     0.075 C 
HETATM    4  C4  UNL     1     -31.578   7.266   1.927  1.00 20.00     0.075 C 
HETATM    5  C5  UNL     1     -33.429   7.963   3.849  1.00 20.00     0.147 C 
HETATM    6  S6  UNL     1     -34.607   6.591   3.811  1.00 20.00    -0.159 SA
HETATM    7  S7  UNL     1     -32.868   8.511   2.218  1.00 20.00    -0.159 SA
ENDROOT
TORSDOF 0
ENDMDL
MODEL 7
REMARK VINA RESULT:       1.4      1.100      2.556
REMARK  0 active torsions:
REMARK  status: ('A' for Active; 'I' for Inactive)
ROOT
HETATM    1  C1  UNL     1     -34.028   5.740   3.576  1.00 20.00     0.011 C 
HETATM    2  C2  UNL     1     -34.602   7.077   4.052  1.00 20.00     0.011 C 
HETATM    3  C3  UNL     1     -33.786   5.628   2.074  1.00 20.00     0.075 C 
HETATM    4  C4  UNL     1     -34.032   8.363   3.459  1.00 20.00     0.075 C 
HETATM    5  C5  UNL     1     -31.985   7.744   1.718  1.00 20.00     0.147 C 
HETATM    6  S6  UNL     1     -32.045   5.939   1.628  1.00 20.00    -0.159 SA
HETATM    7  S7  UNL     1     -32.219   8.417   3.382  1.00 20.00    -0.159 SA
ENDROOT
TORSDOF 0
ENDMDL
