MODEL 1
REMARK VINA RESULT:      -0.8      0.000      0.000
REMARK  0 active torsions:
REMARK  status: ('A' for Active; 'I' for Inactive)
ROOT
HETATM    1  C1  UNL     1     -33.374   7.969   2.676  1.00 20.00     0.029 A 
HETATM    2  C2  UNL     1     -32.130   6.463   1.285  1.00 20.00     0.136 A 
HETATM    3  C3  UNL     1     -33.887   6.855   3.308  1.00 20.00    -0.032 A 
HETATM    4  C4  UNL     1     -32.474   7.770   1.631  1.00 20.00     0.029 A 
HETATM    5  C5  UNL     1     -33.479   5.593   2.891  1.00 20.00     0.040 A 
HETATM    6  C6  UNL     1     -34.828   6.770   4.463  1.00 20.00     0.041 C 
HETATM    7  C7  UNL     1     -34.107   4.524   3.740  1.00 20.00     0.060 C 
HETATM    8  C8  UNL     1     -35.273   5.301   4.370  1.00 20.00     0.011 C 
HETATM    9  N9  UNL     1     -32.609   5.354   1.896  1.00 20.00    -0.264 NA
HETATM   10 BR10 UNL     1     -31.736   9.237   0.707  1.00 20.00    -0.050 Br
ENDROOT
TORSDOF 0
ENDMDL
MODEL 2
REMARK VINA RESULT:       0.4      1.254      2.109
REMARK  0 active torsions:
REMARK  status: ('A' for Active; 'I' for Inactive)
ROOT
HETATM    1  C1  UNL     1     -32.639   6.275   1.925  1.00 20.00     0.029 A 
HETATM    2  C2  UNL     1     -33.557   8.210   3.004  1.00 20.00     0.136 A 
HETATM    3  C3  UNL     1     -33.375   5.515   2.810  1.00 20.00    -0.032 A 
HETATM    4  C4  UNL     1     -32.727   7.662   2.026  1.00 20.00     0.029 A 
HETATM    5  C5  UNL     1     -34.177   6.156   3.748  1.00 20.00     0.040 A 
HETATM    6  C6  UNL     1     -33.500   4.031   2.910  1.00 20.00     0.041 C 
HETATM    7  C7  UNL     1     -34.933   5.154   4.574  1.00 20.00     0.060 C 
HETATM    8  C8  UNL     1     -34.112   3.882   4.312  1.00 20.00     0.011 C 
HETATM    9  N9  UNL     1     -34.299   7.487   3.876  1.00 20.00    -0.264 NA
HETATM   10 BR10 UNL     1     -31.745   8.774   0.863  1.00 20.00    -0.050 Br
ENDROOT
TORSDOF 0
ENDMDL
MODEL 3
REMARK VINA RESULT:       1.1      2.002      2.654
REMARK  0 active torsions:
REMARK  status: ('A' for Active; 'I' for Inactive)
ROOT
HETATM    1  C1  UNL     1     -33.262   5.288   2.151  1.00 20.00     0.029 A 
HETATM    2  C2  UNL     1     -31.665   6.886   1.346  1.00 20.00     0.136 A 
HETATM    3  C3  UNL     1     -33.733   6.280   2.986  1.00 20.00    -0.032 A 
HETATM    4  C4  UNL     1     -32.194   5.596   1.311  1.00 20.00     0.029 A 
HETATM    5  C5  UNL     1     -33.140   7.537   2.945  1.00 20.00     0.040 A 
HETATM    6  C6  UNL     1     -34.870   6.245   3.952  1.00 20.00     0.041 C 
HETATM    7  C7  UNL     1     -33.833   8.482   3.885  1.00 20.00     0.060 C 
HETATM    8  C8  UNL     1     -34.573   7.494   4.799  1.00 20.00     0.011 C 
HETATM    9  N9  UNL     1     -32.117   7.881   2.146  1.00 20.00    -0.264 NA
HETATM   10 BR10 UNL     1     -31.481   4.295   0.147  1.00 20.00    -0.050 Br
ENDROOT
TORSDOF 0
ENDMDL
MODEL 4
REMARK VINA RESULT:       1.1      2.565      4.305
REMARK  0 active torsions:
REMARK  status: ('A' for Active; 'I' for Inactive)
ROOT
HETATM    1  C1  UNL     1     -32.716   5.763   2.281  1.00 20.00     0.029 A 
HETATM    2  C2  UNL     1     -34.174   6.728   3.924  1.00 20.00     0.136 A 
HETATM    3  C3  UNL     1     -32.463   7.049   1.849  1.00 20.00    -0.032 A 
HETATM    4  C4  UNL     1     -33.600   5.595   3.345  1.00 20.00     0.029 A 
HETATM    5  C5  UNL     1     -33.082   8.114   2.494  1.00 20.00     0.040 A 
HETATM    6  C6  UNL     1     -31.548   7.523   0.770  1.00 20.00     0.041 C 
HETATM    7  C7  UNL     1     -32.633   9.423   1.910  1.00 20.00     0.060 C 
HETATM    8  C8  UNL     1     -32.059   8.959   0.563  1.00 20.00     0.011 C 
HETATM    9  N9  UNL     1     -33.933   8.000   3.528  1.00 20.00    -0.264 NA
HETATM   10 BR10 UNL     1     -34.010   3.872   3.990  1.00 20.00    -0.050 Br
ENDROOT
TORSDOF 0
ENDMDL
MODEL 5
REMARK VINA RESULT:       1.9      2.331      3.849
REMARK  0 active torsions:
REMARK  status: ('A' for Active; 'I' for Inactive)
ROOT
HETATM    1  C1  UNL     1     -33.930   7.301   3.376  1.00 20.00     0.029 A 
HETATM    2  C2  UNL     1     -33.437   5.106   2.544  1.00 20.00     0.136 A 
HETATM    3  C3  UNL     1     -33.048   7.783   2.431  1.00 20.00    -0.032 A 
HETATM    4  C4  UNL     1     -34.128   5.923   3.440  1.00 20.00     0.029 A 
HETATM    5  C5  UNL     1     -32.410   6.887   1.581  1.00 20.00     0.040 A 
HETATM    6  C6  UNL     1     -32.673   9.193   2.118  1.00 20.00     0.041 C 
HETATM    7  C7  UNL     1     -31.540   7.616   0.597  1.00 20.00     0.060 C 
HETATM    8  C8  UNL     1     -31.395   8.979   1.290  1.00 20.00     0.011 C 
HETATM    9  N9  UNL     1     -32.577   5.554   1.600  1.00 20.00    -0.264 NA
HETATM   10 BR10 UNL     1     -35.307   5.179   4.709  1.00 20.00    -0.050 Br
ENDROOT
TORSDOF 0
ENDMDL
