MODEL 1
REMARK VINA RESULT:      -2.4      0.000      0.000
REMARK  5 active torsions:
REMARK  status: ('A' for Active; 'I' for Inactive)
REMARK    1  A    between atoms: C3_3  and  C6_6 
REMARK    2  A    between atoms: C5_5  and  C7_7 
REMARK    3  A    between atoms: C6_6  and  C8_8 
REMARK    4  A    between atoms: C7_7  and  C9_9 
REMARK    5  A    between atoms: C8_8  and  C9_9 
ROOT
HETATM    1  C1  UNL     1     -34.527   4.963   4.150  1.00 20.00     0.059 C 
HETATM    2  C5  UNL     1     -34.897   6.366   3.917  1.00 20.00     0.124 C 
HETATM    3  N10 UNL     1     -34.237   3.855   4.334  1.00 20.00    -0.197 NA
ENDROOT
BRANCH   2   4
HETATM    4  C7  UNL     1     -33.786   7.151   3.218  1.00 20.00     0.014 C 
BRANCH   4   5
HETATM    5  C9  UNL     1     -33.121   6.358   2.085  1.00 20.00     0.001 C 
BRANCH   5   6
HETATM    6  C8  UNL     1     -31.977   7.154   1.453  1.00 20.00     0.004 C 
BRANCH   6   7
HETATM    7  C6  UNL     1     -32.057   8.659   1.738  1.00 20.00     0.033 C 
BRANCH   7   8
HETATM    8  C3  UNL     1     -32.383   9.512   0.535  1.00 20.00    -0.093 C 
HETATM    9  C2  UNL     1     -32.418   8.995  -0.704  1.00 20.00     0.014 C 
HETATM   10  C4  UNL     1     -32.705  10.958   0.787  1.00 20.00     0.042 C 
ENDBRANCH   7   8
ENDBRANCH   6   7
ENDBRANCH   5   6
ENDBRANCH   4   5
ENDBRANCH   2   4
TORSDOF 5
ENDMDL
MODEL 2
REMARK VINA RESULT:      -2.2      1.462      2.845
REMARK  5 active torsions:
REMARK  status: ('A' for Active; 'I' for Inactive)
REMARK    1  A    between atoms: C3_3  and  C6_6 
REMARK    2  A    between atoms: C5_5  and  C7_7 
REMARK    3  A    between atoms: C6_6  and  C8_8 
REMARK    4  A    between atoms: C7_7  and  C9_9 
REMARK    5  A    between atoms: C8_8  and  C9_9 
ROOT
HETATM    1  C1  UNL     1     -33.461   3.379   4.619  1.00 20.00     0.059 C 
HETATM    2  C5  UNL     1     -34.279   4.215   3.729  1.00 20.00     0.124 C 
HETATM    3  N10 UNL     1     -32.815   2.719   5.320  1.00 20.00    -0.197 NA
ENDROOT
BRANCH   2   4
HETATM    4  C7  UNL     1     -35.018   5.319   4.487  1.00 20.00     0.014 C 
BRANCH   4   5
HETATM    5  C9  UNL     1     -35.266   6.566   3.629  1.00 20.00     0.001 C 
BRANCH   5   6
HETATM    6  C8  UNL     1     -34.270   7.678   3.972  1.00 20.00     0.004 C 
BRANCH   6   7
HETATM    7  C6  UNL     1     -32.827   7.339   3.580  1.00 20.00     0.033 C 
BRANCH   7   8
HETATM    8  C3  UNL     1     -32.557   7.353   2.093  1.00 20.00    -0.093 C 
HETATM    9  C2  UNL     1     -32.282   8.494   1.441  1.00 20.00     0.014 C 
HETATM   10  C4  UNL     1     -32.574   6.030   1.382  1.00 20.00     0.042 C 
ENDBRANCH   7   8
ENDBRANCH   6   7
ENDBRANCH   5   6
ENDBRANCH   4   5
ENDBRANCH   2   4
TORSDOF 5
ENDMDL
MODEL 3
REMARK VINA RESULT:      -2.2      1.200      2.329
REMARK  5 active torsions:
REMARK  status: ('A' for Active; 'I' for Inactive)
REMARK    1  A    between atoms: C3_3  and  C6_6 
REMARK    2  A    between atoms: C5_5  and  C7_7 
REMARK    3  A    between atoms: C6_6  and  C8_8 
REMARK    4  A    between atoms: C7_7  and  C9_9 
REMARK    5  A    between atoms: C8_8  and  C9_9 
ROOT
HETATM    1  C1  UNL     1     -33.532   3.499   4.444  1.00 20.00     0.059 C 
HETATM    2  C5  UNL     1     -34.137   4.481   3.534  1.00 20.00     0.124 C 
HETATM    3  N10 UNL     1     -33.053   2.723   5.162  1.00 20.00    -0.197 NA
ENDROOT
BRANCH   2   4
HETATM    4  C7  UNL     1     -35.134   5.395   4.247  1.00 20.00     0.014 C 
BRANCH   4   5
HETATM    5  C9  UNL     1     -34.922   6.878   3.919  1.00 20.00     0.001 C 
BRANCH   5   6
HETATM    6  C8  UNL     1     -33.438   7.250   3.980  1.00 20.00     0.004 C 
BRANCH   6   7
HETATM    7  C6  UNL     1     -33.057   8.380   3.017  1.00 20.00     0.033 C 
BRANCH   7   8
HETATM    8  C3  UNL     1     -32.336   7.929   1.768  1.00 20.00    -0.093 C 
HETATM    9  C2  UNL     1     -32.003   6.642   1.577  1.00 20.00     0.014 C 
HETATM   10  C4  UNL     1     -32.042   8.975   0.731  1.00 20.00     0.042 C 
ENDBRANCH   7   8
ENDBRANCH   6   7
ENDBRANCH   5   6
ENDBRANCH   4   5
ENDBRANCH   2   4
TORSDOF 5
ENDMDL
MODEL 4
REMARK VINA RESULT:      -2.2      2.782      5.098
REMARK  5 active torsions:
REMARK  status: ('A' for Active; 'I' for Inactive)
REMARK    1  A    between atoms: C3_3  and  C6_6 
REMARK    2  A    between atoms: C5_5  and  C7_7 
REMARK    3  A    between atoms: C6_6  and  C8_8 
REMARK    4  A    between atoms: C7_7  and  C9_9 
REMARK    5  A    between atoms: C8_8  and  C9_9 
ROOT
HETATM    1  C1  UNL     1     -32.416   9.853   0.030  1.00 20.00     0.059 C 
HETATM    2  C5  UNL     1     -31.436   8.837   0.436  1.00 20.00     0.124 C 
HETATM    3  N10 UNL     1     -33.190  10.656  -0.292  1.00 20.00    -0.197 NA
ENDROOT
BRANCH   2   4
HETATM    4  C7  UNL     1     -31.906   8.028   1.645  1.00 20.00     0.014 C 
BRANCH   4   5
HETATM    5  C9  UNL     1     -31.827   6.514   1.415  1.00 20.00     0.001 C 
BRANCH   5   6
HETATM    6  C8  UNL     1     -33.179   5.844   1.677  1.00 20.00     0.004 C 
BRANCH   6   7
HETATM    7  C6  UNL     1     -33.430   5.548   3.160  1.00 20.00     0.033 C 
BRANCH   7   8
HETATM    8  C3  UNL     1     -34.440   6.456   3.823  1.00 20.00    -0.093 C 
HETATM    9  C2  UNL     1     -35.715   6.075   3.999  1.00 20.00     0.014 C 
HETATM   10  C4  UNL     1     -33.946   7.788   4.312  1.00 20.00     0.042 C 
ENDBRANCH   7   8
ENDBRANCH   6   7
ENDBRANCH   5   6
ENDBRANCH   4   5
ENDBRANCH   2   4
TORSDOF 5
ENDMDL
MODEL 5
REMARK VINA RESULT:      -2.1      2.726      5.536
REMARK  5 active torsions:
REMARK  status: ('A' for Active; 'I' for Inactive)
REMARK    1  A    between atoms: C3_3  and  C6_6 
REMARK    2  A    between atoms: C5_5  and  C7_7 
REMARK    3  A    between atoms: C6_6  and  C8_8 
REMARK    4  A    between atoms: C7_7  and  C9_9 
REMARK    5  A    between atoms: C8_8  and  C9_9 
ROOT
HETATM    1  C1  UNL     1     -32.385   9.701   0.006  1.00 20.00     0.059 C 
HETATM    2  C5  UNL     1     -31.414   9.048   0.895  1.00 20.00     0.124 C 
HETATM    3  N10 UNL     1     -33.150  10.217  -0.697  1.00 20.00    -0.197 NA
ENDROOT
BRANCH   2   4
HETATM    4  C7  UNL     1     -32.068   8.001   1.798  1.00 20.00     0.014 C 
BRANCH   4   5
HETATM    5  C9  UNL     1     -31.983   6.582   1.221  1.00 20.00     0.001 C 
BRANCH   5   6
HETATM    6  C8  UNL     1     -33.052   5.673   1.834  1.00 20.00     0.004 C 
BRANCH   6   7
HETATM    7  C6  UNL     1     -33.683   6.254   3.105  1.00 20.00     0.033 C 
BRANCH   7   8
HETATM    8  C3  UNL     1     -34.438   5.253   3.948  1.00 20.00    -0.093 C 
HETATM    9  C2  UNL     1     -35.643   5.540   4.466  1.00 20.00     0.014 C 
HETATM   10  C4  UNL     1     -33.800   3.908   4.151  1.00 20.00     0.042 C 
ENDBRANCH   7   8
ENDBRANCH   6   7
ENDBRANCH   5   6
ENDBRANCH   4   5
ENDBRANCH   2   4
TORSDOF 5
ENDMDL
MODEL 6
REMARK VINA RESULT:      -1.9      2.735      5.490
REMARK  5 active torsions:
REMARK  status: ('A' for Active; 'I' for Inactive)
REMARK    1  A    between atoms: C3_3  and  C6_6 
REMARK    2  A    between atoms: C5_5  and  C7_7 
REMARK    3  A    between atoms: C6_6  and  C8_8 
REMARK    4  A    between atoms: C7_7  and  C9_9 
REMARK    5  A    between atoms: C8_8  and  C9_9 
ROOT
HETATM    1  C1  UNL     1     -32.379   9.664  -0.029  1.00 20.00     0.059 C 
HETATM    2  C5  UNL     1     -31.422   9.061   0.910  1.00 20.00     0.124 C 
HETATM    3  N10 UNL     1     -33.134  10.140  -0.770  1.00 20.00    -0.197 NA
ENDROOT
BRANCH   2   4
HETATM    4  C7  UNL     1     -32.072   8.002   1.801  1.00 20.00     0.014 C 
BRANCH   4   5
HETATM    5  C9  UNL     1     -31.994   6.592   1.202  1.00 20.00     0.001 C 
BRANCH   5   6
HETATM    6  C8  UNL     1     -33.087   5.687   1.777  1.00 20.00     0.004 C 
BRANCH   6   7
HETATM    7  C6  UNL     1     -33.560   6.121   3.170  1.00 20.00     0.033 C 
BRANCH   7   8
HETATM    8  C3  UNL     1     -34.309   5.060   3.941  1.00 20.00    -0.093 C 
HETATM    9  C2  UNL     1     -33.777   3.847   4.162  1.00 20.00     0.014 C 
HETATM   10  C4  UNL     1     -35.659   5.432   4.483  1.00 20.00     0.042 C 
ENDBRANCH   7   8
ENDBRANCH   6   7
ENDBRANCH   5   6
ENDBRANCH   4   5
ENDBRANCH   2   4
TORSDOF 5
ENDMDL
MODEL 7
REMARK VINA RESULT:      -1.6      2.641      5.208
REMARK  5 active torsions:
REMARK  status: ('A' for Active; 'I' for Inactive)
REMARK    1  A    between atoms: C3_3  and  C6_6 
REMARK    2  A    between atoms: C5_5  and  C7_7 
REMARK    3  A    between atoms: C6_6  and  C8_8 
REMARK    4  A    between atoms: C7_7  and  C9_9 
REMARK    5  A    between atoms: C8_8  and  C9_9 
ROOT
HETATM    1  C1  UNL     1     -32.338   9.124   0.871  1.00 20.00     0.059 C 
HETATM    2  C5  UNL     1     -32.290   8.010   1.828  1.00 20.00     0.124 C 
HETATM    3  N10 UNL     1     -32.377  10.002   0.115  1.00 20.00    -0.197 NA
ENDROOT
BRANCH   2   4
HETATM    4  C7  UNL     1     -32.060   8.488   3.263  1.00 20.00     0.014 C 
BRANCH   4   5
HETATM    5  C9  UNL     1     -33.092   7.925   4.248  1.00 20.00     0.001 C 
BRANCH   5   6
HETATM    6  C8  UNL     1     -34.374   7.505   3.525  1.00 20.00     0.004 C 
BRANCH   6   7
HETATM    7  C6  UNL     1     -34.899   6.135   3.972  1.00 20.00     0.033 C 
BRANCH   7   8
HETATM    8  C3  UNL     1     -34.029   4.966   3.574  1.00 20.00    -0.093 C 
HETATM    9  C2  UNL     1     -33.909   3.882   4.357  1.00 20.00     0.014 C 
HETATM   10  C4  UNL     1     -33.332   5.052   2.246  1.00 20.00     0.042 C 
ENDBRANCH   7   8
ENDBRANCH   6   7
ENDBRANCH   5   6
ENDBRANCH   4   5
ENDBRANCH   2   4
TORSDOF 5
ENDMDL
MODEL 8
REMARK VINA RESULT:      -1.6      2.707      5.311
REMARK  5 active torsions:
REMARK  status: ('A' for Active; 'I' for Inactive)
REMARK    1  A    between atoms: C3_3  and  C6_6 
REMARK    2  A    between atoms: C5_5  and  C7_7 
REMARK    3  A    between atoms: C6_6  and  C8_8 
REMARK    4  A    between atoms: C7_7  and  C9_9 
REMARK    5  A    between atoms: C8_8  and  C9_9 
ROOT
HETATM    1  C1  UNL     1     -32.321   9.331   0.494  1.00 20.00     0.059 C 
HETATM    2  C5  UNL     1     -31.865   8.140   1.226  1.00 20.00     0.124 C 
HETATM    3  N10 UNL     1     -32.680  10.269  -0.085  1.00 20.00    -0.197 NA
ENDROOT
BRANCH   2   4
HETATM    4  C7  UNL     1     -32.197   8.214   2.717  1.00 20.00     0.014 C 
BRANCH   4   5
HETATM    5  C9  UNL     1     -33.706   8.242   2.989  1.00 20.00     0.001 C 
BRANCH   5   6
HETATM    6  C8  UNL     1     -34.065   7.373   4.197  1.00 20.00     0.004 C 
BRANCH   6   7
HETATM    7  C6  UNL     1     -34.831   6.099   3.819  1.00 20.00     0.033 C 
BRANCH   7   8
HETATM    8  C3  UNL     1     -33.959   4.938   3.404  1.00 20.00    -0.093 C 
HETATM    9  C2  UNL     1     -33.278   4.950   2.246  1.00 20.00     0.014 C 
HETATM   10  C4  UNL     1     -33.855   3.784   4.360  1.00 20.00     0.042 C 
ENDBRANCH   7   8
ENDBRANCH   6   7
ENDBRANCH   5   6
ENDBRANCH   4   5
ENDBRANCH   2   4
TORSDOF 5
ENDMDL
MODEL 9
REMARK VINA RESULT:      -1.4      1.702      2.793
REMARK  5 active torsions:
REMARK  status: ('A' for Active; 'I' for Inactive)
REMARK    1  A    between atoms: C3_3  and  C6_6 
REMARK    2  A    between atoms: C5_5  and  C7_7 
REMARK    3  A    between atoms: C6_6  and  C8_8 
REMARK    4  A    between atoms: C7_7  and  C9_9 
REMARK    5  A    between atoms: C8_8  and  C9_9 
ROOT
HETATM    1  C1  UNL     1     -34.611   4.905   4.110  1.00 20.00     0.059 C 
HETATM    2  C5  UNL     1     -35.371   6.148   3.915  1.00 20.00     0.124 C 
HETATM    3  N10 UNL     1     -34.011   3.924   4.263  1.00 20.00    -0.197 NA
ENDROOT
BRANCH   2   4
HETATM    4  C7  UNL     1     -34.521   7.394   4.169  1.00 20.00     0.014 C 
BRANCH   4   5
HETATM    5  C9  UNL     1     -33.064   7.219   3.724  1.00 20.00     0.001 C 
BRANCH   5   6
HETATM    6  C8  UNL     1     -32.762   8.058   2.479  1.00 20.00     0.004 C 
BRANCH   6   7
HETATM    7  C6  UNL     1     -31.928   7.309   1.433  1.00 20.00     0.033 C 
BRANCH   7   8
HETATM    8  C3  UNL     1     -32.370   5.888   1.173  1.00 20.00    -0.093 C 
HETATM    9  C2  UNL     1     -33.571   5.614   0.639  1.00 20.00     0.014 C 
HETATM   10  C4  UNL     1     -31.393   4.795   1.502  1.00 20.00     0.042 C 
ENDBRANCH   7   8
ENDBRANCH   6   7
ENDBRANCH   5   6
ENDBRANCH   4   5
ENDBRANCH   2   4
TORSDOF 5
ENDMDL
