MODEL 1
REMARK VINA RESULT:      -2.5      0.000      0.000
REMARK  6 active torsions:
REMARK  status: ('A' for Active; 'I' for Inactive)
REMARK    1  A    between atoms: C1_1  and  C6_6 
REMARK    2  A    between atoms: C1_1  and  C10_10 
REMARK    3  A    between atoms: C7_7  and  C8_8 
REMARK    4  A    between atoms: C8_8  and  C11_11 
REMARK    5  A    between atoms: C9_9  and  C10_10 
REMARK    6  A    between atoms: C9_9  and  C11_11 
ROOT
HETATM    1  C9  UNL     1     -33.924   6.515   2.195  1.00 20.00     0.016 C 
ENDROOT
BRANCH   1   2
HETATM    2  C10 UNL     1     -34.628   6.587   3.561  1.00 20.00     0.051 C 
HETATM    3  C4  UNL     1     -33.892   7.468   4.568  1.00 20.00     0.018 C 
BRANCH   2   4
HETATM    4  C1  UNL     1     -34.768   5.167   4.114  1.00 20.00     0.130 C 
HETATM    5  O12 UNL     1     -35.689   4.854   4.868  1.00 20.00    -0.298 OA
BRANCH   4   6
HETATM    6  C6  UNL     1     -33.688   4.178   3.703  1.00 20.00     0.074 C 
HETATM    7  C2  UNL     1     -33.388   3.157   4.787  1.00 20.00     0.013 C 
ENDBRANCH   4   6
ENDBRANCH   2   4
ENDBRANCH   1   2
BRANCH   1   8
HETATM    8  C11 UNL     1     -32.398   6.759   2.200  1.00 20.00    -0.018 C 
HETATM    9  C5  UNL     1     -31.748   5.838   1.159  1.00 20.00     0.010 C 
BRANCH   8  10
HETATM   10  C8  UNL     1     -32.057   8.242   1.944  1.00 20.00     0.004 C 
BRANCH  10  11
HETATM   11  C7  UNL     1     -32.067   8.634   0.463  1.00 20.00    -0.004 C 
HETATM   12  C3  UNL     1     -32.523  10.073   0.274  1.00 20.00     0.005 C 
ENDBRANCH  10  11
ENDBRANCH   8  10
ENDBRANCH   1   8
TORSDOF 6
ENDMDL
MODEL 2
REMARK VINA RESULT:      -2.4      1.836      5.348
REMARK  6 active torsions:
REMARK  status: ('A' for Active; 'I' for Inactive)
REMARK    1  A    between atoms: C1_1  and  C6_6 
REMARK    2  A    between atoms: C1_1  and  C10_10 
REMARK    3  A    between atoms: C7_7  and  C8_8 
REMARK    4  A    between atoms: C8_8  and  C11_11 
REMARK    5  A    between atoms: C9_9  and  C10_10 
REMARK    6  A    between atoms: C9_9  and  C11_11 
ROOT
HETATM    1  C9  UNL     1     -33.234   6.528   3.561  1.00 20.00     0.016 C 
ENDROOT
BRANCH   1   2
HETATM    2  C10 UNL     1     -33.158   6.914   2.074  1.00 20.00     0.051 C 
HETATM    3  C4  UNL     1     -32.741   5.753   1.173  1.00 20.00     0.018 C 
BRANCH   2   4
HETATM    4  C1  UNL     1     -32.172   8.074   1.919  1.00 20.00     0.130 C 
HETATM    5  O12 UNL     1     -31.562   8.536   2.883  1.00 20.00    -0.298 OA
BRANCH   4   6
HETATM    6  C6  UNL     1     -32.016   8.639   0.516  1.00 20.00     0.074 C 
HETATM    7  C2  UNL     1     -32.568  10.048   0.389  1.00 20.00     0.013 C 
ENDBRANCH   4   6
ENDBRANCH   2   4
ENDBRANCH   1   2
BRANCH   1   8
HETATM    8  C11 UNL     1     -34.649   6.293   4.134  1.00 20.00    -0.018 C 
HETATM    9  C5  UNL     1     -35.682   6.826   3.132  1.00 20.00     0.010 C 
BRANCH   8  10
HETATM   10  C8  UNL     1     -34.891   4.806   4.467  1.00 20.00     0.004 C 
BRANCH  10  11
HETATM   11  C7  UNL     1     -33.831   3.862   3.891  1.00 20.00    -0.004 C 
HETATM   12  C3  UNL     1     -33.195   3.012   4.982  1.00 20.00     0.005 C 
ENDBRANCH  10  11
ENDBRANCH   8  10
ENDBRANCH   1   8
TORSDOF 6
ENDMDL
MODEL 3
REMARK VINA RESULT:      -1.8      0.826      2.293
REMARK  6 active torsions:
REMARK  status: ('A' for Active; 'I' for Inactive)
REMARK    1  A    between atoms: C1_1  and  C6_6 
REMARK    2  A    between atoms: C1_1  and  C10_10 
REMARK    3  A    between atoms: C7_7  and  C8_8 
REMARK    4  A    between atoms: C8_8  and  C11_11 
REMARK    5  A    between atoms: C9_9  and  C10_10 
REMARK    6  A    between atoms: C9_9  and  C11_11 
ROOT
HETATM    1  C9  UNL     1     -33.466   4.882   2.237  1.00 20.00     0.016 C 
ENDROOT
BRANCH   1   2
HETATM    2  C10 UNL     1     -33.576   4.771   3.767  1.00 20.00     0.051 C 
HETATM    3  C4  UNL     1     -33.519   3.328   4.268  1.00 20.00     0.018 C 
BRANCH   2   4
HETATM    4  C1  UNL     1     -34.885   5.426   4.213  1.00 20.00     0.130 C 
HETATM    5  O12 UNL     1     -35.758   4.790   4.803  1.00 20.00    -0.298 OA
BRANCH   4   6
HETATM    6  C6  UNL     1     -35.055   6.895   3.857  1.00 20.00     0.074 C 
HETATM    7  C2  UNL     1     -33.958   7.768   4.438  1.00 20.00     0.013 C 
ENDBRANCH   4   6
ENDBRANCH   2   4
ENDBRANCH   1   2
BRANCH   1   8
HETATM    8  C11 UNL     1     -32.266   5.693   1.696  1.00 20.00    -0.018 C 
HETATM    9  C5  UNL     1     -31.490   4.820   0.701  1.00 20.00     0.010 C 
BRANCH   8  10
HETATM   10  C8  UNL     1     -32.717   7.024   1.059  1.00 20.00     0.004 C 
BRANCH  10  11
HETATM   11  C7  UNL     1     -31.876   8.231   1.486  1.00 20.00    -0.004 C 
HETATM   12  C3  UNL     1     -32.203   9.458   0.647  1.00 20.00     0.005 C 
ENDBRANCH  10  11
ENDBRANCH   8  10
ENDBRANCH   1   8
TORSDOF 6
ENDMDL
MODEL 4
REMARK VINA RESULT:      -1.6      1.005      2.031
REMARK  6 active torsions:
REMARK  status: ('A' for Active; 'I' for Inactive)
REMARK    1  A    between atoms: C1_1  and  C6_6 
REMARK    2  A    between atoms: C1_1  and  C10_10 
REMARK    3  A    between atoms: C7_7  and  C8_8 
REMARK    4  A    between atoms: C8_8  and  C11_11 
REMARK    5  A    between atoms: C9_9  and  C10_10 
REMARK    6  A    between atoms: C9_9  and  C11_11 
ROOT
HETATM    1  C9  UNL     1     -34.214   6.852   3.147  1.00 20.00     0.016 C 
ENDROOT
BRANCH   1   2
HETATM    2  C10 UNL     1     -33.412   5.540   3.163  1.00 20.00     0.051 C 
HETATM    3  C4  UNL     1     -33.124   4.997   1.764  1.00 20.00     0.018 C 
BRANCH   2   4
HETATM    4  C1  UNL     1     -34.188   4.502   3.976  1.00 20.00     0.130 C 
HETATM    5  O12 UNL     1     -35.276   4.764   4.488  1.00 20.00    -0.298 OA
BRANCH   4   6
HETATM    6  C6  UNL     1     -33.523   3.144   4.138  1.00 20.00     0.074 C 
HETATM    7  C2  UNL     1     -32.802   3.002   5.467  1.00 20.00     0.013 C 
ENDBRANCH   4   6
ENDBRANCH   2   4
ENDBRANCH   1   2
BRANCH   1   8
HETATM    8  C11 UNL     1     -33.415   8.145   3.429  1.00 20.00    -0.018 C 
HETATM    9  C5  UNL     1     -33.160   8.247   4.939  1.00 20.00     0.010 C 
BRANCH   8  10
HETATM   10  C8  UNL     1     -32.100   8.191   2.623  1.00 20.00     0.004 C 
BRANCH  10  11
HETATM   11  C7  UNL     1     -32.304   8.369   1.116  1.00 20.00    -0.004 C 
HETATM   12  C3  UNL     1     -32.453   9.837   0.747  1.00 20.00     0.005 C 
ENDBRANCH  10  11
ENDBRANCH   8  10
ENDBRANCH   1   8
TORSDOF 6
ENDMDL
MODEL 5
REMARK VINA RESULT:      -1.6      2.422      5.657
REMARK  6 active torsions:
REMARK  status: ('A' for Active; 'I' for Inactive)
REMARK    1  A    between atoms: C1_1  and  C6_6 
REMARK    2  A    between atoms: C1_1  and  C10_10 
REMARK    3  A    between atoms: C7_7  and  C8_8 
REMARK    4  A    between atoms: C8_8  and  C11_11 
REMARK    5  A    between atoms: C9_9  and  C10_10 
REMARK    6  A    between atoms: C9_9  and  C11_11 
ROOT
HETATM    1  C9  UNL     1     -33.196   6.912   2.036  1.00 20.00     0.016 C 
ENDROOT
BRANCH   1   2
HETATM    2  C10 UNL     1     -31.920   7.764   2.148  1.00 20.00     0.051 C 
HETATM    3  C4  UNL     1     -31.868   8.598   3.428  1.00 20.00     0.018 C 
BRANCH   2   4
HETATM    4  C1  UNL     1     -31.835   8.680   0.926  1.00 20.00     0.130 C 
HETATM    5  O12 UNL     1     -31.042   8.464   0.010  1.00 20.00    -0.298 OA
BRANCH   4   6
HETATM    6  C6  UNL     1     -32.761   9.887   0.925  1.00 20.00     0.074 C 
HETATM    7  C2  UNL     1     -32.893  10.521  -0.449  1.00 20.00     0.013 C 
ENDBRANCH   4   6
ENDBRANCH   2   4
ENDBRANCH   1   2
BRANCH   1   8
HETATM    8  C11 UNL     1     -33.673   6.223   3.334  1.00 20.00    -0.018 C 
HETATM    9  C5  UNL     1     -35.057   6.774   3.706  1.00 20.00     0.010 C 
BRANCH   8  10
HETATM   10  C8  UNL     1     -33.689   4.687   3.192  1.00 20.00     0.004 C 
BRANCH  10  11
HETATM   11  C7  UNL     1     -34.054   3.949   4.484  1.00 20.00    -0.004 C 
HETATM   12  C3  UNL     1     -33.064   2.833   4.784  1.00 20.00     0.005 C 
ENDBRANCH  10  11
ENDBRANCH   8  10
ENDBRANCH   1   8
TORSDOF 6
ENDMDL
MODEL 6
REMARK VINA RESULT:      -1.5      1.851      4.821
REMARK  6 active torsions:
REMARK  status: ('A' for Active; 'I' for Inactive)
REMARK    1  A    between atoms: C1_1  and  C6_6 
REMARK    2  A    between atoms: C1_1  and  C10_10 
REMARK    3  A    between atoms: C7_7  and  C8_8 
REMARK    4  A    between atoms: C8_8  and  C11_11 
REMARK    5  A    between atoms: C9_9  and  C10_10 
REMARK    6  A    between atoms: C9_9  and  C11_11 
ROOT
HETATM    1  C9  UNL     1     -32.854   5.858   3.000  1.00 20.00     0.016 C 
ENDROOT
BRANCH   1   2
HETATM    2  C10 UNL     1     -32.699   6.346   1.550  1.00 20.00     0.051 C 
HETATM    3  C4  UNL     1     -31.894   5.384   0.677  1.00 20.00     0.018 C 
BRANCH   2   4
HETATM    4  C1  UNL     1     -32.028   7.721   1.566  1.00 20.00     0.130 C 
HETATM    5  O12 UNL     1     -31.524   8.183   2.589  1.00 20.00    -0.298 OA
BRANCH   4   6
HETATM    6  C6  UNL     1     -32.047   8.492   0.255  1.00 20.00     0.074 C 
HETATM    7  C2  UNL     1     -32.478   9.937   0.434  1.00 20.00     0.013 C 
ENDBRANCH   4   6
ENDBRANCH   2   4
ENDBRANCH   1   2
BRANCH   1   8
HETATM    8  C11 UNL     1     -34.211   5.213   3.362  1.00 20.00    -0.018 C 
HETATM    9  C5  UNL     1     -33.950   3.945   4.187  1.00 20.00     0.010 C 
BRANCH   8  10
HETATM   10  C8  UNL     1     -35.133   6.201   4.107  1.00 20.00     0.004 C 
BRANCH  10  11
HETATM   11  C7  UNL     1     -34.698   7.664   3.987  1.00 20.00    -0.004 C 
HETATM   12  C3  UNL     1     -33.758   8.057   5.118  1.00 20.00     0.005 C 
ENDBRANCH  10  11
ENDBRANCH   8  10
ENDBRANCH   1   8
TORSDOF 6
ENDMDL
MODEL 7
REMARK VINA RESULT:      -1.1      1.468      1.955
REMARK  6 active torsions:
REMARK  status: ('A' for Active; 'I' for Inactive)
REMARK    1  A    between atoms: C1_1  and  C6_6 
REMARK    2  A    between atoms: C1_1  and  C10_10 
REMARK    3  A    between atoms: C7_7  and  C8_8 
REMARK    4  A    between atoms: C8_8  and  C11_11 
REMARK    5  A    between atoms: C9_9  and  C10_10 
REMARK    6  A    between atoms: C9_9  and  C11_11 
ROOT
HETATM    1  C9  UNL     1     -33.202   7.351   3.854  1.00 20.00     0.016 C 
ENDROOT
BRANCH   1   2
HETATM    2  C10 UNL     1     -34.228   6.381   3.244  1.00 20.00     0.051 C 
HETATM    3  C4  UNL     1     -35.570   6.391   3.975  1.00 20.00     0.018 C 
BRANCH   2   4
HETATM    4  C1  UNL     1     -33.637   4.969   3.260  1.00 20.00     0.130 C 
HETATM    5  O12 UNL     1     -32.842   4.591   2.399  1.00 20.00    -0.298 OA
BRANCH   4   6
HETATM    6  C6  UNL     1     -34.111   4.056   4.380  1.00 20.00     0.074 C 
HETATM    7  C2  UNL     1     -33.144   2.918   4.655  1.00 20.00     0.013 C 
ENDBRANCH   4   6
ENDBRANCH   2   4
ENDBRANCH   1   2
BRANCH   1   8
HETATM    8  C11 UNL     1     -32.611   8.411   2.896  1.00 20.00    -0.018 C 
HETATM    9  C5  UNL     1     -31.384   9.048   3.561  1.00 20.00     0.010 C 
BRANCH   8  10
HETATM   10  C8  UNL     1     -32.266   7.806   1.519  1.00 20.00     0.004 C 
BRANCH  10  11
HETATM   11  C7  UNL     1     -31.599   8.795   0.558  1.00 20.00    -0.004 C 
HETATM   12  C3  UNL     1     -32.562   9.897   0.141  1.00 20.00     0.005 C 
ENDBRANCH  10  11
ENDBRANCH   8  10
ENDBRANCH   1   8
TORSDOF 6
ENDMDL
MODEL 8
REMARK VINA RESULT:      -1.1      1.346      2.582
REMARK  6 active torsions:
REMARK  status: ('A' for Active; 'I' for Inactive)
REMARK    1  A    between atoms: C1_1  and  C6_6 
REMARK    2  A    between atoms: C1_1  and  C10_10 
REMARK    3  A    between atoms: C7_7  and  C8_8 
REMARK    4  A    between atoms: C8_8  and  C11_11 
REMARK    5  A    between atoms: C9_9  and  C10_10 
REMARK    6  A    between atoms: C9_9  and  C11_11 
ROOT
HETATM    1  C9  UNL     1     -33.238   7.098   1.448  1.00 20.00     0.016 C 
ENDROOT
BRANCH   1   2
HETATM    2  C10 UNL     1     -32.712   5.883   2.231  1.00 20.00     0.051 C 
HETATM    3  C4  UNL     1     -32.362   4.697   1.333  1.00 20.00     0.018 C 
BRANCH   2   4
HETATM    4  C1  UNL     1     -33.771   5.466   3.255  1.00 20.00     0.130 C 
HETATM    5  O12 UNL     1     -33.823   4.320   3.701  1.00 20.00    -0.298 OA
BRANCH   4   6
HETATM    6  C6  UNL     1     -34.769   6.539   3.662  1.00 20.00     0.074 C 
HETATM    7  C2  UNL     1     -34.166   7.572   4.597  1.00 20.00     0.013 C 
ENDBRANCH   4   6
ENDBRANCH   2   4
ENDBRANCH   1   2
BRANCH   1   8
HETATM    8  C11 UNL     1     -32.371   8.376   1.509  1.00 20.00    -0.018 C 
HETATM    9  C5  UNL     1     -31.227   8.149   2.507  1.00 20.00     0.010 C 
BRANCH   8  10
HETATM   10  C8  UNL     1     -31.842   8.775   0.115  1.00 20.00     0.004 C 
BRANCH  10  11
HETATM   11  C7  UNL     1     -32.479  10.050  -0.447  1.00 20.00    -0.004 C 
HETATM   12  C3  UNL     1     -32.868  11.012   0.667  1.00 20.00     0.005 C 
ENDBRANCH  10  11
ENDBRANCH   8  10
ENDBRANCH   1   8
TORSDOF 6
ENDMDL
MODEL 9
REMARK VINA RESULT:      -1.1      1.447      1.516
REMARK  6 active torsions:
REMARK  status: ('A' for Active; 'I' for Inactive)
REMARK    1  A    between atoms: C1_1  and  C6_6 
REMARK    2  A    between atoms: C1_1  and  C10_10 
REMARK    3  A    between atoms: C7_7  and  C8_8 
REMARK    4  A    between atoms: C8_8  and  C11_11 
REMARK    5  A    between atoms: C9_9  and  C10_10 
REMARK    6  A    between atoms: C9_9  and  C11_11 
ROOT
HETATM    1  C9  UNL     1     -33.187   7.238   3.146  1.00 20.00     0.016 C 
ENDROOT
BRANCH   1   2
HETATM    2  C10 UNL     1     -34.262   6.138   3.153  1.00 20.00     0.051 C 
HETATM    3  C4  UNL     1     -35.342   6.362   4.211  1.00 20.00     0.018 C 
BRANCH   2   4
HETATM    4  C1  UNL     1     -33.579   4.788   3.384  1.00 20.00     0.130 C 
HETATM    5  O12 UNL     1     -32.706   4.368   2.626  1.00 20.00    -0.298 OA
BRANCH   4   6
HETATM    6  C6  UNL     1     -34.064   3.988   4.583  1.00 20.00     0.074 C 
HETATM    7  C2  UNL     1     -33.138   2.834   4.928  1.00 20.00     0.013 C 
ENDBRANCH   4   6
ENDBRANCH   2   4
ENDBRANCH   1   2
BRANCH   1   8
HETATM    8  C11 UNL     1     -32.277   7.294   1.898  1.00 20.00    -0.018 C 
HETATM    9  C5  UNL     1     -33.052   6.739   0.696  1.00 20.00     0.010 C 
BRANCH   8  10
HETATM   10  C8  UNL     1     -31.759   8.724   1.633  1.00 20.00     0.004 C 
BRANCH  10  11
HETATM   11  C7  UNL     1     -32.040   9.231   0.215  1.00 20.00    -0.004 C 
HETATM   12  C3  UNL     1     -32.720  10.592   0.239  1.00 20.00     0.005 C 
ENDBRANCH  10  11
ENDBRANCH   8  10
ENDBRANCH   1   8
TORSDOF 6
ENDMDL
