MODEL 1
REMARK VINA RESULT:      -2.9      0.000      0.000
REMARK  1 active torsions:
REMARK  status: ('A' for Active; 'I' for Inactive)
REMARK    1  A    between atoms: C3_3  and  C4_4 
ROOT
HETATM    1  C1  UNL     1     -34.506   4.584   4.242  1.00 20.00     0.087 C 
HETATM    2  C2  UNL     1     -35.352   5.726   4.260  1.00 20.00     0.093 C 
HETATM    3  C3  UNL     1     -34.894   6.941   3.927  1.00 20.00     0.011 C 
HETATM    4  N7  UNL     1     -33.819   3.649   4.229  1.00 20.00    -0.192 NA
ENDROOT
BRANCH   3   5
HETATM    5  C4  UNL     1     -33.525   7.185   3.531  1.00 20.00    -0.004 C 
HETATM    6  C5  UNL     1     -33.165   7.462   2.269  1.00 20.00    -0.031 C 
HETATM    7  C6  UNL     1     -31.755   7.716   1.846  1.00 20.00     0.036 C 
ENDBRANCH   3   5
TORSDOF 1
ENDMDL
MODEL 2
REMARK VINA RESULT:      -2.6      2.114      3.059
REMARK  1 active torsions:
REMARK  status: ('A' for Active; 'I' for Inactive)
REMARK    1  A    between atoms: C3_3  and  C4_4 
ROOT
HETATM    1  C1  UNL     1     -33.839   6.618   3.190  1.00 20.00     0.087 C 
HETATM    2  C2  UNL     1     -32.915   6.066   2.261  1.00 20.00     0.093 C 
HETATM    3  C3  UNL     1     -32.159   6.849   1.479  1.00 20.00     0.011 C 
HETATM    4  N7  UNL     1     -34.594   7.064   3.951  1.00 20.00    -0.192 NA
ENDROOT
BRANCH   3   5
HETATM    5  C4  UNL     1     -32.221   8.293   1.514  1.00 20.00    -0.004 C 
HETATM    6  C5  UNL     1     -32.414   9.046   0.421  1.00 20.00    -0.031 C 
HETATM    7  C6  UNL     1     -32.480  10.538   0.444  1.00 20.00     0.036 C 
ENDBRANCH   3   5
TORSDOF 1
ENDMDL
MODEL 3
REMARK VINA RESULT:      -2.5      3.146      4.928
REMARK  1 active torsions:
REMARK  status: ('A' for Active; 'I' for Inactive)
REMARK    1  A    between atoms: C3_3  and  C4_4 
ROOT
HETATM    1  C1  UNL     1     -32.298   9.512   0.618  1.00 20.00     0.087 C 
HETATM    2  C2  UNL     1     -31.531   8.343   0.867  1.00 20.00     0.093 C 
HETATM    3  C3  UNL     1     -31.905   7.446   1.791  1.00 20.00     0.011 C 
HETATM    4  N7  UNL     1     -32.922  10.469   0.410  1.00 20.00    -0.192 NA
ENDROOT
BRANCH   3   5
HETATM    5  C4  UNL     1     -33.098   7.593   2.595  1.00 20.00    -0.004 C 
HETATM    6  C5  UNL     1     -33.770   6.552   3.107  1.00 20.00    -0.031 C 
HETATM    7  C6  UNL     1     -35.002   6.691   3.939  1.00 20.00     0.036 C 
ENDBRANCH   3   5
TORSDOF 1
ENDMDL
MODEL 4
REMARK VINA RESULT:      -2.5      2.015      3.690
REMARK  1 active torsions:
REMARK  status: ('A' for Active; 'I' for Inactive)
REMARK    1  A    between atoms: C3_3  and  C4_4 
ROOT
HETATM    1  C1  UNL     1     -33.362   7.416   2.968  1.00 20.00     0.087 C 
HETATM    2  C2  UNL     1     -34.548   7.265   3.736  1.00 20.00     0.093 C 
HETATM    3  C3  UNL     1     -34.979   6.057   4.126  1.00 20.00     0.011 C 
HETATM    4  N7  UNL     1     -32.393   7.544   2.342  1.00 20.00    -0.192 NA
ENDROOT
BRANCH   3   5
HETATM    5  C4  UNL     1     -34.286   4.831   3.801  1.00 20.00    -0.004 C 
HETATM    6  C5  UNL     1     -33.919   3.929   4.724  1.00 20.00    -0.031 C 
HETATM    7  C6  UNL     1     -33.203   2.659   4.402  1.00 20.00     0.036 C 
ENDBRANCH   3   5
TORSDOF 1
ENDMDL
MODEL 5
REMARK VINA RESULT:      -1.9      1.689      3.561
REMARK  1 active torsions:
REMARK  status: ('A' for Active; 'I' for Inactive)
REMARK    1  A    between atoms: C3_3  and  C4_4 
ROOT
HETATM    1  C1  UNL     1     -32.026   6.430   1.432  1.00 20.00     0.087 C 
HETATM    2  C2  UNL     1     -32.039   7.807   1.784  1.00 20.00     0.093 C 
HETATM    3  C3  UNL     1     -32.699   8.244   2.866  1.00 20.00     0.011 C 
HETATM    4  N7  UNL     1     -32.011   5.307   1.140  1.00 20.00    -0.192 NA
ENDROOT
BRANCH   3   5
HETATM    5  C4  UNL     1     -33.438   7.367   3.747  1.00 20.00    -0.004 C 
HETATM    6  C5  UNL     1     -34.636   6.852   3.433  1.00 20.00    -0.031 C 
HETATM    7  C6  UNL     1     -35.409   5.945   4.333  1.00 20.00     0.036 C 
ENDBRANCH   3   5
TORSDOF 1
ENDMDL
MODEL 6
REMARK VINA RESULT:      -1.9      2.314      3.630
REMARK  1 active torsions:
REMARK  status: ('A' for Active; 'I' for Inactive)
REMARK    1  A    between atoms: C3_3  and  C4_4 
ROOT
HETATM    1  C1  UNL     1     -33.899   7.616   4.322  1.00 20.00     0.087 C 
HETATM    2  C2  UNL     1     -35.064   7.087   3.705  1.00 20.00     0.093 C 
HETATM    3  C3  UNL     1     -35.402   5.797   3.842  1.00 20.00     0.011 C 
HETATM    4  N7  UNL     1     -32.948   8.054   4.825  1.00 20.00    -0.192 NA
ENDROOT
BRANCH   3   5
HETATM    5  C4  UNL     1     -34.623   4.856   4.615  1.00 20.00    -0.004 C 
HETATM    6  C5  UNL     1     -33.891   3.879   4.060  1.00 20.00    -0.031 C 
HETATM    7  C6  UNL     1     -33.081   2.901   4.846  1.00 20.00     0.036 C 
ENDBRANCH   3   5
TORSDOF 1
ENDMDL
MODEL 7
REMARK VINA RESULT:      -1.8      1.909      2.583
REMARK  1 active torsions:
REMARK  status: ('A' for Active; 'I' for Inactive)
REMARK    1  A    between atoms: C3_3  and  C4_4 
ROOT
HETATM    1  C1  UNL     1     -34.672   6.796   3.978  1.00 20.00     0.087 C 
HETATM    2  C2  UNL     1     -33.635   7.756   3.828  1.00 20.00     0.093 C 
HETATM    3  C3  UNL     1     -32.805   7.729   2.776  1.00 20.00     0.011 C 
HETATM    4  N7  UNL     1     -35.521   6.014   4.105  1.00 20.00    -0.192 NA
ENDROOT
BRANCH   3   5
HETATM    5  C4  UNL     1     -32.896   6.739   1.726  1.00 20.00    -0.004 C 
HETATM    6  C5  UNL     1     -32.034   5.719   1.603  1.00 20.00    -0.031 C 
HETATM    7  C6  UNL     1     -32.117   4.690   0.524  1.00 20.00     0.036 C 
ENDBRANCH   3   5
TORSDOF 1
ENDMDL
MODEL 8
REMARK VINA RESULT:      -1.3      3.996      5.003
REMARK  1 active torsions:
REMARK  status: ('A' for Active; 'I' for Inactive)
REMARK    1  A    between atoms: C3_3  and  C4_4 
ROOT
HETATM    1  C1  UNL     1     -32.579   9.682   0.281  1.00 20.00     0.087 C 
HETATM    2  C2  UNL     1     -32.320   9.472   1.663  1.00 20.00     0.093 C 
HETATM    3  C3  UNL     1     -32.031   8.254   2.142  1.00 20.00     0.011 C 
HETATM    4  N7  UNL     1     -32.790   9.859  -0.847  1.00 20.00    -0.192 NA
ENDROOT
BRANCH   3   5
HETATM    5  C4  UNL     1     -31.961   7.075   1.307  1.00 20.00    -0.004 C 
HETATM    6  C5  UNL     1     -32.679   5.967   1.541  1.00 20.00    -0.031 C 
HETATM    7  C6  UNL     1     -32.617   4.744   0.687  1.00 20.00     0.036 C 
ENDBRANCH   3   5
TORSDOF 1
ENDMDL
MODEL 9
REMARK VINA RESULT:      -1.2      2.454      3.182
REMARK  1 active torsions:
REMARK  status: ('A' for Active; 'I' for Inactive)
REMARK    1  A    between atoms: C3_3  and  C4_4 
ROOT
HETATM    1  C1  UNL     1     -32.842   5.717   1.530  1.00 20.00     0.087 C 
HETATM    2  C2  UNL     1     -32.987   6.587   2.644  1.00 20.00     0.093 C 
HETATM    3  C3  UNL     1     -32.634   7.878   2.573  1.00 20.00     0.011 C 
HETATM    4  N7  UNL     1     -32.725   5.002   0.622  1.00 20.00    -0.192 NA
ENDROOT
BRANCH   3   5
HETATM    5  C4  UNL     1     -32.085   8.480   1.378  1.00 20.00    -0.004 C 
HETATM    6  C5  UNL     1     -32.649   9.527   0.759  1.00 20.00    -0.031 C 
HETATM    7  C6  UNL     1     -32.092  10.158  -0.475  1.00 20.00     0.036 C 
ENDBRANCH   3   5
TORSDOF 1
ENDMDL
