MODEL 1
REMARK VINA RESULT:      -2.6      0.000      0.000
REMARK  1 active torsions:
REMARK  status: ('A' for Active; 'I' for Inactive)
REMARK    1  A    between atoms: C3_3  and  C4_4 
ROOT
HETATM    1  C1  UNL     1     -34.200   4.487   4.197  1.00 20.00     0.087 C 
HETATM    2  C2  UNL     1     -34.579   5.839   3.982  1.00 20.00     0.093 C 
HETATM    3  C3  UNL     1     -34.059   6.563   2.981  1.00 20.00     0.011 C 
HETATM    4  N7  UNL     1     -33.892   3.382   4.374  1.00 20.00    -0.192 NA
ENDROOT
BRANCH   3   5
HETATM    5  C4  UNL     1     -33.083   6.035   2.053  1.00 20.00    -0.004 C 
HETATM    6  C5  UNL     1     -32.123   6.785   1.493  1.00 20.00    -0.031 C 
HETATM    7  C6  UNL     1     -31.949   8.244   1.760  1.00 20.00     0.036 C 
ENDBRANCH   3   5
TORSDOF 1
ENDMDL
MODEL 2
REMARK VINA RESULT:      -2.6      3.123      4.603
REMARK  1 active torsions:
REMARK  status: ('A' for Active; 'I' for Inactive)
REMARK    1  A    between atoms: C3_3  and  C4_4 
ROOT
HETATM    1  C1  UNL     1     -32.247   8.858   0.954  1.00 20.00     0.087 C 
HETATM    2  C2  UNL     1     -32.073   7.515   1.382  1.00 20.00     0.093 C 
HETATM    3  C3  UNL     1     -32.593   7.073   2.536  1.00 20.00     0.011 C 
HETATM    4  N7  UNL     1     -32.389   9.956   0.603  1.00 20.00    -0.192 NA
ENDROOT
BRANCH   3   5
HETATM    5  C4  UNL     1     -33.361   7.915   3.426  1.00 20.00    -0.004 C 
HETATM    6  C5  UNL     1     -34.471   7.499   4.053  1.00 20.00    -0.031 C 
HETATM    7  C6  UNL     1     -35.040   6.127   3.907  1.00 20.00     0.036 C 
ENDBRANCH   3   5
TORSDOF 1
ENDMDL
MODEL 3
REMARK VINA RESULT:      -2.4      1.657      2.686
REMARK  1 active torsions:
REMARK  status: ('A' for Active; 'I' for Inactive)
REMARK    1  A    between atoms: C3_3  and  C4_4 
ROOT
HETATM    1  C1  UNL     1     -33.767   6.342   2.900  1.00 20.00     0.087 C 
HETATM    2  C2  UNL     1     -32.918   6.067   1.795  1.00 20.00     0.093 C 
HETATM    3  C3  UNL     1     -32.091   6.997   1.298  1.00 20.00     0.011 C 
HETATM    4  N7  UNL     1     -34.462   6.564   3.803  1.00 20.00    -0.192 NA
ENDROOT
BRANCH   3   5
HETATM    5  C4  UNL     1     -31.998   8.336   1.837  1.00 20.00    -0.004 C 
HETATM    6  C5  UNL     1     -32.187   9.439   1.098  1.00 20.00    -0.031 C 
HETATM    7  C6  UNL     1     -32.515   9.414  -0.359  1.00 20.00     0.036 C 
ENDBRANCH   3   5
TORSDOF 1
ENDMDL
MODEL 4
REMARK VINA RESULT:      -2.0      1.484      1.889
REMARK  1 active torsions:
REMARK  status: ('A' for Active; 'I' for Inactive)
REMARK    1  A    between atoms: C3_3  and  C4_4 
ROOT
HETATM    1  C1  UNL     1     -34.250   4.137   4.408  1.00 20.00     0.087 C 
HETATM    2  C2  UNL     1     -35.305   5.080   4.535  1.00 20.00     0.093 C 
HETATM    3  C3  UNL     1     -35.244   6.284   3.949  1.00 20.00     0.011 C 
HETATM    4  N7  UNL     1     -33.389   3.365   4.305  1.00 20.00    -0.192 NA
ENDROOT
BRANCH   3   5
HETATM    5  C4  UNL     1     -34.116   6.715   3.152  1.00 20.00    -0.004 C 
HETATM    6  C5  UNL     1     -33.213   7.608   3.582  1.00 20.00    -0.031 C 
HETATM    7  C6  UNL     1     -33.265   8.257   4.926  1.00 20.00     0.036 C 
ENDBRANCH   3   5
TORSDOF 1
ENDMDL
MODEL 5
REMARK VINA RESULT:      -1.9      3.245      4.747
REMARK  1 active torsions:
REMARK  status: ('A' for Active; 'I' for Inactive)
REMARK    1  A    between atoms: C3_3  and  C4_4 
ROOT
HETATM    1  C1  UNL     1     -32.469   9.519   0.271  1.00 20.00     0.087 C 
HETATM    2  C2  UNL     1     -31.953   9.269   1.570  1.00 20.00     0.093 C 
HETATM    3  C3  UNL     1     -31.868   8.026   2.064  1.00 20.00     0.011 C 
HETATM    4  N7  UNL     1     -32.890   9.726  -0.791  1.00 20.00    -0.192 NA
ENDROOT
BRANCH   3   5
HETATM    5  C4  UNL     1     -32.288   6.856   1.325  1.00 20.00    -0.004 C 
HETATM    6  C5  UNL     1     -33.185   5.976   1.794  1.00 20.00    -0.031 C 
HETATM    7  C6  UNL     1     -33.851   6.101   3.124  1.00 20.00     0.036 C 
ENDBRANCH   3   5
TORSDOF 1
ENDMDL
MODEL 6
REMARK VINA RESULT:      -1.7      3.616      4.800
REMARK  1 active torsions:
REMARK  status: ('A' for Active; 'I' for Inactive)
REMARK    1  A    between atoms: C3_3  and  C4_4 
ROOT
HETATM    1  C1  UNL     1     -32.322   9.462   0.189  1.00 20.00     0.087 C 
HETATM    2  C2  UNL     1     -31.435   8.981   1.190  1.00 20.00     0.093 C 
HETATM    3  C3  UNL     1     -31.747   7.925   1.955  1.00 20.00     0.011 C 
HETATM    4  N7  UNL     1     -33.044   9.855  -0.630  1.00 20.00    -0.192 NA
ENDROOT
BRANCH   3   5
HETATM    5  C4  UNL     1     -32.992   7.200   1.825  1.00 20.00    -0.004 C 
HETATM    6  C5  UNL     1     -33.054   5.908   1.471  1.00 20.00    -0.031 C 
HETATM    7  C6  UNL     1     -31.853   5.072   1.171  1.00 20.00     0.036 C 
ENDBRANCH   3   5
TORSDOF 1
ENDMDL
MODEL 7
REMARK VINA RESULT:      -1.7      2.295      3.131
REMARK  1 active torsions:
REMARK  status: ('A' for Active; 'I' for Inactive)
REMARK    1  A    between atoms: C3_3  and  C4_4 
ROOT
HETATM    1  C1  UNL     1     -32.785   6.004   1.705  1.00 20.00     0.087 C 
HETATM    2  C2  UNL     1     -32.698   7.151   2.540  1.00 20.00     0.093 C 
HETATM    3  C3  UNL     1     -32.230   8.319   2.081  1.00 20.00     0.011 C 
HETATM    4  N7  UNL     1     -32.858   5.067   1.025  1.00 20.00    -0.192 NA
ENDROOT
BRANCH   3   5
HETATM    5  C4  UNL     1     -31.781   8.506   0.718  1.00 20.00    -0.004 C 
HETATM    6  C5  UNL     1     -32.073   9.596  -0.007  1.00 20.00    -0.031 C 
HETATM    7  C6  UNL     1     -32.889  10.737   0.505  1.00 20.00     0.036 C 
ENDBRANCH   3   5
TORSDOF 1
ENDMDL
MODEL 8
REMARK VINA RESULT:      -1.5      2.413      3.791
REMARK  1 active torsions:
REMARK  status: ('A' for Active; 'I' for Inactive)
REMARK    1  A    between atoms: C3_3  and  C4_4 
ROOT
HETATM    1  C1  UNL     1     -33.106   7.618   2.962  1.00 20.00     0.087 C 
HETATM    2  C2  UNL     1     -34.089   7.263   3.924  1.00 20.00     0.093 C 
HETATM    3  C3  UNL     1     -34.537   6.005   4.037  1.00 20.00     0.011 C 
HETATM    4  N7  UNL     1     -32.301   7.911   2.178  1.00 20.00    -0.192 NA
ENDROOT
BRANCH   3   5
HETATM    5  C4  UNL     1     -34.062   4.923   3.203  1.00 20.00    -0.004 C 
HETATM    6  C5  UNL     1     -33.585   3.771   3.697  1.00 20.00    -0.031 C 
HETATM    7  C6  UNL     1     -33.488   3.472   5.157  1.00 20.00     0.036 C 
ENDBRANCH   3   5
TORSDOF 1
ENDMDL
MODEL 9
REMARK VINA RESULT:      -1.4      2.407      3.888
REMARK  1 active torsions:
REMARK  status: ('A' for Active; 'I' for Inactive)
REMARK    1  A    between atoms: C3_3  and  C4_4 
ROOT
HETATM    1  C1  UNL     1     -32.505   7.815   2.686  1.00 20.00     0.087 C 
HETATM    2  C2  UNL     1     -32.839   7.968   4.058  1.00 20.00     0.093 C 
HETATM    3  C3  UNL     1     -34.008   7.532   4.548  1.00 20.00     0.011 C 
HETATM    4  N7  UNL     1     -32.230   7.690   1.565  1.00 20.00    -0.192 NA
ENDROOT
BRANCH   3   5
HETATM    5  C4  UNL     1     -35.009   6.880   3.733  1.00 20.00    -0.004 C 
HETATM    6  C5  UNL     1     -35.170   5.549   3.695  1.00 20.00    -0.031 C 
HETATM    7  C6  UNL     1     -34.341   4.591   4.484  1.00 20.00     0.036 C 
ENDBRANCH   3   5
TORSDOF 1
ENDMDL
