MODEL 1
REMARK VINA RESULT:      -2.1      0.000      0.000
REMARK  2 active torsions:
REMARK  status: ('A' for Active; 'I' for Inactive)
REMARK    1  A    between atoms: C1_1  and  C6_6 
REMARK    2  A    between atoms: C5_5  and  N7_7 
ROOT
HETATM    1  C1  UNL     1     -32.827   6.806   2.079  1.00 20.00     0.108 C 
HETATM    2  C2  UNL     1     -32.790   5.716   1.037  1.00 20.00     0.075 C 
HETATM    3  N7  UNL     1     -33.556   6.781   3.142  1.00 20.00    -0.285 NA
ENDROOT
BRANCH   1   4
HETATM    4  C6  UNL     1     -31.936   7.997   1.856  1.00 20.00     0.430 C 
HETATM    5  F8  UNL     1     -31.391   8.439   3.016  1.00 20.00    -0.165 F 
HETATM    6  F9  UNL     1     -32.594   9.049   1.306  1.00 20.00    -0.165 F 
HETATM    7  F10 UNL     1     -30.905   7.701   1.024  1.00 20.00    -0.165 F 
ENDBRANCH   1   4
BRANCH   3   8
HETATM    8  C5  UNL     1     -34.412   5.627   3.367  1.00 20.00     0.100 C 
HETATM    9  C3  UNL     1     -33.587   4.516   4.000  1.00 20.00     0.034 C 
HETATM   10  C4  UNL     1     -35.576   6.040   4.256  1.00 20.00     0.034 C 
ENDBRANCH   3   8
TORSDOF 2
ENDMDL
MODEL 2
REMARK VINA RESULT:      -2.1      2.659      4.121
REMARK  2 active torsions:
REMARK  status: ('A' for Active; 'I' for Inactive)
REMARK    1  A    between atoms: C1_1  and  C6_6 
REMARK    2  A    between atoms: C5_5  and  N7_7 
ROOT
HETATM    1  C1  UNL     1     -33.593   6.737   2.670  1.00 20.00     0.108 C 
HETATM    2  C2  UNL     1     -33.161   5.548   1.849  1.00 20.00     0.075 C 
HETATM    3  N7  UNL     1     -33.140   7.935   2.522  1.00 20.00    -0.285 NA
ENDROOT
BRANCH   1   4
HETATM    4  C6  UNL     1     -34.635   6.496   3.727  1.00 20.00     0.430 C 
HETATM    5  F8  UNL     1     -34.544   5.246   4.245  1.00 20.00    -0.165 F 
HETATM    6  F9  UNL     1     -35.902   6.634   3.257  1.00 20.00    -0.165 F 
HETATM    7  F10 UNL     1     -34.506   7.363   4.764  1.00 20.00    -0.165 F 
ENDBRANCH   1   4
BRANCH   3   8
HETATM    8  C5  UNL     1     -32.139   8.174   1.494  1.00 20.00     0.100 C 
HETATM    9  C3  UNL     1     -32.519   9.426   0.716  1.00 20.00     0.034 C 
HETATM   10  C4  UNL     1     -30.775   8.314   2.155  1.00 20.00     0.034 C 
ENDBRANCH   3   8
TORSDOF 2
ENDMDL
MODEL 3
REMARK VINA RESULT:      -2.0      2.670      4.152
REMARK  2 active torsions:
REMARK  status: ('A' for Active; 'I' for Inactive)
REMARK    1  A    between atoms: C1_1  and  C6_6 
REMARK    2  A    between atoms: C5_5  and  N7_7 
ROOT
HETATM    1  C1  UNL     1     -33.593   6.736   2.671  1.00 20.00     0.108 C 
HETATM    2  C2  UNL     1     -33.170   5.547   1.843  1.00 20.00     0.075 C 
HETATM    3  N7  UNL     1     -33.135   7.932   2.525  1.00 20.00    -0.285 NA
ENDROOT
BRANCH   1   4
HETATM    4  C6  UNL     1     -34.631   6.496   3.732  1.00 20.00     0.430 C 
HETATM    5  F8  UNL     1     -35.889   6.635   3.243  1.00 20.00    -0.165 F 
HETATM    6  F9  UNL     1     -34.521   7.354   4.778  1.00 20.00    -0.165 F 
HETATM    7  F10 UNL     1     -34.544   5.241   4.243  1.00 20.00    -0.165 F 
ENDBRANCH   1   4
BRANCH   3   8
HETATM    8  C5  UNL     1     -32.138   8.171   1.494  1.00 20.00     0.100 C 
HETATM    9  C3  UNL     1     -32.522   9.421   0.715  1.00 20.00     0.034 C 
HETATM   10  C4  UNL     1     -30.772   8.313   2.149  1.00 20.00     0.034 C 
ENDBRANCH   3   8
TORSDOF 2
ENDMDL
MODEL 4
REMARK VINA RESULT:      -1.9      2.805      4.127
REMARK  2 active torsions:
REMARK  status: ('A' for Active; 'I' for Inactive)
REMARK    1  A    between atoms: C1_1  and  C6_6 
REMARK    2  A    between atoms: C5_5  and  N7_7 
ROOT
HETATM    1  C1  UNL     1     -34.051   5.767   3.368  1.00 20.00     0.108 C 
HETATM    2  C2  UNL     1     -33.502   4.383   3.609  1.00 20.00     0.075 C 
HETATM    3  N7  UNL     1     -33.540   6.629   2.556  1.00 20.00    -0.285 NA
ENDROOT
BRANCH   1   4
HETATM    4  C6  UNL     1     -35.291   6.154   4.126  1.00 20.00     0.430 C 
HETATM    5  F8  UNL     1     -35.754   5.128   4.884  1.00 20.00    -0.165 F 
HETATM    6  F9  UNL     1     -36.310   6.530   3.312  1.00 20.00    -0.165 F 
HETATM    7  F10 UNL     1     -35.059   7.193   4.969  1.00 20.00    -0.165 F 
ENDBRANCH   1   4
BRANCH   3   8
HETATM    8  C5  UNL     1     -32.346   6.256   1.813  1.00 20.00     0.100 C 
HETATM    9  C3  UNL     1     -32.756   5.432   0.601  1.00 20.00     0.034 C 
HETATM   10  C4  UNL     1     -31.600   7.519   1.409  1.00 20.00     0.034 C 
ENDBRANCH   3   8
TORSDOF 2
ENDMDL
MODEL 5
REMARK VINA RESULT:      -1.7      1.752      2.107
REMARK  2 active torsions:
REMARK  status: ('A' for Active; 'I' for Inactive)
REMARK    1  A    between atoms: C1_1  and  C6_6 
REMARK    2  A    between atoms: C5_5  and  N7_7 
ROOT
HETATM    1  C1  UNL     1     -32.436   8.047   1.644  1.00 20.00     0.108 C 
HETATM    2  C2  UNL     1     -31.850   6.673   1.436  1.00 20.00     0.075 C 
HETATM    3  N7  UNL     1     -33.125   8.403   2.675  1.00 20.00    -0.285 NA
ENDROOT
BRANCH   1   4
HETATM    4  C6  UNL     1     -32.183   9.070   0.571  1.00 20.00     0.430 C 
HETATM    5  F8  UNL     1     -32.324  10.334   1.041  1.00 20.00    -0.165 F 
HETATM    6  F9  UNL     1     -33.029   8.946  -0.483  1.00 20.00    -0.165 F 
HETATM    7  F10 UNL     1     -30.923   8.972   0.075  1.00 20.00    -0.165 F 
ENDBRANCH   1   4
BRANCH   3   8
HETATM    8  C5  UNL     1     -33.364   7.420   3.720  1.00 20.00     0.100 C 
HETATM    9  C3  UNL     1     -33.207   8.093   5.076  1.00 20.00     0.034 C 
HETATM   10  C4  UNL     1     -34.757   6.835   3.539  1.00 20.00     0.034 C 
ENDBRANCH   3   8
TORSDOF 2
ENDMDL
MODEL 6
REMARK VINA RESULT:      -1.7      1.111      1.858
REMARK  2 active torsions:
REMARK  status: ('A' for Active; 'I' for Inactive)
REMARK    1  A    between atoms: C1_1  and  C6_6 
REMARK    2  A    between atoms: C5_5  and  N7_7 
ROOT
HETATM    1  C1  UNL     1     -32.931   7.379   3.139  1.00 20.00     0.108 C 
HETATM    2  C2  UNL     1     -33.083   8.247   4.363  1.00 20.00     0.075 C 
HETATM    3  N7  UNL     1     -33.506   6.236   2.973  1.00 20.00    -0.285 NA
ENDROOT
BRANCH   1   4
HETATM    4  C6  UNL     1     -32.053   7.899   2.034  1.00 20.00     0.430 C 
HETATM    5  F8  UNL     1     -30.881   8.385   2.514  1.00 20.00    -0.165 F 
HETATM    6  F9  UNL     1     -32.634   8.904   1.330  1.00 20.00    -0.165 F 
HETATM    7  F10 UNL     1     -31.741   6.925   1.142  1.00 20.00    -0.165 F 
ENDBRANCH   1   4
BRANCH   3   8
HETATM    8  C5  UNL     1     -34.364   5.733   4.035  1.00 20.00     0.100 C 
HETATM    9  C3  UNL     1     -35.799   6.153   3.751  1.00 20.00     0.034 C 
HETATM   10  C4  UNL     1     -34.224   4.220   4.109  1.00 20.00     0.034 C 
ENDBRANCH   3   8
TORSDOF 2
ENDMDL
MODEL 7
REMARK VINA RESULT:      -1.6      2.988      4.290
REMARK  2 active torsions:
REMARK  status: ('A' for Active; 'I' for Inactive)
REMARK    1  A    between atoms: C1_1  and  C6_6 
REMARK    2  A    between atoms: C5_5  and  N7_7 
ROOT
HETATM    1  C1  UNL     1     -33.855   7.254   3.599  1.00 20.00     0.108 C 
HETATM    2  C2  UNL     1     -33.318   8.139   4.696  1.00 20.00     0.075 C 
HETATM    3  N7  UNL     1     -33.379   7.199   2.402  1.00 20.00    -0.285 NA
ENDROOT
BRANCH   1   4
HETATM    4  C6  UNL     1     -35.022   6.370   3.942  1.00 20.00     0.430 C 
HETATM    5  F8  UNL     1     -34.694   5.056   3.864  1.00 20.00    -0.165 F 
HETATM    6  F9  UNL     1     -36.084   6.559   3.118  1.00 20.00    -0.165 F 
HETATM    7  F10 UNL     1     -35.462   6.592   5.207  1.00 20.00    -0.165 F 
ENDBRANCH   1   4
BRANCH   3   8
HETATM    8  C5  UNL     1     -32.244   8.045   2.068  1.00 20.00     0.100 C 
HETATM    9  C3  UNL     1     -31.133   7.177   1.493  1.00 20.00     0.034 C 
HETATM   10  C4  UNL     1     -32.694   9.111   1.080  1.00 20.00     0.034 C 
ENDBRANCH   3   8
TORSDOF 2
ENDMDL
MODEL 8
REMARK VINA RESULT:      -1.6      2.992      4.289
REMARK  2 active torsions:
REMARK  status: ('A' for Active; 'I' for Inactive)
REMARK    1  A    between atoms: C1_1  and  C6_6 
REMARK    2  A    between atoms: C5_5  and  N7_7 
ROOT
HETATM    1  C1  UNL     1     -33.855   7.245   3.598  1.00 20.00     0.108 C 
HETATM    2  C2  UNL     1     -33.323   8.136   4.694  1.00 20.00     0.075 C 
HETATM    3  N7  UNL     1     -33.376   7.187   2.402  1.00 20.00    -0.285 NA
ENDROOT
BRANCH   1   4
HETATM    4  C6  UNL     1     -35.019   6.358   3.942  1.00 20.00     0.430 C 
HETATM    5  F8  UNL     1     -35.467   6.586   5.202  1.00 20.00    -0.165 F 
HETATM    6  F9  UNL     1     -34.714   5.037   3.868  1.00 20.00    -0.165 F 
HETATM    7  F10 UNL     1     -36.069   6.565   3.107  1.00 20.00    -0.165 F 
ENDBRANCH   1   4
BRANCH   3   8
HETATM    8  C5  UNL     1     -32.244   8.036   2.068  1.00 20.00     0.100 C 
HETATM    9  C3  UNL     1     -31.132   7.173   1.489  1.00 20.00     0.034 C 
HETATM   10  C4  UNL     1     -32.699   9.103   1.083  1.00 20.00     0.034 C 
ENDBRANCH   3   8
TORSDOF 2
ENDMDL
MODEL 9
REMARK VINA RESULT:      -1.1      1.836      2.578
REMARK  2 active torsions:
REMARK  status: ('A' for Active; 'I' for Inactive)
REMARK    1  A    between atoms: C1_1  and  C6_6 
REMARK    2  A    between atoms: C5_5  and  N7_7 
ROOT
HETATM    1  C1  UNL     1     -32.178   8.439   1.468  1.00 20.00     0.108 C 
HETATM    2  C2  UNL     1     -31.146   8.618   2.554  1.00 20.00     0.075 C 
HETATM    3  N7  UNL     1     -33.057   7.496   1.438  1.00 20.00    -0.285 NA
ENDROOT
BRANCH   1   4
HETATM    4  C6  UNL     1     -32.177   9.446   0.351  1.00 20.00     0.430 C 
HETATM    5  F8  UNL     1     -32.378  10.705   0.812  1.00 20.00    -0.165 F 
HETATM    6  F9  UNL     1     -33.143   9.208  -0.572  1.00 20.00    -0.165 F 
HETATM    7  F10 UNL     1     -30.993   9.454  -0.315  1.00 20.00    -0.165 F 
ENDBRANCH   1   4
BRANCH   3   8
HETATM    8  C5  UNL     1     -33.068   6.525   2.521  1.00 20.00     0.100 C 
HETATM    9  C3  UNL     1     -34.288   6.775   3.395  1.00 20.00     0.034 C 
HETATM   10  C4  UNL     1     -33.075   5.124   1.930  1.00 20.00     0.034 C 
ENDBRANCH   3   8
TORSDOF 2
ENDMDL
