MODEL 1
REMARK VINA RESULT:      -0.9      0.000      0.000
REMARK  1 active torsions:
REMARK  status: ('A' for Active; 'I' for Inactive)
REMARK    1  A    between atoms: C3_3  and  C5_5 
ROOT
HETATM    1  C1  UNL     1     -33.285   5.578   2.186  1.00 20.00     0.025 A 
HETATM    2  C2  UNL     1     -32.317   6.233   1.372  1.00 20.00     0.028 A 
HETATM    3  C3  UNL     1     -33.962   6.461   2.998  1.00 20.00     0.089 A 
HETATM    4  C4  UNL     1     -32.291   7.593   1.593  1.00 20.00     0.052 A 
HETATM    5  S9  UNL     1     -33.430   8.073   2.777  1.00 20.00    -0.078 SA
HETATM    6 BR10 UNL     1     -31.133   8.805   0.699  1.00 20.00    -0.043 Br
ENDROOT
BRANCH   3   7
HETATM    7  C5  UNL     1     -35.034   6.176   3.977  1.00 20.00     0.423 C 
HETATM    8  F6  UNL     1     -36.301   6.370   3.491  1.00 20.00    -0.166 F 
HETATM    9  F7  UNL     1     -35.036   4.888   4.444  1.00 20.00    -0.166 F 
HETATM   10  F8  UNL     1     -34.960   6.960   5.098  1.00 20.00    -0.166 F 
ENDBRANCH   3   7
TORSDOF 1
ENDMDL
MODEL 2
REMARK VINA RESULT:      -0.7      3.930      4.561
REMARK  1 active torsions:
REMARK  status: ('A' for Active; 'I' for Inactive)
REMARK    1  A    between atoms: C3_3  and  C5_5 
ROOT
HETATM    1  C1  UNL     1     -33.649   8.128   3.161  1.00 20.00     0.025 A 
HETATM    2  C2  UNL     1     -34.076   6.982   3.893  1.00 20.00     0.028 A 
HETATM    3  C3  UNL     1     -32.911   7.787   2.049  1.00 20.00     0.089 A 
HETATM    4  C4  UNL     1     -33.647   5.809   3.312  1.00 20.00     0.052 A 
HETATM    5  S9  UNL     1     -32.735   6.091   1.890  1.00 20.00    -0.078 SA
HETATM    6 BR10 UNL     1     -34.015   4.074   3.994  1.00 20.00    -0.043 Br
ENDROOT
BRANCH   3   7
HETATM    7  C5  UNL     1     -32.296   8.680   1.043  1.00 20.00     0.423 C 
HETATM    8  F6  UNL     1     -32.955   8.705  -0.160  1.00 20.00    -0.166 F 
HETATM    9  F7  UNL     1     -32.230   9.993   1.427  1.00 20.00    -0.166 F 
HETATM   10  F8  UNL     1     -31.008   8.334   0.734  1.00 20.00    -0.166 F 
ENDBRANCH   3   7
TORSDOF 1
ENDMDL
MODEL 3
REMARK VINA RESULT:      -0.7      3.941      4.578
REMARK  1 active torsions:
REMARK  status: ('A' for Active; 'I' for Inactive)
REMARK    1  A    between atoms: C3_3  and  C5_5 
ROOT
HETATM    1  C1  UNL     1     -33.633   8.168   3.136  1.00 20.00     0.025 A 
HETATM    2  C2  UNL     1     -34.075   7.032   3.873  1.00 20.00     0.028 A 
HETATM    3  C3  UNL     1     -32.894   7.812   2.030  1.00 20.00     0.089 A 
HETATM    4  C4  UNL     1     -33.657   5.850   3.302  1.00 20.00     0.052 A 
HETATM    5  S9  UNL     1     -32.736   6.113   1.883  1.00 20.00    -0.078 SA
HETATM    6 BR10 UNL     1     -34.046   4.124   3.994  1.00 20.00    -0.043 Br
ENDROOT
BRANCH   3   7
HETATM    7  C5  UNL     1     -32.265   8.691   1.020  1.00 20.00     0.423 C 
HETATM    8  F6  UNL     1     -30.983   8.334   0.689  1.00 20.00    -0.166 F 
HETATM    9  F7  UNL     1     -32.931   8.734  -0.176  1.00 20.00    -0.166 F 
HETATM   10  F8  UNL     1     -32.175   9.996   1.425  1.00 20.00    -0.166 F 
ENDBRANCH   3   7
TORSDOF 1
ENDMDL
MODEL 4
REMARK VINA RESULT:      -0.7      1.711      2.295
REMARK  1 active torsions:
REMARK  status: ('A' for Active; 'I' for Inactive)
REMARK    1  A    between atoms: C3_3  and  C5_5 
ROOT
HETATM    1  C1  UNL     1     -34.221   6.926   4.078  1.00 20.00     0.025 A 
HETATM    2  C2  UNL     1     -33.681   8.013   3.331  1.00 20.00     0.028 A 
HETATM    3  C3  UNL     1     -33.810   5.706   3.588  1.00 20.00     0.089 A 
HETATM    4  C4  UNL     1     -32.877   7.582   2.299  1.00 20.00     0.052 A 
HETATM    5  S9  UNL     1     -32.776   5.874   2.233  1.00 20.00    -0.078 SA
HETATM    6 BR10 UNL     1     -31.980   8.733   1.082  1.00 20.00    -0.043 Br
ENDROOT
BRANCH   3   7
HETATM    7  C5  UNL     1     -34.147   4.354   4.082  1.00 20.00     0.423 C 
HETATM    8  F6  UNL     1     -34.230   3.403   3.097  1.00 20.00    -0.166 F 
HETATM    9  F7  UNL     1     -33.244   3.845   4.978  1.00 20.00    -0.166 F 
HETATM   10  F8  UNL     1     -35.355   4.303   4.726  1.00 20.00    -0.166 F 
ENDBRANCH   3   7
TORSDOF 1
ENDMDL
MODEL 5
REMARK VINA RESULT:      -0.5      3.774      4.371
REMARK  1 active torsions:
REMARK  status: ('A' for Active; 'I' for Inactive)
REMARK    1  A    between atoms: C3_3  and  C5_5 
ROOT
HETATM    1  C1  UNL     1     -32.683   6.061   1.542  1.00 20.00     0.025 A 
HETATM    2  C2  UNL     1     -33.538   5.217   2.309  1.00 20.00     0.028 A 
HETATM    3  C3  UNL     1     -32.635   7.343   2.044  1.00 20.00     0.089 A 
HETATM    4  C4  UNL     1     -34.110   5.886   3.368  1.00 20.00     0.052 A 
HETATM    5  S9  UNL     1     -33.618   7.525   3.435  1.00 20.00    -0.078 SA
HETATM    6 BR10 UNL     1     -35.308   5.100   4.616  1.00 20.00    -0.043 Br
ENDROOT
BRANCH   3   7
HETATM    7  C5  UNL     1     -31.870   8.503   1.537  1.00 20.00     0.423 C 
HETATM    8  F6  UNL     1     -31.011   8.201   0.513  1.00 20.00    -0.166 F 
HETATM    9  F7  UNL     1     -32.651   9.515   1.045  1.00 20.00    -0.166 F 
HETATM   10  F8  UNL     1     -31.087   9.090   2.495  1.00 20.00    -0.166 F 
ENDBRANCH   3   7
TORSDOF 1
ENDMDL
MODEL 6
REMARK VINA RESULT:      -0.4      2.016      2.664
REMARK  1 active torsions:
REMARK  status: ('A' for Active; 'I' for Inactive)
REMARK    1  A    between atoms: C3_3  and  C5_5 
ROOT
HETATM    1  C1  UNL     1     -32.379   7.901   2.321  1.00 20.00     0.025 A 
HETATM    2  C2  UNL     1     -31.715   7.067   1.376  1.00 20.00     0.028 A 
HETATM    3  C3  UNL     1     -33.319   7.209   3.052  1.00 20.00     0.089 A 
HETATM    4  C4  UNL     1     -32.174   5.768   1.420  1.00 20.00     0.052 A 
HETATM    5  S9  UNL     1     -33.399   5.560   2.598  1.00 20.00    -0.078 SA
HETATM    6 BR10 UNL     1     -31.534   4.364   0.312  1.00 20.00    -0.043 Br
ENDROOT
BRANCH   3   7
HETATM    7  C5  UNL     1     -34.209   7.713   4.121  1.00 20.00     0.423 C 
HETATM    8  F6  UNL     1     -33.550   8.104   5.258  1.00 20.00    -0.166 F 
HETATM    9  F7  UNL     1     -34.952   8.805   3.759  1.00 20.00    -0.166 F 
HETATM   10  F8  UNL     1     -35.123   6.784   4.542  1.00 20.00    -0.166 F 
ENDBRANCH   3   7
TORSDOF 1
ENDMDL
MODEL 7
REMARK VINA RESULT:       0.0      1.083      1.490
REMARK  1 active torsions:
REMARK  status: ('A' for Active; 'I' for Inactive)
REMARK    1  A    between atoms: C3_3  and  C5_5 
ROOT
HETATM    1  C1  UNL     1     -33.324   7.951   4.066  1.00 20.00     0.025 A 
HETATM    2  C2  UNL     1     -32.333   8.497   3.200  1.00 20.00     0.028 A 
HETATM    3  C3  UNL     1     -34.039   6.939   3.464  1.00 20.00     0.089 A 
HETATM    4  C4  UNL     1     -32.328   7.880   1.968  1.00 20.00     0.052 A 
HETATM    5  S9  UNL     1     -33.514   6.650   1.860  1.00 20.00    -0.078 SA
HETATM    6 BR10 UNL     1     -31.151   8.331   0.546  1.00 20.00    -0.043 Br
ENDROOT
BRANCH   3   7
HETATM    7  C5  UNL     1     -35.142   6.129   4.025  1.00 20.00     0.423 C 
HETATM    8  F6  UNL     1     -36.316   6.221   3.324  1.00 20.00    -0.166 F 
HETATM    9  F7  UNL     1     -34.876   4.786   4.079  1.00 20.00    -0.166 F 
HETATM   10  F8  UNL     1     -35.466   6.480   5.309  1.00 20.00    -0.166 F 
ENDBRANCH   3   7
TORSDOF 1
ENDMDL
MODEL 8
REMARK VINA RESULT:       1.3      3.631      4.273
REMARK  1 active torsions:
REMARK  status: ('A' for Active; 'I' for Inactive)
REMARK    1  A    between atoms: C3_3  and  C5_5 
ROOT
HETATM    1  C1  UNL     1     -34.422   6.443   3.735  1.00 20.00     0.025 A 
HETATM    2  C2  UNL     1     -34.595   5.142   4.290  1.00 20.00     0.028 A 
HETATM    3  C3  UNL     1     -33.301   6.522   2.940  1.00 20.00     0.089 A 
HETATM    4  C4  UNL     1     -33.599   4.276   3.897  1.00 20.00     0.052 A 
HETATM    5  S9  UNL     1     -32.462   5.031   2.863  1.00 20.00    -0.078 SA
HETATM    6 BR10 UNL     1     -33.484   2.456   4.430  1.00 20.00    -0.043 Br
ENDROOT
BRANCH   3   7
HETATM    7  C5  UNL     1     -32.782   7.688   2.192  1.00 20.00     0.423 C 
HETATM    8  F6  UNL     1     -33.624   8.770   2.190  1.00 20.00    -0.166 F 
HETATM    9  F7  UNL     1     -31.594   8.175   2.671  1.00 20.00    -0.166 F 
HETATM   10  F8  UNL     1     -32.548   7.418   0.870  1.00 20.00    -0.166 F 
ENDBRANCH   3   7
TORSDOF 1
ENDMDL
MODEL 9
REMARK VINA RESULT:       1.7      2.701      3.385
REMARK  1 active torsions:
REMARK  status: ('A' for Active; 'I' for Inactive)
REMARK    1  A    between atoms: C3_3  and  C5_5 
ROOT
HETATM    1  C1  UNL     1     -32.329   7.669   2.648  1.00 20.00     0.025 A 
HETATM    2  C2  UNL     1     -32.334   9.048   2.292  1.00 20.00     0.028 A 
HETATM    3  C3  UNL     1     -32.466   6.849   1.549  1.00 20.00     0.089 A 
HETATM    4  C4  UNL     1     -32.474   9.230   0.933  1.00 20.00     0.052 A 
HETATM    5  S9  UNL     1     -32.599   7.743   0.095  1.00 20.00    -0.078 SA
HETATM    6 BR10 UNL     1     -32.525  10.925   0.076  1.00 20.00    -0.043 Br
ENDROOT
BRANCH   3   7
HETATM    7  C5  UNL     1     -32.505   5.372   1.502  1.00 20.00     0.423 C 
HETATM    8  F6  UNL     1     -33.133   4.794   2.575  1.00 20.00    -0.166 F 
HETATM    9  F7  UNL     1     -33.157   4.866   0.408  1.00 20.00    -0.166 F 
HETATM   10  F8  UNL     1     -31.261   4.801   1.470  1.00 20.00    -0.166 F 
ENDBRANCH   3   7
TORSDOF 1
ENDMDL
