MODEL 1
REMARK VINA RESULT:      -1.3      0.000      0.000
REMARK  3 active torsions:
REMARK  status: ('A' for Active; 'I' for Inactive)
REMARK    1  A    between atoms: C1_1  and  C5_5 
REMARK    2  A    between atoms: C5_5  and  C6_6 
REMARK    3  A    between atoms: C5_5  and  O8_8 
ROOT
HETATM    1  C5  UNL     1     -33.424   6.776   2.097  1.00 20.00     0.186 C 
ENDROOT
BRANCH   1   2
HETATM    2  C1  UNL     1     -32.343   7.838   2.164  1.00 20.00     0.263 C 
HETATM    3  O7  UNL     1     -32.034   8.569   1.228  1.00 20.00    -0.304 OA
ENDBRANCH   1   2
BRANCH   1   4
HETATM    4  C6  UNL     1     -34.154   6.553   3.448  1.00 20.00    -0.019 C 
HETATM    5  C2  UNL     1     -33.648   7.537   4.518  1.00 20.00     0.017 C 
HETATM    6  C3  UNL     1     -33.871   5.120   3.945  1.00 20.00     0.017 C 
HETATM    7  C4  UNL     1     -35.679   6.713   3.297  1.00 20.00     0.017 C 
ENDBRANCH   1   4
BRANCH   1   8
HETATM    8  O8  UNL     1     -32.817   5.566   1.662  1.00 20.00    -0.388 OA
HETATM    9  H20 UNL     1     -31.917   5.791   1.378  1.00 20.00     0.210 HD
ENDBRANCH   1   8
TORSDOF 3
ENDMDL
MODEL 2
REMARK VINA RESULT:      -1.2      0.030      1.530
REMARK  3 active torsions:
REMARK  status: ('A' for Active; 'I' for Inactive)
REMARK    1  A    between atoms: C1_1  and  C5_5 
REMARK    2  A    between atoms: C5_5  and  C6_6 
REMARK    3  A    between atoms: C5_5  and  O8_8 
ROOT
HETATM    1  C5  UNL     1     -33.431   6.756   2.099  1.00 20.00     0.186 C 
ENDROOT
BRANCH   1   2
HETATM    2  C1  UNL     1     -32.360   7.828   2.181  1.00 20.00     0.263 C 
HETATM    3  O7  UNL     1     -32.035   8.553   1.246  1.00 20.00    -0.304 OA
ENDBRANCH   1   2
BRANCH   1   4
HETATM    4  C6  UNL     1     -34.164   6.513   3.445  1.00 20.00    -0.019 C 
HETATM    5  C2  UNL     1     -35.682   6.715   3.291  1.00 20.00     0.017 C 
HETATM    6  C3  UNL     1     -33.651   7.525   4.491  1.00 20.00     0.017 C 
HETATM    7  C4  UNL     1     -33.896   5.094   3.983  1.00 20.00     0.017 C 
ENDBRANCH   1   4
BRANCH   1   8
HETATM    8  O8  UNL     1     -32.811   5.557   1.654  1.00 20.00    -0.388 OA
HETATM    9  H20 UNL     1     -32.353   5.178   2.421  1.00 20.00     0.210 HD
ENDBRANCH   1   8
TORSDOF 3
ENDMDL
MODEL 3
REMARK VINA RESULT:      -1.2      0.028      1.530
REMARK  3 active torsions:
REMARK  status: ('A' for Active; 'I' for Inactive)
REMARK    1  A    between atoms: C1_1  and  C5_5 
REMARK    2  A    between atoms: C5_5  and  C6_6 
REMARK    3  A    between atoms: C5_5  and  O8_8 
ROOT
HETATM    1  C5  UNL     1     -33.426   6.760   2.103  1.00 20.00     0.186 C 
ENDROOT
BRANCH   1   2
HETATM    2  C1  UNL     1     -32.337   7.815   2.164  1.00 20.00     0.263 C 
HETATM    3  O7  UNL     1     -32.047   8.563   1.235  1.00 20.00    -0.304 OA
ENDBRANCH   1   2
BRANCH   1   4
HETATM    4  C6  UNL     1     -34.143   6.534   3.461  1.00 20.00    -0.019 C 
HETATM    5  C2  UNL     1     -33.900   5.106   3.982  1.00 20.00     0.017 C 
HETATM    6  C3  UNL     1     -35.662   6.721   3.268  1.00 20.00     0.017 C 
HETATM    7  C4  UNL     1     -33.668   7.546   4.522  1.00 20.00     0.017 C 
ENDBRANCH   1   4
BRANCH   1   8
HETATM    8  O8  UNL     1     -32.831   5.549   1.654  1.00 20.00    -0.388 OA
HETATM    9  H20 UNL     1     -31.877   5.632   1.812  1.00 20.00     0.210 HD
ENDBRANCH   1   8
TORSDOF 3
ENDMDL
MODEL 4
REMARK VINA RESULT:      -0.6      2.005      3.584
REMARK  3 active torsions:
REMARK  status: ('A' for Active; 'I' for Inactive)
REMARK    1  A    between atoms: C1_1  and  C5_5 
REMARK    2  A    between atoms: C5_5  and  C6_6 
REMARK    3  A    between atoms: C5_5  and  O8_8 
ROOT
HETATM    1  C5  UNL     1     -33.527   7.811   3.265  1.00 20.00     0.186 C 
ENDROOT
BRANCH   1   2
HETATM    2  C1  UNL     1     -34.238   6.476   3.385  1.00 20.00     0.263 C 
HETATM    3  O7  UNL     1     -35.277   6.302   4.015  1.00 20.00    -0.304 OA
ENDBRANCH   1   2
BRANCH   1   4
HETATM    4  C6  UNL     1     -32.421   7.825   2.176  1.00 20.00    -0.019 C 
HETATM    5  C2  UNL     1     -32.259   6.434   1.537  1.00 20.00     0.017 C 
HETATM    6  C3  UNL     1     -31.076   8.212   2.827  1.00 20.00     0.017 C 
HETATM    7  C4  UNL     1     -32.730   8.855   1.073  1.00 20.00     0.017 C 
ENDBRANCH   1   4
BRANCH   1   8
HETATM    8  O8  UNL     1     -32.969   8.121   4.535  1.00 20.00    -0.388 OA
HETATM    9  H20 UNL     1     -32.560   8.997   4.455  1.00 20.00     0.210 HD
ENDBRANCH   1   8
TORSDOF 3
ENDMDL
MODEL 5
REMARK VINA RESULT:      -0.6      2.009      3.572
REMARK  3 active torsions:
REMARK  status: ('A' for Active; 'I' for Inactive)
REMARK    1  A    between atoms: C1_1  and  C5_5 
REMARK    2  A    between atoms: C5_5  and  C6_6 
REMARK    3  A    between atoms: C5_5  and  O8_8 
ROOT
HETATM    1  C5  UNL     1     -33.510   7.803   3.283  1.00 20.00     0.186 C 
ENDROOT
BRANCH   1   2
HETATM    2  C1  UNL     1     -34.232   6.474   3.399  1.00 20.00     0.263 C 
HETATM    3  O7  UNL     1     -35.286   6.310   4.006  1.00 20.00    -0.304 OA
ENDBRANCH   1   2
BRANCH   1   4
HETATM    4  C6  UNL     1     -32.393   7.807   2.205  1.00 20.00    -0.019 C 
HETATM    5  C2  UNL     1     -31.042   8.225   2.813  1.00 20.00     0.017 C 
HETATM    6  C3  UNL     1     -32.757   8.824   1.103  1.00 20.00     0.017 C 
HETATM    7  C4  UNL     1     -32.244   6.422   1.546  1.00 20.00     0.017 C 
ENDBRANCH   1   4
BRANCH   1   8
HETATM    8  O8  UNL     1     -32.963   8.112   4.558  1.00 20.00    -0.388 OA
HETATM    9  H20 UNL     1     -33.636   8.622   5.036  1.00 20.00     0.210 HD
ENDBRANCH   1   8
TORSDOF 3
ENDMDL
MODEL 6
REMARK VINA RESULT:      -0.6      2.006      3.574
REMARK  3 active torsions:
REMARK  status: ('A' for Active; 'I' for Inactive)
REMARK    1  A    between atoms: C1_1  and  C5_5 
REMARK    2  A    between atoms: C5_5  and  C6_6 
REMARK    3  A    between atoms: C5_5  and  O8_8 
ROOT
HETATM    1  C5  UNL     1     -33.514   7.820   3.287  1.00 20.00     0.186 C 
ENDROOT
BRANCH   1   2
HETATM    2  C1  UNL     1     -34.228   6.485   3.390  1.00 20.00     0.263 C 
HETATM    3  O7  UNL     1     -35.277   6.308   4.002  1.00 20.00    -0.304 OA
ENDBRANCH   1   2
BRANCH   1   4
HETATM    4  C6  UNL     1     -32.404   7.843   2.202  1.00 20.00    -0.019 C 
HETATM    5  C2  UNL     1     -32.747   8.841   1.083  1.00 20.00     0.017 C 
HETATM    6  C3  UNL     1     -32.285   6.439   1.571  1.00 20.00     0.017 C 
HETATM    7  C4  UNL     1     -31.035   8.211   2.806  1.00 20.00     0.017 C 
ENDBRANCH   1   4
BRANCH   1   8
HETATM    8  O8  UNL     1     -32.960   8.115   4.562  1.00 20.00    -0.388 OA
HETATM    9  H20 UNL     1     -32.594   9.012   4.508  1.00 20.00     0.210 HD
ENDBRANCH   1   8
TORSDOF 3
ENDMDL
MODEL 7
REMARK VINA RESULT:      -0.5      2.066      3.311
REMARK  3 active torsions:
REMARK  status: ('A' for Active; 'I' for Inactive)
REMARK    1  A    between atoms: C1_1  and  C5_5 
REMARK    2  A    between atoms: C5_5  and  C6_6 
REMARK    3  A    between atoms: C5_5  and  O8_8 
ROOT
HETATM    1  C5  UNL     1     -33.318   5.951   3.252  1.00 20.00     0.186 C 
ENDROOT
BRANCH   1   2
HETATM    2  C1  UNL     1     -34.545   6.765   3.618  1.00 20.00     0.263 C 
HETATM    3  O7  UNL     1     -35.599   6.283   4.022  1.00 20.00    -0.304 OA
ENDBRANCH   1   2
BRANCH   1   4
HETATM    4  C6  UNL     1     -32.787   6.245   1.823  1.00 20.00    -0.019 C 
HETATM    5  C2  UNL     1     -33.913   6.129   0.781  1.00 20.00     0.017 C 
HETATM    6  C3  UNL     1     -31.697   5.212   1.467  1.00 20.00     0.017 C 
HETATM    7  C4  UNL     1     -32.159   7.649   1.735  1.00 20.00     0.017 C 
ENDBRANCH   1   4
BRANCH   1   8
HETATM    8  O8  UNL     1     -33.658   4.576   3.376  1.00 20.00    -0.388 OA
HETATM    9  H20 UNL     1     -32.979   4.076   2.895  1.00 20.00     0.210 HD
ENDBRANCH   1   8
TORSDOF 3
ENDMDL
MODEL 8
REMARK VINA RESULT:      -0.5      2.074      3.311
REMARK  3 active torsions:
REMARK  status: ('A' for Active; 'I' for Inactive)
REMARK    1  A    between atoms: C1_1  and  C5_5 
REMARK    2  A    between atoms: C5_5  and  C6_6 
REMARK    3  A    between atoms: C5_5  and  O8_8 
ROOT
HETATM    1  C5  UNL     1     -33.314   5.936   3.243  1.00 20.00     0.186 C 
ENDROOT
BRANCH   1   2
HETATM    2  C1  UNL     1     -34.534   6.765   3.599  1.00 20.00     0.263 C 
HETATM    3  O7  UNL     1     -35.584   6.300   4.031  1.00 20.00    -0.304 OA
ENDBRANCH   1   2
BRANCH   1   4
HETATM    4  C6  UNL     1     -32.782   6.205   1.811  1.00 20.00    -0.019 C 
HETATM    5  C2  UNL     1     -31.687   5.192   1.429  1.00 20.00     0.017 C 
HETATM    6  C3  UNL     1     -32.164   7.619   1.759  1.00 20.00     0.017 C 
HETATM    7  C4  UNL     1     -33.915   6.141   0.768  1.00 20.00     0.017 C 
ENDBRANCH   1   4
BRANCH   1   8
HETATM    8  O8  UNL     1     -33.666   4.566   3.387  1.00 20.00    -0.388 OA
HETATM    9  H20 UNL     1     -34.575   4.474   3.060  1.00 20.00     0.210 HD
ENDBRANCH   1   8
TORSDOF 3
ENDMDL
MODEL 9
REMARK VINA RESULT:      -0.3      2.762      3.636
REMARK  3 active torsions:
REMARK  status: ('A' for Active; 'I' for Inactive)
REMARK    1  A    between atoms: C1_1  and  C5_5 
REMARK    2  A    between atoms: C5_5  and  C6_6 
REMARK    3  A    between atoms: C5_5  and  O8_8 
ROOT
HETATM    1  C5  UNL     1     -34.675   4.899   3.844  1.00 20.00     0.186 C 
ENDROOT
BRANCH   1   2
HETATM    2  C1  UNL     1     -33.431   4.185   4.339  1.00 20.00     0.263 C 
HETATM    3  O7  UNL     1     -33.412   3.022   4.729  1.00 20.00    -0.304 OA
ENDBRANCH   1   2
BRANCH   1   4
HETATM    4  C6  UNL     1     -34.426   6.385   3.471  1.00 20.00    -0.019 C 
HETATM    5  C2  UNL     1     -33.911   7.179   4.685  1.00 20.00     0.017 C 
HETATM    6  C3  UNL     1     -35.755   7.020   3.012  1.00 20.00     0.017 C 
HETATM    7  C4  UNL     1     -33.413   6.513   2.317  1.00 20.00     0.017 C 
ENDBRANCH   1   4
BRANCH   1   8
HETATM    8  O8  UNL     1     -35.662   4.807   4.863  1.00 20.00    -0.388 OA
HETATM    9  H20 UNL     1     -36.523   4.920   4.429  1.00 20.00     0.210 HD
ENDBRANCH   1   8
TORSDOF 3
ENDMDL
