MODEL 1
REMARK VINA RESULT:      -0.5      0.000      0.000
REMARK  2 active torsions:
REMARK  status: ('A' for Active; 'I' for Inactive)
REMARK    1  A    between atoms: C1_1  and  N7_7 
REMARK    2  A    between atoms: N6_6  and  N8_8 
ROOT
HETATM    1  C1  UNL     1     -33.344   6.338   2.826  1.00 20.00     0.220 C 
HETATM    2  N6  UNL     1     -33.114   7.613   2.819  1.00 20.00    -0.195 NA
ENDROOT
BRANCH   1   3
HETATM    3  N7  UNL     1     -34.296   5.648   3.556  1.00 20.00    -0.383 N 
HETATM    4  C2  UNL     1     -35.459   6.329   4.106  1.00 20.00     0.150 C 
HETATM    5  C3  UNL     1     -34.052   4.290   4.022  1.00 20.00     0.150 C 
ENDBRANCH   1   3
BRANCH   2   6
HETATM    6  N8  UNL     1     -32.106   7.962   1.977  1.00 20.00    -0.216 NA
HETATM    7  C4  UNL     1     -31.561   6.860   1.174  1.00 20.00     0.138 C 
HETATM    8  C5  UNL     1     -32.447   9.074   1.086  1.00 20.00     0.138 C 
ENDBRANCH   2   6
TORSDOF 2
ENDMDL
MODEL 2
REMARK VINA RESULT:      -0.5      1.317      1.725
REMARK  2 active torsions:
REMARK  status: ('A' for Active; 'I' for Inactive)
REMARK    1  A    between atoms: C1_1  and  N7_7 
REMARK    2  A    between atoms: N6_6  and  N8_8 
ROOT
HETATM    1  C1  UNL     1     -33.535   5.156   2.996  1.00 20.00     0.220 C 
HETATM    2  N6  UNL     1     -33.537   6.436   2.787  1.00 20.00    -0.195 NA
ENDROOT
BRANCH   1   3
HETATM    3  N7  UNL     1     -34.171   4.458   4.007  1.00 20.00    -0.383 N 
HETATM    4  C2  UNL     1     -35.346   5.003   4.672  1.00 20.00     0.150 C 
HETATM    5  C3  UNL     1     -33.553   3.291   4.622  1.00 20.00     0.150 C 
ENDBRANCH   1   3
BRANCH   2   6
HETATM    6  N8  UNL     1     -32.813   6.791   1.693  1.00 20.00    -0.216 NA
HETATM    7  C4  UNL     1     -31.969   7.980   1.866  1.00 20.00     0.138 C 
HETATM    8  C5  UNL     1     -31.993   5.702   1.156  1.00 20.00     0.138 C 
ENDBRANCH   2   6
TORSDOF 2
ENDMDL
MODEL 3
REMARK VINA RESULT:      -0.4      0.092      1.243
REMARK  2 active torsions:
REMARK  status: ('A' for Active; 'I' for Inactive)
REMARK    1  A    between atoms: C1_1  and  N7_7 
REMARK    2  A    between atoms: N6_6  and  N8_8 
ROOT
HETATM    1  C1  UNL     1     -33.329   6.383   2.891  1.00 20.00     0.220 C 
HETATM    2  N6  UNL     1     -33.034   7.645   2.881  1.00 20.00    -0.195 NA
ENDROOT
BRANCH   1   3
HETATM    3  N7  UNL     1     -34.250   5.730   3.691  1.00 20.00    -0.383 N 
HETATM    4  C2  UNL     1     -34.098   4.317   4.010  1.00 20.00     0.150 C 
HETATM    5  C3  UNL     1     -35.526   6.344   4.030  1.00 20.00     0.150 C 
ENDBRANCH   1   3
BRANCH   2   6
HETATM    6  N8  UNL     1     -32.086   7.956   1.959  1.00 20.00    -0.216 NA
HETATM    7  C4  UNL     1     -31.632   6.831   1.132  1.00 20.00     0.138 C 
HETATM    8  C5  UNL     1     -32.467   9.065   1.080  1.00 20.00     0.138 C 
ENDBRANCH   2   6
TORSDOF 2
ENDMDL
MODEL 4
REMARK VINA RESULT:      -0.1      1.217      1.474
REMARK  2 active torsions:
REMARK  status: ('A' for Active; 'I' for Inactive)
REMARK    1  A    between atoms: C1_1  and  N7_7 
REMARK    2  A    between atoms: N6_6  and  N8_8 
ROOT
HETATM    1  C1  UNL     1     -33.359   7.286   2.918  1.00 20.00     0.220 C 
HETATM    2  N6  UNL     1     -32.377   8.106   2.713  1.00 20.00    -0.195 NA
ENDROOT
BRANCH   1   3
HETATM    3  N7  UNL     1     -34.231   7.252   3.992  1.00 20.00    -0.383 N 
HETATM    4  C2  UNL     1     -33.973   8.034   5.193  1.00 20.00     0.150 C 
HETATM    5  C3  UNL     1     -35.288   6.254   4.075  1.00 20.00     0.150 C 
ENDBRANCH   1   3
BRANCH   2   6
HETATM    6  N8  UNL     1     -31.723   7.863   1.547  1.00 20.00    -0.216 NA
HETATM    7  C4  UNL     1     -31.944   6.527   0.979  1.00 20.00     0.138 C 
HETATM    8  C5  UNL     1     -31.981   8.867   0.512  1.00 20.00     0.138 C 
ENDBRANCH   2   6
TORSDOF 2
ENDMDL
MODEL 5
REMARK VINA RESULT:       0.2      1.412      4.340
REMARK  2 active torsions:
REMARK  status: ('A' for Active; 'I' for Inactive)
REMARK    1  A    between atoms: C1_1  and  N7_7 
REMARK    2  A    between atoms: N6_6  and  N8_8 
ROOT
HETATM    1  C1  UNL     1     -32.394   8.088   1.376  1.00 20.00     0.220 C 
HETATM    2  N6  UNL     1     -32.863   8.072   2.585  1.00 20.00    -0.195 NA
ENDROOT
BRANCH   1   3
HETATM    3  N7  UNL     1     -31.994   9.183   0.632  1.00 20.00    -0.383 N 
HETATM    4  C2  UNL     1     -32.735  10.436   0.682  1.00 20.00     0.150 C 
HETATM    5  C3  UNL     1     -30.990   9.058  -0.415  1.00 20.00     0.150 C 
ENDBRANCH   1   3
BRANCH   2   6
HETATM    6  N8  UNL     1     -33.151   6.818   3.021  1.00 20.00    -0.216 NA
HETATM    7  C4  UNL     1     -34.450   6.678   3.693  1.00 20.00     0.138 C 
HETATM    8  C5  UNL     1     -33.047   5.797   1.975  1.00 20.00     0.138 C 
ENDBRANCH   2   6
TORSDOF 2
ENDMDL
MODEL 6
REMARK VINA RESULT:       0.3      0.980      4.121
REMARK  2 active torsions:
REMARK  status: ('A' for Active; 'I' for Inactive)
REMARK    1  A    between atoms: C1_1  and  N7_7 
REMARK    2  A    between atoms: N6_6  and  N8_8 
ROOT
HETATM    1  C1  UNL     1     -33.020   7.222   2.129  1.00 20.00     0.220 C 
HETATM    2  N6  UNL     1     -33.462   6.959   3.319  1.00 20.00    -0.195 NA
ENDROOT
BRANCH   1   3
HETATM    3  N7  UNL     1     -32.114   8.197   1.753  1.00 20.00    -0.383 N 
HETATM    4  C2  UNL     1     -30.969   8.521   2.592  1.00 20.00     0.150 C 
HETATM    5  C3  UNL     1     -32.399   9.109   0.654  1.00 20.00     0.150 C 
ENDBRANCH   1   3
BRANCH   2   6
HETATM    6  N8  UNL     1     -34.342   5.924   3.337  1.00 20.00    -0.216 NA
HETATM    7  C4  UNL     1     -33.765   4.624   3.703  1.00 20.00     0.138 C 
HETATM    8  C5  UNL     1     -35.519   6.172   4.174  1.00 20.00     0.138 C 
ENDBRANCH   2   6
TORSDOF 2
ENDMDL
MODEL 7
REMARK VINA RESULT:       0.3      0.901      3.952
REMARK  2 active torsions:
REMARK  status: ('A' for Active; 'I' for Inactive)
REMARK    1  A    between atoms: C1_1  and  N7_7 
REMARK    2  A    between atoms: N6_6  and  N8_8 
ROOT
HETATM    1  C1  UNL     1     -33.175   7.514   2.422  1.00 20.00     0.220 C 
HETATM    2  N6  UNL     1     -33.354   6.231   2.466  1.00 20.00    -0.195 NA
ENDROOT
BRANCH   1   3
HETATM    3  N7  UNL     1     -32.231   8.218   1.695  1.00 20.00    -0.383 N 
HETATM    4  C2  UNL     1     -32.623   9.312   0.818  1.00 20.00     0.150 C 
HETATM    5  C3  UNL     1     -30.862   7.739   1.572  1.00 20.00     0.150 C 
ENDBRANCH   1   3
BRANCH   2   6
HETATM    6  N8  UNL     1     -34.382   5.871   3.279  1.00 20.00    -0.216 NA
HETATM    7  C4  UNL     1     -34.179   4.619   4.019  1.00 20.00     0.138 C 
HETATM    8  C5  UNL     1     -34.775   6.920   4.224  1.00 20.00     0.138 C 
ENDBRANCH   2   6
TORSDOF 2
ENDMDL
MODEL 8
REMARK VINA RESULT:       0.3      1.438      4.371
REMARK  2 active torsions:
REMARK  status: ('A' for Active; 'I' for Inactive)
REMARK    1  A    between atoms: C1_1  and  N7_7 
REMARK    2  A    between atoms: N6_6  and  N8_8 
ROOT
HETATM    1  C1  UNL     1     -32.824   8.207   2.268  1.00 20.00     0.220 C 
HETATM    2  N6  UNL     1     -33.331   7.030   2.459  1.00 20.00    -0.195 NA
ENDROOT
BRANCH   1   3
HETATM    3  N7  UNL     1     -32.280   8.723   1.105  1.00 20.00    -0.383 N 
HETATM    4  C2  UNL     1     -31.154   8.071   0.450  1.00 20.00     0.150 C 
HETATM    5  C3  UNL     1     -32.629  10.056   0.634  1.00 20.00     0.150 C 
ENDBRANCH   1   3
BRANCH   2   6
HETATM    6  N8  UNL     1     -33.786   6.852   3.726  1.00 20.00    -0.216 NA
HETATM    7  C4  UNL     1     -33.721   8.044   4.582  1.00 20.00     0.138 C 
HETATM    8  C5  UNL     1     -35.142   6.299   3.788  1.00 20.00     0.138 C 
ENDBRANCH   2   6
TORSDOF 2
ENDMDL
MODEL 9
REMARK VINA RESULT:       0.3      1.637      2.685
REMARK  2 active torsions:
REMARK  status: ('A' for Active; 'I' for Inactive)
REMARK    1  A    between atoms: C1_1  and  N7_7 
REMARK    2  A    between atoms: N6_6  and  N8_8 
ROOT
HETATM    1  C1  UNL     1     -32.888   8.096   1.704  1.00 20.00     0.220 C 
HETATM    2  N6  UNL     1     -31.936   8.439   0.895  1.00 20.00    -0.195 NA
ENDROOT
BRANCH   1   3
HETATM    3  N7  UNL     1     -33.067   6.883   2.345  1.00 20.00    -0.383 N 
HETATM    4  C2  UNL     1     -32.623   5.638   1.732  1.00 20.00     0.150 C 
HETATM    5  C3  UNL     1     -33.924   6.766   3.516  1.00 20.00     0.150 C 
ENDBRANCH   1   3
BRANCH   2   6
HETATM    6  N8  UNL     1     -32.059   9.716   0.449  1.00 20.00    -0.216 NA
HETATM    7  C4  UNL     1     -32.619   9.850  -0.902  1.00 20.00     0.138 C 
HETATM    8  C5  UNL     1     -32.809  10.584   1.361  1.00 20.00     0.138 C 
ENDBRANCH   2   6
TORSDOF 2
ENDMDL
