MODEL 1
REMARK VINA RESULT:      -1.0      0.000      0.000
REMARK  0 active torsions:
REMARK  status: ('A' for Active; 'I' for Inactive)
ROOT
HETATM    1  C1  UNL     1     -33.113   7.706   2.922  1.00 20.00     0.184 C 
HETATM    2  C2  UNL     1     -32.531   6.475   1.380  1.00 20.00     0.184 C 
HETATM    3  C3  UNL     1     -32.040   7.845   1.844  1.00 20.00     0.101 C 
HETATM    4  O4  UNL     1     -33.343   6.321   2.569  1.00 20.00    -0.389 OA
HETATM    5  I5  UNL     1     -32.373   9.579   0.334  1.00 20.00    -0.080 I 
ENDROOT
TORSDOF 0
ENDMDL
MODEL 2
REMARK VINA RESULT:      -0.8      2.078      2.230
REMARK  0 active torsions:
REMARK  status: ('A' for Active; 'I' for Inactive)
ROOT
HETATM    1  C1  UNL     1     -34.486   7.679   4.035  1.00 20.00     0.184 C 
HETATM    2  C2  UNL     1     -34.130   5.804   3.266  1.00 20.00     0.184 C 
HETATM    3  C3  UNL     1     -33.210   6.986   3.563  1.00 20.00     0.101 C 
HETATM    4  O4  UNL     1     -35.233   6.441   3.955  1.00 20.00    -0.389 OA
HETATM    5  I5  UNL     1     -32.195   7.941   1.704  1.00 20.00    -0.080 I 
ENDROOT
TORSDOF 0
ENDMDL
MODEL 3
REMARK VINA RESULT:      -0.7      2.638      2.738
REMARK  0 active torsions:
REMARK  status: ('A' for Active; 'I' for Inactive)
ROOT
HETATM    1  C1  UNL     1     -32.274   7.855   2.121  1.00 20.00     0.184 C 
HETATM    2  C2  UNL     1     -32.459   5.877   1.585  1.00 20.00     0.184 C 
HETATM    3  C3  UNL     1     -33.487   6.937   1.976  1.00 20.00     0.101 C 
HETATM    4  O4  UNL     1     -31.408   6.869   1.509  1.00 20.00    -0.389 OA
HETATM    5  I5  UNL     1     -34.648   6.513   3.943  1.00 20.00    -0.080 I 
ENDROOT
TORSDOF 0
ENDMDL
MODEL 4
REMARK VINA RESULT:      -0.4      3.879      4.131
REMARK  0 active torsions:
REMARK  status: ('A' for Active; 'I' for Inactive)
ROOT
HETATM    1  C1  UNL     1     -35.289   6.235   4.189  1.00 20.00     0.184 C 
HETATM    2  C2  UNL     1     -33.436   6.690   3.418  1.00 20.00     0.184 C 
HETATM    3  C3  UNL     1     -34.294   5.427   3.358  1.00 20.00     0.101 C 
HETATM    4  O4  UNL     1     -34.529   7.451   3.986  1.00 20.00    -0.389 OA
HETATM    5  I5  UNL     1     -33.394   3.569   4.424  1.00 20.00    -0.080 I 
ENDROOT
TORSDOF 0
ENDMDL
MODEL 5
REMARK VINA RESULT:      -0.2      2.659      2.992
REMARK  0 active torsions:
REMARK  status: ('A' for Active; 'I' for Inactive)
ROOT
HETATM    1  C1  UNL     1     -32.696   6.235   1.502  1.00 20.00     0.184 C 
HETATM    2  C2  UNL     1     -32.427   8.037   2.458  1.00 20.00     0.184 C 
HETATM    3  C3  UNL     1     -32.831   6.654   2.964  1.00 20.00     0.101 C 
HETATM    4  O4  UNL     1     -32.089   7.503   1.155  1.00 20.00    -0.389 OA
HETATM    5  I5  UNL     1     -34.977   6.508   3.842  1.00 20.00    -0.080 I 
ENDROOT
TORSDOF 0
ENDMDL
MODEL 6
REMARK VINA RESULT:      -0.2      3.543      3.711
REMARK  0 active torsions:
REMARK  status: ('A' for Active; 'I' for Inactive)
ROOT
HETATM    1  C1  UNL     1     -34.249   7.088   4.078  1.00 20.00     0.184 C 
HETATM    2  C2  UNL     1     -33.173   6.453   2.443  1.00 20.00     0.184 C 
HETATM    3  C3  UNL     1     -34.286   5.799   3.260  1.00 20.00     0.101 C 
HETATM    4  O4  UNL     1     -33.375   7.721   3.112  1.00 20.00    -0.389 OA
HETATM    5  I5  UNL     1     -33.671   3.877   4.411  1.00 20.00    -0.080 I 
ENDROOT
TORSDOF 0
ENDMDL
MODEL 7
REMARK VINA RESULT:      -0.2      2.005      2.490
REMARK  0 active torsions:
REMARK  status: ('A' for Active; 'I' for Inactive)
ROOT
HETATM    1  C1  UNL     1     -33.601   5.258   2.980  1.00 20.00     0.184 C 
HETATM    2  C2  UNL     1     -34.465   6.929   3.815  1.00 20.00     0.184 C 
HETATM    3  C3  UNL     1     -33.866   6.660   2.436  1.00 20.00     0.101 C 
HETATM    4  O4  UNL     1     -34.399   5.523   4.158  1.00 20.00    -0.389 OA
HETATM    5  I5  UNL     1     -31.968   7.898   1.922  1.00 20.00    -0.080 I 
ENDROOT
TORSDOF 0
ENDMDL
MODEL 8
REMARK VINA RESULT:      -0.1      3.384      3.783
REMARK  0 active torsions:
REMARK  status: ('A' for Active; 'I' for Inactive)
ROOT
HETATM    1  C1  UNL     1     -32.472   9.140  -0.802  1.00 20.00     0.184 C 
HETATM    2  C2  UNL     1     -32.798  10.515   0.693  1.00 20.00     0.184 C 
HETATM    3  C3  UNL     1     -31.851   9.322   0.581  1.00 20.00     0.101 C 
HETATM    4  O4  UNL     1     -33.149  10.416  -0.709  1.00 20.00    -0.389 OA
HETATM    5  I5  UNL     1     -32.252   7.595   2.082  1.00 20.00    -0.080 I 
ENDROOT
TORSDOF 0
ENDMDL
MODEL 9
REMARK VINA RESULT:      -0.1      2.618      2.932
REMARK  0 active torsions:
REMARK  status: ('A' for Active; 'I' for Inactive)
ROOT
HETATM    1  C1  UNL     1     -31.777   7.223   1.445  1.00 20.00     0.184 C 
HETATM    2  C2  UNL     1     -32.576   9.107   1.660  1.00 20.00     0.184 C 
HETATM    3  C3  UNL     1     -32.337   7.970   2.653  1.00 20.00     0.101 C 
HETATM    4  O4  UNL     1     -31.811   8.424   0.637  1.00 20.00    -0.389 OA
HETATM    5  I5  UNL     1     -34.256   7.050   3.584  1.00 20.00    -0.080 I 
ENDROOT
TORSDOF 0
ENDMDL
