MODEL 1
REMARK VINA RESULT:      -3.7      0.000      0.000
REMARK  1 active torsions:
REMARK  status: ('A' for Active; 'I' for Inactive)
REMARK    1  A    between atoms: C2_2  and  C4_4 
ROOT
HETATM    1  C1  UNL     1     -32.361   8.959   1.139  1.00 20.00     0.146 C 
HETATM    2  C4  UNL     1     -31.994   7.914   2.094  1.00 20.00     0.388 C 
HETATM    3  N5  UNL     1     -32.648   9.789   0.382  1.00 20.00    -0.190 NA
HETATM    4  F9  UNL     1     -30.962   7.198   1.570  1.00 20.00    -0.181 F 
HETATM    5  F10 UNL     1     -31.504   8.512   3.213  1.00 20.00    -0.181 F 
ENDROOT
BRANCH   2   6
HETATM    6  C2  UNL     1     -33.154   7.019   2.381  1.00 20.00     0.247 C 
HETATM    7  C3  UNL     1     -33.937   7.096   3.463  1.00 20.00     0.308 C 
HETATM    8  F7  UNL     1     -34.965   6.241   3.636  1.00 20.00    -0.170 F 
HETATM    9  F8  UNL     1     -33.693   8.041   4.395  1.00 20.00    -0.170 F 
HETATM   10  F6  UNL     1     -33.420   6.033   1.491  1.00 20.00    -0.197 F 
ENDBRANCH   2   6
TORSDOF 1
ENDMDL
MODEL 2
REMARK VINA RESULT:      -3.2      2.532      4.198
REMARK  1 active torsions:
REMARK  status: ('A' for Active; 'I' for Inactive)
REMARK    1  A    between atoms: C2_2  and  C4_4 
ROOT
HETATM    1  C1  UNL     1     -34.300   5.053   3.986  1.00 20.00     0.146 C 
HETATM    2  C4  UNL     1     -34.539   6.475   3.744  1.00 20.00     0.388 C 
HETATM    3  N5  UNL     1     -34.115   3.924   4.180  1.00 20.00    -0.190 NA
HETATM    4  F9  UNL     1     -35.584   6.593   2.881  1.00 20.00    -0.181 F 
HETATM    5  F10 UNL     1     -34.951   7.043   4.910  1.00 20.00    -0.181 F 
ENDROOT
BRANCH   2   6
HETATM    6  C2  UNL     1     -33.323   7.134   3.181  1.00 20.00     0.247 C 
HETATM    7  C3  UNL     1     -32.751   6.823   2.013  1.00 20.00     0.308 C 
HETATM    8  F7  UNL     1     -31.650   7.475   1.585  1.00 20.00    -0.170 F 
HETATM    9  F8  UNL     1     -33.280   5.841   1.253  1.00 20.00    -0.170 F 
HETATM   10  F6  UNL     1     -32.735   8.104   3.921  1.00 20.00    -0.197 F 
ENDBRANCH   2   6
TORSDOF 1
ENDMDL
MODEL 3
REMARK VINA RESULT:      -3.1      2.432      3.826
REMARK  1 active torsions:
REMARK  status: ('A' for Active; 'I' for Inactive)
REMARK    1  A    between atoms: C2_2  and  C4_4 
ROOT
HETATM    1  C1  UNL     1     -34.154   5.072   3.920  1.00 20.00     0.146 C 
HETATM    2  C4  UNL     1     -34.171   6.462   3.464  1.00 20.00     0.388 C 
HETATM    3  N5  UNL     1     -34.142   3.972   4.286  1.00 20.00    -0.190 NA
HETATM    4  F9  UNL     1     -35.440   6.769   3.078  1.00 20.00    -0.181 F 
HETATM    5  F10 UNL     1     -33.900   7.264   4.528  1.00 20.00    -0.181 F 
ENDROOT
BRANCH   2   6
HETATM    6  C2  UNL     1     -33.220   6.665   2.331  1.00 20.00     0.247 C 
HETATM    7  C3  UNL     1     -32.281   7.615   2.276  1.00 20.00     0.308 C 
HETATM    8  F7  UNL     1     -31.465   7.723   1.207  1.00 20.00    -0.170 F 
HETATM    9  F8  UNL     1     -32.149   8.481   3.302  1.00 20.00    -0.170 F 
HETATM   10  F6  UNL     1     -33.334   5.842   1.261  1.00 20.00    -0.197 F 
ENDBRANCH   2   6
TORSDOF 1
ENDMDL
MODEL 4
REMARK VINA RESULT:      -2.9      1.742      2.236
REMARK  1 active torsions:
REMARK  status: ('A' for Active; 'I' for Inactive)
REMARK    1  A    between atoms: C2_2  and  C4_4 
ROOT
HETATM    1  C1  UNL     1     -32.212   7.341   1.934  1.00 20.00     0.146 C 
HETATM    2  C4  UNL     1     -32.884   6.052   1.776  1.00 20.00     0.388 C 
HETATM    3  N5  UNL     1     -31.677   8.363   2.056  1.00 20.00    -0.190 NA
HETATM    4  F9  UNL     1     -33.662   6.108   0.661  1.00 20.00    -0.181 F 
HETATM    5  F10 UNL     1     -31.939   5.106   1.525  1.00 20.00    -0.181 F 
ENDROOT
BRANCH   2   6
HETATM    6  C2  UNL     1     -33.716   5.731   2.973  1.00 20.00     0.247 C 
HETATM    7  C3  UNL     1     -34.488   6.603   3.630  1.00 20.00     0.308 C 
HETATM    8  F7  UNL     1     -35.207   6.220   4.705  1.00 20.00    -0.170 F 
HETATM    9  F8  UNL     1     -34.548   7.885   3.213  1.00 20.00    -0.170 F 
HETATM   10  F6  UNL     1     -33.665   4.465   3.452  1.00 20.00    -0.197 F 
ENDBRANCH   2   6
TORSDOF 1
ENDMDL
MODEL 5
REMARK VINA RESULT:      -2.9      0.713      1.952
REMARK  1 active torsions:
REMARK  status: ('A' for Active; 'I' for Inactive)
REMARK    1  A    between atoms: C2_2  and  C4_4 
ROOT
HETATM    1  C1  UNL     1     -32.331   8.839   0.919  1.00 20.00     0.146 C 
HETATM    2  C4  UNL     1     -32.179   7.675   1.790  1.00 20.00     0.388 C 
HETATM    3  N5  UNL     1     -32.449   9.761   0.225  1.00 20.00    -0.190 NA
HETATM    4  F9  UNL     1     -32.984   6.682   1.322  1.00 20.00    -0.181 F 
HETATM    5  F10 UNL     1     -30.905   7.212   1.666  1.00 20.00    -0.181 F 
ENDROOT
BRANCH   2   6
HETATM    6  C2  UNL     1     -32.535   8.011   3.201  1.00 20.00     0.247 C 
HETATM    7  C3  UNL     1     -33.652   7.622   3.825  1.00 20.00     0.308 C 
HETATM    8  F7  UNL     1     -33.888   7.977   5.106  1.00 20.00    -0.170 F 
HETATM    9  F8  UNL     1     -34.556   6.868   3.167  1.00 20.00    -0.170 F 
HETATM   10  F6  UNL     1     -31.675   8.794   3.895  1.00 20.00    -0.197 F 
ENDBRANCH   2   6
TORSDOF 1
ENDMDL
MODEL 6
REMARK VINA RESULT:      -2.8      0.665      1.594
REMARK  1 active torsions:
REMARK  status: ('A' for Active; 'I' for Inactive)
REMARK    1  A    between atoms: C2_2  and  C4_4 
ROOT
HETATM    1  C1  UNL     1     -32.368   8.911   1.127  1.00 20.00     0.146 C 
HETATM    2  C4  UNL     1     -32.039   7.903   2.133  1.00 20.00     0.388 C 
HETATM    3  N5  UNL     1     -32.624   9.712   0.328  1.00 20.00    -0.190 NA
HETATM    4  F9  UNL     1     -31.502   6.825   1.500  1.00 20.00    -0.181 F 
HETATM    5  F10 UNL     1     -31.052   8.398   2.928  1.00 20.00    -0.181 F 
ENDROOT
BRANCH   2   6
HETATM    6  C2  UNL     1     -33.252   7.500   2.905  1.00 20.00     0.247 C 
HETATM    7  C3  UNL     1     -33.760   6.264   2.950  1.00 20.00     0.308 C 
HETATM    8  F7  UNL     1     -34.865   5.995   3.677  1.00 20.00    -0.170 F 
HETATM    9  F8  UNL     1     -33.163   5.273   2.257  1.00 20.00    -0.170 F 
HETATM   10  F6  UNL     1     -33.908   8.466   3.591  1.00 20.00    -0.197 F 
ENDBRANCH   2   6
TORSDOF 1
ENDMDL
MODEL 7
REMARK VINA RESULT:      -2.6      2.499      3.769
REMARK  1 active torsions:
REMARK  status: ('A' for Active; 'I' for Inactive)
REMARK    1  A    between atoms: C2_2  and  C4_4 
ROOT
HETATM    1  C1  UNL     1     -34.102   7.459   4.431  1.00 20.00     0.146 C 
HETATM    2  C4  UNL     1     -34.729   6.351   3.711  1.00 20.00     0.388 C 
HETATM    3  N5  UNL     1     -33.607   8.339   5.002  1.00 20.00    -0.190 NA
HETATM    4  F9  UNL     1     -35.387   5.573   4.613  1.00 20.00    -0.181 F 
HETATM    5  F10 UNL     1     -35.686   6.863   2.891  1.00 20.00    -0.181 F 
ENDROOT
BRANCH   2   6
HETATM    6  C2  UNL     1     -33.711   5.545   2.975  1.00 20.00     0.247 C 
HETATM    7  C3  UNL     1     -32.925   6.007   1.997  1.00 20.00     0.308 C 
HETATM    8  F7  UNL     1     -32.031   5.200   1.388  1.00 20.00    -0.170 F 
HETATM    9  F8  UNL     1     -33.028   7.296   1.612  1.00 20.00    -0.170 F 
HETATM   10  F6  UNL     1     -33.591   4.236   3.303  1.00 20.00    -0.197 F 
ENDBRANCH   2   6
TORSDOF 1
ENDMDL
MODEL 8
REMARK VINA RESULT:      -2.6      1.876      2.971
REMARK  1 active torsions:
REMARK  status: ('A' for Active; 'I' for Inactive)
REMARK    1  A    between atoms: C2_2  and  C4_4 
ROOT
HETATM    1  C1  UNL     1     -33.061   7.557   2.501  1.00 20.00     0.146 C 
HETATM    2  C4  UNL     1     -33.983   6.829   3.372  1.00 20.00     0.388 C 
HETATM    3  N5  UNL     1     -32.331   8.137   1.811  1.00 20.00    -0.190 NA
HETATM    4  F9  UNL     1     -33.864   7.327   4.632  1.00 20.00    -0.181 F 
HETATM    5  F10 UNL     1     -35.254   7.109   2.977  1.00 20.00    -0.181 F 
ENDROOT
BRANCH   2   6
HETATM    6  C2  UNL     1     -33.686   5.365   3.362  1.00 20.00     0.247 C 
HETATM    7  C3  UNL     1     -34.324   4.447   4.095  1.00 20.00     0.308 C 
HETATM    8  F7  UNL     1     -33.985   3.143   4.020  1.00 20.00    -0.170 F 
HETATM    9  F8  UNL     1     -35.318   4.828   4.923  1.00 20.00    -0.170 F 
HETATM   10  F6  UNL     1     -32.674   4.936   2.571  1.00 20.00    -0.197 F 
ENDBRANCH   2   6
TORSDOF 1
ENDMDL
MODEL 9
REMARK VINA RESULT:      -2.3      2.515      3.749
REMARK  1 active torsions:
REMARK  status: ('A' for Active; 'I' for Inactive)
REMARK    1  A    between atoms: C2_2  and  C4_4 
ROOT
HETATM    1  C1  UNL     1     -32.283   6.721   1.626  1.00 20.00     0.146 C 
HETATM    2  C4  UNL     1     -32.219   8.147   1.947  1.00 20.00     0.388 C 
HETATM    3  N5  UNL     1     -32.335   5.590   1.376  1.00 20.00    -0.190 NA
HETATM    4  F9  UNL     1     -33.420   8.524   2.463  1.00 20.00    -0.181 F 
HETATM    5  F10 UNL     1     -31.312   8.318   2.947  1.00 20.00    -0.181 F 
ENDROOT
BRANCH   2   6
HETATM    6  C2  UNL     1     -31.898   8.955   0.734  1.00 20.00     0.247 C 
HETATM    7  C3  UNL     1     -32.536  10.069   0.360  1.00 20.00     0.308 C 
HETATM    8  F7  UNL     1     -32.175  10.734  -0.756  1.00 20.00    -0.170 F 
HETATM    9  F8  UNL     1     -33.559  10.533   1.109  1.00 20.00    -0.170 F 
HETATM   10  F6  UNL     1     -30.901   8.513  -0.069  1.00 20.00    -0.197 F 
ENDBRANCH   2   6
TORSDOF 1
ENDMDL
