MODEL 1
REMARK VINA RESULT:       0.8      0.000      0.000
REMARK  0 active torsions:
REMARK  status: ('A' for Active; 'I' for Inactive)
ROOT
HETATM    1  C1  UNL     1     -32.473   5.399   1.725  1.00 20.00     0.009 A 
HETATM    2  C2  UNL     1     -31.756   6.354   1.005  1.00 20.00     0.024 A 
HETATM    3  C3  UNL     1     -32.831   8.113   2.262  1.00 20.00     0.033 A 
HETATM    4  C4  UNL     1     -33.381   5.795   2.715  1.00 20.00    -0.048 A 
HETATM    5  C5  UNL     1     -33.549   7.162   2.999  1.00 20.00    -0.022 A 
HETATM    6  C6  UNL     1     -31.937   7.710   1.272  1.00 20.00     0.034 A 
HETATM    7  C7  UNL     1     -34.127   4.757   3.514  1.00 20.00     0.069 C 
HETATM    8  C8  UNL     1     -34.542   7.610   4.043  1.00 20.00     0.308 C 
HETATM    9  C9  UNL     1     -35.320   5.344   4.271  1.00 20.00     0.274 C 
HETATM   10  N10 UNL     1     -34.918   6.554   4.989  1.00 20.00     0.087 N 
HETATM   11 CL11 UNL     1     -31.054   8.886   0.378  1.00 20.00    -0.084 Cl
HETATM   12  H21 UNL     1     -34.122   6.340   5.590  1.00 20.00     0.316 HD
ENDROOT
TORSDOF 0
ENDMDL
MODEL 2
REMARK VINA RESULT:       1.3      2.940      4.494
REMARK  0 active torsions:
REMARK  status: ('A' for Active; 'I' for Inactive)
ROOT
HETATM    1  C1  UNL     1     -34.168   7.746   3.609  1.00 20.00     0.009 A 
HETATM    2  C2  UNL     1     -34.409   6.460   4.090  1.00 20.00     0.024 A 
HETATM    3  C3  UNL     1     -32.886   5.558   2.448  1.00 20.00     0.033 A 
HETATM    4  C4  UNL     1     -33.289   7.947   2.537  1.00 20.00    -0.048 A 
HETATM    5  C5  UNL     1     -32.628   6.846   1.963  1.00 20.00    -0.022 A 
HETATM    6  C6  UNL     1     -33.769   5.367   3.510  1.00 20.00     0.034 A 
HETATM    7  C7  UNL     1     -33.007   9.343   2.043  1.00 20.00     0.069 C 
HETATM    8  C8  UNL     1     -31.698   7.038   0.790  1.00 20.00     0.308 C 
HETATM    9  C9  UNL     1     -32.337   9.355   0.667  1.00 20.00     0.274 C 
HETATM   10  N10 UNL     1     -31.217   8.416   0.641  1.00 20.00     0.087 N 
HETATM   11 CL11 UNL     1     -34.071   3.780   4.104  1.00 20.00    -0.084 Cl
HETATM   12  H21 UNL     1     -30.576   8.634   1.405  1.00 20.00     0.316 HD
ENDROOT
TORSDOF 0
ENDMDL
MODEL 3
REMARK VINA RESULT:       1.6      1.595      2.551
REMARK  0 active torsions:
REMARK  status: ('A' for Active; 'I' for Inactive)
ROOT
HETATM    1  C1  UNL     1     -32.070   7.575   1.809  1.00 20.00     0.009 A 
HETATM    2  C2  UNL     1     -31.508   6.634   0.948  1.00 20.00     0.024 A 
HETATM    3  C3  UNL     1     -32.918   4.920   1.897  1.00 20.00     0.033 A 
HETATM    4  C4  UNL     1     -33.056   7.194   2.728  1.00 20.00    -0.048 A 
HETATM    5  C5  UNL     1     -33.498   5.859   2.760  1.00 20.00    -0.022 A 
HETATM    6  C6  UNL     1     -31.931   5.307   0.993  1.00 20.00     0.034 A 
HETATM    7  C7  UNL     1     -33.684   8.223   3.633  1.00 20.00     0.069 C 
HETATM    8  C8  UNL     1     -34.539   5.422   3.761  1.00 20.00     0.308 C 
HETATM    9  C9  UNL     1     -34.449   7.592   4.798  1.00 20.00     0.274 C 
HETATM   10  N10 UNL     1     -35.328   6.530   4.310  1.00 20.00     0.087 N 
HETATM   11 CL11 UNL     1     -31.233   4.146  -0.069  1.00 20.00    -0.084 Cl
HETATM   12  H21 UNL     1     -35.937   6.905   3.581  1.00 20.00     0.316 HD
ENDROOT
TORSDOF 0
ENDMDL
MODEL 4
REMARK VINA RESULT:       2.0      1.295      2.292
REMARK  0 active torsions:
REMARK  status: ('A' for Active; 'I' for Inactive)
ROOT
HETATM    1  C1  UNL     1     -34.031   7.974   3.260  1.00 20.00     0.009 A 
HETATM    2  C2  UNL     1     -33.186   8.640   2.373  1.00 20.00     0.024 A 
HETATM    3  C3  UNL     1     -32.199   6.533   1.728  1.00 20.00     0.033 A 
HETATM    4  C4  UNL     1     -33.961   6.582   3.394  1.00 20.00    -0.048 A 
HETATM    5  C5  UNL     1     -33.050   5.852   2.608  1.00 20.00    -0.022 A 
HETATM    6  C6  UNL     1     -32.270   7.920   1.608  1.00 20.00     0.034 A 
HETATM    7  C7  UNL     1     -34.900   5.865   4.330  1.00 20.00     0.069 C 
HETATM    8  C8  UNL     1     -32.940   4.355   2.758  1.00 20.00     0.308 C 
HETATM    9  C9  UNL     1     -34.451   4.433   4.629  1.00 20.00     0.274 C 
HETATM   10  N10 UNL     1     -34.113   3.739   3.387  1.00 20.00     0.087 N 
HETATM   11 CL11 UNL     1     -31.226   8.744   0.516  1.00 20.00    -0.084 Cl
HETATM   12  H21 UNL     1     -34.905   3.789   2.746  1.00 20.00     0.316 HD
ENDROOT
TORSDOF 0
ENDMDL
MODEL 5
REMARK VINA RESULT:       2.1      2.873      4.126
REMARK  0 active torsions:
REMARK  status: ('A' for Active; 'I' for Inactive)
ROOT
HETATM    1  C1  UNL     1     -32.558   5.615   1.787  1.00 20.00     0.009 A 
HETATM    2  C2  UNL     1     -33.467   5.151   2.737  1.00 20.00     0.024 A 
HETATM    3  C3  UNL     1     -34.109   7.424   3.237  1.00 20.00     0.033 A 
HETATM    4  C4  UNL     1     -32.412   6.990   1.560  1.00 20.00    -0.048 A 
HETATM    5  C5  UNL     1     -33.208   7.902   2.278  1.00 20.00    -0.022 A 
HETATM    6  C6  UNL     1     -34.241   6.055   3.463  1.00 20.00     0.034 A 
HETATM    7  C7  UNL     1     -31.453   7.484   0.508  1.00 20.00     0.069 C 
HETATM    8  C8  UNL     1     -33.046   9.387   2.068  1.00 20.00     0.308 C 
HETATM    9  C9  UNL     1     -31.148   8.977   0.645  1.00 20.00     0.274 C 
HETATM   10  N10 UNL     1     -32.389   9.734   0.802  1.00 20.00     0.087 N 
HETATM   11 CL11 UNL     1     -35.360   5.480   4.638  1.00 20.00    -0.084 Cl
HETATM   12  H21 UNL     1     -33.017   9.519   0.027  1.00 20.00     0.316 HD
ENDROOT
TORSDOF 0
ENDMDL
MODEL 6
REMARK VINA RESULT:       3.7      1.181      2.321
REMARK  0 active torsions:
REMARK  status: ('A' for Active; 'I' for Inactive)
ROOT
HETATM    1  C1  UNL     1     -33.170   9.082   2.404  1.00 20.00     0.009 A 
HETATM    2  C2  UNL     1     -32.283   9.345   1.360  1.00 20.00     0.024 A 
HETATM    3  C3  UNL     1     -31.935   6.976   1.055  1.00 20.00     0.033 A 
HETATM    4  C4  UNL     1     -33.440   7.762   2.787  1.00 20.00    -0.048 A 
HETATM    5  C5  UNL     1     -32.832   6.699   2.094  1.00 20.00    -0.022 A 
HETATM    6  C6  UNL     1     -31.666   8.293   0.687  1.00 20.00     0.034 A 
HETATM    7  C7  UNL     1     -34.425   7.483   3.893  1.00 20.00     0.069 C 
HETATM    8  C8  UNL     1     -33.088   5.271   2.509  1.00 20.00     0.308 C 
HETATM    9  C9  UNL     1     -34.323   6.051   4.422  1.00 20.00     0.274 C 
HETATM   10  N10 UNL     1     -34.305   5.101   3.311  1.00 20.00     0.087 N 
HETATM   11 CL11 UNL     1     -30.569   8.621  -0.598  1.00 20.00    -0.084 Cl
HETATM   12  H21 UNL     1     -35.123   5.257   2.720  1.00 20.00     0.316 HD
ENDROOT
TORSDOF 0
ENDMDL
