MODEL 1
REMARK VINA RESULT:       1.7      0.000      0.000
REMARK  0 active torsions:
REMARK  status: ('A' for Active; 'I' for Inactive)
ROOT
HETATM    1  C1  UNL     1     -32.458   5.281   1.532  1.00 20.00     0.064 C 
HETATM    2  C2  UNL     1     -35.331   6.710   3.417  1.00 20.00     0.011 C 
HETATM    3  C3  UNL     1     -33.355   7.648   4.354  1.00 20.00     0.010 C 
HETATM    4  C4  UNL     1     -33.681   5.446   2.318  1.00 20.00     0.101 C 
HETATM    5  C5  UNL     1     -34.253   6.400   4.461  1.00 20.00    -0.009 C 
HETATM    6  C6  UNL     1     -34.312   6.857   2.275  1.00 20.00     0.007 C 
HETATM    7  C7  UNL     1     -33.436   7.999   2.855  1.00 20.00    -0.013 C 
HETATM    8  C8  UNL     1     -33.490   5.204   3.834  1.00 20.00     0.003 C 
HETATM    9  C9  UNL     1     -32.081   8.249   2.216  1.00 20.00     0.010 C 
HETATM   10  C10 UNL     1     -34.060   3.859   4.276  1.00 20.00     0.011 C 
HETATM   11  N11 UNL     1     -31.488   5.151   0.909  1.00 20.00    -0.197 NA
ENDROOT
TORSDOF 0
ENDMDL
MODEL 2
REMARK VINA RESULT:       2.0      1.610      3.035
REMARK  0 active torsions:
REMARK  status: ('A' for Active; 'I' for Inactive)
ROOT
HETATM    1  C1  UNL     1     -34.005   5.100   3.609  1.00 20.00     0.064 C 
HETATM    2  C2  UNL     1     -33.456   8.206   1.635  1.00 20.00     0.011 C 
HETATM    3  C3  UNL     1     -31.322   7.199   1.946  1.00 20.00     0.010 C 
HETATM    4  C4  UNL     1     -33.998   6.487   3.145  1.00 20.00     0.101 C 
HETATM    5  C5  UNL     1     -32.312   8.144   2.653  1.00 20.00    -0.009 C 
HETATM    6  C6  UNL     1     -33.669   6.684   1.647  1.00 20.00     0.007 C 
HETATM    7  C7  UNL     1     -32.256   6.220   1.205  1.00 20.00    -0.013 C 
HETATM    8  C8  UNL     1     -32.943   7.376   3.845  1.00 20.00     0.003 C 
HETATM    9  C9  UNL     1     -31.891   4.761   1.411  1.00 20.00     0.010 C 
HETATM   10  C10 UNL     1     -33.574   8.317   4.869  1.00 20.00     0.011 C 
HETATM   11  N11 UNL     1     -34.011   4.000   3.976  1.00 20.00    -0.197 NA
ENDROOT
TORSDOF 0
ENDMDL
MODEL 3
REMARK VINA RESULT:       2.8      1.919      3.903
REMARK  0 active torsions:
REMARK  status: ('A' for Active; 'I' for Inactive)
ROOT
HETATM    1  C1  UNL     1     -33.830   7.574   3.858  1.00 20.00     0.064 C 
HETATM    2  C2  UNL     1     -33.391   5.914   0.557  1.00 20.00     0.011 C 
HETATM    3  C3  UNL     1     -31.946   4.802   2.086  1.00 20.00     0.010 C 
HETATM    4  C4  UNL     1     -33.590   7.308   2.439  1.00 20.00     0.101 C 
HETATM    5  C5  UNL     1     -31.987   6.033   1.160  1.00 20.00    -0.009 C 
HETATM    6  C6  UNL     1     -34.082   5.933   1.930  1.00 20.00     0.007 C 
HETATM    7  C7  UNL     1     -33.403   4.697   2.579  1.00 20.00    -0.013 C 
HETATM    8  C8  UNL     1     -32.093   7.300   2.048  1.00 20.00     0.003 C 
HETATM    9  C9  UNL     1     -33.524   4.529   4.083  1.00 20.00     0.010 C 
HETATM   10  C10 UNL     1     -31.691   8.567   1.297  1.00 20.00     0.011 C 
HETATM   11  N11 UNL     1     -34.021   7.785   4.982  1.00 20.00    -0.197 NA
ENDROOT
TORSDOF 0
ENDMDL
MODEL 4
REMARK VINA RESULT:       3.7      1.654      3.123
REMARK  0 active torsions:
REMARK  status: ('A' for Active; 'I' for Inactive)
ROOT
HETATM    1  C1  UNL     1     -33.327   4.071   3.877  1.00 20.00     0.064 C 
HETATM    2  C2  UNL     1     -32.634   7.579   2.846  1.00 20.00     0.011 C 
HETATM    3  C3  UNL     1     -34.907   7.134   2.299  1.00 20.00     0.010 C 
HETATM    4  C4  UNL     1     -32.744   5.270   3.273  1.00 20.00     0.101 C 
HETATM    5  C5  UNL     1     -33.486   6.970   1.727  1.00 20.00    -0.009 C 
HETATM    6  C6  UNL     1     -33.176   6.610   3.910  1.00 20.00     0.007 C 
HETATM    7  C7  UNL     1     -34.689   6.941   3.813  1.00 20.00    -0.013 C 
HETATM    8  C8  UNL     1     -33.116   5.464   1.784  1.00 20.00     0.003 C 
HETATM    9  C9  UNL     1     -35.669   5.969   4.447  1.00 20.00     0.010 C 
HETATM   10  C10 UNL     1     -31.956   5.119   0.853  1.00 20.00     0.011 C 
HETATM   11  N11 UNL     1     -33.788   3.121   4.357  1.00 20.00    -0.197 NA
ENDROOT
TORSDOF 0
ENDMDL
MODEL 5
REMARK VINA RESULT:       3.8      1.376      3.416
REMARK  0 active torsions:
REMARK  status: ('A' for Active; 'I' for Inactive)
ROOT
HETATM    1  C1  UNL     1     -32.576   5.900   1.199  1.00 20.00     0.064 C 
HETATM    2  C2  UNL     1     -31.881   8.817   3.404  1.00 20.00     0.011 C 
HETATM    3  C3  UNL     1     -34.247   8.655   3.196  1.00 20.00     0.010 C 
HETATM    4  C4  UNL     1     -32.064   7.156   1.750  1.00 20.00     0.101 C 
HETATM    5  C5  UNL     1     -33.021   9.250   2.476  1.00 20.00    -0.009 C 
HETATM    6  C6  UNL     1     -32.226   7.324   3.278  1.00 20.00     0.007 C 
HETATM    7  C7  UNL     1     -33.688   7.351   3.798  1.00 20.00    -0.013 C 
HETATM    8  C8  UNL     1     -32.766   8.416   1.192  1.00 20.00     0.003 C 
HETATM    9  C9  UNL     1     -34.559   6.136   3.528  1.00 20.00     0.010 C 
HETATM   10  C10 UNL     1     -31.894   9.160   0.185  1.00 20.00     0.011 C 
HETATM   11  N11 UNL     1     -32.981   4.905   0.763  1.00 20.00    -0.197 NA
ENDROOT
TORSDOF 0
ENDMDL
MODEL 6
REMARK VINA RESULT:       3.8      1.517      2.414
REMARK  0 active torsions:
REMARK  status: ('A' for Active; 'I' for Inactive)
ROOT
HETATM    1  C1  UNL     1     -31.983   8.101   2.258  1.00 20.00     0.064 C 
HETATM    2  C2  UNL     1     -35.355   6.603   2.738  1.00 20.00     0.011 C 
HETATM    3  C3  UNL     1     -34.047   5.978   4.625  1.00 20.00     0.010 C 
HETATM    4  C4  UNL     1     -33.233   7.363   2.072  1.00 20.00     0.101 C 
HETATM    5  C5  UNL     1     -34.351   5.534   3.182  1.00 20.00    -0.009 C 
HETATM    6  C6  UNL     1     -34.386   7.761   3.022  1.00 20.00     0.007 C 
HETATM    7  C7  UNL     1     -34.124   7.515   4.532  1.00 20.00    -0.013 C 
HETATM    8  C8  UNL     1     -33.104   5.841   2.311  1.00 20.00     0.003 C 
HETATM    9  C9  UNL     1     -32.940   8.221   5.171  1.00 20.00     0.010 C 
HETATM   10  C10 UNL     1     -33.104   5.053   1.004  1.00 20.00     0.011 C 
HETATM   11  N11 UNL     1     -30.993   8.686   2.406  1.00 20.00    -0.197 NA
ENDROOT
TORSDOF 0
ENDMDL
MODEL 7
REMARK VINA RESULT:       4.5      2.063      3.425
REMARK  0 active torsions:
REMARK  status: ('A' for Active; 'I' for Inactive)
ROOT
HETATM    1  C1  UNL     1     -34.226   6.502   3.439  1.00 20.00     0.064 C 
HETATM    2  C2  UNL     1     -30.989   7.770   2.113  1.00 20.00     0.011 C 
HETATM    3  C3  UNL     1     -32.710   8.792   0.827  1.00 20.00     0.010 C 
HETATM    4  C4  UNL     1     -32.873   6.599   2.892  1.00 20.00     0.101 C 
HETATM    5  C5  UNL     1     -31.871   7.502   0.889  1.00 20.00    -0.009 C 
HETATM    6  C6  UNL     1     -32.192   7.978   3.047  1.00 20.00     0.007 C 
HETATM    7  C7  UNL     1     -32.888   9.155   2.314  1.00 20.00    -0.013 C 
HETATM    8  C8  UNL     1     -32.795   6.350   1.367  1.00 20.00     0.003 C 
HETATM    9  C9  UNL     1     -34.324   9.477   2.693  1.00 20.00     0.010 C 
HETATM   10  C10 UNL     1     -32.220   4.975   1.039  1.00 20.00     0.011 C 
HETATM   11  N11 UNL     1     -35.299   6.426   3.874  1.00 20.00    -0.197 NA
ENDROOT
TORSDOF 0
ENDMDL
MODEL 8
REMARK VINA RESULT:       4.6      1.622      3.021
REMARK  0 active torsions:
REMARK  status: ('A' for Active; 'I' for Inactive)
ROOT
HETATM    1  C1  UNL     1     -32.155   8.372   1.511  1.00 20.00     0.064 C 
HETATM    2  C2  UNL     1     -32.991   5.331   3.485  1.00 20.00     0.011 C 
HETATM    3  C3  UNL     1     -34.940   5.908   2.247  1.00 20.00     0.010 C 
HETATM    4  C4  UNL     1     -32.346   7.409   2.596  1.00 20.00     0.101 C 
HETATM    5  C5  UNL     1     -34.222   6.240   3.569  1.00 20.00    -0.009 C 
HETATM    6  C6  UNL     1     -32.520   5.938   2.153  1.00 20.00     0.007 C 
HETATM    7  C7  UNL     1     -33.769   5.645   1.279  1.00 20.00    -0.013 C 
HETATM    8  C8  UNL     1     -33.616   7.663   3.442  1.00 20.00     0.003 C 
HETATM    9  C9  UNL     1     -33.898   6.381  -0.043  1.00 20.00     0.010 C 
HETATM   10  C10 UNL     1     -33.285   8.273   4.802  1.00 20.00     0.011 C 
HETATM   11  N11 UNL     1     -32.003   9.135   0.650  1.00 20.00    -0.197 NA
ENDROOT
TORSDOF 0
ENDMDL
