MODEL 1
REMARK VINA RESULT:       1.6      0.000      0.000
REMARK  0 active torsions:
REMARK  status: ('A' for Active; 'I' for Inactive)
ROOT
HETATM    1  C1  UNL     1     -31.900   7.865   0.174  1.00 20.00     0.013 A 
HETATM    2  C2  UNL     1     -31.984   9.199  -0.228  1.00 20.00     0.043 A 
HETATM    3  C3  UNL     1     -32.612   9.831   2.013  1.00 20.00     0.050 A 
HETATM    4  C4  UNL     1     -32.172   7.482   1.498  1.00 20.00    -0.020 A 
HETATM    5  C5  UNL     1     -32.526   8.493   2.425  1.00 20.00    -0.046 A 
HETATM    6  C6  UNL     1     -32.342  10.180   0.691  1.00 20.00     0.117 A 
HETATM    7  C7  UNL     1     -32.811   8.130   3.865  1.00 20.00     0.039 C 
HETATM    8  C8  UNL     1     -34.123   7.363   4.084  1.00 20.00     0.007 C 
HETATM    9  C9  UNL     1     -34.419   6.236   3.089  1.00 20.00     0.035 C 
HETATM   10  C10 UNL     1     -32.092   6.030   1.910  1.00 20.00     0.184 A 
HETATM   11  C11 UNL     1     -33.204   5.432   2.750  1.00 20.00     0.156 A 
HETATM   12  O12 UNL     1     -33.066   5.121   1.362  1.00 20.00    -0.370 OA
HETATM   13  F13 UNL     1     -32.422  11.461   0.307  1.00 20.00    -0.206 F 
ENDROOT
TORSDOF 0
ENDMDL
MODEL 2
REMARK VINA RESULT:       1.8      3.365      5.051
REMARK  0 active torsions:
REMARK  status: ('A' for Active; 'I' for Inactive)
ROOT
HETATM    1  C1  UNL     1     -32.212   4.246   2.558  1.00 20.00     0.013 A 
HETATM    2  C2  UNL     1     -32.349   3.179   3.447  1.00 20.00     0.043 A 
HETATM    3  C3  UNL     1     -34.189   4.309   4.517  1.00 20.00     0.050 A 
HETATM    4  C4  UNL     1     -33.055   5.368   2.629  1.00 20.00    -0.020 A 
HETATM    5  C5  UNL     1     -34.061   5.385   3.626  1.00 20.00    -0.046 A 
HETATM    6  C6  UNL     1     -33.335   3.212   4.427  1.00 20.00     0.117 A 
HETATM    7  C7  UNL     1     -35.003   6.563   3.729  1.00 20.00     0.039 C 
HETATM    8  C8  UNL     1     -34.356   7.854   4.252  1.00 20.00     0.007 C 
HETATM    9  C9  UNL     1     -32.983   8.205   3.669  1.00 20.00     0.035 C 
HETATM   10  C10 UNL     1     -32.881   6.521   1.668  1.00 20.00     0.184 A 
HETATM   11  C11 UNL     1     -32.897   7.942   2.199  1.00 20.00     0.156 A 
HETATM   12  O12 UNL     1     -31.684   7.314   1.779  1.00 20.00    -0.370 OA
HETATM   13  F13 UNL     1     -33.467   2.188   5.281  1.00 20.00    -0.206 F 
ENDROOT
TORSDOF 0
ENDMDL
MODEL 3
REMARK VINA RESULT:       2.2      1.520      2.093
REMARK  0 active torsions:
REMARK  status: ('A' for Active; 'I' for Inactive)
ROOT
HETATM    1  C1  UNL     1     -32.141   5.614   1.528  1.00 20.00     0.013 A 
HETATM    2  C2  UNL     1     -31.723   6.619   0.655  1.00 20.00     0.043 A 
HETATM    3  C3  UNL     1     -32.523   8.289   2.198  1.00 20.00     0.050 A 
HETATM    4  C4  UNL     1     -32.760   5.920   2.752  1.00 20.00    -0.020 A 
HETATM    5  C5  UNL     1     -32.943   7.285   3.083  1.00 20.00    -0.046 A 
HETATM    6  C6  UNL     1     -31.916   7.955   0.989  1.00 20.00     0.117 A 
HETATM    7  C7  UNL     1     -33.589   7.663   4.397  1.00 20.00     0.039 C 
HETATM    8  C8  UNL     1     -35.093   7.363   4.479  1.00 20.00     0.007 C 
HETATM    9  C9  UNL     1     -35.540   6.002   3.935  1.00 20.00     0.035 C 
HETATM   10  C10 UNL     1     -33.221   4.817   3.676  1.00 20.00     0.184 A 
HETATM   11  C11 UNL     1     -34.601   4.898   4.302  1.00 20.00     0.156 A 
HETATM   12  O12 UNL     1     -34.313   3.986   3.240  1.00 20.00    -0.370 OA
HETATM   13  F13 UNL     1     -31.516   8.920   0.151  1.00 20.00    -0.206 F 
ENDROOT
TORSDOF 0
ENDMDL
MODEL 4
REMARK VINA RESULT:       2.4      2.944      4.760
REMARK  0 active torsions:
REMARK  status: ('A' for Active; 'I' for Inactive)
ROOT
HETATM    1  C1  UNL     1     -34.134   7.711   3.961  1.00 20.00     0.013 A 
HETATM    2  C2  UNL     1     -35.093   6.870   4.527  1.00 20.00     0.043 A 
HETATM    3  C3  UNL     1     -34.046   4.972   3.472  1.00 20.00     0.050 A 
HETATM    4  C4  UNL     1     -33.114   7.207   3.137  1.00 20.00    -0.020 A 
HETATM    5  C5  UNL     1     -33.076   5.810   2.902  1.00 20.00    -0.046 A 
HETATM    6  C6  UNL     1     -35.050   5.501   4.281  1.00 20.00     0.117 A 
HETATM    7  C7  UNL     1     -31.986   5.219   2.036  1.00 20.00     0.039 C 
HETATM    8  C8  UNL     1     -32.111   5.545   0.541  1.00 20.00     0.007 C 
HETATM    9  C9  UNL     1     -32.463   6.995   0.193  1.00 20.00     0.035 C 
HETATM   10  C10 UNL     1     -32.095   8.136   2.520  1.00 20.00     0.184 A 
HETATM   11  C11 UNL     1     -31.742   7.985   1.052  1.00 20.00     0.156 A 
HETATM   12  O12 UNL     1     -32.552   9.066   1.519  1.00 20.00    -0.370 OA
HETATM   13  F13 UNL     1     -35.969   4.693   4.823  1.00 20.00    -0.206 F 
ENDROOT
TORSDOF 0
ENDMDL
MODEL 5
REMARK VINA RESULT:       2.8      2.103      3.445
REMARK  0 active torsions:
REMARK  status: ('A' for Active; 'I' for Inactive)
ROOT
HETATM    1  C1  UNL     1     -33.726   8.045   3.088  1.00 20.00     0.013 A 
HETATM    2  C2  UNL     1     -32.572   8.501   2.450  1.00 20.00     0.043 A 
HETATM    3  C3  UNL     1     -32.122   6.264   1.672  1.00 20.00     0.050 A 
HETATM    4  C4  UNL     1     -34.104   6.693   3.037  1.00 20.00    -0.020 A 
HETATM    5  C5  UNL     1     -33.282   5.798   2.308  1.00 20.00    -0.046 A 
HETATM    6  C6  UNL     1     -31.770   7.610   1.745  1.00 20.00     0.117 A 
HETATM    7  C7  UNL     1     -33.658   4.337   2.210  1.00 20.00     0.039 C 
HETATM    8  C8  UNL     1     -33.491   3.546   3.516  1.00 20.00     0.007 C 
HETATM    9  C9  UNL     1     -33.994   4.233   4.790  1.00 20.00     0.035 C 
HETATM   10  C10 UNL     1     -35.348   6.215   3.749  1.00 20.00     0.184 A 
HETATM   11  C11 UNL     1     -35.290   4.951   4.585  1.00 20.00     0.156 A 
HETATM   12  O12 UNL     1     -35.353   6.245   5.188  1.00 20.00    -0.370 OA
HETATM   13  F13 UNL     1     -30.661   8.047   1.132  1.00 20.00    -0.206 F 
ENDROOT
TORSDOF 0
ENDMDL
MODEL 6
REMARK VINA RESULT:       3.3      2.977      4.675
REMARK  0 active torsions:
REMARK  status: ('A' for Active; 'I' for Inactive)
ROOT
HETATM    1  C1  UNL     1     -33.556   4.280   3.003  1.00 20.00     0.013 A 
HETATM    2  C2  UNL     1     -34.323   3.952   4.122  1.00 20.00     0.043 A 
HETATM    3  C3  UNL     1     -35.019   6.252   4.316  1.00 20.00     0.050 A 
HETATM    4  C4  UNL     1     -33.499   5.597   2.517  1.00 20.00    -0.020 A 
HETATM    5  C5  UNL     1     -34.253   6.590   3.190  1.00 20.00    -0.046 A 
HETATM    6  C6  UNL     1     -35.052   4.938   4.779  1.00 20.00     0.117 A 
HETATM    7  C7  UNL     1     -34.237   8.018   2.693  1.00 20.00     0.039 C 
HETATM    8  C8  UNL     1     -32.911   8.759   2.923  1.00 20.00     0.007 C 
HETATM    9  C9  UNL     1     -31.635   7.975   2.604  1.00 20.00     0.035 C 
HETATM   10  C10 UNL     1     -32.650   5.936   1.314  1.00 20.00     0.184 A 
HETATM   11  C11 UNL     1     -31.756   7.161   1.355  1.00 20.00     0.156 A 
HETATM   12  O12 UNL     1     -31.219   5.840   1.453  1.00 20.00    -0.370 OA
HETATM   13  F13 UNL     1     -35.789   4.625   5.852  1.00 20.00    -0.206 F 
ENDROOT
TORSDOF 0
ENDMDL
MODEL 7
REMARK VINA RESULT:       4.0      2.692      4.693
REMARK  0 active torsions:
REMARK  status: ('A' for Active; 'I' for Inactive)
ROOT
HETATM    1  C1  UNL     1     -33.846   8.195   3.162  1.00 20.00     0.013 A 
HETATM    2  C2  UNL     1     -34.095   6.848   3.430  1.00 20.00     0.043 A 
HETATM    3  C3  UNL     1     -32.351   6.220   1.890  1.00 20.00     0.050 A 
HETATM    4  C4  UNL     1     -32.848   8.586   2.253  1.00 20.00    -0.020 A 
HETATM    5  C5  UNL     1     -32.090   7.572   1.617  1.00 20.00    -0.046 A 
HETATM    6  C6  UNL     1     -33.350   5.862   2.793  1.00 20.00     0.117 A 
HETATM    7  C7  UNL     1     -30.995   7.945   0.644  1.00 20.00     0.039 C 
HETATM    8  C8  UNL     1     -31.495   8.516  -0.692  1.00 20.00     0.007 C 
HETATM    9  C9  UNL     1     -32.626   9.544  -0.605  1.00 20.00     0.035 C 
HETATM   10  C10 UNL     1     -32.604  10.048   1.963  1.00 20.00     0.184 A 
HETATM   11  C11 UNL     1     -32.446  10.507   0.526  1.00 20.00     0.156 A 
HETATM   12  O12 UNL     1     -33.635  10.778   1.270  1.00 20.00    -0.370 OA
HETATM   13  F13 UNL     1     -33.589   4.569   3.049  1.00 20.00    -0.206 F 
ENDROOT
TORSDOF 0
ENDMDL
