MODEL 1
REMARK VINA RESULT:       0.4      0.000      0.000
REMARK  1 active torsions:
REMARK  status: ('A' for Active; 'I' for Inactive)
REMARK    1  A    between atoms: C10_10  and  O11_11 
ROOT
HETATM    1  C1  UNL     1     -34.589   7.375   4.544  1.00 20.00    -0.030 C 
HETATM    2  C2  UNL     1     -34.809   6.569   3.483  1.00 20.00    -0.025 C 
HETATM    3  C3  UNL     1     -33.171   7.953   4.529  1.00 20.00     0.032 C 
HETATM    4  C4  UNL     1     -31.459   6.346   1.770  1.00 20.00     0.013 C 
HETATM    5  C5  UNL     1     -33.195   7.238   0.374  1.00 20.00     0.037 C 
HETATM    6  C6  UNL     1     -33.505   6.386   2.800  1.00 20.00     0.017 C 
HETATM    7  C7  UNL     1     -32.951   7.799   3.043  1.00 20.00     0.003 C 
HETATM    8  C8  UNL     1     -32.951   6.107   1.401  1.00 20.00    -0.004 C 
HETATM    9  C9  UNL     1     -31.683   7.817   2.167  1.00 20.00     0.020 C 
HETATM   10  C10 UNL     1     -32.140   8.311   0.765  1.00 20.00     0.123 C 
ENDROOT
BRANCH  10  11
HETATM   11  O11 UNL     1     -32.687   9.614   0.765  1.00 20.00    -0.395 OA
HETATM   12  H25 UNL     1     -31.943  10.239   0.714  1.00 20.00     0.210 HD
ENDBRANCH  10  11
TORSDOF 1
ENDMDL
MODEL 2
REMARK VINA RESULT:       1.9      1.774      3.693
REMARK  1 active torsions:
REMARK  status: ('A' for Active; 'I' for Inactive)
REMARK    1  A    between atoms: C10_10  and  O11_11 
ROOT
HETATM    1  C1  UNL     1     -32.625  10.206  -0.509  1.00 20.00    -0.030 C 
HETATM    2  C2  UNL     1     -33.224  10.281   0.700  1.00 20.00    -0.025 C 
HETATM    3  C3  UNL     1     -31.522   9.144  -0.527  1.00 20.00     0.032 C 
HETATM    4  C4  UNL     1     -31.219   7.947   2.879  1.00 20.00     0.013 C 
HETATM    5  C5  UNL     1     -33.539   7.354   2.713  1.00 20.00     0.037 C 
HETATM    6  C6  UNL     1     -32.437   9.430   1.626  1.00 20.00     0.017 C 
HETATM    7  C7  UNL     1     -32.066   8.328   0.622  1.00 20.00     0.003 C 
HETATM    8  C8  UNL     1     -32.633   8.595   2.895  1.00 20.00    -0.004 C 
HETATM    9  C9  UNL     1     -31.438   7.248   1.525  1.00 20.00     0.020 C 
HETATM   10  C10 UNL     1     -32.615   6.340   1.983  1.00 20.00     0.123 C 
ENDROOT
BRANCH  10  11
HETATM   11  O11 UNL     1     -33.282   5.686   0.923  1.00 20.00    -0.395 OA
HETATM   12  H25 UNL     1     -34.236   5.829   1.051  1.00 20.00     0.210 HD
ENDBRANCH  10  11
TORSDOF 1
ENDMDL
MODEL 3
REMARK VINA RESULT:       1.9      1.709      2.603
REMARK  1 active torsions:
REMARK  status: ('A' for Active; 'I' for Inactive)
REMARK    1  A    between atoms: C10_10  and  O11_11 
ROOT
HETATM    1  C1  UNL     1     -34.392   7.155   4.740  1.00 20.00    -0.030 C 
HETATM    2  C2  UNL     1     -33.490   8.046   4.274  1.00 20.00    -0.025 C 
HETATM    3  C3  UNL     1     -34.803   6.149   3.662  1.00 20.00     0.032 C 
HETATM    4  C4  UNL     1     -33.219   7.258   0.597  1.00 20.00     0.013 C 
HETATM    5  C5  UNL     1     -31.141   7.055   1.779  1.00 20.00     0.037 C 
HETATM    6  C6  UNL     1     -33.387   7.830   2.809  1.00 20.00     0.017 C 
HETATM    7  C7  UNL     1     -33.560   6.303   2.817  1.00 20.00     0.003 C 
HETATM    8  C8  UNL     1     -32.370   7.989   1.676  1.00 20.00    -0.004 C 
HETATM    9  C9  UNL     1     -33.232   5.921   1.361  1.00 20.00     0.020 C 
HETATM   10  C10 UNL     1     -31.696   5.679   1.319  1.00 20.00     0.123 C 
ENDROOT
BRANCH  10  11
HETATM   11  O11 UNL     1     -31.257   4.627   2.154  1.00 20.00    -0.395 OA
HETATM   12  H25 UNL     1     -31.487   4.869   3.068  1.00 20.00     0.210 HD
ENDBRANCH  10  11
TORSDOF 1
ENDMDL
MODEL 4
REMARK VINA RESULT:       2.1      1.724      3.575
REMARK  1 active torsions:
REMARK  status: ('A' for Active; 'I' for Inactive)
REMARK    1  A    between atoms: C10_10  and  O11_11 
ROOT
HETATM    1  C1  UNL     1     -31.518   6.864   1.033  1.00 20.00    -0.030 C 
HETATM    2  C2  UNL     1     -32.107   5.788   1.600  1.00 20.00    -0.025 C 
HETATM    3  C3  UNL     1     -32.276   8.156   1.352  1.00 20.00     0.032 C 
HETATM    4  C4  UNL     1     -35.277   7.152   3.117  1.00 20.00     0.013 C 
HETATM    5  C5  UNL     1     -33.809   6.129   4.716  1.00 20.00     0.037 C 
HETATM    6  C6  UNL     1     -33.401   6.249   2.161  1.00 20.00     0.017 C 
HETATM    7  C7  UNL     1     -32.941   7.645   2.608  1.00 20.00     0.003 C 
HETATM    8  C8  UNL     1     -34.371   5.900   3.293  1.00 20.00    -0.004 C 
HETATM    9  C9  UNL     1     -34.144   8.147   3.431  1.00 20.00     0.020 C 
HETATM   10  C10 UNL     1     -33.891   7.671   4.890  1.00 20.00     0.123 C 
ENDROOT
BRANCH  10  11
HETATM   11  O11 UNL     1     -32.716   8.200   5.471  1.00 20.00    -0.395 OA
HETATM   12  H25 UNL     1     -32.054   7.486   5.484  1.00 20.00     0.210 HD
ENDBRANCH  10  11
TORSDOF 1
ENDMDL
MODEL 5
REMARK VINA RESULT:       2.5      2.006      3.519
REMARK  1 active torsions:
REMARK  status: ('A' for Active; 'I' for Inactive)
REMARK    1  A    between atoms: C10_10  and  O11_11 
ROOT
HETATM    1  C1  UNL     1     -33.311   3.271   4.140  1.00 20.00    -0.030 C 
HETATM    2  C2  UNL     1     -34.012   4.023   5.016  1.00 20.00    -0.025 C 
HETATM    3  C3  UNL     1     -33.301   3.894   2.741  1.00 20.00     0.032 C 
HETATM    4  C4  UNL     1     -35.517   6.756   2.898  1.00 20.00     0.013 C 
HETATM    5  C5  UNL     1     -34.090   7.570   4.648  1.00 20.00     0.037 C 
HETATM    6  C6  UNL     1     -34.687   5.085   4.229  1.00 20.00     0.017 C 
HETATM    7  C7  UNL     1     -33.574   5.309   3.194  1.00 20.00     0.003 C 
HETATM    8  C8  UNL     1     -35.197   6.518   4.402  1.00 20.00    -0.004 C 
HETATM    9  C9  UNL     1     -34.056   6.569   2.449  1.00 20.00     0.020 C 
HETATM   10  C10 UNL     1     -33.473   7.778   3.237  1.00 20.00     0.123 C 
ENDROOT
BRANCH  10  11
HETATM   11  O11 UNL     1     -32.061   7.810   3.277  1.00 20.00    -0.395 OA
HETATM   12  H25 UNL     1     -31.792   8.743   3.205  1.00 20.00     0.210 HD
ENDBRANCH  10  11
TORSDOF 1
ENDMDL
MODEL 6
REMARK VINA RESULT:       2.6      1.131      1.893
REMARK  1 active torsions:
REMARK  status: ('A' for Active; 'I' for Inactive)
REMARK    1  A    between atoms: C10_10  and  O11_11 
ROOT
HETATM    1  C1  UNL     1     -34.123   5.861   2.622  1.00 20.00    -0.030 C 
HETATM    2  C2  UNL     1     -33.295   5.800   1.555  1.00 20.00    -0.025 C 
HETATM    3  C3  UNL     1     -33.794   7.055   3.523  1.00 20.00     0.032 C 
HETATM    4  C4  UNL     1     -30.776   8.536   2.173  1.00 20.00     0.013 C 
HETATM    5  C5  UNL     1     -32.006   8.805   0.131  1.00 20.00     0.037 C 
HETATM    6  C6  UNL     1     -32.235   6.815   1.772  1.00 20.00     0.017 C 
HETATM    7  C7  UNL     1     -33.109   7.877   2.458  1.00 20.00     0.003 C 
HETATM    8  C8  UNL     1     -31.294   7.711   0.961  1.00 20.00    -0.004 C 
HETATM    9  C9  UNL     1     -32.167   9.095   2.523  1.00 20.00     0.020 C 
HETATM   10  C10 UNL     1     -32.384   9.873   1.194  1.00 20.00     0.123 C 
ENDROOT
BRANCH  10  11
HETATM   11  O11 UNL     1     -33.702  10.351   1.016  1.00 20.00    -0.395 OA
HETATM   12  H25 UNL     1     -33.652  11.124   0.426  1.00 20.00     0.210 HD
ENDBRANCH  10  11
TORSDOF 1
ENDMDL
MODEL 7
REMARK VINA RESULT:       2.9      1.771      3.763
REMARK  1 active torsions:
REMARK  status: ('A' for Active; 'I' for Inactive)
REMARK    1  A    between atoms: C10_10  and  O11_11 
ROOT
HETATM    1  C1  UNL     1     -32.039   7.076   0.732  1.00 20.00    -0.030 C 
HETATM    2  C2  UNL     1     -32.166   8.121   1.580  1.00 20.00    -0.025 C 
HETATM    3  C3  UNL     1     -32.505   5.767   1.376  1.00 20.00     0.032 C 
HETATM    4  C4  UNL     1     -33.246   6.555   4.834  1.00 20.00     0.013 C 
HETATM    5  C5  UNL     1     -34.809   8.158   3.974  1.00 20.00     0.037 C 
HETATM    6  C6  UNL     1     -32.527   7.561   2.906  1.00 20.00     0.017 C 
HETATM    7  C7  UNL     1     -33.409   6.407   2.404  1.00 20.00     0.003 C 
HETATM    8  C8  UNL     1     -33.288   7.961   4.172  1.00 20.00    -0.004 C 
HETATM    9  C9  UNL     1     -34.047   5.882   3.705  1.00 20.00     0.020 C 
HETATM   10  C10 UNL     1     -35.353   6.705   3.901  1.00 20.00     0.123 C 
ENDROOT
BRANCH  10  11
HETATM   11  O11 UNL     1     -36.294   6.544   2.859  1.00 20.00    -0.395 OA
HETATM   12  H25 UNL     1     -36.644   7.428   2.648  1.00 20.00     0.210 HD
ENDBRANCH  10  11
TORSDOF 1
ENDMDL
MODEL 8
REMARK VINA RESULT:       3.0      2.427      3.963
REMARK  1 active torsions:
REMARK  status: ('A' for Active; 'I' for Inactive)
REMARK    1  A    between atoms: C10_10  and  O11_11 
ROOT
HETATM    1  C1  UNL     1     -32.430   5.134   0.891  1.00 20.00    -0.030 C 
HETATM    2  C2  UNL     1     -33.290   6.164   0.733  1.00 20.00    -0.025 C 
HETATM    3  C3  UNL     1     -32.058   4.931   2.363  1.00 20.00     0.032 C 
HETATM    4  C4  UNL     1     -33.575   7.678   4.173  1.00 20.00     0.013 C 
HETATM    5  C5  UNL     1     -35.667   6.905   3.287  1.00 20.00     0.037 C 
HETATM    6  C6  UNL     1     -33.394   6.847   2.046  1.00 20.00     0.017 C 
HETATM    7  C7  UNL     1     -33.289   5.596   2.933  1.00 20.00     0.003 C 
HETATM    8  C8  UNL     1     -34.397   7.676   2.853  1.00 20.00    -0.004 C 
HETATM    9  C9  UNL     1     -33.625   6.148   4.332  1.00 20.00     0.020 C 
HETATM   10  C10 UNL     1     -35.170   6.035   4.474  1.00 20.00     0.123 C 
ENDROOT
BRANCH  10  11
HETATM   11  O11 UNL     1     -35.659   4.711   4.400  1.00 20.00    -0.395 OA
HETATM   12  H25 UNL     1     -36.438   4.724   3.817  1.00 20.00     0.210 HD
ENDBRANCH  10  11
TORSDOF 1
ENDMDL
MODEL 9
REMARK VINA RESULT:       3.0      1.881      2.401
REMARK  1 active torsions:
REMARK  status: ('A' for Active; 'I' for Inactive)
REMARK    1  A    between atoms: C10_10  and  O11_11 
ROOT
HETATM    1  C1  UNL     1     -35.018   5.032   4.435  1.00 20.00    -0.030 C 
HETATM    2  C2  UNL     1     -33.954   4.310   4.019  1.00 20.00    -0.025 C 
HETATM    3  C3  UNL     1     -35.030   6.430   3.810  1.00 20.00     0.032 C 
HETATM    4  C4  UNL     1     -31.927   6.736   1.966  1.00 20.00     0.013 C 
HETATM    5  C5  UNL     1     -32.644   4.803   0.739  1.00 20.00     0.037 C 
HETATM    6  C6  UNL     1     -33.077   5.232   3.256  1.00 20.00     0.017 C 
HETATM    7  C7  UNL     1     -34.187   6.076   2.608  1.00 20.00     0.003 C 
HETATM    8  C8  UNL     1     -32.056   5.193   2.115  1.00 20.00    -0.004 C 
HETATM    9  C9  UNL     1     -33.407   6.931   1.591  1.00 20.00     0.020 C 
HETATM   10  C10 UNL     1     -33.367   6.099   0.277  1.00 20.00     0.123 C 
ENDROOT
BRANCH  10  11
HETATM   11  O11 UNL     1     -34.641   5.826  -0.270  1.00 20.00    -0.395 OA
HETATM   12  H25 UNL     1     -34.956   4.998   0.132  1.00 20.00     0.210 HD
ENDBRANCH  10  11
TORSDOF 1
ENDMDL
