MODEL 1
REMARK VINA RESULT:      -2.9      0.000      0.000
REMARK  1 active torsions:
REMARK  status: ('A' for Active; 'I' for Inactive)
REMARK    1  A    between atoms: C1_1  and  C2_2 
ROOT
HETATM    1  C1  UNL     1     -33.103   7.229   2.648  1.00 20.00     0.346 C 
HETATM    2  O3  UNL     1     -32.242   7.958   2.181  1.00 20.00    -0.255 OA
HETATM    3  F4  UNL     1     -33.235   6.012   2.100  1.00 20.00    -0.160 F 
ENDROOT
BRANCH   1   4
HETATM    4  C2  UNL     1     -34.048   7.612   3.740  1.00 20.00     0.369 C 
HETATM    5  F5  UNL     1     -33.389   7.897   4.893  1.00 20.00    -0.222 F 
HETATM    6 CL6  UNL     1     -35.154   6.262   4.011  1.00 20.00    -0.078 Cl
ENDBRANCH   1   4
TORSDOF 1
ENDMDL
MODEL 2
REMARK VINA RESULT:      -2.8      2.897      2.901
REMARK  1 active torsions:
REMARK  status: ('A' for Active; 'I' for Inactive)
REMARK    1  A    between atoms: C1_1  and  C2_2 
ROOT
HETATM    1  C1  UNL     1     -34.227   5.062   3.709  1.00 20.00     0.346 C 
HETATM    2  O3  UNL     1     -34.249   3.959   4.233  1.00 20.00    -0.255 OA
HETATM    3  F4  UNL     1     -33.397   5.227   2.670  1.00 20.00    -0.160 F 
ENDROOT
BRANCH   1   4
HETATM    4  C2  UNL     1     -35.013   6.245   4.174  1.00 20.00     0.369 C 
HETATM    5  F5  UNL     1     -36.138   6.419   3.432  1.00 20.00    -0.222 F 
HETATM    6 CL6  UNL     1     -33.989   7.676   4.036  1.00 20.00    -0.078 Cl
ENDBRANCH   1   4
TORSDOF 1
ENDMDL
MODEL 3
REMARK VINA RESULT:      -2.8      2.458      2.958
REMARK  1 active torsions:
REMARK  status: ('A' for Active; 'I' for Inactive)
REMARK    1  A    between atoms: C1_1  and  C2_2 
ROOT
HETATM    1  C1  UNL     1     -33.763   6.493   3.211  1.00 20.00     0.346 C 
HETATM    2  O3  UNL     1     -33.994   7.471   3.906  1.00 20.00    -0.255 OA
HETATM    3  F4  UNL     1     -34.065   5.293   3.726  1.00 20.00    -0.160 F 
ENDROOT
BRANCH   1   4
HETATM    4  C2  UNL     1     -33.124   6.536   1.861  1.00 20.00     0.369 C 
HETATM    5  F5  UNL     1     -32.464   5.381   1.585  1.00 20.00    -0.222 F 
HETATM    6 CL6  UNL     1     -31.987   7.887   1.832  1.00 20.00    -0.078 Cl
ENDBRANCH   1   4
TORSDOF 1
ENDMDL
MODEL 4
REMARK VINA RESULT:      -2.8      1.264      1.264
REMARK  1 active torsions:
REMARK  status: ('A' for Active; 'I' for Inactive)
REMARK    1  A    between atoms: C1_1  and  C2_2 
ROOT
HETATM    1  C1  UNL     1     -33.085   7.205   2.642  1.00 20.00     0.346 C 
HETATM    2  O3  UNL     1     -33.129   6.155   2.020  1.00 20.00    -0.255 OA
HETATM    3  F4  UNL     1     -32.070   8.036   2.366  1.00 20.00    -0.160 F 
ENDROOT
BRANCH   1   4
HETATM    4  C2  UNL     1     -34.042   7.602   3.718  1.00 20.00     0.369 C 
HETATM    5  F5  UNL     1     -33.398   7.889   4.879  1.00 20.00    -0.222 F 
HETATM    6 CL6  UNL     1     -35.162   6.262   3.981  1.00 20.00    -0.078 Cl
ENDBRANCH   1   4
TORSDOF 1
ENDMDL
MODEL 5
REMARK VINA RESULT:      -2.7      2.863      2.967
REMARK  1 active torsions:
REMARK  status: ('A' for Active; 'I' for Inactive)
REMARK    1  A    between atoms: C1_1  and  C2_2 
ROOT
HETATM    1  C1  UNL     1     -35.220   5.980   3.952  1.00 20.00     0.346 C 
HETATM    2  O3  UNL     1     -35.296   4.892   4.504  1.00 20.00    -0.255 OA
HETATM    3  F4  UNL     1     -36.347   6.471   3.417  1.00 20.00    -0.160 F 
ENDROOT
BRANCH   1   4
HETATM    4  C2  UNL     1     -33.962   6.768   3.786  1.00 20.00     0.369 C 
HETATM    5  F5  UNL     1     -34.200   8.104   3.842  1.00 20.00    -0.222 F 
HETATM    6 CL6  UNL     1     -33.258   6.359   2.219  1.00 20.00    -0.078 Cl
ENDBRANCH   1   4
TORSDOF 1
ENDMDL
MODEL 6
REMARK VINA RESULT:      -2.6      2.414      3.184
REMARK  1 active torsions:
REMARK  status: ('A' for Active; 'I' for Inactive)
REMARK    1  A    between atoms: C1_1  and  C2_2 
ROOT
HETATM    1  C1  UNL     1     -33.805   6.525   3.200  1.00 20.00     0.346 C 
HETATM    2  O3  UNL     1     -34.291   5.529   3.715  1.00 20.00    -0.255 OA
HETATM    3  F4  UNL     1     -33.927   7.679   3.870  1.00 20.00    -0.160 F 
ENDROOT
BRANCH   1   4
HETATM    4  C2  UNL     1     -33.138   6.557   1.863  1.00 20.00     0.369 C 
HETATM    5  F5  UNL     1     -32.486   5.394   1.604  1.00 20.00    -0.222 F 
HETATM    6 CL6  UNL     1     -31.986   7.895   1.854  1.00 20.00    -0.078 Cl
ENDBRANCH   1   4
TORSDOF 1
ENDMDL
MODEL 7
REMARK VINA RESULT:      -2.6      1.835      2.292
REMARK  1 active torsions:
REMARK  status: ('A' for Active; 'I' for Inactive)
REMARK    1  A    between atoms: C1_1  and  C2_2 
ROOT
HETATM    1  C1  UNL     1     -33.894   7.257   3.732  1.00 20.00     0.346 C 
HETATM    2  O3  UNL     1     -33.051   7.558   2.902  1.00 20.00    -0.255 OA
HETATM    3  F4  UNL     1     -33.966   8.018   4.833  1.00 20.00    -0.160 F 
ENDROOT
BRANCH   1   4
HETATM    4  C2  UNL     1     -34.807   6.078   3.634  1.00 20.00     0.369 C 
HETATM    5  F5  UNL     1     -35.744   6.089   4.618  1.00 20.00    -0.222 F 
HETATM    6 CL6  UNL     1     -33.831   4.612   3.763  1.00 20.00    -0.078 Cl
ENDBRANCH   1   4
TORSDOF 1
ENDMDL
MODEL 8
REMARK VINA RESULT:      -2.5      2.233      2.798
REMARK  1 active torsions:
REMARK  status: ('A' for Active; 'I' for Inactive)
REMARK    1  A    between atoms: C1_1  and  C2_2 
ROOT
HETATM    1  C1  UNL     1     -34.546   6.545   3.834  1.00 20.00     0.346 C 
HETATM    2  O3  UNL     1     -34.334   7.718   4.098  1.00 20.00    -0.255 OA
HETATM    3  F4  UNL     1     -35.808   6.110   3.956  1.00 20.00    -0.160 F 
ENDROOT
BRANCH   1   4
HETATM    4  C2  UNL     1     -33.498   5.555   3.439  1.00 20.00     0.369 C 
HETATM    5  F5  UNL     1     -33.342   5.505   2.091  1.00 20.00    -0.222 F 
HETATM    6 CL6  UNL     1     -33.988   3.967   4.036  1.00 20.00    -0.078 Cl
ENDBRANCH   1   4
TORSDOF 1
ENDMDL
MODEL 9
REMARK VINA RESULT:      -2.5      2.179      2.789
REMARK  1 active torsions:
REMARK  status: ('A' for Active; 'I' for Inactive)
REMARK    1  A    between atoms: C1_1  and  C2_2 
ROOT
HETATM    1  C1  UNL     1     -33.946   7.229   3.752  1.00 20.00     0.346 C 
HETATM    2  O3  UNL     1     -34.920   6.499   3.647  1.00 20.00    -0.255 OA
HETATM    3  F4  UNL     1     -33.948   8.106   4.765  1.00 20.00    -0.160 F 
ENDROOT
BRANCH   1   4
HETATM    4  C2  UNL     1     -32.788   7.249   2.809  1.00 20.00     0.369 C 
HETATM    5  F5  UNL     1     -32.724   8.419   2.122  1.00 20.00    -0.222 F 
HETATM    6 CL6  UNL     1     -32.977   5.908   1.675  1.00 20.00    -0.078 Cl
ENDBRANCH   1   4
TORSDOF 1
ENDMDL
