MODEL 1
REMARK VINA RESULT:      -1.7      0.000      0.000
REMARK  1 active torsions:
REMARK  status: ('A' for Active; 'I' for Inactive)
REMARK    1  A    between atoms: C3_3  and  C4_4 
ROOT
HETATM    1  C1  UNL     1     -33.159   7.645   3.073  1.00 20.00     0.087 A 
HETATM    2  C2  UNL     1     -32.126   6.539   1.198  1.00 20.00     0.166 A 
HETATM    3  C3  UNL     1     -33.506   6.323   2.889  1.00 20.00     0.125 A 
HETATM    4  N5  UNL     1     -32.915   5.687   1.815  1.00 20.00    -0.249 NA
HETATM    5  S7  UNL     1     -32.046   8.122   1.858  1.00 20.00    -0.092 SA
ENDROOT
BRANCH   3   6
HETATM    6  C4  UNL     1     -34.421   5.612   3.737  1.00 20.00     0.271 C 
HETATM    7  O6  UNL     1     -35.496   6.159   4.094  1.00 20.00    -0.272 OA
HETATM    8 CL8  UNL     1     -34.080   3.959   4.309  1.00 20.00    -0.037 Cl
ENDBRANCH   3   6
TORSDOF 1
ENDMDL
MODEL 2
REMARK VINA RESULT:      -1.5      1.143      1.474
REMARK  1 active torsions:
REMARK  status: ('A' for Active; 'I' for Inactive)
REMARK    1  A    between atoms: C3_3  and  C4_4 
ROOT
HETATM    1  C1  UNL     1     -32.917   6.074   1.878  1.00 20.00     0.087 A 
HETATM    2  C2  UNL     1     -32.429   8.288   2.691  1.00 20.00     0.166 A 
HETATM    3  C3  UNL     1     -33.543   6.434   3.053  1.00 20.00     0.125 A 
HETATM    4  N5  UNL     1     -33.265   7.703   3.521  1.00 20.00    -0.249 NA
HETATM    5  S7  UNL     1     -31.939   7.370   1.326  1.00 20.00    -0.092 SA
ENDROOT
BRANCH   3   6
HETATM    6  C4  UNL     1     -34.436   5.575   3.778  1.00 20.00     0.271 C 
HETATM    7  O6  UNL     1     -35.567   6.001   4.128  1.00 20.00    -0.272 OA
HETATM    8 CL8  UNL     1     -33.991   3.903   4.206  1.00 20.00    -0.037 Cl
ENDBRANCH   3   6
TORSDOF 1
ENDMDL
MODEL 3
REMARK VINA RESULT:      -1.0      1.896      2.010
REMARK  1 active torsions:
REMARK  status: ('A' for Active; 'I' for Inactive)
REMARK    1  A    between atoms: C3_3  and  C4_4 
ROOT
HETATM    1  C1  UNL     1     -33.204   5.719   2.185  1.00 20.00     0.087 A 
HETATM    2  C2  UNL     1     -31.779   7.518   1.453  1.00 20.00     0.166 A 
HETATM    3  C3  UNL     1     -33.327   6.904   2.880  1.00 20.00     0.125 A 
HETATM    4  N5  UNL     1     -32.511   7.937   2.462  1.00 20.00    -0.249 NA
HETATM    5  S7  UNL     1     -32.022   5.894   0.954  1.00 20.00    -0.092 SA
ENDROOT
BRANCH   3   6
HETATM    6  C4  UNL     1     -34.235   7.096   3.976  1.00 20.00     0.271 C 
HETATM    7  O6  UNL     1     -34.068   8.064   4.763  1.00 20.00    -0.272 OA
HETATM    8 CL8  UNL     1     -35.605   5.994   4.264  1.00 20.00    -0.037 Cl
ENDBRANCH   3   6
TORSDOF 1
ENDMDL
MODEL 4
REMARK VINA RESULT:      -1.0      1.461      1.473
REMARK  1 active torsions:
REMARK  status: ('A' for Active; 'I' for Inactive)
REMARK    1  A    between atoms: C3_3  and  C4_4 
ROOT
HETATM    1  C1  UNL     1     -32.500   8.120   2.547  1.00 20.00     0.087 A 
HETATM    2  C2  UNL     1     -32.292   6.116   1.226  1.00 20.00     0.166 A 
HETATM    3  C3  UNL     1     -33.308   7.067   2.921  1.00 20.00     0.125 A 
HETATM    4  N5  UNL     1     -33.191   5.917   2.165  1.00 20.00    -0.249 NA
HETATM    5  S7  UNL     1     -31.547   7.663   1.196  1.00 20.00    -0.092 SA
ENDROOT
BRANCH   3   6
HETATM    6  C4  UNL     1     -34.230   7.118   4.021  1.00 20.00     0.271 C 
HETATM    7  O6  UNL     1     -34.113   8.019   4.892  1.00 20.00    -0.272 OA
HETATM    8 CL8  UNL     1     -35.550   5.934   4.197  1.00 20.00    -0.037 Cl
ENDBRANCH   3   6
TORSDOF 1
ENDMDL
MODEL 5
REMARK VINA RESULT:      -0.7      3.634      4.104
REMARK  1 active torsions:
REMARK  status: ('A' for Active; 'I' for Inactive)
REMARK    1  A    between atoms: C3_3  and  C4_4 
ROOT
HETATM    1  C1  UNL     1     -33.535   6.119   2.471  1.00 20.00     0.087 A 
HETATM    2  C2  UNL     1     -34.374   7.366   4.353  1.00 20.00     0.166 A 
HETATM    3  C3  UNL     1     -33.054   7.405   2.602  1.00 20.00     0.125 A 
HETATM    4  N5  UNL     1     -33.534   8.122   3.681  1.00 20.00    -0.249 NA
HETATM    5  S7  UNL     1     -34.633   5.781   3.745  1.00 20.00    -0.092 SA
ENDROOT
BRANCH   3   6
HETATM    6  C4  UNL     1     -32.112   8.001   1.698  1.00 20.00     0.271 C 
HETATM    7  O6  UNL     1     -30.972   7.487   1.554  1.00 20.00    -0.272 OA
HETATM    8 CL8  UNL     1     -32.506   9.465   0.762  1.00 20.00    -0.037 Cl
ENDBRANCH   3   6
TORSDOF 1
ENDMDL
MODEL 6
REMARK VINA RESULT:      -0.7      3.075      3.583
REMARK  1 active torsions:
REMARK  status: ('A' for Active; 'I' for Inactive)
REMARK    1  A    between atoms: C3_3  and  C4_4 
ROOT
HETATM    1  C1  UNL     1     -34.087   5.629   2.937  1.00 20.00     0.087 A 
HETATM    2  C2  UNL     1     -34.453   7.555   4.336  1.00 20.00     0.166 A 
HETATM    3  C3  UNL     1     -33.247   6.701   2.716  1.00 20.00     0.125 A 
HETATM    4  N5  UNL     1     -33.455   7.806   3.517  1.00 20.00    -0.249 NA
HETATM    5  S7  UNL     1     -35.186   6.009   4.197  1.00 20.00    -0.092 SA
ENDROOT
BRANCH   3   6
HETATM    6  C4  UNL     1     -32.206   6.709   1.726  1.00 20.00     0.271 C 
HETATM    7  O6  UNL     1     -31.641   7.792   1.423  1.00 20.00    -0.272 OA
HETATM    8 CL8  UNL     1     -31.683   5.219   0.902  1.00 20.00    -0.037 Cl
ENDBRANCH   3   6
TORSDOF 1
ENDMDL
MODEL 7
REMARK VINA RESULT:      -0.7      3.457      3.816
REMARK  1 active torsions:
REMARK  status: ('A' for Active; 'I' for Inactive)
REMARK    1  A    between atoms: C3_3  and  C4_4 
ROOT
HETATM    1  C1  UNL     1     -33.813   7.786   3.450  1.00 20.00     0.087 A 
HETATM    2  C2  UNL     1     -34.047   5.429   3.012  1.00 20.00     0.166 A 
HETATM    3  C3  UNL     1     -33.011   7.278   2.450  1.00 20.00     0.125 A 
HETATM    4  N5  UNL     1     -33.143   5.927   2.197  1.00 20.00    -0.249 NA
HETATM    5  S7  UNL     1     -34.778   6.530   4.107  1.00 20.00    -0.092 SA
ENDROOT
BRANCH   3   6
HETATM    6  C4  UNL     1     -32.081   8.069   1.693  1.00 20.00     0.271 C 
HETATM    7  O6  UNL     1     -30.868   7.739   1.652  1.00 20.00    -0.272 OA
HETATM    8 CL8  UNL     1     -32.596   9.521   0.798  1.00 20.00    -0.037 Cl
ENDBRANCH   3   6
TORSDOF 1
ENDMDL
MODEL 8
REMARK VINA RESULT:      -0.6      3.299      3.824
REMARK  1 active torsions:
REMARK  status: ('A' for Active; 'I' for Inactive)
REMARK    1  A    between atoms: C3_3  and  C4_4 
ROOT
HETATM    1  C1  UNL     1     -33.754   4.898   3.283  1.00 20.00     0.087 A 
HETATM    2  C2  UNL     1     -35.051   6.690   4.236  1.00 20.00     0.166 A 
HETATM    3  C3  UNL     1     -33.464   6.164   2.818  1.00 20.00     0.125 A 
HETATM    4  N5  UNL     1     -34.206   7.193   3.363  1.00 20.00    -0.249 NA
HETATM    5  S7  UNL     1     -35.005   4.988   4.453  1.00 20.00    -0.092 SA
ENDROOT
BRANCH   3   6
HETATM    6  C4  UNL     1     -32.460   6.441   1.828  1.00 20.00     0.271 C 
HETATM    7  O6  UNL     1     -31.948   5.494   1.176  1.00 20.00    -0.272 OA
HETATM    8 CL8  UNL     1     -31.908   8.101   1.491  1.00 20.00    -0.037 Cl
ENDBRANCH   3   6
TORSDOF 1
ENDMDL
MODEL 9
REMARK VINA RESULT:      -0.5      1.736      1.737
REMARK  1 active torsions:
REMARK  status: ('A' for Active; 'I' for Inactive)
REMARK    1  A    between atoms: C3_3  and  C4_4 
ROOT
HETATM    1  C1  UNL     1     -32.616   8.059   2.326  1.00 20.00     0.087 A 
HETATM    2  C2  UNL     1     -32.211   5.944   1.246  1.00 20.00     0.166 A 
HETATM    3  C3  UNL     1     -33.337   6.988   2.812  1.00 20.00     0.125 A 
HETATM    4  N5  UNL     1     -33.106   5.775   2.195  1.00 20.00    -0.249 NA
HETATM    5  S7  UNL     1     -31.603   7.537   1.044  1.00 20.00    -0.092 SA
ENDROOT
BRANCH   3   6
HETATM    6  C4  UNL     1     -34.278   7.084   3.892  1.00 20.00     0.271 C 
HETATM    7  O6  UNL     1     -35.337   6.405   3.860  1.00 20.00    -0.272 OA
HETATM    8 CL8  UNL     1     -33.994   8.147   5.294  1.00 20.00    -0.037 Cl
ENDBRANCH   3   6
TORSDOF 1
ENDMDL
