MODEL 1
REMARK VINA RESULT:      -0.9      0.000      0.000
REMARK  0 active torsions:
REMARK  status: ('A' for Active; 'I' for Inactive)
ROOT
HETATM    1  C1  UNL     1     -34.241   5.024   4.033  1.00 20.00     0.101 C 
HETATM    2  C2  UNL     1     -33.879   7.415   4.545  1.00 20.00     0.067 C 
HETATM    3  C3  UNL     1     -34.347   6.392   3.519  1.00 20.00     0.197 C 
HETATM    4  N4  UNL     1     -34.156   3.941   4.443  1.00 20.00    -0.194 NA
HETATM    5 CL5  UNL     1     -33.344   6.511   2.048  1.00 20.00    -0.085 Cl
HETATM    6 CL6  UNL     1     -36.053   6.697   3.097  1.00 20.00    -0.085 Cl
ENDROOT
TORSDOF 0
ENDMDL
MODEL 2
REMARK VINA RESULT:      -0.8      2.460      2.720
REMARK  0 active torsions:
REMARK  status: ('A' for Active; 'I' for Inactive)
ROOT
HETATM    1  C1  UNL     1     -33.505   6.248   2.492  1.00 20.00     0.101 C 
HETATM    2  C2  UNL     1     -35.825   6.690   3.221  1.00 20.00     0.067 C 
HETATM    3  C3  UNL     1     -34.407   6.333   3.644  1.00 20.00     0.197 C 
HETATM    4  N4  UNL     1     -32.793   6.181   1.578  1.00 20.00    -0.194 NA
HETATM    5 CL5  UNL     1     -34.404   4.751   4.469  1.00 20.00    -0.085 Cl
HETATM    6 CL6  UNL     1     -33.776   7.579   4.753  1.00 20.00    -0.085 Cl
ENDROOT
TORSDOF 0
ENDMDL
MODEL 3
REMARK VINA RESULT:      -0.7      1.353      1.952
REMARK  0 active torsions:
REMARK  status: ('A' for Active; 'I' for Inactive)
ROOT
HETATM    1  C1  UNL     1     -34.189   5.002   4.039  1.00 20.00     0.101 C 
HETATM    2  C2  UNL     1     -35.756   6.720   3.201  1.00 20.00     0.067 C 
HETATM    3  C3  UNL     1     -34.310   6.367   3.521  1.00 20.00     0.197 C 
HETATM    4  N4  UNL     1     -34.097   3.920   4.449  1.00 20.00    -0.194 NA
HETATM    5 CL5  UNL     1     -33.674   7.487   4.756  1.00 20.00    -0.085 Cl
HETATM    6 CL6  UNL     1     -33.317   6.491   2.045  1.00 20.00    -0.085 Cl
ENDROOT
TORSDOF 0
ENDMDL
MODEL 4
REMARK VINA RESULT:      -0.7      2.055      2.439
REMARK  0 active torsions:
REMARK  status: ('A' for Active; 'I' for Inactive)
ROOT
HETATM    1  C1  UNL     1     -33.556   6.227   2.472  1.00 20.00     0.101 C 
HETATM    2  C2  UNL     1     -33.977   7.438   4.585  1.00 20.00     0.067 C 
HETATM    3  C3  UNL     1     -34.450   6.353   3.627  1.00 20.00     0.197 C 
HETATM    4  N4  UNL     1     -32.847   6.129   1.558  1.00 20.00    -0.194 NA
HETATM    5 CL5  UNL     1     -36.082   6.748   3.025  1.00 20.00    -0.085 Cl
HETATM    6 CL6  UNL     1     -34.495   4.782   4.469  1.00 20.00    -0.085 Cl
ENDROOT
TORSDOF 0
ENDMDL
MODEL 5
REMARK VINA RESULT:      -0.7      2.077      2.373
REMARK  0 active torsions:
REMARK  status: ('A' for Active; 'I' for Inactive)
ROOT
HETATM    1  C1  UNL     1     -33.578   6.226   2.507  1.00 20.00     0.101 C 
HETATM    2  C2  UNL     1     -34.599   5.026   4.412  1.00 20.00     0.067 C 
HETATM    3  C3  UNL     1     -34.496   6.337   3.645  1.00 20.00     0.197 C 
HETATM    4  N4  UNL     1     -32.851   6.136   1.608  1.00 20.00    -0.194 NA
HETATM    5 CL5  UNL     1     -33.889   7.622   4.724  1.00 20.00    -0.085 Cl
HETATM    6 CL6  UNL     1     -36.101   6.800   3.020  1.00 20.00    -0.085 Cl
ENDROOT
TORSDOF 0
ENDMDL
MODEL 6
REMARK VINA RESULT:      -0.7      1.359      1.969
REMARK  0 active torsions:
REMARK  status: ('A' for Active; 'I' for Inactive)
ROOT
HETATM    1  C1  UNL     1     -34.236   5.053   4.030  1.00 20.00     0.101 C 
HETATM    2  C2  UNL     1     -33.477   6.595   2.253  1.00 20.00     0.067 C 
HETATM    3  C3  UNL     1     -34.328   6.418   3.503  1.00 20.00     0.197 C 
HETATM    4  N4  UNL     1     -34.161   3.972   4.445  1.00 20.00    -0.194 NA
HETATM    5 CL5  UNL     1     -36.039   6.750   3.120  1.00 20.00    -0.085 Cl
HETATM    6 CL6  UNL     1     -33.778   7.543   4.773  1.00 20.00    -0.085 Cl
ENDROOT
TORSDOF 0
ENDMDL
MODEL 7
REMARK VINA RESULT:      -0.4      4.170      4.541
REMARK  0 active torsions:
REMARK  status: ('A' for Active; 'I' for Inactive)
ROOT
HETATM    1  C1  UNL     1     -32.432   8.959   0.985  1.00 20.00     0.101 C 
HETATM    2  C2  UNL     1     -31.959   6.567   1.392  1.00 20.00     0.067 C 
HETATM    3  C3  UNL     1     -32.240   7.930   2.011  1.00 20.00     0.197 C 
HETATM    4  N4  UNL     1     -32.583   9.772   0.171  1.00 20.00    -0.194 NA
HETATM    5 CL5  UNL     1     -30.867   8.420   3.038  1.00 20.00    -0.085 Cl
HETATM    6 CL6  UNL     1     -33.721   7.850   3.001  1.00 20.00    -0.085 Cl
ENDROOT
TORSDOF 0
ENDMDL
MODEL 8
REMARK VINA RESULT:      -0.4      2.925      3.559
REMARK  0 active torsions:
REMARK  status: ('A' for Active; 'I' for Inactive)
ROOT
HETATM    1  C1  UNL     1     -33.360   7.597   3.087  1.00 20.00     0.101 C 
HETATM    2  C2  UNL     1     -32.680   8.796   1.035  1.00 20.00     0.067 C 
HETATM    3  C3  UNL     1     -32.279   7.803   2.118  1.00 20.00     0.197 C 
HETATM    4  N4  UNL     1     -34.216   7.436   3.853  1.00 20.00    -0.194 NA
HETATM    5 CL5  UNL     1     -30.853   8.413   2.999  1.00 20.00    -0.085 Cl
HETATM    6 CL6  UNL     1     -31.888   6.228   1.379  1.00 20.00    -0.085 Cl
ENDROOT
TORSDOF 0
ENDMDL
MODEL 9
REMARK VINA RESULT:      -0.3      4.011      4.594
REMARK  0 active torsions:
REMARK  status: ('A' for Active; 'I' for Inactive)
ROOT
HETATM    1  C1  UNL     1     -32.398   8.904   0.967  1.00 20.00     0.101 C 
HETATM    2  C2  UNL     1     -33.519   7.802   2.875  1.00 20.00     0.067 C 
HETATM    3  C3  UNL     1     -32.249   7.919   2.043  1.00 20.00     0.197 C 
HETATM    4  N4  UNL     1     -32.519   9.683   0.116  1.00 20.00    -0.194 NA
HETATM    5 CL5  UNL     1     -31.865   6.342   1.303  1.00 20.00    -0.085 Cl
HETATM    6 CL6  UNL     1     -30.892   8.432   3.080  1.00 20.00    -0.085 Cl
ENDROOT
TORSDOF 0
ENDMDL
