MODEL 1
REMARK VINA RESULT:       0.2      0.000      0.000
REMARK  0 active torsions:
REMARK  status: ('A' for Active; 'I' for Inactive)
ROOT
HETATM    1  C1  UNL     1     -33.718   8.152   3.771  1.00 20.00     0.015 A 
HETATM    2  C2  UNL     1     -34.579   7.254   4.414  1.00 20.00     0.025 A 
HETATM    3  C3  UNL     1     -31.944   8.303   1.865  1.00 20.00     0.031 A 
HETATM    4  C4  UNL     1     -33.840   5.438   2.978  1.00 20.00     0.054 A 
HETATM    5  C5  UNL     1     -31.467   7.337   1.010  1.00 20.00     0.091 A 
HETATM    6  C6  UNL     1     -32.905   7.690   2.717  1.00 20.00    -0.008 A 
HETATM    7  C7  UNL     1     -32.985   6.347   2.346  1.00 20.00     0.045 A 
HETATM    8  C8  UNL     1     -34.637   5.918   4.021  1.00 20.00     0.036 A 
HETATM    9  C9  UNL     1     -31.864   4.910   0.618  1.00 20.00     0.155 C 
HETATM   10  N10 UNL     1     -32.101   6.160   1.307  1.00 20.00    -0.360 N 
HETATM   11 CL11 UNL     1     -35.709   4.840   4.833  1.00 20.00    -0.084 Cl
ENDROOT
TORSDOF 0
ENDMDL
MODEL 2
REMARK VINA RESULT:       0.2      2.286      3.704
REMARK  0 active torsions:
REMARK  status: ('A' for Active; 'I' for Inactive)
ROOT
HETATM    1  C1  UNL     1     -32.066   7.877   1.956  1.00 20.00     0.015 A 
HETATM    2  C2  UNL     1     -31.605   6.869   1.101  1.00 20.00     0.025 A 
HETATM    3  C3  UNL     1     -33.739   8.321   3.907  1.00 20.00     0.031 A 
HETATM    4  C4  UNL     1     -33.101   5.248   2.121  1.00 20.00     0.054 A 
HETATM    5  C5  UNL     1     -34.616   7.474   4.542  1.00 20.00     0.091 A 
HETATM    6  C6  UNL     1     -33.058   7.570   2.908  1.00 20.00    -0.008 A 
HETATM    7  C7  UNL     1     -33.551   6.266   2.968  1.00 20.00     0.045 A 
HETATM    8  C8  UNL     1     -32.116   5.575   1.184  1.00 20.00     0.036 A 
HETATM    9  C9  UNL     1     -35.260   5.074   4.372  1.00 20.00     0.155 C 
HETATM   10  N10 UNL     1     -34.496   6.235   3.969  1.00 20.00    -0.360 N 
HETATM   11 CL11 UNL     1     -31.526   4.357   0.117  1.00 20.00    -0.084 Cl
ENDROOT
TORSDOF 0
ENDMDL
MODEL 3
REMARK VINA RESULT:       1.5      1.558      2.352
REMARK  0 active torsions:
REMARK  status: ('A' for Active; 'I' for Inactive)
ROOT
HETATM    1  C1  UNL     1     -35.337   5.978   4.466  1.00 20.00     0.015 A 
HETATM    2  C2  UNL     1     -34.986   4.635   4.648  1.00 20.00     0.025 A 
HETATM    3  C3  UNL     1     -34.568   8.167   3.276  1.00 20.00     0.031 A 
HETATM    4  C4  UNL     1     -33.017   4.905   3.250  1.00 20.00     0.054 A 
HETATM    5  C5  UNL     1     -33.477   8.412   2.473  1.00 20.00     0.091 A 
HETATM    6  C6  UNL     1     -34.518   6.800   3.667  1.00 20.00    -0.008 A 
HETATM    7  C7  UNL     1     -33.380   6.245   3.078  1.00 20.00     0.045 A 
HETATM    8  C8  UNL     1     -33.844   4.109   4.048  1.00 20.00     0.036 A 
HETATM    9  C9  UNL     1     -31.550   7.107   1.590  1.00 20.00     0.155 C 
HETATM   10  N10 UNL     1     -32.767   7.247   2.359  1.00 20.00    -0.360 N 
HETATM   11 CL11 UNL     1     -33.442   2.451   4.291  1.00 20.00    -0.084 Cl
ENDROOT
TORSDOF 0
ENDMDL
MODEL 4
REMARK VINA RESULT:       1.6      2.700      4.467
REMARK  0 active torsions:
REMARK  status: ('A' for Active; 'I' for Inactive)
ROOT
HETATM    1  C1  UNL     1     -32.811   5.519   1.439  1.00 20.00     0.015 A 
HETATM    2  C2  UNL     1     -32.009   6.466   0.791  1.00 20.00     0.025 A 
HETATM    3  C3  UNL     1     -34.372   5.205   3.505  1.00 20.00     0.031 A 
HETATM    4  C4  UNL     1     -32.556   8.146   2.459  1.00 20.00     0.054 A 
HETATM    5  C5  UNL     1     -34.736   6.090   4.492  1.00 20.00     0.091 A 
HETATM    6  C6  UNL     1     -33.497   5.886   2.613  1.00 20.00    -0.008 A 
HETATM    7  C7  UNL     1     -33.354   7.189   3.095  1.00 20.00     0.045 A 
HETATM    8  C8  UNL     1     -31.885   7.759   1.295  1.00 20.00     0.036 A 
HETATM    9  C9  UNL     1     -34.257   8.467   5.059  1.00 20.00     0.155 C 
HETATM   10  N10 UNL     1     -34.117   7.285   4.237  1.00 20.00    -0.360 N 
HETATM   11 CL11 UNL     1     -30.890   8.901   0.473  1.00 20.00    -0.084 Cl
ENDROOT
TORSDOF 0
ENDMDL
MODEL 5
REMARK VINA RESULT:       1.7      2.528      4.242
REMARK  0 active torsions:
REMARK  status: ('A' for Active; 'I' for Inactive)
ROOT
HETATM    1  C1  UNL     1     -31.754   5.720   1.452  1.00 20.00     0.015 A 
HETATM    2  C2  UNL     1     -31.625   7.056   1.051  1.00 20.00     0.025 A 
HETATM    3  C3  UNL     1     -33.155   4.158   3.002  1.00 20.00     0.031 A 
HETATM    4  C4  UNL     1     -33.462   7.721   2.496  1.00 20.00     0.054 A 
HETATM    5  C5  UNL     1     -34.202   4.444   3.847  1.00 20.00     0.091 A 
HETATM    6  C6  UNL     1     -32.750   5.377   2.388  1.00 20.00    -0.008 A 
HETATM    7  C7  UNL     1     -33.579   6.383   2.887  1.00 20.00     0.045 A 
HETATM    8  C8  UNL     1     -32.467   8.039   1.566  1.00 20.00     0.036 A 
HETATM    9  C9  UNL     1     -35.486   6.469   4.518  1.00 20.00     0.155 C 
HETATM   10  N10 UNL     1     -34.451   5.789   3.770  1.00 20.00    -0.360 N 
HETATM   11 CL11 UNL     1     -32.282   9.673   1.051  1.00 20.00    -0.084 Cl
ENDROOT
TORSDOF 0
ENDMDL
MODEL 6
REMARK VINA RESULT:       1.7      2.514      3.777
REMARK  0 active torsions:
REMARK  status: ('A' for Active; 'I' for Inactive)
ROOT
HETATM    1  C1  UNL     1     -34.304   8.060   3.243  1.00 20.00     0.015 A 
HETATM    2  C2  UNL     1     -33.247   8.326   2.364  1.00 20.00     0.025 A 
HETATM    3  C3  UNL     1     -35.446   6.126   4.569  1.00 20.00     0.031 A 
HETATM    4  C4  UNL     1     -32.578   5.990   2.379  1.00 20.00     0.054 A 
HETATM    5  C5  UNL     1     -35.140   4.787   4.637  1.00 20.00     0.091 A 
HETATM    6  C6  UNL     1     -34.504   6.742   3.698  1.00 20.00    -0.008 A 
HETATM    7  C7  UNL     1     -33.638   5.740   3.256  1.00 20.00     0.045 A 
HETATM    8  C8  UNL     1     -32.398   7.305   1.940  1.00 20.00     0.036 A 
HETATM    9  C9  UNL     1     -33.427   3.269   3.657  1.00 20.00     0.155 C 
HETATM   10  N10 UNL     1     -34.048   4.563   3.842  1.00 20.00    -0.360 N 
HETATM   11 CL11 UNL     1     -31.106   7.667   0.859  1.00 20.00    -0.084 Cl
ENDROOT
TORSDOF 0
ENDMDL
MODEL 7
REMARK VINA RESULT:       2.3      2.723      4.294
REMARK  0 active torsions:
REMARK  status: ('A' for Active; 'I' for Inactive)
ROOT
HETATM    1  C1  UNL     1     -31.477   7.237   0.554  1.00 20.00     0.015 A 
HETATM    2  C2  UNL     1     -31.570   8.622   0.368  1.00 20.00     0.025 A 
HETATM    3  C3  UNL     1     -32.447   5.278   1.976  1.00 20.00     0.031 A 
HETATM    4  C4  UNL     1     -33.256   8.795   2.109  1.00 20.00     0.054 A 
HETATM    5  C5  UNL     1     -33.394   5.281   2.973  1.00 20.00     0.091 A 
HETATM    6  C6  UNL     1     -32.284   6.619   1.530  1.00 20.00    -0.008 A 
HETATM    7  C7  UNL     1     -33.153   7.411   2.283  1.00 20.00     0.045 A 
HETATM    8  C8  UNL     1     -32.447   9.387   1.135  1.00 20.00     0.036 A 
HETATM    9  C9  UNL     1     -34.812   6.978   4.118  1.00 20.00     0.155 C 
HETATM   10  N10 UNL     1     -33.815   6.573   3.152  1.00 20.00    -0.360 N 
HETATM   11 CL11 UNL     1     -32.537  11.089   0.880  1.00 20.00    -0.084 Cl
ENDROOT
TORSDOF 0
ENDMDL
MODEL 8
REMARK VINA RESULT:       2.4      1.506      2.729
REMARK  0 active torsions:
REMARK  status: ('A' for Active; 'I' for Inactive)
ROOT
HETATM    1  C1  UNL     1     -32.370   5.608   1.826  1.00 20.00     0.015 A 
HETATM    2  C2  UNL     1     -33.390   5.417   2.767  1.00 20.00     0.025 A 
HETATM    3  C3  UNL     1     -31.168   7.458   0.434  1.00 20.00     0.031 A 
HETATM    4  C4  UNL     1     -33.883   7.797   2.791  1.00 20.00     0.054 A 
HETATM    5  C5  UNL     1     -31.378   8.816   0.383  1.00 20.00     0.091 A 
HETATM    6  C6  UNL     1     -32.101   6.910   1.359  1.00 20.00    -0.008 A 
HETATM    7  C7  UNL     1     -32.862   7.972   1.851  1.00 20.00     0.045 A 
HETATM    8  C8  UNL     1     -34.133   6.497   3.240  1.00 20.00     0.036 A 
HETATM    9  C9  UNL     1     -32.912  10.452   1.464  1.00 20.00     0.155 C 
HETATM   10  N10 UNL     1     -32.402   9.117   1.242  1.00 20.00    -0.360 N 
HETATM   11 CL11 UNL     1     -35.380   6.227   4.399  1.00 20.00    -0.084 Cl
ENDROOT
TORSDOF 0
ENDMDL
MODEL 9
REMARK VINA RESULT:       3.0      1.598      2.514
REMARK  0 active torsions:
REMARK  status: ('A' for Active; 'I' for Inactive)
ROOT
HETATM    1  C1  UNL     1     -34.423   5.630   3.471  1.00 20.00     0.015 A 
HETATM    2  C2  UNL     1     -34.629   6.528   4.525  1.00 20.00     0.025 A 
HETATM    3  C3  UNL     1     -33.063   5.312   1.268  1.00 20.00     0.031 A 
HETATM    4  C4  UNL     1     -33.029   8.091   3.575  1.00 20.00     0.054 A 
HETATM    5  C5  UNL     1     -32.144   6.135   0.659  1.00 20.00     0.091 A 
HETATM    6  C6  UNL     1     -33.508   5.963   2.452  1.00 20.00    -0.008 A 
HETATM    7  C7  UNL     1     -32.834   7.183   2.528  1.00 20.00     0.045 A 
HETATM    8  C8  UNL     1     -33.941   7.739   4.574  1.00 20.00     0.036 A 
HETATM    9  C9  UNL     1     -31.131   8.364   1.109  1.00 20.00     0.155 C 
HETATM   10  N10 UNL     1     -32.012   7.261   1.426  1.00 20.00    -0.360 N 
HETATM   11 CL11 UNL     1     -34.217   8.821   5.887  1.00 20.00    -0.084 Cl
ENDROOT
TORSDOF 0
ENDMDL
