MODEL 1
REMARK VINA RESULT:      -2.4      0.000      0.000
REMARK  3 active torsions:
REMARK  status: ('A' for Active; 'I' for Inactive)
REMARK    1  A    between atoms: C1_1  and  C3_3 
REMARK    2  A    between atoms: C3_3  and  O9_9 
REMARK    3  A    between atoms: C7_7  and  O9_9 
ROOT
HETATM    1  C3  UNL     1     -34.078   7.059   3.737  1.00 20.00     0.282 C 
HETATM    2  O8  UNL     1     -33.445   7.760   4.510  1.00 20.00    -0.260 OA
ENDROOT
BRANCH   1   3
HETATM    3  C1  UNL     1     -35.298   6.295   4.078  1.00 20.00     0.077 C 
HETATM    4  C2  UNL     1     -35.217   4.980   4.320  1.00 20.00    -0.025 C 
HETATM    5  C4  UNL     1     -33.937   4.212   4.266  1.00 20.00     0.036 C 
ENDBRANCH   1   3
BRANCH   1   6
HETATM    6  O9  UNL     1     -33.803   6.833   2.424  1.00 20.00    -0.314 OA
BRANCH   6   7
HETATM    7  C7  UNL     1     -32.414   6.734   2.095  1.00 20.00     0.124 C 
HETATM    8  C5  UNL     1     -32.202   5.543   1.172  1.00 20.00     0.040 C 
HETATM    9  C6  UNL     1     -31.957   8.035   1.454  1.00 20.00     0.040 C 
ENDBRANCH   6   7
ENDBRANCH   1   6
TORSDOF 3
ENDMDL
MODEL 2
REMARK VINA RESULT:      -1.7      1.339      4.410
REMARK  3 active torsions:
REMARK  status: ('A' for Active; 'I' for Inactive)
REMARK    1  A    between atoms: C1_1  and  C3_3 
REMARK    2  A    between atoms: C3_3  and  O9_9 
REMARK    3  A    between atoms: C7_7  and  O9_9 
ROOT
HETATM    1  C3  UNL     1     -32.765   6.963   1.818  1.00 20.00     0.282 C 
HETATM    2  O8  UNL     1     -32.843   5.906   1.213  1.00 20.00    -0.260 OA
ENDROOT
BRANCH   1   3
HETATM    3  C1  UNL     1     -31.580   7.848   1.845  1.00 20.00     0.077 C 
HETATM    4  C2  UNL     1     -31.539   8.935   1.064  1.00 20.00    -0.025 C 
HETATM    5  C4  UNL     1     -32.645   9.324   0.138  1.00 20.00     0.036 C 
ENDBRANCH   1   3
BRANCH   1   6
HETATM    6  O9  UNL     1     -33.730   7.543   2.581  1.00 20.00    -0.314 OA
BRANCH   6   7
HETATM    7  C7  UNL     1     -33.915   6.968   3.879  1.00 20.00     0.124 C 
HETATM    8  C5  UNL     1     -33.742   8.050   4.935  1.00 20.00     0.040 C 
HETATM    9  C6  UNL     1     -35.291   6.323   3.950  1.00 20.00     0.040 C 
ENDBRANCH   6   7
ENDBRANCH   1   6
TORSDOF 3
ENDMDL
MODEL 3
REMARK VINA RESULT:      -1.4      1.260      4.240
REMARK  3 active torsions:
REMARK  status: ('A' for Active; 'I' for Inactive)
REMARK    1  A    between atoms: C1_1  and  C3_3 
REMARK    2  A    between atoms: C3_3  and  O9_9 
REMARK    3  A    between atoms: C7_7  and  O9_9 
ROOT
HETATM    1  C3  UNL     1     -32.473   6.442   1.760  1.00 20.00     0.282 C 
HETATM    2  O8  UNL     1     -31.801   5.657   1.111  1.00 20.00    -0.260 OA
ENDROOT
BRANCH   1   3
HETATM    3  C1  UNL     1     -32.005   7.747   2.276  1.00 20.00     0.077 C 
HETATM    4  C2  UNL     1     -31.973   8.813   1.466  1.00 20.00    -0.025 C 
HETATM    5  C4  UNL     1     -32.391   8.770   0.033  1.00 20.00     0.036 C 
ENDBRANCH   1   3
BRANCH   1   6
HETATM    6  O9  UNL     1     -33.771   6.290   2.141  1.00 20.00    -0.314 OA
BRANCH   6   7
HETATM    7  C7  UNL     1     -33.972   5.978   3.524  1.00 20.00     0.124 C 
HETATM    8  C5  UNL     1     -35.300   6.564   3.980  1.00 20.00     0.040 C 
HETATM    9  C6  UNL     1     -33.926   4.469   3.709  1.00 20.00     0.040 C 
ENDBRANCH   6   7
ENDBRANCH   1   6
TORSDOF 3
ENDMDL
MODEL 4
REMARK VINA RESULT:      -1.4      1.328      4.121
REMARK  3 active torsions:
REMARK  status: ('A' for Active; 'I' for Inactive)
REMARK    1  A    between atoms: C1_1  and  C3_3 
REMARK    2  A    between atoms: C3_3  and  O9_9 
REMARK    3  A    between atoms: C7_7  and  O9_9 
ROOT
HETATM    1  C3  UNL     1     -32.872   6.381   1.718  1.00 20.00     0.282 C 
HETATM    2  O8  UNL     1     -33.431   6.053   0.683  1.00 20.00    -0.260 OA
ENDROOT
BRANCH   1   3
HETATM    3  C1  UNL     1     -31.603   7.135   1.803  1.00 20.00     0.077 C 
HETATM    4  C2  UNL     1     -31.552   8.407   1.387  1.00 20.00    -0.025 C 
HETATM    5  C4  UNL     1     -32.729   9.135   0.825  1.00 20.00     0.036 C 
ENDBRANCH   1   3
BRANCH   1   6
HETATM    6  O9  UNL     1     -33.287   6.127   2.988  1.00 20.00    -0.314 OA
BRANCH   6   7
HETATM    7  C7  UNL     1     -34.332   6.975   3.475  1.00 20.00     0.124 C 
HETATM    8  C5  UNL     1     -35.445   6.116   4.056  1.00 20.00     0.040 C 
HETATM    9  C6  UNL     1     -33.759   7.934   4.507  1.00 20.00     0.040 C 
ENDBRANCH   6   7
ENDBRANCH   1   6
TORSDOF 3
ENDMDL
MODEL 5
REMARK VINA RESULT:      -1.4      1.603      4.454
REMARK  3 active torsions:
REMARK  status: ('A' for Active; 'I' for Inactive)
REMARK    1  A    between atoms: C1_1  and  C3_3 
REMARK    2  A    between atoms: C3_3  and  O9_9 
REMARK    3  A    between atoms: C7_7  and  O9_9 
ROOT
HETATM    1  C3  UNL     1     -32.086   7.988   2.023  1.00 20.00     0.282 C 
HETATM    2  O8  UNL     1     -31.486   8.472   2.970  1.00 20.00    -0.260 OA
ENDROOT
BRANCH   1   3
HETATM    3  C1  UNL     1     -31.804   8.266   0.598  1.00 20.00     0.077 C 
HETATM    4  C2  UNL     1     -32.162   9.440   0.062  1.00 20.00    -0.025 C 
HETATM    5  C4  UNL     1     -32.848  10.520   0.833  1.00 20.00     0.036 C 
ENDBRANCH   1   3
BRANCH   1   6
HETATM    6  O9  UNL     1     -33.122   7.108   2.074  1.00 20.00    -0.314 OA
BRANCH   6   7
HETATM    7  C7  UNL     1     -33.451   6.620   3.379  1.00 20.00     0.124 C 
HETATM    8  C5  UNL     1     -34.555   7.482   3.972  1.00 20.00     0.040 C 
HETATM    9  C6  UNL     1     -33.865   5.160   3.278  1.00 20.00     0.040 C 
ENDBRANCH   6   7
ENDBRANCH   1   6
TORSDOF 3
ENDMDL
MODEL 6
REMARK VINA RESULT:      -1.2      1.411      2.043
REMARK  3 active torsions:
REMARK  status: ('A' for Active; 'I' for Inactive)
REMARK    1  A    between atoms: C1_1  and  C3_3 
REMARK    2  A    between atoms: C3_3  and  O9_9 
REMARK    3  A    between atoms: C7_7  and  O9_9 
ROOT
HETATM    1  C3  UNL     1     -34.012   5.593   3.256  1.00 20.00     0.282 C 
HETATM    2  O8  UNL     1     -33.642   4.565   3.800  1.00 20.00    -0.260 OA
ENDROOT
BRANCH   1   3
HETATM    3  C1  UNL     1     -34.987   6.554   3.816  1.00 20.00     0.077 C 
HETATM    4  C2  UNL     1     -34.555   7.635   4.478  1.00 20.00    -0.025 C 
HETATM    5  C4  UNL     1     -33.110   7.942   4.696  1.00 20.00     0.036 C 
ENDBRANCH   1   3
BRANCH   1   6
HETATM    6  O9  UNL     1     -33.617   6.066   2.043  1.00 20.00    -0.314 OA
BRANCH   6   7
HETATM    7  C7  UNL     1     -32.202   6.168   1.854  1.00 20.00     0.124 C 
HETATM    8  C5  UNL     1     -31.760   5.145   0.819  1.00 20.00     0.040 C 
HETATM    9  C6  UNL     1     -31.855   7.587   1.432  1.00 20.00     0.040 C 
ENDBRANCH   6   7
ENDBRANCH   1   6
TORSDOF 3
ENDMDL
MODEL 7
REMARK VINA RESULT:      -1.1      1.709      2.865
REMARK  3 active torsions:
REMARK  status: ('A' for Active; 'I' for Inactive)
REMARK    1  A    between atoms: C1_1  and  C3_3 
REMARK    2  A    between atoms: C3_3  and  O9_9 
REMARK    3  A    between atoms: C7_7  and  O9_9 
ROOT
HETATM    1  C3  UNL     1     -32.751   7.485   2.420  1.00 20.00     0.282 C 
HETATM    2  O8  UNL     1     -33.020   6.405   1.919  1.00 20.00    -0.260 OA
ENDROOT
BRANCH   1   3
HETATM    3  C1  UNL     1     -33.264   7.979   3.717  1.00 20.00     0.077 C 
HETATM    4  C2  UNL     1     -34.326   7.390   4.283  1.00 20.00    -0.025 C 
HETATM    5  C4  UNL     1     -35.047   6.234   3.672  1.00 20.00     0.036 C 
ENDBRANCH   1   3
BRANCH   1   6
HETATM    6  O9  UNL     1     -31.938   8.447   1.905  1.00 20.00    -0.314 OA
BRANCH   6   7
HETATM    7  C7  UNL     1     -32.327   8.959   0.626  1.00 20.00     0.124 C 
HETATM    8  C5  UNL     1     -32.762  10.409   0.779  1.00 20.00     0.040 C 
HETATM    9  C6  UNL     1     -31.164   8.817  -0.344  1.00 20.00     0.040 C 
ENDBRANCH   6   7
ENDBRANCH   1   6
TORSDOF 3
ENDMDL
MODEL 8
REMARK VINA RESULT:      -1.1      2.078      3.162
REMARK  3 active torsions:
REMARK  status: ('A' for Active; 'I' for Inactive)
REMARK    1  A    between atoms: C1_1  and  C3_3 
REMARK    2  A    between atoms: C3_3  and  O9_9 
REMARK    3  A    between atoms: C7_7  and  O9_9 
ROOT
HETATM    1  C3  UNL     1     -32.180   7.876   1.972  1.00 20.00     0.282 C 
HETATM    2  O8  UNL     1     -31.199   8.239   2.600  1.00 20.00    -0.260 OA
ENDROOT
BRANCH   1   3
HETATM    3  C1  UNL     1     -32.776   6.523   2.022  1.00 20.00     0.077 C 
HETATM    4  C2  UNL     1     -33.724   6.243   2.926  1.00 20.00    -0.025 C 
HETATM    5  C4  UNL     1     -34.234   7.238   3.916  1.00 20.00     0.036 C 
ENDBRANCH   1   3
BRANCH   1   6
HETATM    6  O9  UNL     1     -32.921   8.620   1.107  1.00 20.00    -0.314 OA
BRANCH   6   7
HETATM    7  C7  UNL     1     -32.221   9.685   0.456  1.00 20.00     0.124 C 
HETATM    8  C5  UNL     1     -32.383   9.544  -1.050  1.00 20.00     0.040 C 
HETATM    9  C6  UNL     1     -32.754  11.017   0.960  1.00 20.00     0.040 C 
ENDBRANCH   6   7
ENDBRANCH   1   6
TORSDOF 3
ENDMDL
MODEL 9
REMARK VINA RESULT:      -1.1      1.849      2.894
REMARK  3 active torsions:
REMARK  status: ('A' for Active; 'I' for Inactive)
REMARK    1  A    between atoms: C1_1  and  C3_3 
REMARK    2  A    between atoms: C3_3  and  O9_9 
REMARK    3  A    between atoms: C7_7  and  O9_9 
ROOT
HETATM    1  C3  UNL     1     -32.685   7.284   1.953  1.00 20.00     0.282 C 
HETATM    2  O8  UNL     1     -32.309   6.141   1.747  1.00 20.00    -0.260 OA
ENDROOT
BRANCH   1   3
HETATM    3  C1  UNL     1     -32.860   7.901   3.286  1.00 20.00     0.077 C 
HETATM    4  C2  UNL     1     -33.895   7.543   4.057  1.00 20.00    -0.025 C 
HETATM    5  C4  UNL     1     -34.914   6.531   3.647  1.00 20.00     0.036 C 
ENDBRANCH   1   3
BRANCH   1   6
HETATM    6  O9  UNL     1     -33.018   8.216   1.020  1.00 20.00    -0.314 OA
BRANCH   6   7
HETATM    7  C7  UNL     1     -32.045   9.243   0.802  1.00 20.00     0.124 C 
HETATM    8  C5  UNL     1     -31.054   8.778  -0.255  1.00 20.00     0.040 C 
HETATM    9  C6  UNL     1     -32.752  10.525   0.390  1.00 20.00     0.040 C 
ENDBRANCH   6   7
ENDBRANCH   1   6
TORSDOF 3
ENDMDL
