MODEL 1
REMARK VINA RESULT:      -1.3      0.000      0.000
REMARK  3 active torsions:
REMARK  status: ('A' for Active; 'I' for Inactive)
REMARK    1  A    between atoms: C3_3  and  C7_7 
REMARK    2  A    between atoms: C4_4  and  C5_5 
REMARK    3  A    between atoms: C7_7  and  O9_9 
ROOT
HETATM    1  C1  UNL     1     -33.496   7.614   3.063  1.00 20.00     0.031 A 
HETATM    2  C2  UNL     1     -32.375   6.232   1.570  1.00 20.00     0.060 A 
HETATM    3  C3  UNL     1     -32.490   7.513   2.060  1.00 20.00    -0.027 A 
HETATM    4  C4  UNL     1     -34.113   6.405   3.303  1.00 20.00     0.043 A 
HETATM    5  S10 UNL     1     -33.477   5.155   2.319  1.00 20.00    -0.098 SA
ENDROOT
BRANCH   3   6
HETATM    6  C7  UNL     1     -31.666   8.654   1.599  1.00 20.00     0.206 C 
BRANCH   6   7
HETATM    7  O9  UNL     1     -32.063   9.036   0.284  1.00 20.00    -0.391 OA
HETATM    8  C6  UNL     1     -32.624  10.341   0.272  1.00 20.00     0.201 C 
ENDBRANCH   6   7
ENDBRANCH   3   6
BRANCH   4   9
HETATM    9  C5  UNL     1     -35.158   6.100   4.225  1.00 20.00     0.277 C 
HETATM   10  O8  UNL     1     -35.478   4.941   4.564  1.00 20.00    -0.301 OA
ENDBRANCH   4   9
TORSDOF 3
ENDMDL
MODEL 2
REMARK VINA RESULT:      -1.2      1.508      1.801
REMARK  3 active torsions:
REMARK  status: ('A' for Active; 'I' for Inactive)
REMARK    1  A    between atoms: C3_3  and  C7_7 
REMARK    2  A    between atoms: C4_4  and  C5_5 
REMARK    3  A    between atoms: C7_7  and  O9_9 
ROOT
HETATM    1  C1  UNL     1     -32.951   5.907   2.379  1.00 20.00     0.031 A 
HETATM    2  C2  UNL     1     -33.615   7.969   3.219  1.00 20.00     0.060 A 
HETATM    3  C3  UNL     1     -32.831   7.324   2.288  1.00 20.00    -0.027 A 
HETATM    4  C4  UNL     1     -33.821   5.522   3.375  1.00 20.00     0.043 A 
HETATM    5  S10 UNL     1     -34.491   6.868   4.196  1.00 20.00    -0.098 SA
ENDROOT
BRANCH   3   6
HETATM    6  C7  UNL     1     -31.965   8.020   1.309  1.00 20.00     0.206 C 
BRANCH   6   7
HETATM    7  O9  UNL     1     -32.357   9.386   1.203  1.00 20.00    -0.391 OA
HETATM    8  C6  UNL     1     -32.441   9.797  -0.153  1.00 20.00     0.201 C 
ENDBRANCH   6   7
ENDBRANCH   3   6
BRANCH   4   9
HETATM    9  C5  UNL     1     -34.203   4.206   3.771  1.00 20.00     0.277 C 
HETATM   10  O8  UNL     1     -33.504   3.460   4.490  1.00 20.00    -0.301 OA
ENDBRANCH   4   9
TORSDOF 3
ENDMDL
MODEL 3
REMARK VINA RESULT:      -0.7      1.941      5.040
REMARK  3 active torsions:
REMARK  status: ('A' for Active; 'I' for Inactive)
REMARK    1  A    between atoms: C3_3  and  C7_7 
REMARK    2  A    between atoms: C4_4  and  C5_5 
REMARK    3  A    between atoms: C7_7  and  O9_9 
ROOT
HETATM    1  C1  UNL     1     -33.272   6.046   2.703  1.00 20.00     0.031 A 
HETATM    2  C2  UNL     1     -34.440   7.136   4.390  1.00 20.00     0.060 A 
HETATM    3  C3  UNL     1     -34.185   5.923   3.790  1.00 20.00    -0.027 A 
HETATM    4  C4  UNL     1     -32.863   7.348   2.514  1.00 20.00     0.043 A 
HETATM    5  S10 UNL     1     -33.580   8.416   3.645  1.00 20.00    -0.098 SA
ENDROOT
BRANCH   3   6
HETATM    6  C7  UNL     1     -34.789   4.641   4.222  1.00 20.00     0.206 C 
BRANCH   6   7
HETATM    7  O9  UNL     1     -33.944   3.558   3.841  1.00 20.00    -0.391 OA
HETATM    8  C6  UNL     1     -33.179   3.087   4.941  1.00 20.00     0.201 C 
ENDBRANCH   6   7
ENDBRANCH   3   6
BRANCH   4   9
HETATM    9  C5  UNL     1     -31.963   7.871   1.539  1.00 20.00     0.277 C 
HETATM   10  O8  UNL     1     -32.165   8.916   0.886  1.00 20.00    -0.301 OA
ENDBRANCH   4   9
TORSDOF 3
ENDMDL
MODEL 4
REMARK VINA RESULT:      -0.5      1.149      4.726
REMARK  3 active torsions:
REMARK  status: ('A' for Active; 'I' for Inactive)
REMARK    1  A    between atoms: C3_3  and  C7_7 
REMARK    2  A    between atoms: C4_4  and  C5_5 
REMARK    3  A    between atoms: C7_7  and  O9_9 
ROOT
HETATM    1  C1  UNL     1     -33.432   7.628   2.943  1.00 20.00     0.031 A 
HETATM    2  C2  UNL     1     -33.442   5.392   2.315  1.00 20.00     0.060 A 
HETATM    3  C3  UNL     1     -33.951   6.324   3.191  1.00 20.00    -0.027 A 
HETATM    4  C4  UNL     1     -32.548   7.643   1.887  1.00 20.00     0.043 A 
HETATM    5  S10 UNL     1     -32.345   6.087   1.199  1.00 20.00    -0.098 SA
ENDROOT
BRANCH   3   6
HETATM    6  C7  UNL     1     -34.921   6.011   4.265  1.00 20.00     0.206 C 
BRANCH   6   7
HETATM    7  O9  UNL     1     -35.141   4.604   4.322  1.00 20.00    -0.391 OA
HETATM    8  C6  UNL     1     -33.950   3.908   4.661  1.00 20.00     0.201 C 
ENDBRANCH   6   7
ENDBRANCH   3   6
BRANCH   4   9
HETATM    9  C5  UNL     1     -31.827   8.745   1.338  1.00 20.00     0.277 C 
HETATM   10  O8  UNL     1     -32.305   9.556   0.517  1.00 20.00    -0.301 OA
ENDBRANCH   4   9
TORSDOF 3
ENDMDL
MODEL 5
REMARK VINA RESULT:      -0.0      1.254      4.671
REMARK  3 active torsions:
REMARK  status: ('A' for Active; 'I' for Inactive)
REMARK    1  A    between atoms: C3_3  and  C7_7 
REMARK    2  A    between atoms: C4_4  and  C5_5 
REMARK    3  A    between atoms: C7_7  and  O9_9 
ROOT
HETATM    1  C1  UNL     1     -33.139   8.360   2.560  1.00 20.00     0.031 A 
HETATM    2  C2  UNL     1     -33.097   6.038   2.479  1.00 20.00     0.060 A 
HETATM    3  C3  UNL     1     -33.584   7.139   3.147  1.00 20.00    -0.027 A 
HETATM    4  C4  UNL     1     -32.330   8.145   1.467  1.00 20.00     0.043 A 
HETATM    5  S10 UNL     1     -32.109   6.476   1.151  1.00 20.00    -0.098 SA
ENDROOT
BRANCH   3   6
HETATM    6  C7  UNL     1     -34.465   7.066   4.335  1.00 20.00     0.206 C 
BRANCH   6   7
HETATM    7  O9  UNL     1     -35.524   6.143   4.094  1.00 20.00    -0.391 OA
HETATM    8  C6  UNL     1     -35.215   4.855   4.606  1.00 20.00     0.201 C 
ENDBRANCH   6   7
ENDBRANCH   3   6
BRANCH   4   9
HETATM    9  C5  UNL     1     -31.695   9.102   0.620  1.00 20.00     0.277 C 
HETATM   10  O8  UNL     1     -32.274  10.092   0.124  1.00 20.00    -0.301 OA
ENDBRANCH   4   9
TORSDOF 3
ENDMDL
MODEL 6
REMARK VINA RESULT:       0.6      2.383      4.702
REMARK  3 active torsions:
REMARK  status: ('A' for Active; 'I' for Inactive)
REMARK    1  A    between atoms: C3_3  and  C7_7 
REMARK    2  A    between atoms: C4_4  and  C5_5 
REMARK    3  A    between atoms: C7_7  and  O9_9 
ROOT
HETATM    1  C1  UNL     1     -33.626   5.603   2.404  1.00 20.00     0.031 A 
HETATM    2  C2  UNL     1     -33.507   7.662   3.474  1.00 20.00     0.060 A 
HETATM    3  C3  UNL     1     -34.158   6.450   3.420  1.00 20.00    -0.027 A 
HETATM    4  C4  UNL     1     -32.590   6.201   1.722  1.00 20.00     0.043 A 
HETATM    5  S10 UNL     1     -32.261   7.777   2.306  1.00 20.00    -0.098 SA
ENDROOT
BRANCH   3   6
HETATM    6  C7  UNL     1     -35.278   6.069   4.310  1.00 20.00     0.206 C 
BRANCH   6   7
HETATM    7  O9  UNL     1     -35.342   4.650   4.427  1.00 20.00    -0.391 OA
HETATM    8  C6  UNL     1     -34.054   4.090   4.636  1.00 20.00     0.201 C 
ENDBRANCH   6   7
ENDBRANCH   3   6
BRANCH   4   9
HETATM    9  C5  UNL     1     -31.808   5.681   0.647  1.00 20.00     0.277 C 
HETATM   10  O8  UNL     1     -31.655   4.463   0.417  1.00 20.00    -0.301 OA
ENDBRANCH   4   9
TORSDOF 3
ENDMDL
MODEL 7
REMARK VINA RESULT:       1.2      2.148      2.813
REMARK  3 active torsions:
REMARK  status: ('A' for Active; 'I' for Inactive)
REMARK    1  A    between atoms: C3_3  and  C7_7 
REMARK    2  A    between atoms: C4_4  and  C5_5 
REMARK    3  A    between atoms: C7_7  and  O9_9 
ROOT
HETATM    1  C1  UNL     1     -33.692   5.936   2.630  1.00 20.00     0.031 A 
HETATM    2  C2  UNL     1     -32.636   7.992   2.872  1.00 20.00     0.060 A 
HETATM    3  C3  UNL     1     -32.668   6.811   2.164  1.00 20.00    -0.027 A 
HETATM    4  C4  UNL     1     -34.403   6.482   3.676  1.00 20.00     0.043 A 
HETATM    5  S10 UNL     1     -33.837   8.044   4.091  1.00 20.00    -0.098 SA
ENDROOT
BRANCH   3   6
HETATM    6  C7  UNL     1     -31.747   6.487   1.051  1.00 20.00     0.206 C 
BRANCH   6   7
HETATM    7  O9  UNL     1     -31.278   5.148   1.187  1.00 20.00    -0.391 OA
HETATM    8  C6  UNL     1     -31.773   4.318   0.146  1.00 20.00     0.201 C 
ENDBRANCH   6   7
ENDBRANCH   3   6
BRANCH   4   9
HETATM    9  C5  UNL     1     -35.495   5.922   4.405  1.00 20.00     0.277 C 
HETATM   10  O8  UNL     1     -35.575   4.720   4.733  1.00 20.00    -0.301 OA
ENDBRANCH   4   9
TORSDOF 3
ENDMDL
MODEL 8
REMARK VINA RESULT:       1.4      2.295      2.826
REMARK  3 active torsions:
REMARK  status: ('A' for Active; 'I' for Inactive)
REMARK    1  A    between atoms: C3_3  and  C7_7 
REMARK    2  A    between atoms: C4_4  and  C5_5 
REMARK    3  A    between atoms: C7_7  and  O9_9 
ROOT
HETATM    1  C1  UNL     1     -31.954   7.029   1.124  1.00 20.00     0.031 A 
HETATM    2  C2  UNL     1     -33.245   7.739   2.921  1.00 20.00     0.060 A 
HETATM    3  C3  UNL     1     -32.388   8.131   1.917  1.00 20.00    -0.027 A 
HETATM    4  C4  UNL     1     -32.496   5.837   1.553  1.00 20.00     0.043 A 
HETATM    5  S10 UNL     1     -33.524   6.050   2.906  1.00 20.00    -0.098 SA
ENDROOT
BRANCH   3   6
HETATM    6  C7  UNL     1     -31.966   9.532   1.687  1.00 20.00     0.206 C 
BRANCH   6   7
HETATM    7  O9  UNL     1     -32.921  10.195   0.862  1.00 20.00    -0.391 OA
HETATM    8  C6  UNL     1     -32.614  10.035  -0.515  1.00 20.00     0.201 C 
ENDBRANCH   6   7
ENDBRANCH   3   6
BRANCH   4   9
HETATM    9  C5  UNL     1     -32.306   4.526   1.023  1.00 20.00     0.277 C 
HETATM   10  O8  UNL     1     -31.471   4.241   0.139  1.00 20.00    -0.301 OA
ENDBRANCH   4   9
TORSDOF 3
ENDMDL
