MODEL 1
REMARK VINA RESULT:      -1.8      0.000      0.000
REMARK  0 active torsions:
REMARK  status: ('A' for Active; 'I' for Inactive)
ROOT
HETATM    1  C1  UNL     1     -34.786   5.834   3.633  1.00 20.00     0.179 A 
HETATM    2  C2  UNL     1     -33.754   6.220   2.821  1.00 20.00    -0.007 A 
HETATM    3  C3  UNL     1     -33.376   7.482   3.333  1.00 20.00     0.070 A 
HETATM    4  C4  UNL     1     -33.117   5.581   1.645  1.00 20.00     0.043 C 
HETATM    5  C5  UNL     1     -32.262   8.294   2.784  1.00 20.00     0.062 C 
HETATM    6  C6  UNL     1     -31.769   6.253   1.320  1.00 20.00     0.005 C 
HETATM    7  C7  UNL     1     -31.855   7.791   1.386  1.00 20.00     0.006 C 
HETATM    8  N8  UNL     1     -34.111   7.843   4.387  1.00 20.00    -0.133 NA
HETATM    9  O9  UNL     1     -35.008   6.794   4.572  1.00 20.00    -0.225 OA
ENDROOT
TORSDOF 0
ENDMDL
MODEL 2
REMARK VINA RESULT:      -1.7      0.901      2.046
REMARK  0 active torsions:
REMARK  status: ('A' for Active; 'I' for Inactive)
ROOT
HETATM    1  C1  UNL     1     -34.160   7.769   4.393  1.00 20.00     0.179 A 
HETATM    2  C2  UNL     1     -33.329   7.526   3.332  1.00 20.00    -0.007 A 
HETATM    3  C3  UNL     1     -33.730   6.251   2.875  1.00 20.00     0.070 A 
HETATM    4  C4  UNL     1     -32.224   8.310   2.731  1.00 20.00     0.043 C 
HETATM    5  C5  UNL     1     -33.124   5.567   1.705  1.00 20.00     0.062 C 
HETATM    6  C6  UNL     1     -31.856   7.760   1.340  1.00 20.00     0.005 C 
HETATM    7  C7  UNL     1     -31.782   6.221   1.323  1.00 20.00     0.006 C 
HETATM    8  N8  UNL     1     -34.738   5.748   3.590  1.00 20.00    -0.133 NA
HETATM    9  O9  UNL     1     -35.005   6.715   4.556  1.00 20.00    -0.225 OA
ENDROOT
TORSDOF 0
ENDMDL
MODEL 3
REMARK VINA RESULT:      -1.5      2.260      3.718
REMARK  0 active torsions:
REMARK  status: ('A' for Active; 'I' for Inactive)
ROOT
HETATM    1  C1  UNL     1     -31.965   7.822   1.818  1.00 20.00     0.179 A 
HETATM    2  C2  UNL     1     -32.946   7.503   2.718  1.00 20.00    -0.007 A 
HETATM    3  C3  UNL     1     -33.197   6.134   2.471  1.00 20.00     0.070 A 
HETATM    4  C4  UNL     1     -33.669   8.306   3.731  1.00 20.00     0.043 C 
HETATM    5  C5  UNL     1     -34.182   5.327   3.233  1.00 20.00     0.062 C 
HETATM    6  C6  UNL     1     -34.412   7.393   4.726  1.00 20.00     0.005 C 
HETATM    7  C7  UNL     1     -35.146   6.237   4.019  1.00 20.00     0.006 C 
HETATM    8  N8  UNL     1     -32.425   5.642   1.501  1.00 20.00    -0.133 NA
HETATM    9  O9  UNL     1     -31.645   6.720   1.087  1.00 20.00    -0.225 OA
ENDROOT
TORSDOF 0
ENDMDL
MODEL 4
REMARK VINA RESULT:      -1.4      2.166      3.147
REMARK  0 active torsions:
REMARK  status: ('A' for Active; 'I' for Inactive)
ROOT
HETATM    1  C1  UNL     1     -32.371   5.683   1.410  1.00 20.00     0.179 A 
HETATM    2  C2  UNL     1     -33.204   6.050   2.433  1.00 20.00    -0.007 A 
HETATM    3  C3  UNL     1     -32.893   7.411   2.650  1.00 20.00     0.070 A 
HETATM    4  C4  UNL     1     -34.208   5.296   3.221  1.00 20.00     0.043 C 
HETATM    5  C5  UNL     1     -33.570   8.260   3.662  1.00 20.00     0.062 C 
HETATM    6  C6  UNL     1     -35.126   6.256   4.001  1.00 20.00     0.005 C 
HETATM    7  C7  UNL     1     -34.337   7.393   4.679  1.00 20.00     0.006 C 
HETATM    8  N8  UNL     1     -31.947   7.855   1.821  1.00 20.00    -0.133 NA
HETATM    9  O9  UNL     1     -31.616   6.752   1.036  1.00 20.00    -0.225 OA
ENDROOT
TORSDOF 0
ENDMDL
MODEL 5
REMARK VINA RESULT:      -1.0      1.584      2.268
REMARK  0 active torsions:
REMARK  status: ('A' for Active; 'I' for Inactive)
ROOT
HETATM    1  C1  UNL     1     -35.038   6.107   4.386  1.00 20.00     0.179 A 
HETATM    2  C2  UNL     1     -34.114   6.617   3.513  1.00 20.00    -0.007 A 
HETATM    3  C3  UNL     1     -33.550   5.470   2.911  1.00 20.00     0.070 A 
HETATM    4  C4  UNL     1     -33.694   8.004   3.203  1.00 20.00     0.043 C 
HETATM    5  C5  UNL     1     -32.504   5.521   1.860  1.00 20.00     0.062 C 
HETATM    6  C6  UNL     1     -32.886   8.052   1.893  1.00 20.00     0.005 C 
HETATM    7  C7  UNL     1     -31.849   6.915   1.807  1.00 20.00     0.006 C 
HETATM    8  N8  UNL     1     -34.089   4.339   3.369  1.00 20.00    -0.133 NA
HETATM    9  O9  UNL     1     -35.032   4.749   4.308  1.00 20.00    -0.225 OA
ENDROOT
TORSDOF 0
ENDMDL
MODEL 6
REMARK VINA RESULT:      -0.9      1.260      1.395
REMARK  0 active torsions:
REMARK  status: ('A' for Active; 'I' for Inactive)
ROOT
HETATM    1  C1  UNL     1     -34.162   4.365   3.414  1.00 20.00     0.179 A 
HETATM    2  C2  UNL     1     -33.526   5.446   2.865  1.00 20.00    -0.007 A 
HETATM    3  C3  UNL     1     -34.104   6.551   3.529  1.00 20.00     0.070 A 
HETATM    4  C4  UNL     1     -32.491   5.565   1.811  1.00 20.00     0.043 C 
HETATM    5  C5  UNL     1     -33.709   7.961   3.283  1.00 20.00     0.062 C 
HETATM    6  C6  UNL     1     -31.855   6.968   1.823  1.00 20.00     0.005 C 
HETATM    7  C7  UNL     1     -32.908   8.083   1.972  1.00 20.00     0.006 C 
HETATM    8  N8  UNL     1     -35.021   6.182   4.425  1.00 20.00    -0.133 NA
HETATM    9  O9  UNL     1     -35.057   4.792   4.346  1.00 20.00    -0.225 OA
ENDROOT
TORSDOF 0
ENDMDL
MODEL 7
REMARK VINA RESULT:       0.5      2.050      3.076
REMARK  0 active torsions:
REMARK  status: ('A' for Active; 'I' for Inactive)
ROOT
HETATM    1  C1  UNL     1     -31.642   7.295   1.120  1.00 20.00     0.179 A 
HETATM    2  C2  UNL     1     -32.518   6.653   1.953  1.00 20.00    -0.007 A 
HETATM    3  C3  UNL     1     -33.095   7.700   2.706  1.00 20.00     0.070 A 
HETATM    4  C4  UNL     1     -32.851   5.221   2.139  1.00 20.00     0.043 C 
HETATM    5  C5  UNL     1     -34.141   7.493   3.740  1.00 20.00     0.062 C 
HETATM    6  C6  UNL     1     -34.157   5.061   2.940  1.00 20.00     0.005 C 
HETATM    7  C7  UNL     1     -34.216   6.010   4.153  1.00 20.00     0.006 C 
HETATM    8  N8  UNL     1     -32.620   8.898   2.360  1.00 20.00    -0.133 NA
HETATM    9  O9  UNL     1     -31.694   8.635   1.353  1.00 20.00    -0.225 OA
ENDROOT
TORSDOF 0
ENDMDL
MODEL 8
REMARK VINA RESULT:       1.2      1.020      1.317
REMARK  0 active torsions:
REMARK  status: ('A' for Active; 'I' for Inactive)
ROOT
HETATM    1  C1  UNL     1     -33.765   5.413   2.927  1.00 20.00     0.179 A 
HETATM    2  C2  UNL     1     -33.171   6.509   2.360  1.00 20.00    -0.007 A 
HETATM    3  C3  UNL     1     -33.826   7.601   2.972  1.00 20.00     0.070 A 
HETATM    4  C4  UNL     1     -32.116   6.651   1.329  1.00 20.00     0.043 C 
HETATM    5  C5  UNL     1     -33.499   9.022   2.691  1.00 20.00     0.062 C 
HETATM    6  C6  UNL     1     -31.556   8.086   1.312  1.00 20.00     0.005 C 
HETATM    7  C7  UNL     1     -32.671   9.147   1.397  1.00 20.00     0.006 C 
HETATM    8  N8  UNL     1     -34.746   7.212   3.856  1.00 20.00    -0.133 NA
HETATM    9  O9  UNL     1     -34.706   5.820   3.822  1.00 20.00    -0.225 OA
ENDROOT
TORSDOF 0
ENDMDL
