MODEL 1
REMARK VINA RESULT:       0.0      0.000      0.000
REMARK  3 active torsions:
REMARK  status: ('A' for Active; 'I' for Inactive)
REMARK    1  A    between atoms: C3_3  and  C6_6 
REMARK    2  A    between atoms: C4_4  and  C7_7 
REMARK    3  A    between atoms: C5_5  and  C8_8 
ROOT
HETATM    1  C1  UNL     1     -32.137   8.230   3.263  1.00 20.00     0.012 C 
HETATM    2  C2  UNL     1     -31.651   6.671   1.574  1.00 20.00     0.012 C 
HETATM    3  C3  UNL     1     -31.580   8.176   1.838  1.00 20.00    -0.005 C 
HETATM    4  C4  UNL     1     -33.491   7.667   2.847  1.00 20.00     0.022 C 
HETATM    5  C5  UNL     1     -33.168   6.629   1.722  1.00 20.00     0.022 C 
ENDROOT
BRANCH   3   6
HETATM    6  C6  UNL     1     -32.763   8.724   0.992  1.00 20.00     0.048 C 
HETATM    7  C7  UNL     1     -32.200   8.997  -0.432  1.00 20.00     0.133 C 
HETATM    8  O9  UNL     1     -32.908  10.277  -0.449  1.00 20.00    -0.379 OA
HETATM    9  C8  UNL     1     -32.624  10.272   0.985  1.00 20.00     0.133 C 
ENDBRANCH   3   6
TORSDOF 3
ENDMDL
MODEL 2
REMARK VINA RESULT:       0.5      2.553      3.810
REMARK  3 active torsions:
REMARK  status: ('A' for Active; 'I' for Inactive)
REMARK    1  A    between atoms: C3_3  and  C6_6 
REMARK    2  A    between atoms: C4_4  and  C7_7 
REMARK    3  A    between atoms: C5_5  and  C8_8 
ROOT
HETATM    1  C1  UNL     1     -31.995   5.638   1.657  1.00 20.00     0.012 C 
HETATM    2  C2  UNL     1     -31.878   7.974   1.886  1.00 20.00     0.012 C 
HETATM    3  C3  UNL     1     -32.265   6.733   2.693  1.00 20.00    -0.005 C 
HETATM    4  C4  UNL     1     -33.038   6.181   0.686  1.00 20.00     0.022 C 
HETATM    5  C5  UNL     1     -32.960   7.736   0.839  1.00 20.00     0.022 C 
ENDROOT
BRANCH   3   6
HETATM    6  C6  UNL     1     -33.818   6.810   2.706  1.00 20.00     0.048 C 
HETATM    7  C7  UNL     1     -34.216   7.495   4.045  1.00 20.00     0.133 C 
HETATM    8  O9  UNL     1     -35.264   6.492   4.228  1.00 20.00    -0.379 OA
HETATM    9  C8  UNL     1     -34.314   5.606   3.557  1.00 20.00     0.133 C 
ENDBRANCH   3   6
TORSDOF 3
ENDMDL
MODEL 3
REMARK VINA RESULT:       0.5      2.070      3.105
REMARK  3 active torsions:
REMARK  status: ('A' for Active; 'I' for Inactive)
REMARK    1  A    between atoms: C3_3  and  C6_6 
REMARK    2  A    between atoms: C4_4  and  C7_7 
REMARK    3  A    between atoms: C5_5  and  C8_8 
ROOT
HETATM    1  C1  UNL     1     -33.769   7.652   4.694  1.00 20.00     0.012 C 
HETATM    2  C2  UNL     1     -34.740   5.598   4.092  1.00 20.00     0.012 C 
HETATM    3  C3  UNL     1     -33.428   6.369   3.932  1.00 20.00    -0.005 C 
HETATM    4  C4  UNL     1     -34.904   8.017   3.744  1.00 20.00     0.022 C 
HETATM    5  C5  UNL     1     -35.550   6.650   3.343  1.00 20.00     0.022 C 
ENDROOT
BRANCH   3   6
HETATM    6  C6  UNL     1     -33.488   6.832   2.449  1.00 20.00     0.048 C 
HETATM    7  C7  UNL     1     -32.590   5.853   1.641  1.00 20.00     0.133 C 
HETATM    8  O9  UNL     1     -32.016   6.992   0.927  1.00 20.00    -0.379 OA
HETATM    9  C8  UNL     1     -32.213   7.686   2.199  1.00 20.00     0.133 C 
ENDBRANCH   3   6
TORSDOF 3
ENDMDL
MODEL 4
REMARK VINA RESULT:       0.6      2.494      3.588
REMARK  3 active torsions:
REMARK  status: ('A' for Active; 'I' for Inactive)
REMARK    1  A    between atoms: C3_3  and  C6_6 
REMARK    2  A    between atoms: C4_4  and  C7_7 
REMARK    3  A    between atoms: C5_5  and  C8_8 
ROOT
HETATM    1  C1  UNL     1     -32.481   8.018   1.214  1.00 20.00     0.012 C 
HETATM    2  C2  UNL     1     -33.026   5.759   0.866  1.00 20.00     0.012 C 
HETATM    3  C3  UNL     1     -33.592   7.015   1.533  1.00 20.00    -0.005 C 
HETATM    4  C4  UNL     1     -31.432   7.236   1.996  1.00 20.00     0.022 C 
HETATM    5  C5  UNL     1     -31.795   5.732   1.765  1.00 20.00     0.022 C 
ENDROOT
BRANCH   3   6
HETATM    6  C6  UNL     1     -33.364   6.726   3.043  1.00 20.00     0.048 C 
HETATM    7  C7  UNL     1     -34.700   6.150   3.592  1.00 20.00     0.133 C 
HETATM    8  O9  UNL     1     -34.573   7.014   4.765  1.00 20.00    -0.379 OA
HETATM    9  C8  UNL     1     -33.951   7.939   3.820  1.00 20.00     0.133 C 
ENDBRANCH   3   6
TORSDOF 3
ENDMDL
MODEL 5
REMARK VINA RESULT:       1.1      2.361      3.585
REMARK  3 active torsions:
REMARK  status: ('A' for Active; 'I' for Inactive)
REMARK    1  A    between atoms: C3_3  and  C6_6 
REMARK    2  A    between atoms: C4_4  and  C7_7 
REMARK    3  A    between atoms: C5_5  and  C8_8 
ROOT
HETATM    1  C1  UNL     1     -35.478   6.511   3.392  1.00 20.00     0.012 C 
HETATM    2  C2  UNL     1     -34.243   8.458   3.846  1.00 20.00     0.012 C 
HETATM    3  C3  UNL     1     -34.455   7.436   2.727  1.00 20.00    -0.005 C 
HETATM    4  C4  UNL     1     -34.523   6.117   4.513  1.00 20.00     0.022 C 
HETATM    5  C5  UNL     1     -33.700   7.413   4.815  1.00 20.00     0.022 C 
ENDROOT
BRANCH   3   6
HETATM    6  C6  UNL     1     -33.150   6.594   2.788  1.00 20.00     0.048 C 
HETATM    7  C7  UNL     1     -32.114   7.316   1.880  1.00 20.00     0.133 C 
HETATM    8  O9  UNL     1     -31.732   6.024   1.314  1.00 20.00    -0.379 OA
HETATM    9  C8  UNL     1     -33.142   5.696   1.518  1.00 20.00     0.133 C 
ENDBRANCH   3   6
TORSDOF 3
ENDMDL
MODEL 6
REMARK VINA RESULT:       1.1      3.566      4.928
REMARK  3 active torsions:
REMARK  status: ('A' for Active; 'I' for Inactive)
REMARK    1  A    between atoms: C3_3  and  C6_6 
REMARK    2  A    between atoms: C4_4  and  C7_7 
REMARK    3  A    between atoms: C5_5  and  C8_8 
ROOT
HETATM    1  C1  UNL     1     -35.238   7.211   3.326  1.00 20.00     0.012 C 
HETATM    2  C2  UNL     1     -33.164   7.055   2.232  1.00 20.00     0.012 C 
HETATM    3  C3  UNL     1     -34.321   6.164   2.688  1.00 20.00    -0.005 C 
HETATM    4  C4  UNL     1     -34.207   7.595   4.381  1.00 20.00     0.022 C 
HETATM    5  C5  UNL     1     -32.826   7.491   3.653  1.00 20.00     0.022 C 
ENDROOT
BRANCH   3   6
HETATM    6  C6  UNL     1     -33.722   5.440   3.926  1.00 20.00     0.048 C 
HETATM    7  C7  UNL     1     -33.326   4.011   3.456  1.00 20.00     0.133 C 
HETATM    8  O9  UNL     1     -33.918   3.463   4.675  1.00 20.00    -0.379 OA
HETATM    9  C8  UNL     1     -34.863   4.569   4.525  1.00 20.00     0.133 C 
ENDBRANCH   3   6
TORSDOF 3
ENDMDL
MODEL 7
REMARK VINA RESULT:       1.6      0.707      2.049
REMARK  3 active torsions:
REMARK  status: ('A' for Active; 'I' for Inactive)
REMARK    1  A    between atoms: C3_3  and  C6_6 
REMARK    2  A    between atoms: C4_4  and  C7_7 
REMARK    3  A    between atoms: C5_5  and  C8_8 
ROOT
HETATM    1  C1  UNL     1     -32.604   6.699   1.293  1.00 20.00     0.012 C 
HETATM    2  C2  UNL     1     -32.870   8.206   3.075  1.00 20.00     0.012 C 
HETATM    3  C3  UNL     1     -33.197   8.080   1.586  1.00 20.00    -0.005 C 
HETATM    4  C4  UNL     1     -31.188   7.135   1.652  1.00 20.00     0.022 C 
HETATM    5  C5  UNL     1     -31.365   8.139   2.839  1.00 20.00     0.022 C 
ENDROOT
BRANCH   3   6
HETATM    6  C6  UNL     1     -32.162   9.037   0.931  1.00 20.00     0.048 C 
HETATM    7  C7  UNL     1     -32.796  10.458   0.955  1.00 20.00     0.133 C 
HETATM    8  O9  UNL     1     -32.356  10.660  -0.425  1.00 20.00    -0.379 OA
HETATM    9  C8  UNL     1     -32.605   9.224  -0.548  1.00 20.00     0.133 C 
ENDBRANCH   3   6
TORSDOF 3
ENDMDL
MODEL 8
REMARK VINA RESULT:       1.7      2.206      3.581
REMARK  3 active torsions:
REMARK  status: ('A' for Active; 'I' for Inactive)
REMARK    1  A    between atoms: C3_3  and  C6_6 
REMARK    2  A    between atoms: C4_4  and  C7_7 
REMARK    3  A    between atoms: C5_5  and  C8_8 
ROOT
HETATM    1  C1  UNL     1     -31.645   7.422   0.954  1.00 20.00     0.012 C 
HETATM    2  C2  UNL     1     -31.554   8.936   2.748  1.00 20.00     0.012 C 
HETATM    3  C3  UNL     1     -31.928   7.481   2.457  1.00 20.00    -0.005 C 
HETATM    4  C4  UNL     1     -32.693   8.481   0.627  1.00 20.00     0.022 C 
HETATM    5  C5  UNL     1     -32.632   9.489   1.822  1.00 20.00     0.022 C 
ENDROOT
BRANCH   3   6
HETATM    6  C6  UNL     1     -33.481   7.516   2.507  1.00 20.00     0.048 C 
HETATM    7  C7  UNL     1     -33.874   7.619   4.009  1.00 20.00     0.133 C 
HETATM    8  O9  UNL     1     -34.903   6.603   3.794  1.00 20.00    -0.379 OA
HETATM    9  C8  UNL     1     -33.947   6.067   2.826  1.00 20.00     0.133 C 
ENDBRANCH   3   6
TORSDOF 3
ENDMDL
MODEL 9
REMARK VINA RESULT:       2.1      1.828      3.463
REMARK  3 active torsions:
REMARK  status: ('A' for Active; 'I' for Inactive)
REMARK    1  A    between atoms: C3_3  and  C6_6 
REMARK    2  A    between atoms: C4_4  and  C7_7 
REMARK    3  A    between atoms: C5_5  and  C8_8 
ROOT
HETATM    1  C1  UNL     1     -31.105   8.784  -0.107  1.00 20.00     0.012 C 
HETATM    2  C2  UNL     1     -32.117  10.237   1.438  1.00 20.00     0.012 C 
HETATM    3  C3  UNL     1     -31.552   8.817   1.357  1.00 20.00    -0.005 C 
HETATM    4  C4  UNL     1     -32.520   8.994  -0.633  1.00 20.00     0.022 C 
HETATM    5  C5  UNL     1     -33.194   9.960   0.396  1.00 20.00     0.022 C 
ENDROOT
BRANCH   3   6
HETATM    6  C6  UNL     1     -32.837   7.943   1.337  1.00 20.00     0.048 C 
HETATM    7  C7  UNL     1     -33.168   7.608   2.820  1.00 20.00     0.133 C 
HETATM    8  O9  UNL     1     -33.428   6.222   2.432  1.00 20.00    -0.379 OA
HETATM    9  C8  UNL     1     -32.370   6.465   1.452  1.00 20.00     0.133 C 
ENDBRANCH   3   6
TORSDOF 3
ENDMDL
