MODEL 1
REMARK VINA RESULT:      -1.7      0.000      0.000
REMARK  3 active torsions:
REMARK  status: ('A' for Active; 'I' for Inactive)
REMARK    1  A    between atoms: C3_3  and  C8_8 
REMARK    2  A    between atoms: C7_7  and  C8_8 
REMARK    3  A    between atoms: N9_9  and  O10_10 
ROOT
HETATM    1  C1  UNL     1     -33.092   7.217   2.745  1.00 20.00     0.043 C 
HETATM    2  C4  UNL     1     -33.483   8.234   3.777  1.00 20.00     0.057 C 
HETATM    3  C5  UNL     1     -34.359   7.403   4.707  1.00 20.00     0.006 C 
HETATM    4  C6  UNL     1     -34.993   6.350   3.802  1.00 20.00     0.011 C 
HETATM    5  C7  UNL     1     -33.885   5.938   2.828  1.00 20.00     0.039 C 
HETATM    6  N9  UNL     1     -32.179   7.417   1.856  1.00 20.00    -0.145 NA
ENDROOT
BRANCH   5   7
HETATM    7  C8  UNL     1     -33.019   4.804   3.359  1.00 20.00     0.036 C 
BRANCH   7   8
HETATM    8  C3  UNL     1     -33.826   3.833   4.167  1.00 20.00    -0.036 C 
HETATM    9  C2  UNL     1     -33.298   2.826   4.873  1.00 20.00     0.007 C 
ENDBRANCH   7   8
ENDBRANCH   5   7
BRANCH   6  10
HETATM   10  O10 UNL     1     -32.076   6.271   1.065  1.00 20.00    -0.266 OA
HETATM   11  H23 UNL     1     -31.583   6.608   0.298  1.00 20.00     0.247 HD
ENDBRANCH   6  10
TORSDOF 3
ENDMDL
MODEL 2
REMARK VINA RESULT:      -1.4      1.931      4.031
REMARK  3 active torsions:
REMARK  status: ('A' for Active; 'I' for Inactive)
REMARK    1  A    between atoms: C3_3  and  C8_8 
REMARK    2  A    between atoms: C7_7  and  C8_8 
REMARK    3  A    between atoms: N9_9  and  O10_10 
ROOT
HETATM    1  C1  UNL     1     -33.217   6.056   2.602  1.00 20.00     0.043 C 
HETATM    2  C4  UNL     1     -34.312   5.967   3.626  1.00 20.00     0.057 C 
HETATM    3  C5  UNL     1     -34.532   7.436   3.964  1.00 20.00     0.006 C 
HETATM    4  C6  UNL     1     -33.166   8.087   3.765  1.00 20.00     0.011 C 
HETATM    5  C7  UNL     1     -32.581   7.419   2.516  1.00 20.00     0.039 C 
HETATM    6  N9  UNL     1     -32.838   5.060   1.875  1.00 20.00    -0.145 NA
ENDROOT
BRANCH   5   7
HETATM    7  C8  UNL     1     -32.984   8.118   1.225  1.00 20.00     0.036 C 
BRANCH   7   8
HETATM    8  C3  UNL     1     -32.067   9.262   0.916  1.00 20.00    -0.036 C 
HETATM    9  C2  UNL     1     -32.420  10.329   0.188  1.00 20.00     0.007 C 
ENDBRANCH   7   8
ENDBRANCH   5   7
BRANCH   6  10
HETATM   10  O10 UNL     1     -31.808   5.494   1.038  1.00 20.00    -0.266 OA
HETATM   11  H23 UNL     1     -31.039   5.046   1.429  1.00 20.00     0.247 HD
ENDBRANCH   6  10
TORSDOF 3
ENDMDL
MODEL 3
REMARK VINA RESULT:      -1.2      2.297      3.511
REMARK  3 active torsions:
REMARK  status: ('A' for Active; 'I' for Inactive)
REMARK    1  A    between atoms: C3_3  and  C8_8 
REMARK    2  A    between atoms: C7_7  and  C8_8 
REMARK    3  A    between atoms: N9_9  and  O10_10 
ROOT
HETATM    1  C1  UNL     1     -34.257   4.819   4.069  1.00 20.00     0.043 C 
HETATM    2  C4  UNL     1     -35.622   5.324   4.439  1.00 20.00     0.057 C 
HETATM    3  C5  UNL     1     -35.635   6.689   3.763  1.00 20.00     0.006 C 
HETATM    4  C6  UNL     1     -34.177   7.140   3.774  1.00 20.00     0.011 C 
HETATM    5  C7  UNL     1     -33.363   5.878   3.475  1.00 20.00     0.039 C 
HETATM    6  N9  UNL     1     -33.871   3.602   4.255  1.00 20.00    -0.145 NA
ENDROOT
BRANCH   5   7
HETATM    7  C8  UNL     1     -33.165   5.638   1.985  1.00 20.00     0.036 C 
BRANCH   7   8
HETATM    8  C3  UNL     1     -32.008   6.428   1.455  1.00 20.00    -0.036 C 
HETATM    9  C2  UNL     1     -31.897   7.758   1.561  1.00 20.00     0.007 C 
ENDBRANCH   7   8
ENDBRANCH   5   7
BRANCH   6  10
HETATM   10  O10 UNL     1     -32.557   3.483   3.799  1.00 20.00    -0.266 OA
HETATM   11  H23 UNL     1     -32.313   2.605   4.140  1.00 20.00     0.247 HD
ENDBRANCH   6  10
TORSDOF 3
ENDMDL
MODEL 4
REMARK VINA RESULT:      -0.7      2.375      4.381
REMARK  3 active torsions:
REMARK  status: ('A' for Active; 'I' for Inactive)
REMARK    1  A    between atoms: C3_3  and  C8_8 
REMARK    2  A    between atoms: C7_7  and  C8_8 
REMARK    3  A    between atoms: N9_9  and  O10_10 
ROOT
HETATM    1  C1  UNL     1     -33.735   6.381   3.170  1.00 20.00     0.043 C 
HETATM    2  C4  UNL     1     -33.392   4.920   3.220  1.00 20.00     0.057 C 
HETATM    3  C5  UNL     1     -32.429   4.793   2.045  1.00 20.00     0.006 C 
HETATM    4  C6  UNL     1     -32.893   5.854   1.050  1.00 20.00     0.011 C 
HETATM    5  C7  UNL     1     -33.283   7.064   1.905  1.00 20.00     0.039 C 
HETATM    6  N9  UNL     1     -34.373   6.996   4.108  1.00 20.00    -0.145 NA
ENDROOT
BRANCH   5   7
HETATM    7  C8  UNL     1     -32.113   7.994   2.187  1.00 20.00     0.036 C 
BRANCH   7   8
HETATM    8  C3  UNL     1     -31.717   8.760   0.961  1.00 20.00    -0.036 C 
HETATM    9  C2  UNL     1     -32.465   9.721   0.405  1.00 20.00     0.007 C 
ENDBRANCH   7   8
ENDBRANCH   5   7
BRANCH   6  10
HETATM   10  O10 UNL     1     -34.519   8.333   3.736  1.00 20.00    -0.266 OA
HETATM   11  H23 UNL     1     -33.895   8.772   4.339  1.00 20.00     0.247 HD
ENDBRANCH   6  10
TORSDOF 3
ENDMDL
MODEL 5
REMARK VINA RESULT:      -0.6      2.102      2.886
REMARK  3 active torsions:
REMARK  status: ('A' for Active; 'I' for Inactive)
REMARK    1  A    between atoms: C3_3  and  C8_8 
REMARK    2  A    between atoms: C7_7  and  C8_8 
REMARK    3  A    between atoms: N9_9  and  O10_10 
ROOT
HETATM    1  C1  UNL     1     -32.304   7.873   2.927  1.00 20.00     0.043 C 
HETATM    2  C4  UNL     1     -31.873   7.963   1.492  1.00 20.00     0.057 C 
HETATM    3  C5  UNL     1     -32.770   6.919   0.838  1.00 20.00     0.006 C 
HETATM    4  C6  UNL     1     -33.004   5.875   1.927  1.00 20.00     0.011 C 
HETATM    5  C7  UNL     1     -33.170   6.675   3.222  1.00 20.00     0.039 C 
HETATM    6  N9  UNL     1     -31.955   8.723   3.832  1.00 20.00    -0.145 NA
ENDROOT
BRANCH   5   7
HETATM    7  C8  UNL     1     -34.609   7.104   3.475  1.00 20.00     0.036 C 
BRANCH   7   8
HETATM    8  C3  UNL     1     -35.420   5.981   4.048  1.00 20.00    -0.036 C 
HETATM    9  C2  UNL     1     -34.897   4.834   4.499  1.00 20.00     0.007 C 
ENDBRANCH   7   8
ENDBRANCH   5   7
BRANCH   6  10
HETATM   10  O10 UNL     1     -32.530   8.338   5.044  1.00 20.00    -0.266 OA
HETATM   11  H23 UNL     1     -33.229   9.006   5.148  1.00 20.00     0.247 HD
ENDBRANCH   6  10
TORSDOF 3
ENDMDL
MODEL 6
REMARK VINA RESULT:      -0.2      2.524      3.252
REMARK  3 active torsions:
REMARK  status: ('A' for Active; 'I' for Inactive)
REMARK    1  A    between atoms: C3_3  and  C8_8 
REMARK    2  A    between atoms: C7_7  and  C8_8 
REMARK    3  A    between atoms: N9_9  and  O10_10 
ROOT
HETATM    1  C1  UNL     1     -34.386   5.161   3.992  1.00 20.00     0.043 C 
HETATM    2  C4  UNL     1     -35.514   6.061   4.407  1.00 20.00     0.057 C 
HETATM    3  C5  UNL     1     -35.204   7.324   3.613  1.00 20.00     0.006 C 
HETATM    4  C6  UNL     1     -33.683   7.336   3.484  1.00 20.00     0.011 C 
HETATM    5  C7  UNL     1     -33.289   5.875   3.245  1.00 20.00     0.039 C 
HETATM    6  N9  UNL     1     -34.344   3.900   4.260  1.00 20.00    -0.145 NA
ENDROOT
BRANCH   5   7
HETATM    7  C8  UNL     1     -33.303   5.489   1.773  1.00 20.00     0.036 C 
BRANCH   7   8
HETATM    8  C3  UNL     1     -31.920   5.491   1.195  1.00 20.00    -0.036 C 
HETATM    9  C2  UNL     1     -31.426   4.507   0.433  1.00 20.00     0.007 C 
ENDBRANCH   7   8
ENDBRANCH   5   7
BRANCH   6  10
HETATM   10  O10 UNL     1     -33.165   3.377   3.728  1.00 20.00    -0.266 OA
HETATM   11  H23 UNL     1     -32.840   4.126   3.200  1.00 20.00     0.247 HD
ENDBRANCH   6  10
TORSDOF 3
ENDMDL
MODEL 7
REMARK VINA RESULT:       0.2      2.273      4.329
REMARK  3 active torsions:
REMARK  status: ('A' for Active; 'I' for Inactive)
REMARK    1  A    between atoms: C3_3  and  C8_8 
REMARK    2  A    between atoms: C7_7  and  C8_8 
REMARK    3  A    between atoms: N9_9  and  O10_10 
ROOT
HETATM    1  C1  UNL     1     -32.893   6.404   2.235  1.00 20.00     0.043 C 
HETATM    2  C4  UNL     1     -33.586   6.910   3.468  1.00 20.00     0.057 C 
HETATM    3  C5  UNL     1     -32.989   8.305   3.601  1.00 20.00     0.006 C 
HETATM    4  C6  UNL     1     -31.585   8.183   3.013  1.00 20.00     0.011 C 
HETATM    5  C7  UNL     1     -31.738   7.266   1.795  1.00 20.00     0.039 C 
HETATM    6  N9  UNL     1     -33.236   5.325   1.617  1.00 20.00    -0.145 NA
ENDROOT
BRANCH   5   7
HETATM    7  C8  UNL     1     -32.089   8.023   0.522  1.00 20.00     0.036 C 
BRANCH   7   8
HETATM    8  C3  UNL     1     -31.705   9.468   0.624  1.00 20.00    -0.036 C 
HETATM    9  C2  UNL     1     -32.394  10.467   0.058  1.00 20.00     0.007 C 
ENDBRANCH   7   8
ENDBRANCH   5   7
BRANCH   6  10
HETATM   10  O10 UNL     1     -32.386   5.157   0.522  1.00 20.00    -0.266 OA
HETATM   11  H23 UNL     1     -32.124   6.075   0.337  1.00 20.00     0.247 HD
ENDBRANCH   6  10
TORSDOF 3
ENDMDL
MODEL 8
REMARK VINA RESULT:       0.4      1.820      2.264
REMARK  3 active torsions:
REMARK  status: ('A' for Active; 'I' for Inactive)
REMARK    1  A    between atoms: C3_3  and  C8_8 
REMARK    2  A    between atoms: C7_7  and  C8_8 
REMARK    3  A    between atoms: N9_9  and  O10_10 
ROOT
HETATM    1  C1  UNL     1     -32.989   7.796   3.089  1.00 20.00     0.043 C 
HETATM    2  C4  UNL     1     -33.661   7.995   4.417  1.00 20.00     0.057 C 
HETATM    3  C5  UNL     1     -34.575   6.777   4.481  1.00 20.00     0.006 C 
HETATM    4  C6  UNL     1     -34.923   6.479   3.025  1.00 20.00     0.011 C 
HETATM    5  C7  UNL     1     -33.629   6.725   2.243  1.00 20.00     0.039 C 
HETATM    6  N9  UNL     1     -31.972   8.484   2.694  1.00 20.00    -0.145 NA
ENDROOT
BRANCH   5   7
HETATM    7  C8  UNL     1     -32.737   5.495   2.169  1.00 20.00     0.036 C 
BRANCH   7   8
HETATM    8  C3  UNL     1     -32.554   5.038   0.754  1.00 20.00    -0.036 C 
HETATM    9  C2  UNL     1     -31.506   4.323   0.327  1.00 20.00     0.007 C 
ENDBRANCH   7   8
ENDBRANCH   5   7
BRANCH   6  10
HETATM   10  O10 UNL     1     -31.606   8.038   1.423  1.00 20.00    -0.266 OA
HETATM   11  H23 UNL     1     -32.206   8.554   0.856  1.00 20.00     0.247 HD
ENDBRANCH   6  10
TORSDOF 3
ENDMDL
MODEL 9
REMARK VINA RESULT:       0.6      2.119      3.221
REMARK  3 active torsions:
REMARK  status: ('A' for Active; 'I' for Inactive)
REMARK    1  A    between atoms: C3_3  and  C8_8 
REMARK    2  A    between atoms: C7_7  and  C8_8 
REMARK    3  A    between atoms: N9_9  and  O10_10 
ROOT
HETATM    1  C1  UNL     1     -32.078   6.901   1.388  1.00 20.00     0.043 C 
HETATM    2  C4  UNL     1     -31.142   7.868   0.723  1.00 20.00     0.057 C 
HETATM    3  C5  UNL     1     -31.642   9.200   1.268  1.00 20.00     0.006 C 
HETATM    4  C6  UNL     1     -33.136   8.987   1.498  1.00 20.00     0.011 C 
HETATM    5  C7  UNL     1     -33.258   7.564   2.052  1.00 20.00     0.039 C 
HETATM    6  N9  UNL     1     -31.907   5.622   1.381  1.00 20.00    -0.145 NA
ENDROOT
BRANCH   5   7
HETATM    7  C8  UNL     1     -33.125   7.502   3.567  1.00 20.00     0.036 C 
BRANCH   7   8
HETATM    8  C3  UNL     1     -34.463   7.362   4.226  1.00 20.00    -0.036 C 
HETATM    9  C2  UNL     1     -35.293   6.332   4.025  1.00 20.00     0.007 C 
ENDBRANCH   7   8
ENDBRANCH   5   7
BRANCH   6  10
HETATM   10  O10 UNL     1     -32.957   5.034   2.089  1.00 20.00    -0.266 OA
HETATM   11  H23 UNL     1     -32.824   4.092   1.887  1.00 20.00     0.247 HD
ENDBRANCH   6  10
TORSDOF 3
ENDMDL
