MODEL 1
REMARK VINA RESULT:       2.5      0.000      0.000
REMARK  0 active torsions:
REMARK  status: ('A' for Active; 'I' for Inactive)
ROOT
HETATM    1  C1  UNL     1     -33.515   7.631   4.590  1.00 20.00     0.086 C 
HETATM    2  C2  UNL     1     -33.729   6.466   1.057  1.00 20.00     0.017 C 
HETATM    3  C3  UNL     1     -33.050   5.596   3.173  1.00 20.00     0.049 C 
HETATM    4  C4  UNL     1     -32.513   5.801   1.730  1.00 20.00     0.020 C 
HETATM    5  C5  UNL     1     -33.743   7.641   2.063  1.00 20.00     0.055 C 
HETATM    6  C6  UNL     1     -31.490   6.924   1.780  1.00 20.00     0.155 A 
HETATM    7  C7  UNL     1     -32.305   8.155   1.987  1.00 20.00     0.158 A 
HETATM    8  C8  UNL     1     -33.920   6.868   3.405  1.00 20.00     0.132 C 
HETATM    9  N9  UNL     1     -33.194   8.235   5.528  1.00 20.00    -0.195 NA
HETATM   10  O10 UNL     1     -31.571   7.939   0.777  1.00 20.00    -0.374 OA
HETATM   11 CL11 UNL     1     -35.638   6.424   3.658  1.00 20.00    -0.102 Cl
ENDROOT
TORSDOF 0
ENDMDL
MODEL 2
REMARK VINA RESULT:       3.3      2.906      3.743
REMARK  0 active torsions:
REMARK  status: ('A' for Active; 'I' for Inactive)
ROOT
HETATM    1  C1  UNL     1     -32.111   6.294   1.689  1.00 20.00     0.086 C 
HETATM    2  C2  UNL     1     -34.626   8.443   3.404  1.00 20.00     0.017 C 
HETATM    3  C3  UNL     1     -32.339   7.822   3.683  1.00 20.00     0.049 C 
HETATM    4  C4  UNL     1     -33.683   7.836   4.461  1.00 20.00     0.020 C 
HETATM    5  C5  UNL     1     -34.325   7.325   2.378  1.00 20.00     0.055 C 
HETATM    6  C6  UNL     1     -34.163   6.397   4.565  1.00 20.00     0.155 A 
HETATM    7  C7  UNL     1     -34.606   6.055   3.183  1.00 20.00     0.158 A 
HETATM    8  C8  UNL     1     -32.781   7.481   2.228  1.00 20.00     0.132 C 
HETATM    9  N9  UNL     1     -31.580   5.353   1.263  1.00 20.00    -0.195 NA
HETATM   10  O10 UNL     1     -35.537   6.134   4.268  1.00 20.00    -0.374 OA
HETATM   11 CL11 UNL     1     -32.387   8.829   1.113  1.00 20.00    -0.102 Cl
ENDROOT
TORSDOF 0
ENDMDL
MODEL 3
REMARK VINA RESULT:       3.5      1.814      2.517
REMARK  0 active torsions:
REMARK  status: ('A' for Active; 'I' for Inactive)
ROOT
HETATM    1  C1  UNL     1     -34.758   6.575   3.938  1.00 20.00     0.086 C 
HETATM    2  C2  UNL     1     -31.559   7.647   2.355  1.00 20.00     0.017 C 
HETATM    3  C3  UNL     1     -33.842   8.338   2.382  1.00 20.00     0.049 C 
HETATM    4  C4  UNL     1     -32.720   7.941   1.386  1.00 20.00     0.020 C 
HETATM    5  C5  UNL     1     -32.359   6.559   3.109  1.00 20.00     0.055 C 
HETATM    6  C6  UNL     1     -33.065   6.567   0.835  1.00 20.00     0.155 A 
HETATM    7  C7  UNL     1     -32.812   5.639   1.974  1.00 20.00     0.158 A 
HETATM    8  C8  UNL     1     -33.587   7.389   3.591  1.00 20.00     0.132 C 
HETATM    9  N9  UNL     1     -35.684   5.932   4.212  1.00 20.00    -0.195 NA
HETATM   10  O10 UNL     1     -32.020   5.593   0.782  1.00 20.00    -0.374 OA
HETATM   11 CL11 UNL     1     -33.177   8.329   5.062  1.00 20.00    -0.102 Cl
ENDROOT
TORSDOF 0
ENDMDL
MODEL 4
REMARK VINA RESULT:       3.6      2.702      3.486
REMARK  0 active torsions:
REMARK  status: ('A' for Active; 'I' for Inactive)
ROOT
HETATM    1  C1  UNL     1     -32.329   7.995   1.298  1.00 20.00     0.086 C 
HETATM    2  C2  UNL     1     -33.641   5.566   3.801  1.00 20.00     0.017 C 
HETATM    3  C3  UNL     1     -34.313   6.490   1.706  1.00 20.00     0.049 C 
HETATM    4  C4  UNL     1     -34.827   6.314   3.161  1.00 20.00     0.020 C 
HETATM    5  C5  UNL     1     -32.640   6.693   3.454  1.00 20.00     0.055 C 
HETATM    6  C6  UNL     1     -34.776   7.678   3.830  1.00 20.00     0.155 A 
HETATM    7  C7  UNL     1     -33.322   7.930   4.042  1.00 20.00     0.158 A 
HETATM    8  C8  UNL     1     -32.787   6.740   1.903  1.00 20.00     0.132 C 
HETATM    9  N9  UNL     1     -31.968   8.989   0.820  1.00 20.00    -0.195 NA
HETATM   10  O10 UNL     1     -34.217   7.750   5.144  1.00 20.00    -0.374 OA
HETATM   11 CL11 UNL     1     -31.827   5.435   1.137  1.00 20.00    -0.102 Cl
ENDROOT
TORSDOF 0
ENDMDL
MODEL 5
REMARK VINA RESULT:       3.7      3.039      3.741
REMARK  0 active torsions:
REMARK  status: ('A' for Active; 'I' for Inactive)
ROOT
HETATM    1  C1  UNL     1     -32.606   9.799   0.628  1.00 20.00     0.086 C 
HETATM    2  C2  UNL     1     -31.673   6.452   1.976  1.00 20.00     0.017 C 
HETATM    3  C3  UNL     1     -33.139   7.351   0.321  1.00 20.00     0.049 C 
HETATM    4  C4  UNL     1     -33.160   6.432   1.572  1.00 20.00     0.020 C 
HETATM    5  C5  UNL     1     -31.655   7.991   2.133  1.00 20.00     0.055 C 
HETATM    6  C6  UNL     1     -33.832   7.206   2.695  1.00 20.00     0.155 A 
HETATM    7  C7  UNL     1     -32.828   8.237   3.084  1.00 20.00     0.158 A 
HETATM    8  C8  UNL     1     -32.081   8.431   0.700  1.00 20.00     0.132 C 
HETATM    9  N9  UNL     1     -33.023  10.880   0.571  1.00 20.00    -0.195 NA
HETATM   10  O10 UNL     1     -33.206   7.187   3.980  1.00 20.00    -0.374 OA
HETATM   11 CL11 UNL     1     -30.683   8.371  -0.421  1.00 20.00    -0.102 Cl
ENDROOT
TORSDOF 0
ENDMDL
MODEL 6
REMARK VINA RESULT:       4.4      2.428      3.012
REMARK  0 active torsions:
REMARK  status: ('A' for Active; 'I' for Inactive)
ROOT
HETATM    1  C1  UNL     1     -33.436   4.554   3.107  1.00 20.00     0.086 C 
HETATM    2  C2  UNL     1     -33.433   8.025   1.749  1.00 20.00     0.017 C 
HETATM    3  C3  UNL     1     -31.841   6.335   2.300  1.00 20.00     0.049 C 
HETATM    4  C4  UNL     1     -32.168   7.822   2.606  1.00 20.00     0.020 C 
HETATM    5  C5  UNL     1     -34.199   6.889   2.468  1.00 20.00     0.055 C 
HETATM    6  C6  UNL     1     -32.701   7.887   4.028  1.00 20.00     0.155 A 
HETATM    7  C7  UNL     1     -34.061   7.281   3.940  1.00 20.00     0.158 A 
HETATM    8  C8  UNL     1     -33.252   5.683   2.189  1.00 20.00     0.132 C 
HETATM    9  N9  UNL     1     -33.582   3.662   3.835  1.00 20.00    -0.195 NA
HETATM   10  O10 UNL     1     -33.878   8.665   4.259  1.00 20.00    -0.374 OA
HETATM   11 CL11 UNL     1     -33.523   5.035   0.539  1.00 20.00    -0.102 Cl
ENDROOT
TORSDOF 0
ENDMDL
MODEL 7
REMARK VINA RESULT:       4.5      2.612      3.168
REMARK  0 active torsions:
REMARK  status: ('A' for Active; 'I' for Inactive)
ROOT
HETATM    1  C1  UNL     1     -32.342   8.878   0.975  1.00 20.00     0.086 C 
HETATM    2  C2  UNL     1     -32.928   5.631   2.707  1.00 20.00     0.017 C 
HETATM    3  C3  UNL     1     -31.094   6.833   1.766  1.00 20.00     0.049 C 
HETATM    4  C4  UNL     1     -31.797   5.451   1.677  1.00 20.00     0.020 C 
HETATM    5  C5  UNL     1     -33.513   6.858   1.969  1.00 20.00     0.055 C 
HETATM    6  C6  UNL     1     -32.541   5.404   0.352  1.00 20.00     0.155 A 
HETATM    7  C7  UNL     1     -33.695   6.328   0.545  1.00 20.00     0.158 A 
HETATM    8  C8  UNL     1     -32.284   7.816   1.984  1.00 20.00     0.132 C 
HETATM    9  N9  UNL     1     -32.388   9.718   0.175  1.00 20.00    -0.195 NA
HETATM   10  O10 UNL     1     -33.887   4.920   0.366  1.00 20.00    -0.374 OA
HETATM   11 CL11 UNL     1     -32.144   8.639   3.571  1.00 20.00    -0.102 Cl
ENDROOT
TORSDOF 0
ENDMDL
MODEL 8
REMARK VINA RESULT:       4.7      2.263      2.945
REMARK  0 active torsions:
REMARK  status: ('A' for Active; 'I' for Inactive)
ROOT
HETATM    1  C1  UNL     1     -33.425   7.437   2.877  1.00 20.00     0.086 C 
HETATM    2  C2  UNL     1     -31.500   8.249  -0.209  1.00 20.00     0.017 C 
HETATM    3  C3  UNL     1     -31.147   8.243   2.150  1.00 20.00     0.049 C 
HETATM    4  C4  UNL     1     -31.048   9.190   0.924  1.00 20.00     0.020 C 
HETATM    5  C5  UNL     1     -32.867   7.971   0.459  1.00 20.00     0.055 C 
HETATM    6  C6  UNL     1     -32.194  10.185   1.023  1.00 20.00     0.155 A 
HETATM    7  C7  UNL     1     -33.408   9.381   0.700  1.00 20.00     0.158 A 
HETATM    8  C8  UNL     1     -32.404   7.381   1.825  1.00 20.00     0.132 C 
HETATM    9  N9  UNL     1     -34.233   7.483   3.708  1.00 20.00    -0.195 NA
HETATM   10  O10 UNL     1     -32.958  10.435  -0.159  1.00 20.00    -0.374 OA
HETATM   11 CL11 UNL     1     -31.959   5.653   1.650  1.00 20.00    -0.102 Cl
ENDROOT
TORSDOF 0
ENDMDL
MODEL 9
REMARK VINA RESULT:       4.8      2.704      3.484
REMARK  0 active torsions:
REMARK  status: ('A' for Active; 'I' for Inactive)
ROOT
HETATM    1  C1  UNL     1     -33.492   5.905   0.479  1.00 20.00     0.086 C 
HETATM    2  C2  UNL     1     -31.094   8.147   2.243  1.00 20.00     0.017 C 
HETATM    3  C3  UNL     1     -33.166   7.056   2.701  1.00 20.00     0.049 C 
HETATM    4  C4  UNL     1     -32.523   8.470   2.720  1.00 20.00     0.020 C 
HETATM    5  C5  UNL     1     -31.591   7.529   0.915  1.00 20.00     0.055 C 
HETATM    6  C6  UNL     1     -33.107   9.251   1.553  1.00 20.00     0.155 A 
HETATM    7  C7  UNL     1     -32.478   8.639   0.348  1.00 20.00     0.158 A 
HETATM    8  C8  UNL     1     -32.509   6.391   1.454  1.00 20.00     0.132 C 
HETATM    9  N9  UNL     1     -34.270   5.521  -0.291  1.00 20.00    -0.195 NA
HETATM   10  O10 UNL     1     -32.201   9.990   0.732  1.00 20.00    -0.374 OA
HETATM   11 CL11 UNL     1     -31.534   4.966   1.935  1.00 20.00    -0.102 Cl
ENDROOT
TORSDOF 0
ENDMDL
