MODEL 1
REMARK VINA RESULT:      -3.0      0.000      0.000
REMARK  3 active torsions:
REMARK  status: ('A' for Active; 'I' for Inactive)
REMARK    1  A    between atoms: C3_3  and  C5_5 
REMARK    2  A    between atoms: C4_4  and  C6_6 
REMARK    3  A    between atoms: C5_5  and  C6_6 
ROOT
HETATM    1  C1  UNL     1     -34.449   5.067   4.089  1.00 20.00     0.087 C 
HETATM    2  C3  UNL     1     -34.752   6.434   3.841  1.00 20.00     0.093 C 
HETATM    3  N7  UNL     1     -34.206   3.951   4.291  1.00 20.00    -0.192 NA
ENDROOT
BRANCH   2   4
HETATM    4  C5  UNL     1     -33.813   7.295   3.426  1.00 20.00     0.011 C 
BRANCH   4   5
HETATM    5  C6  UNL     1     -32.968   7.047   2.280  1.00 20.00     0.011 C 
BRANCH   5   6
HETATM    6  C4  UNL     1     -31.996   7.886   1.894  1.00 20.00     0.093 C 
HETATM    7  C2  UNL     1     -32.252   8.956   0.994  1.00 20.00     0.087 C 
HETATM    8  N8  UNL     1     -32.458   9.829   0.260  1.00 20.00    -0.192 NA
ENDBRANCH   5   6
ENDBRANCH   4   5
ENDBRANCH   2   4
TORSDOF 3
ENDMDL
MODEL 2
REMARK VINA RESULT:      -3.0      0.058      4.965
REMARK  3 active torsions:
REMARK  status: ('A' for Active; 'I' for Inactive)
REMARK    1  A    between atoms: C3_3  and  C5_5 
REMARK    2  A    between atoms: C4_4  and  C6_6 
REMARK    3  A    between atoms: C5_5  and  C6_6 
ROOT
HETATM    1  C1  UNL     1     -32.227   8.940   0.988  1.00 20.00     0.087 C 
HETATM    2  C3  UNL     1     -31.987   7.823   1.835  1.00 20.00     0.093 C 
HETATM    3  N7  UNL     1     -32.418   9.851   0.297  1.00 20.00    -0.192 NA
ENDROOT
BRANCH   2   4
HETATM    4  C5  UNL     1     -32.986   7.031   2.248  1.00 20.00     0.011 C 
BRANCH   4   5
HETATM    5  C6  UNL     1     -33.794   7.325   3.412  1.00 20.00     0.011 C 
BRANCH   5   6
HETATM    6  C4  UNL     1     -34.737   6.492   3.875  1.00 20.00     0.093 C 
HETATM    7  C2  UNL     1     -34.470   5.111   4.083  1.00 20.00     0.087 C 
HETATM    8  N8  UNL     1     -34.256   3.984   4.253  1.00 20.00    -0.192 NA
ENDBRANCH   5   6
ENDBRANCH   4   5
ENDBRANCH   2   4
TORSDOF 3
ENDMDL
MODEL 3
REMARK VINA RESULT:      -2.7      1.905      2.149
REMARK  3 active torsions:
REMARK  status: ('A' for Active; 'I' for Inactive)
REMARK    1  A    between atoms: C3_3  and  C5_5 
REMARK    2  A    between atoms: C4_4  and  C6_6 
REMARK    3  A    between atoms: C5_5  and  C6_6 
ROOT
HETATM    1  C1  UNL     1     -34.453   4.410   4.349  1.00 20.00     0.087 C 
HETATM    2  C3  UNL     1     -35.340   5.517   4.433  1.00 20.00     0.093 C 
HETATM    3  N7  UNL     1     -33.732   3.503   4.282  1.00 20.00    -0.192 NA
ENDROOT
BRANCH   2   4
HETATM    4  C5  UNL     1     -35.117   6.646   3.746  1.00 20.00     0.011 C 
BRANCH   4   5
HETATM    5  C6  UNL     1     -33.868   7.373   3.810  1.00 20.00     0.011 C 
BRANCH   5   6
HETATM    6  C4  UNL     1     -33.050   7.512   2.757  1.00 20.00     0.093 C 
HETATM    7  C2  UNL     1     -32.737   6.415   1.910  1.00 20.00     0.087 C 
HETATM    8  N8  UNL     1     -32.478   5.521   1.217  1.00 20.00    -0.192 NA
ENDBRANCH   5   6
ENDBRANCH   4   5
ENDBRANCH   2   4
TORSDOF 3
ENDMDL
MODEL 4
REMARK VINA RESULT:      -2.7      1.907      4.391
REMARK  3 active torsions:
REMARK  status: ('A' for Active; 'I' for Inactive)
REMARK    1  A    between atoms: C3_3  and  C5_5 
REMARK    2  A    between atoms: C4_4  and  C6_6 
REMARK    3  A    between atoms: C5_5  and  C6_6 
ROOT
HETATM    1  C1  UNL     1     -32.692   6.351   1.844  1.00 20.00     0.087 C 
HETATM    2  C3  UNL     1     -33.064   7.472   2.635  1.00 20.00     0.093 C 
HETATM    3  N7  UNL     1     -32.386   5.439   1.195  1.00 20.00    -0.192 NA
ENDROOT
BRANCH   2   4
HETATM    4  C5  UNL     1     -33.818   7.333   3.733  1.00 20.00     0.011 C 
BRANCH   4   5
HETATM    5  C6  UNL     1     -35.092   6.648   3.733  1.00 20.00     0.011 C 
BRANCH   5   6
HETATM    6  C4  UNL     1     -35.313   5.518   4.420  1.00 20.00     0.093 C 
HETATM    7  C2  UNL     1     -34.435   4.405   4.321  1.00 20.00     0.087 C 
HETATM    8  N8  UNL     1     -33.721   3.495   4.242  1.00 20.00    -0.192 NA
ENDBRANCH   5   6
ENDBRANCH   4   5
ENDBRANCH   2   4
TORSDOF 3
ENDMDL
MODEL 5
REMARK VINA RESULT:      -2.7      1.587      2.361
REMARK  3 active torsions:
REMARK  status: ('A' for Active; 'I' for Inactive)
REMARK    1  A    between atoms: C3_3  and  C5_5 
REMARK    2  A    between atoms: C4_4  and  C6_6 
REMARK    3  A    between atoms: C5_5  and  C6_6 
ROOT
HETATM    1  C1  UNL     1     -33.523   3.477   4.500  1.00 20.00     0.087 C 
HETATM    2  C3  UNL     1     -34.272   4.400   3.721  1.00 20.00     0.093 C 
HETATM    3  N7  UNL     1     -32.910   2.722   5.132  1.00 20.00    -0.192 NA
ENDROOT
BRANCH   2   4
HETATM    4  C5  UNL     1     -34.984   5.381   4.291  1.00 20.00     0.011 C 
BRANCH   4   5
HETATM    5  C6  UNL     1     -34.966   6.747   3.815  1.00 20.00     0.011 C 
BRANCH   5   6
HETATM    6  C4  UNL     1     -33.895   7.546   3.928  1.00 20.00     0.093 C 
HETATM    7  C2  UNL     1     -32.967   7.700   2.863  1.00 20.00     0.087 C 
HETATM    8  N8  UNL     1     -32.207   7.827   1.996  1.00 20.00    -0.192 NA
ENDBRANCH   5   6
ENDBRANCH   4   5
ENDBRANCH   2   4
TORSDOF 3
ENDMDL
MODEL 6
REMARK VINA RESULT:      -2.6      0.708      1.128
REMARK  3 active torsions:
REMARK  status: ('A' for Active; 'I' for Inactive)
REMARK    1  A    between atoms: C3_3  and  C5_5 
REMARK    2  A    between atoms: C4_4  and  C6_6 
REMARK    3  A    between atoms: C5_5  and  C6_6 
ROOT
HETATM    1  C1  UNL     1     -34.452   4.473   4.315  1.00 20.00     0.087 C 
HETATM    2  C3  UNL     1     -35.262   5.640   4.366  1.00 20.00     0.093 C 
HETATM    3  N7  UNL     1     -33.793   3.519   4.275  1.00 20.00    -0.192 NA
ENDROOT
BRANCH   2   4
HETATM    4  C5  UNL     1     -34.956   6.736   3.660  1.00 20.00     0.011 C 
BRANCH   4   5
HETATM    5  C6  UNL     1     -33.608   7.250   3.548  1.00 20.00     0.011 C 
BRANCH   5   6
HETATM    6  C4  UNL     1     -32.829   7.027   2.480  1.00 20.00     0.093 C 
HETATM    7  C2  UNL     1     -32.360   8.095   1.667  1.00 20.00     0.087 C 
HETATM    8  N8  UNL     1     -31.975   8.963   1.002  1.00 20.00    -0.192 NA
ENDBRANCH   5   6
ENDBRANCH   4   5
ENDBRANCH   2   4
TORSDOF 3
ENDMDL
MODEL 7
REMARK VINA RESULT:      -2.5      0.939      4.959
REMARK  3 active torsions:
REMARK  status: ('A' for Active; 'I' for Inactive)
REMARK    1  A    between atoms: C3_3  and  C5_5 
REMARK    2  A    between atoms: C4_4  and  C6_6 
REMARK    3  A    between atoms: C5_5  and  C6_6 
ROOT
HETATM    1  C1  UNL     1     -32.433   9.335   0.411  1.00 20.00     0.087 C 
HETATM    2  C3  UNL     1     -32.025   8.626   1.574  1.00 20.00     0.093 C 
HETATM    3  N7  UNL     1     -32.764   9.917  -0.536  1.00 20.00    -0.192 NA
ENDROOT
BRANCH   2   4
HETATM    4  C5  UNL     1     -32.034   7.287   1.616  1.00 20.00     0.011 C 
BRANCH   4   5
HETATM    5  C6  UNL     1     -33.137   6.523   2.155  1.00 20.00     0.011 C 
BRANCH   5   6
HETATM    6  C4  UNL     1     -33.864   6.932   3.205  1.00 20.00     0.093 C 
HETATM    7  C2  UNL     1     -34.761   6.055   3.873  1.00 20.00     0.087 C 
HETATM    8  N8  UNL     1     -35.495   5.343   4.420  1.00 20.00    -0.192 NA
ENDBRANCH   5   6
ENDBRANCH   4   5
ENDBRANCH   2   4
TORSDOF 3
ENDMDL
MODEL 8
REMARK VINA RESULT:      -2.4      1.345      1.762
REMARK  3 active torsions:
REMARK  status: ('A' for Active; 'I' for Inactive)
REMARK    1  A    between atoms: C3_3  and  C5_5 
REMARK    2  A    between atoms: C4_4  and  C6_6 
REMARK    3  A    between atoms: C5_5  and  C6_6 
ROOT
HETATM    1  C1  UNL     1     -34.222   6.223   3.297  1.00 20.00     0.087 C 
HETATM    2  C3  UNL     1     -33.368   5.651   2.316  1.00 20.00     0.093 C 
HETATM    3  N7  UNL     1     -34.921   6.686   4.099  1.00 20.00    -0.192 NA
ENDROOT
BRANCH   2   4
HETATM    4  C5  UNL     1     -32.451   6.385   1.672  1.00 20.00     0.011 C 
BRANCH   4   5
HETATM    5  C6  UNL     1     -32.247   7.794   1.930  1.00 20.00     0.011 C 
BRANCH   5   6
HETATM    6  C4  UNL     1     -31.610   8.607   1.076  1.00 20.00     0.093 C 
HETATM    7  C2  UNL     1     -32.309   9.593   0.327  1.00 20.00     0.087 C 
HETATM    8  N8  UNL     1     -32.876  10.398  -0.286  1.00 20.00    -0.192 NA
ENDBRANCH   5   6
ENDBRANCH   4   5
ENDBRANCH   2   4
TORSDOF 3
ENDMDL
MODEL 9
REMARK VINA RESULT:      -2.1      1.961      2.144
REMARK  3 active torsions:
REMARK  status: ('A' for Active; 'I' for Inactive)
REMARK    1  A    between atoms: C3_3  and  C5_5 
REMARK    2  A    between atoms: C4_4  and  C6_6 
REMARK    3  A    between atoms: C5_5  and  C6_6 
ROOT
HETATM    1  C1  UNL     1     -35.014   6.042   4.172  1.00 20.00     0.087 C 
HETATM    2  C3  UNL     1     -34.560   7.346   3.834  1.00 20.00     0.093 C 
HETATM    3  N7  UNL     1     -35.389   4.979   4.447  1.00 20.00    -0.192 NA
ENDROOT
BRANCH   2   4
HETATM    4  C5  UNL     1     -33.260   7.665   3.870  1.00 20.00     0.011 C 
BRANCH   4   5
HETATM    5  C6  UNL     1     -32.587   8.353   2.790  1.00 20.00     0.011 C 
BRANCH   5   6
HETATM    6  C4  UNL     1     -32.031   7.713   1.751  1.00 20.00     0.093 C 
HETATM    7  C2  UNL     1     -32.299   6.342   1.494  1.00 20.00     0.087 C 
HETATM    8  N8  UNL     1     -32.516   5.222   1.281  1.00 20.00    -0.192 NA
ENDBRANCH   5   6
ENDBRANCH   4   5
ENDBRANCH   2   4
TORSDOF 3
ENDMDL
