MODEL 1
REMARK VINA RESULT:      -2.2      0.000      0.000
REMARK  3 active torsions:
REMARK  status: ('A' for Active; 'I' for Inactive)
REMARK    1  A    between atoms: C2_2  and  C7_7 
REMARK    2  A    between atoms: C3_3  and  C8_8 
REMARK    3  A    between atoms: C8_8  and  C9_9 
ROOT
HETATM    1  C1  UNL     1     -32.909   5.878   1.410  1.00 20.00     0.095 C 
HETATM    2  C2  UNL     1     -32.928   6.908   2.407  1.00 20.00     0.024 C 
HETATM    3  C3  UNL     1     -33.852   6.885   3.400  1.00 20.00    -0.067 C 
HETATM    4  C4  UNL     1     -33.945   7.930   4.491  1.00 20.00     0.044 C 
HETATM    5  N10 UNL     1     -32.881   5.050   0.596  1.00 20.00    -0.192 NA
ENDROOT
BRANCH   2   6
HETATM    6  C7  UNL     1     -31.897   8.009   2.239  1.00 20.00     0.046 C 
HETATM    7  C5  UNL     1     -32.148   8.843   0.988  1.00 20.00     0.011 C 
ENDBRANCH   2   6
BRANCH   3   8
HETATM    8  C8  UNL     1     -34.931   5.819   3.507  1.00 20.00     0.034 C 
BRANCH   8   9
HETATM    9  C9  UNL     1     -34.646   4.820   4.632  1.00 20.00    -0.000 C 
HETATM   10  C6  UNL     1     -33.731   3.700   4.160  1.00 20.00     0.005 C 
ENDBRANCH   8   9
ENDBRANCH   3   8
TORSDOF 3
ENDMDL
MODEL 2
REMARK VINA RESULT:      -1.9      1.902      4.719
REMARK  3 active torsions:
REMARK  status: ('A' for Active; 'I' for Inactive)
REMARK    1  A    between atoms: C2_2  and  C7_7 
REMARK    2  A    between atoms: C3_3  and  C8_8 
REMARK    3  A    between atoms: C8_8  and  C9_9 
ROOT
HETATM    1  C1  UNL     1     -33.825   7.593   4.354  1.00 20.00     0.095 C 
HETATM    2  C2  UNL     1     -33.738   6.584   3.339  1.00 20.00     0.024 C 
HETATM    3  C3  UNL     1     -32.910   6.747   2.278  1.00 20.00    -0.067 C 
HETATM    4  C4  UNL     1     -32.756   5.735   1.163  1.00 20.00     0.044 C 
HETATM    5  N10 UNL     1     -33.905   8.402   5.184  1.00 20.00    -0.192 NA
ENDROOT
BRANCH   2   6
HETATM    6  C7  UNL     1     -34.651   5.385   3.521  1.00 20.00     0.046 C 
HETATM    7  C5  UNL     1     -33.934   4.213   4.179  1.00 20.00     0.011 C 
ENDBRANCH   2   6
BRANCH   3   8
HETATM    8  C8  UNL     1     -32.063   7.992   2.068  1.00 20.00     0.034 C 
BRANCH   8   9
HETATM    9  C9  UNL     1     -32.023   8.424   0.600  1.00 20.00    -0.000 C 
HETATM   10  C6  UNL     1     -32.430   9.880   0.438  1.00 20.00     0.005 C 
ENDBRANCH   8   9
ENDBRANCH   3   8
TORSDOF 3
ENDMDL
MODEL 3
REMARK VINA RESULT:      -1.4      0.728      3.955
REMARK  3 active torsions:
REMARK  status: ('A' for Active; 'I' for Inactive)
REMARK    1  A    between atoms: C2_2  and  C7_7 
REMARK    2  A    between atoms: C3_3  and  C8_8 
REMARK    3  A    between atoms: C8_8  and  C9_9 
ROOT
HETATM    1  C1  UNL     1     -32.857   5.523   1.714  1.00 20.00     0.095 C 
HETATM    2  C2  UNL     1     -33.470   6.191   2.825  1.00 20.00     0.024 C 
HETATM    3  C3  UNL     1     -33.144   7.475   3.119  1.00 20.00    -0.067 C 
HETATM    4  C4  UNL     1     -33.741   8.255   4.271  1.00 20.00     0.044 C 
HETATM    5  N10 UNL     1     -32.369   4.970   0.818  1.00 20.00    -0.192 NA
ENDROOT
BRANCH   2   6
HETATM    6  C7  UNL     1     -34.441   5.359   3.642  1.00 20.00     0.046 C 
HETATM    7  C5  UNL     1     -33.840   4.024   4.062  1.00 20.00     0.011 C 
ENDBRANCH   2   6
BRANCH   3   8
HETATM    8  C8  UNL     1     -32.107   8.269   2.340  1.00 20.00     0.034 C 
BRANCH   8   9
HETATM    9  C9  UNL     1     -32.583   8.610   0.926  1.00 20.00    -0.000 C 
HETATM   10  C6  UNL     1     -32.418  10.092   0.627  1.00 20.00     0.005 C 
ENDBRANCH   8   9
ENDBRANCH   3   8
TORSDOF 3
ENDMDL
MODEL 4
REMARK VINA RESULT:      -0.9      1.915      2.624
REMARK  3 active torsions:
REMARK  status: ('A' for Active; 'I' for Inactive)
REMARK    1  A    between atoms: C2_2  and  C7_7 
REMARK    2  A    between atoms: C3_3  and  C8_8 
REMARK    3  A    between atoms: C8_8  and  C9_9 
ROOT
HETATM    1  C1  UNL     1     -33.353   7.832   3.839  1.00 20.00     0.095 C 
HETATM    2  C2  UNL     1     -32.832   7.160   2.686  1.00 20.00     0.024 C 
HETATM    3  C3  UNL     1     -33.168   5.870   2.432  1.00 20.00    -0.067 C 
HETATM    4  C4  UNL     1     -32.665   5.084   1.240  1.00 20.00     0.044 C 
HETATM    5  N10 UNL     1     -33.767   8.390   4.770  1.00 20.00    -0.192 NA
ENDROOT
BRANCH   2   6
HETATM    6  C7  UNL     1     -31.872   7.965   1.829  1.00 20.00     0.046 C 
HETATM    7  C5  UNL     1     -32.586   9.046   1.028  1.00 20.00     0.011 C 
ENDBRANCH   2   6
BRANCH   3   8
HETATM    8  C8  UNL     1     -34.066   5.050   3.345  1.00 20.00     0.034 C 
BRANCH   8   9
HETATM    9  C9  UNL     1     -33.581   3.605   3.487  1.00 20.00    -0.000 C 
HETATM   10  C6  UNL     1     -33.261   3.267   4.935  1.00 20.00     0.005 C 
ENDBRANCH   8   9
ENDBRANCH   3   8
TORSDOF 3
ENDMDL
MODEL 5
REMARK VINA RESULT:      -0.6      1.075      1.161
REMARK  3 active torsions:
REMARK  status: ('A' for Active; 'I' for Inactive)
REMARK    1  A    between atoms: C2_2  and  C7_7 
REMARK    2  A    between atoms: C3_3  and  C8_8 
REMARK    3  A    between atoms: C8_8  and  C9_9 
ROOT
HETATM    1  C1  UNL     1     -32.055   5.993   1.173  1.00 20.00     0.095 C 
HETATM    2  C2  UNL     1     -32.365   7.137   1.979  1.00 20.00     0.024 C 
HETATM    3  C3  UNL     1     -33.295   7.054   2.962  1.00 20.00    -0.067 C 
HETATM    4  C4  UNL     1     -33.683   8.210   3.859  1.00 20.00     0.044 C 
HETATM    5  N10 UNL     1     -31.795   5.074   0.512  1.00 20.00    -0.192 NA
ENDROOT
BRANCH   2   6
HETATM    6  C7  UNL     1     -31.626   8.415   1.622  1.00 20.00     0.046 C 
HETATM    7  C5  UNL     1     -32.379   9.244   0.589  1.00 20.00     0.011 C 
ENDBRANCH   2   6
BRANCH   3   8
HETATM    8  C8  UNL     1     -34.086   5.789   3.252  1.00 20.00     0.034 C 
BRANCH   8   9
HETATM    9  C9  UNL     1     -35.326   6.065   4.108  1.00 20.00    -0.000 C 
HETATM   10  C6  UNL     1     -35.641   4.892   5.024  1.00 20.00     0.005 C 
ENDBRANCH   8   9
ENDBRANCH   3   8
TORSDOF 3
ENDMDL
MODEL 6
REMARK VINA RESULT:      -0.6      1.785      3.524
REMARK  3 active torsions:
REMARK  status: ('A' for Active; 'I' for Inactive)
REMARK    1  A    between atoms: C2_2  and  C7_7 
REMARK    2  A    between atoms: C3_3  and  C8_8 
REMARK    3  A    between atoms: C8_8  and  C9_9 
ROOT
HETATM    1  C1  UNL     1     -34.747   5.867   3.957  1.00 20.00     0.095 C 
HETATM    2  C2  UNL     1     -33.970   6.973   3.480  1.00 20.00     0.024 C 
HETATM    3  C3  UNL     1     -33.165   6.832   2.397  1.00 20.00    -0.067 C 
HETATM    4  C4  UNL     1     -32.312   7.945   1.827  1.00 20.00     0.044 C 
HETATM    5  N10 UNL     1     -35.382   4.979   4.354  1.00 20.00    -0.192 NA
ENDROOT
BRANCH   2   6
HETATM    6  C7  UNL     1     -34.082   8.254   4.286  1.00 20.00     0.046 C 
HETATM    7  C5  UNL     1     -33.052   8.320   5.406  1.00 20.00     0.011 C 
ENDBRANCH   2   6
BRANCH   3   8
HETATM    8  C8  UNL     1     -33.000   5.518   1.650  1.00 20.00     0.034 C 
BRANCH   8   9
HETATM    9  C9  UNL     1     -31.588   5.348   1.083  1.00 20.00    -0.000 C 
HETATM   10  C6  UNL     1     -31.510   4.163   0.134  1.00 20.00     0.005 C 
ENDBRANCH   8   9
ENDBRANCH   3   8
TORSDOF 3
ENDMDL
MODEL 7
REMARK VINA RESULT:      -0.5      2.050      2.842
REMARK  3 active torsions:
REMARK  status: ('A' for Active; 'I' for Inactive)
REMARK    1  A    between atoms: C2_2  and  C7_7 
REMARK    2  A    between atoms: C3_3  and  C8_8 
REMARK    3  A    between atoms: C8_8  and  C9_9 
ROOT
HETATM    1  C1  UNL     1     -31.980   8.399   3.040  1.00 20.00     0.095 C 
HETATM    2  C2  UNL     1     -32.235   7.702   1.814  1.00 20.00     0.024 C 
HETATM    3  C3  UNL     1     -32.884   6.511   1.823  1.00 20.00    -0.067 C 
HETATM    4  C4  UNL     1     -33.194   5.708   0.578  1.00 20.00     0.044 C 
HETATM    5  N10 UNL     1     -31.767   8.975   4.026  1.00 20.00    -0.192 NA
ENDROOT
BRANCH   2   6
HETATM    6  C7  UNL     1     -31.697   8.359   0.557  1.00 20.00     0.046 C 
HETATM    7  C5  UNL     1     -32.373   9.694   0.273  1.00 20.00     0.011 C 
ENDBRANCH   2   6
BRANCH   3   8
HETATM    8  C8  UNL     1     -33.344   5.825   3.099  1.00 20.00     0.034 C 
BRANCH   8   9
HETATM    9  C9  UNL     1     -34.615   6.459   3.671  1.00 20.00    -0.000 C 
HETATM   10  C6  UNL     1     -35.450   5.441   4.432  1.00 20.00     0.005 C 
ENDBRANCH   8   9
ENDBRANCH   3   8
TORSDOF 3
ENDMDL
MODEL 8
REMARK VINA RESULT:      -0.2      1.612      3.063
REMARK  3 active torsions:
REMARK  status: ('A' for Active; 'I' for Inactive)
REMARK    1  A    between atoms: C2_2  and  C7_7 
REMARK    2  A    between atoms: C3_3  and  C8_8 
REMARK    3  A    between atoms: C8_8  and  C9_9 
ROOT
HETATM    1  C1  UNL     1     -32.386   7.786   1.521  1.00 20.00     0.095 C 
HETATM    2  C2  UNL     1     -32.703   6.479   2.017  1.00 20.00     0.024 C 
HETATM    3  C3  UNL     1     -33.664   6.316   2.960  1.00 20.00    -0.067 C 
HETATM    4  C4  UNL     1     -34.063   4.975   3.538  1.00 20.00     0.044 C 
HETATM    5  N10 UNL     1     -32.118   8.838   1.110  1.00 20.00    -0.192 NA
ENDROOT
BRANCH   2   6
HETATM    6  C7  UNL     1     -31.872   5.340   1.455  1.00 20.00     0.046 C 
HETATM    7  C5  UNL     1     -32.589   4.610   0.326  1.00 20.00     0.011 C 
ENDBRANCH   2   6
BRANCH   3   8
HETATM    8  C8  UNL     1     -34.431   7.477   3.574  1.00 20.00     0.034 C 
BRANCH   8   9
HETATM    9  C9  UNL     1     -33.952   7.801   4.991  1.00 20.00    -0.000 C 
HETATM   10  C6  UNL     1     -32.620   8.535   4.973  1.00 20.00     0.005 C 
ENDBRANCH   8   9
ENDBRANCH   3   8
TORSDOF 3
ENDMDL
MODEL 9
REMARK VINA RESULT:      -0.2      1.406      2.463
REMARK  3 active torsions:
REMARK  status: ('A' for Active; 'I' for Inactive)
REMARK    1  A    between atoms: C2_2  and  C7_7 
REMARK    2  A    between atoms: C3_3  and  C8_8 
REMARK    3  A    between atoms: C8_8  and  C9_9 
ROOT
HETATM    1  C1  UNL     1     -32.824   6.337   2.307  1.00 20.00     0.095 C 
HETATM    2  C2  UNL     1     -33.850   6.320   3.308  1.00 20.00     0.024 C 
HETATM    3  C3  UNL     1     -34.292   5.144   3.819  1.00 20.00    -0.067 C 
HETATM    4  C4  UNL     1     -35.370   5.034   4.876  1.00 20.00     0.044 C 
HETATM    5  N10 UNL     1     -31.993   6.366   1.496  1.00 20.00    -0.192 NA
ENDROOT
BRANCH   2   6
HETATM    6  C7  UNL     1     -34.413   7.674   3.699  1.00 20.00     0.046 C 
HETATM    7  C5  UNL     1     -33.655   8.296   4.865  1.00 20.00     0.011 C 
ENDBRANCH   2   6
BRANCH   3   8
HETATM    8  C8  UNL     1     -33.776   3.790   3.357  1.00 20.00     0.034 C 
BRANCH   8   9
HETATM    9  C9  UNL     1     -33.603   2.810   4.520  1.00 20.00    -0.000 C 
HETATM   10  C6  UNL     1     -32.380   3.152   5.358  1.00 20.00     0.005 C 
ENDBRANCH   8   9
ENDBRANCH   3   8
TORSDOF 3
ENDMDL
