MODEL 1
REMARK VINA RESULT:       3.0      0.000      0.000
REMARK  1 active torsions:
REMARK  status: ('A' for Active; 'I' for Inactive)
REMARK    1  A    between atoms: C10_10  and  O12_12 
ROOT
HETATM    1  C1  UNL     1     -33.058   6.594   4.598  1.00 20.00     0.005 C 
HETATM    2  C2  UNL     1     -33.477   8.020   4.218  1.00 20.00     0.005 C 
HETATM    3  C3  UNL     1     -31.942   5.728   1.872  1.00 20.00     0.008 C 
HETATM    4  C4  UNL     1     -31.442   7.161   1.726  1.00 20.00     0.033 C 
HETATM    5  C5  UNL     1     -35.204   6.528   3.601  1.00 20.00     0.010 C 
HETATM    6  C6  UNL     1     -33.899   5.723   3.650  1.00 20.00    -0.010 C 
HETATM    7  C7  UNL     1     -34.503   7.798   3.095  1.00 20.00    -0.007 C 
HETATM    8  C8  UNL     1     -33.435   5.830   2.177  1.00 20.00    -0.004 C 
HETATM    9  C9  UNL     1     -33.870   7.262   1.789  1.00 20.00     0.023 C 
HETATM   10  C10 UNL     1     -32.641   7.925   1.176  1.00 20.00     0.125 C 
ENDROOT
BRANCH  10  11
HETATM   11  O12 UNL     1     -32.576   9.309   1.453  1.00 20.00    -0.390 OA
HETATM   12  C11 UNL     1     -32.504  10.086   0.261  1.00 20.00     0.202 C 
ENDBRANCH  10  11
TORSDOF 1
ENDMDL
MODEL 2
REMARK VINA RESULT:       4.0      1.811      2.881
REMARK  1 active torsions:
REMARK  status: ('A' for Active; 'I' for Inactive)
REMARK    1  A    between atoms: C10_10  and  O12_12 
ROOT
HETATM    1  C1  UNL     1     -33.048   7.745   4.950  1.00 20.00     0.005 C 
HETATM    2  C2  UNL     1     -32.204   7.893   3.677  1.00 20.00     0.005 C 
HETATM    3  C3  UNL     1     -34.498   5.141   4.210  1.00 20.00     0.008 C 
HETATM    4  C4  UNL     1     -33.196   4.717   3.540  1.00 20.00     0.033 C 
HETATM    5  C5  UNL     1     -34.350   8.799   3.278  1.00 20.00     0.010 C 
HETATM    6  C6  UNL     1     -34.490   7.777   4.414  1.00 20.00    -0.010 C 
HETATM    7  C7  UNL     1     -33.260   7.986   2.564  1.00 20.00    -0.007 C 
HETATM    8  C8  UNL     1     -34.855   6.502   3.616  1.00 20.00    -0.004 C 
HETATM    9  C9  UNL     1     -34.016   6.658   2.327  1.00 20.00     0.023 C 
HETATM   10  C10 UNL     1     -33.265   5.342   2.151  1.00 20.00     0.125 C 
ENDROOT
BRANCH  10  11
HETATM   11  O12 UNL     1     -31.989   5.519   1.571  1.00 20.00    -0.390 OA
HETATM   12  C11 UNL     1     -31.763   4.608   0.499  1.00 20.00     0.202 C 
ENDBRANCH  10  11
TORSDOF 1
ENDMDL
MODEL 3
REMARK VINA RESULT:       4.2      1.888      4.056
REMARK  1 active torsions:
REMARK  status: ('A' for Active; 'I' for Inactive)
REMARK    1  A    between atoms: C10_10  and  O12_12 
ROOT
HETATM    1  C1  UNL     1     -31.385   7.398   2.182  1.00 20.00     0.005 C 
HETATM    2  C2  UNL     1     -31.668   5.936   1.815  1.00 20.00     0.005 C 
HETATM    3  C3  UNL     1     -33.725   7.819   4.125  1.00 20.00     0.008 C 
HETATM    4  C4  UNL     1     -33.501   6.376   4.560  1.00 20.00     0.033 C 
HETATM    5  C5  UNL     1     -32.997   7.334   0.450  1.00 20.00     0.010 C 
HETATM    6  C6  UNL     1     -32.662   8.122   1.723  1.00 20.00    -0.010 C 
HETATM    7  C7  UNL     1     -33.074   5.993   1.196  1.00 20.00    -0.007 C 
HETATM    8  C8  UNL     1     -33.887   7.783   2.607  1.00 20.00    -0.004 C 
HETATM    9  C9  UNL     1     -34.181   6.314   2.227  1.00 20.00     0.023 C 
HETATM   10  C10 UNL     1     -34.281   5.549   3.543  1.00 20.00     0.125 C 
ENDROOT
BRANCH  10  11
HETATM   11  O12 UNL     1     -33.802   4.224   3.439  1.00 20.00    -0.390 OA
HETATM   12  C11 UNL     1     -33.678   3.603   4.714  1.00 20.00     0.202 C 
ENDBRANCH  10  11
TORSDOF 1
ENDMDL
MODEL 4
REMARK VINA RESULT:       4.2      1.689      3.567
REMARK  1 active torsions:
REMARK  status: ('A' for Active; 'I' for Inactive)
REMARK    1  A    between atoms: C10_10  and  O12_12 
ROOT
HETATM    1  C1  UNL     1     -32.330   8.679   0.689  1.00 20.00     0.005 C 
HETATM    2  C2  UNL     1     -33.299   8.952   1.846  1.00 20.00     0.005 C 
HETATM    3  C3  UNL     1     -32.332   5.612   0.834  1.00 20.00     0.008 C 
HETATM    4  C4  UNL     1     -33.806   5.724   1.205  1.00 20.00     0.033 C 
HETATM    5  C5  UNL     1     -31.127   8.651   2.727  1.00 20.00     0.010 C 
HETATM    6  C6  UNL     1     -31.176   7.928   1.375  1.00 20.00    -0.010 C 
HETATM    7  C7  UNL     1     -32.591   8.321   3.055  1.00 20.00    -0.007 C 
HETATM    8  C8  UNL     1     -31.579   6.502   1.821  1.00 20.00    -0.004 C 
HETATM    9  C9  UNL     1     -32.545   6.776   2.997  1.00 20.00     0.023 C 
HETATM   10  C10 UNL     1     -33.801   5.958   2.711  1.00 20.00     0.125 C 
ENDROOT
BRANCH  10  11
HETATM   11  O12 UNL     1     -34.977   6.594   3.166  1.00 20.00    -0.390 OA
HETATM   12  C11 UNL     1     -35.487   5.982   4.347  1.00 20.00     0.202 C 
ENDBRANCH  10  11
TORSDOF 1
ENDMDL
MODEL 5
REMARK VINA RESULT:       4.4      2.410      3.909
REMARK  1 active torsions:
REMARK  status: ('A' for Active; 'I' for Inactive)
REMARK    1  A    between atoms: C10_10  and  O12_12 
ROOT
HETATM    1  C1  UNL     1     -35.484   7.244   2.757  1.00 20.00     0.005 C 
HETATM    2  C2  UNL     1     -35.631   6.219   3.890  1.00 20.00     0.005 C 
HETATM    3  C3  UNL     1     -32.932   6.112   1.477  1.00 20.00     0.008 C 
HETATM    4  C4  UNL     1     -33.480   4.734   1.827  1.00 20.00     0.033 C 
HETATM    5  C5  UNL     1     -34.127   7.907   4.580  1.00 20.00     0.010 C 
HETATM    6  C6  UNL     1     -34.114   7.883   3.046  1.00 20.00    -0.010 C 
HETATM    7  C7  UNL     1     -34.328   6.388   4.689  1.00 20.00    -0.007 C 
HETATM    8  C8  UNL     1     -32.939   6.912   2.779  1.00 20.00    -0.004 C 
HETATM    9  C9  UNL     1     -33.078   5.888   3.928  1.00 20.00     0.023 C 
HETATM   10  C10 UNL     1     -33.050   4.511   3.272  1.00 20.00     0.125 C 
ENDROOT
BRANCH  10  11
HETATM   11  O12 UNL     1     -33.865   3.573   3.944  1.00 20.00    -0.390 OA
HETATM   12  C11 UNL     1     -33.121   2.794   4.875  1.00 20.00     0.202 C 
ENDBRANCH  10  11
TORSDOF 1
ENDMDL
MODEL 6
REMARK VINA RESULT:       4.6      1.730      3.359
REMARK  1 active torsions:
REMARK  status: ('A' for Active; 'I' for Inactive)
REMARK    1  A    between atoms: C10_10  and  O12_12 
ROOT
HETATM    1  C1  UNL     1     -31.326   5.155   1.999  1.00 20.00     0.005 C 
HETATM    2  C2  UNL     1     -32.574   4.764   2.802  1.00 20.00     0.005 C 
HETATM    3  C3  UNL     1     -31.665   8.205   2.128  1.00 20.00     0.008 C 
HETATM    4  C4  UNL     1     -32.204   7.991   3.537  1.00 20.00     0.033 C 
HETATM    5  C5  UNL     1     -33.200   5.133   0.553  1.00 20.00     0.010 C 
HETATM    6  C6  UNL     1     -31.912   5.929   0.806  1.00 20.00    -0.010 C 
HETATM    7  C7  UNL     1     -33.725   5.364   1.979  1.00 20.00    -0.007 C 
HETATM    8  C8  UNL     1     -32.494   7.303   1.217  1.00 20.00    -0.004 C 
HETATM    9  C9  UNL     1     -33.759   6.910   2.014  1.00 20.00     0.023 C 
HETATM   10  C10 UNL     1     -33.681   7.672   3.332  1.00 20.00     0.125 C 
ENDROOT
BRANCH  10  11
HETATM   11  O12 UNL     1     -34.236   6.949   4.411  1.00 20.00    -0.390 OA
HETATM   12  C11 UNL     1     -35.506   6.395   4.082  1.00 20.00     0.202 C 
ENDBRANCH  10  11
TORSDOF 1
ENDMDL
MODEL 7
REMARK VINA RESULT:       4.6      2.147      4.106
REMARK  1 active torsions:
REMARK  status: ('A' for Active; 'I' for Inactive)
REMARK    1  A    between atoms: C10_10  and  O12_12 
ROOT
HETATM    1  C1  UNL     1     -33.777   8.153   4.633  1.00 20.00     0.005 C 
HETATM    2  C2  UNL     1     -32.553   7.243   4.466  1.00 20.00     0.005 C 
HETATM    3  C3  UNL     1     -35.945   6.103   3.910  1.00 20.00     0.008 C 
HETATM    4  C4  UNL     1     -35.073   5.072   4.616  1.00 20.00     0.033 C 
HETATM    5  C5  UNL     1     -33.151   8.110   2.350  1.00 20.00     0.010 C 
HETATM    6  C6  UNL     1     -34.408   8.143   3.230  1.00 20.00    -0.010 C 
HETATM    7  C7  UNL     1     -32.630   6.815   2.992  1.00 20.00    -0.007 C 
HETATM    8  C8  UNL     1     -35.047   6.779   2.876  1.00 20.00    -0.004 C 
HETATM    9  C9  UNL     1     -33.814   5.864   2.694  1.00 20.00     0.023 C 
HETATM   10  C10 UNL     1     -34.072   4.631   3.553  1.00 20.00     0.125 C 
ENDROOT
BRANCH  10  11
HETATM   11  O12 UNL     1     -32.888   4.099   4.110  1.00 20.00    -0.390 OA
HETATM   12  C11 UNL     1     -33.128   2.878   4.801  1.00 20.00     0.202 C 
ENDBRANCH  10  11
TORSDOF 1
ENDMDL
MODEL 8
REMARK VINA RESULT:       4.9      1.624      2.836
REMARK  1 active torsions:
REMARK  status: ('A' for Active; 'I' for Inactive)
REMARK    1  A    between atoms: C10_10  and  O12_12 
ROOT
HETATM    1  C1  UNL     1     -35.162   8.183   3.326  1.00 20.00     0.005 C 
HETATM    2  C2  UNL     1     -35.408   6.842   2.624  1.00 20.00     0.005 C 
HETATM    3  C3  UNL     1     -32.152   8.421   2.766  1.00 20.00     0.008 C 
HETATM    4  C4  UNL     1     -32.447   7.774   1.418  1.00 20.00     0.033 C 
HETATM    5  C5  UNL     1     -34.620   6.422   4.812  1.00 20.00     0.010 C 
HETATM    6  C6  UNL     1     -34.133   7.821   4.411  1.00 20.00    -0.010 C 
HETATM    7  C7  UNL     1     -34.488   5.872   3.383  1.00 20.00    -0.007 C 
HETATM    8  C8  UNL     1     -32.741   7.488   3.821  1.00 20.00    -0.004 C 
HETATM    9  C9  UNL     1     -32.985   6.129   3.125  1.00 20.00     0.023 C 
HETATM   10  C10 UNL     1     -32.441   6.277   1.708  1.00 20.00     0.125 C 
ENDROOT
BRANCH  10  11
HETATM   11  O12 UNL     1     -33.183   5.536   0.761  1.00 20.00    -0.390 OA
HETATM   12  C11 UNL     1     -32.453   4.415   0.274  1.00 20.00     0.202 C 
ENDBRANCH  10  11
TORSDOF 1
ENDMDL
MODEL 9
REMARK VINA RESULT:       4.9      1.196      2.734
REMARK  1 active torsions:
REMARK  status: ('A' for Active; 'I' for Inactive)
REMARK    1  A    between atoms: C10_10  and  O12_12 
ROOT
HETATM    1  C1  UNL     1     -34.280   5.787   1.437  1.00 20.00     0.005 C 
HETATM    2  C2  UNL     1     -33.350   6.210   0.292  1.00 20.00     0.005 C 
HETATM    3  C3  UNL     1     -33.594   8.040   3.407  1.00 20.00     0.008 C 
HETATM    4  C4  UNL     1     -33.477   8.945   2.187  1.00 20.00     0.033 C 
HETATM    5  C5  UNL     1     -32.110   4.935   1.849  1.00 20.00     0.010 C 
HETATM    6  C6  UNL     1     -33.304   5.540   2.600  1.00 20.00    -0.010 C 
HETATM    7  C7  UNL     1     -31.954   6.160   0.935  1.00 20.00    -0.007 C 
HETATM    8  C8  UNL     1     -32.678   6.848   3.139  1.00 20.00    -0.004 C 
HETATM    9  C9  UNL     1     -31.730   7.267   1.991  1.00 20.00     0.023 C 
HETATM   10  C10 UNL     1     -32.053   8.726   1.688  1.00 20.00     0.125 C 
ENDROOT
BRANCH  10  11
HETATM   11  O12 UNL     1     -31.902   9.043   0.320  1.00 20.00    -0.390 OA
HETATM   12  C11 UNL     1     -32.648  10.201  -0.043  1.00 20.00     0.202 C 
ENDBRANCH  10  11
TORSDOF 1
ENDMDL
