MODEL 1
REMARK VINA RESULT:      -2.0      0.000      0.000
REMARK  0 active torsions:
REMARK  status: ('A' for Active; 'I' for Inactive)
ROOT
HETATM    1  C1  UNL     1     -33.972   7.173   3.527  1.00 20.00     0.096 C 
HETATM    2  C2  UNL     1     -33.263   6.862   2.445  1.00 20.00     0.096 C 
HETATM    3 CL3  UNL     1     -35.264   6.204   4.097  1.00 20.00    -0.096 Cl
HETATM    4 CL4  UNL     1     -31.972   7.832   1.874  1.00 20.00    -0.096 Cl
ENDROOT
TORSDOF 0
ENDMDL
MODEL 2
REMARK VINA RESULT:      -2.0      0.056      3.178
REMARK  0 active torsions:
REMARK  status: ('A' for Active; 'I' for Inactive)
ROOT
HETATM    1  C1  UNL     1     -33.233   6.861   2.416  1.00 20.00     0.096 C 
HETATM    2  C2  UNL     1     -33.933   7.192   3.498  1.00 20.00     0.096 C 
HETATM    3 CL3  UNL     1     -31.923   7.800   1.838  1.00 20.00    -0.096 Cl
HETATM    4 CL4  UNL     1     -35.245   6.255   4.074  1.00 20.00    -0.096 Cl
ENDROOT
TORSDOF 0
ENDMDL
MODEL 3
REMARK VINA RESULT:      -1.7      2.949      3.679
REMARK  0 active torsions:
REMARK  status: ('A' for Active; 'I' for Inactive)
ROOT
HETATM    1  C1  UNL     1     -33.812   4.185   4.027  1.00 20.00     0.096 C 
HETATM    2  C2  UNL     1     -34.868   4.851   4.487  1.00 20.00     0.096 C 
HETATM    3 CL3  UNL     1     -33.307   2.685   4.681  1.00 20.00    -0.096 Cl
HETATM    4 CL4  UNL     1     -35.372   6.352   3.835  1.00 20.00    -0.096 Cl
ENDROOT
TORSDOF 0
ENDMDL
MODEL 4
REMARK VINA RESULT:      -1.7      2.955      3.655
REMARK  0 active torsions:
REMARK  status: ('A' for Active; 'I' for Inactive)
ROOT
HETATM    1  C1  UNL     1     -34.867   4.851   4.497  1.00 20.00     0.096 C 
HETATM    2  C2  UNL     1     -33.822   4.177   4.024  1.00 20.00     0.096 C 
HETATM    3 CL3  UNL     1     -35.382   6.345   3.836  1.00 20.00    -0.096 Cl
HETATM    4 CL4  UNL     1     -33.306   2.685   4.686  1.00 20.00    -0.096 Cl
ENDROOT
TORSDOF 0
ENDMDL
MODEL 5
REMARK VINA RESULT:      -1.5      2.720      3.266
REMARK  0 active torsions:
REMARK  status: ('A' for Active; 'I' for Inactive)
ROOT
HETATM    1  C1  UNL     1     -32.177   8.203   1.625  1.00 20.00     0.096 C 
HETATM    2  C2  UNL     1     -32.357   8.897   0.504  1.00 20.00     0.096 C 
HETATM    3 CL3  UNL     1     -32.086   6.492   1.650  1.00 20.00    -0.096 Cl
HETATM    4 CL4  UNL     1     -32.450  10.607   0.480  1.00 20.00    -0.096 Cl
ENDROOT
TORSDOF 0
ENDMDL
MODEL 6
REMARK VINA RESULT:      -1.5      2.770      3.882
REMARK  0 active torsions:
REMARK  status: ('A' for Active; 'I' for Inactive)
ROOT
HETATM    1  C1  UNL     1     -32.286   8.885   0.499  1.00 20.00     0.096 C 
HETATM    2  C2  UNL     1     -32.157   8.178   1.619  1.00 20.00     0.096 C 
HETATM    3 CL3  UNL     1     -32.497  10.584   0.497  1.00 20.00    -0.096 Cl
HETATM    4 CL4  UNL     1     -31.948   6.478   1.621  1.00 20.00    -0.096 Cl
ENDROOT
TORSDOF 0
ENDMDL
MODEL 7
REMARK VINA RESULT:      -0.6      2.505      3.030
REMARK  0 active torsions:
REMARK  status: ('A' for Active; 'I' for Inactive)
ROOT
HETATM    1  C1  UNL     1     -32.024   7.156   1.610  1.00 20.00     0.096 C 
HETATM    2  C2  UNL     1     -32.744   6.038   1.664  1.00 20.00     0.096 C 
HETATM    3 CL3  UNL     1     -32.228   8.443   2.721  1.00 20.00    -0.096 Cl
HETATM    4 CL4  UNL     1     -32.542   4.752   0.550  1.00 20.00    -0.096 Cl
ENDROOT
TORSDOF 0
ENDMDL
MODEL 8
REMARK VINA RESULT:      -0.6      2.517      2.819
REMARK  0 active torsions:
REMARK  status: ('A' for Active; 'I' for Inactive)
ROOT
HETATM    1  C1  UNL     1     -32.736   6.032   1.662  1.00 20.00     0.096 C 
HETATM    2  C2  UNL     1     -32.033   7.158   1.575  1.00 20.00     0.096 C 
HETATM    3 CL3  UNL     1     -32.572   4.749   0.539  1.00 20.00    -0.096 Cl
HETATM    4 CL4  UNL     1     -32.199   8.442   2.697  1.00 20.00    -0.096 Cl
ENDROOT
TORSDOF 0
ENDMDL
MODEL 9
REMARK VINA RESULT:       0.1      2.673      2.725
REMARK  0 active torsions:
REMARK  status: ('A' for Active; 'I' for Inactive)
ROOT
HETATM    1  C1  UNL     1     -31.954   6.747   1.809  1.00 20.00     0.096 C 
HETATM    2  C2  UNL     1     -32.435   7.797   1.148  1.00 20.00     0.096 C 
HETATM    3 CL3  UNL     1     -32.377   5.134   1.420  1.00 20.00    -0.096 Cl
HETATM    4 CL4  UNL     1     -32.012   9.410   1.540  1.00 20.00    -0.096 Cl
ENDROOT
TORSDOF 0
ENDMDL
