MODEL 1
REMARK VINA RESULT:       1.5      0.000      0.000
REMARK  0 active torsions:
REMARK  status: ('A' for Active; 'I' for Inactive)
ROOT
HETATM    1  C1  UNL     1     -33.457   7.636   4.446  1.00 20.00     0.086 C 
HETATM    2  C2  UNL     1     -31.541   6.699   1.666  1.00 20.00    -0.025 C 
HETATM    3  C3  UNL     1     -32.237   7.841   1.773  1.00 20.00    -0.023 C 
HETATM    4  C4  UNL     1     -33.704   6.240   1.004  1.00 20.00     0.020 C 
HETATM    5  C5  UNL     1     -33.078   5.480   3.182  1.00 20.00     0.050 C 
HETATM    6  C6  UNL     1     -32.537   5.565   1.731  1.00 20.00     0.011 C 
HETATM    7  C7  UNL     1     -33.697   7.465   1.932  1.00 20.00     0.046 C 
HETATM    8  C8  UNL     1     -33.900   6.801   3.322  1.00 20.00     0.133 C 
HETATM    9  N9  UNL     1     -33.106   8.296   5.333  1.00 20.00    -0.195 NA
HETATM   10 CL10 UNL     1     -35.633   6.443   3.605  1.00 20.00    -0.102 Cl
ENDROOT
TORSDOF 0
ENDMDL
MODEL 2
REMARK VINA RESULT:       2.0      2.144      3.222
REMARK  0 active torsions:
REMARK  status: ('A' for Active; 'I' for Inactive)
ROOT
HETATM    1  C1  UNL     1     -32.448   7.822   1.577  1.00 20.00     0.086 C 
HETATM    2  C2  UNL     1     -34.762   7.655   4.202  1.00 20.00    -0.025 C 
HETATM    3  C3  UNL     1     -33.428   7.663   4.350  1.00 20.00    -0.023 C 
HETATM    4  C4  UNL     1     -34.043   5.473   3.983  1.00 20.00     0.020 C 
HETATM    5  C5  UNL     1     -34.629   6.604   1.961  1.00 20.00     0.050 C 
HETATM    6  C6  UNL     1     -35.115   6.412   3.421  1.00 20.00     0.011 C 
HETATM    7  C7  UNL     1     -32.891   6.432   3.645  1.00 20.00     0.046 C 
HETATM    8  C8  UNL     1     -33.074   6.606   2.112  1.00 20.00     0.133 C 
HETATM    9  N9  UNL     1     -31.952   8.782   1.155  1.00 20.00    -0.195 NA
HETATM   10 CL10 UNL     1     -32.348   5.227   1.228  1.00 20.00    -0.102 Cl
ENDROOT
TORSDOF 0
ENDMDL
MODEL 3
REMARK VINA RESULT:       2.2      1.839      2.568
REMARK  0 active torsions:
REMARK  status: ('A' for Active; 'I' for Inactive)
ROOT
HETATM    1  C1  UNL     1     -34.608   6.721   3.774  1.00 20.00     0.086 C 
HETATM    2  C2  UNL     1     -33.057   6.914   0.638  1.00 20.00    -0.025 C 
HETATM    3  C3  UNL     1     -32.830   5.959   1.552  1.00 20.00    -0.023 C 
HETATM    4  C4  UNL     1     -31.449   7.725   2.082  1.00 20.00     0.020 C 
HETATM    5  C5  UNL     1     -33.658   8.590   2.363  1.00 20.00     0.050 C 
HETATM    6  C6  UNL     1     -32.636   8.227   1.254  1.00 20.00     0.011 C 
HETATM    7  C7  UNL     1     -32.278   6.641   2.789  1.00 20.00     0.046 C 
HETATM    8  C8  UNL     1     -33.402   7.491   3.443  1.00 20.00     0.133 C 
HETATM    9  N9  UNL     1     -35.560   6.111   4.035  1.00 20.00    -0.195 NA
HETATM   10 CL10 UNL     1     -32.830   8.226   4.974  1.00 20.00    -0.102 Cl
ENDROOT
TORSDOF 0
ENDMDL
MODEL 4
REMARK VINA RESULT:       2.3      2.024      2.684
REMARK  0 active torsions:
REMARK  status: ('A' for Active; 'I' for Inactive)
ROOT
HETATM    1  C1  UNL     1     -33.491   5.005   2.997  1.00 20.00     0.086 C 
HETATM    2  C2  UNL     1     -32.079   8.181   3.435  1.00 20.00    -0.025 C 
HETATM    3  C3  UNL     1     -33.390   7.906   3.498  1.00 20.00    -0.023 C 
HETATM    4  C4  UNL     1     -32.892   8.250   1.276  1.00 20.00     0.020 C 
HETATM    5  C5  UNL     1     -31.638   6.306   1.875  1.00 20.00     0.050 C 
HETATM    6  C6  UNL     1     -31.623   7.849   2.035  1.00 20.00     0.011 C 
HETATM    7  C7  UNL     1     -33.803   7.367   2.143  1.00 20.00     0.046 C 
HETATM    8  C8  UNL     1     -33.161   5.966   1.937  1.00 20.00     0.133 C 
HETATM    9  N9  UNL     1     -33.753   4.246   3.834  1.00 20.00    -0.195 NA
HETATM   10 CL10 UNL     1     -33.713   5.237   0.396  1.00 20.00    -0.102 Cl
ENDROOT
TORSDOF 0
ENDMDL
MODEL 5
REMARK VINA RESULT:       2.3      2.385      3.036
REMARK  0 active torsions:
REMARK  status: ('A' for Active; 'I' for Inactive)
ROOT
HETATM    1  C1  UNL     1     -32.368   8.894   0.962  1.00 20.00     0.086 C 
HETATM    2  C2  UNL     1     -33.047   5.489   0.496  1.00 20.00    -0.025 C 
HETATM    3  C3  UNL     1     -33.960   6.421   0.810  1.00 20.00    -0.023 C 
HETATM    4  C4  UNL     1     -33.020   5.720   2.793  1.00 20.00     0.020 C 
HETATM    5  C5  UNL     1     -31.215   6.738   1.603  1.00 20.00     0.050 C 
HETATM    6  C6  UNL     1     -32.058   5.437   1.635  1.00 20.00     0.011 C 
HETATM    7  C7  UNL     1     -33.563   7.006   2.151  1.00 20.00     0.046 C 
HETATM    8  C8  UNL     1     -32.261   7.837   1.976  1.00 20.00     0.133 C 
HETATM    9  N9  UNL     1     -32.453   9.730   0.162  1.00 20.00    -0.195 NA
HETATM   10 CL10 UNL     1     -31.814   8.644   3.511  1.00 20.00    -0.102 Cl
ENDROOT
TORSDOF 0
ENDMDL
MODEL 6
REMARK VINA RESULT:       2.6      2.429      3.528
REMARK  0 active torsions:
REMARK  status: ('A' for Active; 'I' for Inactive)
ROOT
HETATM    1  C1  UNL     1     -32.317   6.266   1.719  1.00 20.00     0.086 C 
HETATM    2  C2  UNL     1     -34.271   6.574   4.611  1.00 20.00    -0.025 C 
HETATM    3  C3  UNL     1     -34.746   6.306   3.385  1.00 20.00    -0.023 C 
HETATM    4  C4  UNL     1     -34.573   8.598   3.543  1.00 20.00     0.020 C 
HETATM    5  C5  UNL     1     -32.322   7.816   3.716  1.00 20.00     0.050 C 
HETATM    6  C6  UNL     1     -33.625   7.937   4.548  1.00 20.00     0.011 C 
HETATM    7  C7  UNL     1     -34.394   7.485   2.499  1.00 20.00     0.046 C 
HETATM    8  C8  UNL     1     -32.856   7.512   2.279  1.00 20.00     0.133 C 
HETATM    9  N9  UNL     1     -31.893   5.281   1.276  1.00 20.00    -0.195 NA
HETATM   10 CL10 UNL     1     -32.402   8.821   1.143  1.00 20.00    -0.102 Cl
ENDROOT
TORSDOF 0
ENDMDL
MODEL 7
REMARK VINA RESULT:       2.8      2.914      3.673
REMARK  0 active torsions:
REMARK  status: ('A' for Active; 'I' for Inactive)
ROOT
HETATM    1  C1  UNL     1     -32.609   9.805   0.722  1.00 20.00     0.086 C 
HETATM    2  C2  UNL     1     -33.615   7.164   2.793  1.00 20.00    -0.025 C 
HETATM    3  C3  UNL     1     -32.684   8.077   3.106  1.00 20.00    -0.023 C 
HETATM    4  C4  UNL     1     -31.614   6.422   1.914  1.00 20.00     0.020 C 
HETATM    5  C5  UNL     1     -33.168   7.366   0.363  1.00 20.00     0.050 C 
HETATM    6  C6  UNL     1     -33.110   6.413   1.585  1.00 20.00     0.011 C 
HETATM    7  C7  UNL     1     -31.566   7.948   2.090  1.00 20.00     0.046 C 
HETATM    8  C8  UNL     1     -32.081   8.435   0.707  1.00 20.00     0.133 C 
HETATM    9  N9  UNL     1     -33.025  10.887   0.734  1.00 20.00    -0.195 NA
HETATM   10 CL10 UNL     1     -30.760   8.409  -0.504  1.00 20.00    -0.102 Cl
ENDROOT
TORSDOF 0
ENDMDL
MODEL 8
REMARK VINA RESULT:       3.5      2.263      3.249
REMARK  0 active torsions:
REMARK  status: ('A' for Active; 'I' for Inactive)
ROOT
HETATM    1  C1  UNL     1     -33.222   5.484   1.733  1.00 20.00     0.086 C 
HETATM    2  C2  UNL     1     -33.881   8.740   2.846  1.00 20.00    -0.025 C 
HETATM    3  C3  UNL     1     -32.676   8.150   2.860  1.00 20.00    -0.023 C 
HETATM    4  C4  UNL     1     -33.744   7.523   4.803  1.00 20.00     0.020 C 
HETATM    5  C5  UNL     1     -35.075   6.579   3.058  1.00 20.00     0.050 C 
HETATM    6  C6  UNL     1     -34.780   7.934   3.752  1.00 20.00     0.011 C 
HETATM    7  C7  UNL     1     -32.781   6.935   3.760  1.00 20.00     0.046 C 
HETATM    8  C8  UNL     1     -33.682   5.872   3.073  1.00 20.00     0.133 C 
HETATM    9  N9  UNL     1     -32.857   5.178   0.676  1.00 20.00    -0.195 NA
HETATM   10 CL10 UNL     1     -33.743   4.369   4.047  1.00 20.00    -0.102 Cl
ENDROOT
TORSDOF 0
ENDMDL
MODEL 9
REMARK VINA RESULT:       3.6      1.759      2.298
REMARK  0 active torsions:
REMARK  status: ('A' for Active; 'I' for Inactive)
ROOT
HETATM    1  C1  UNL     1     -35.081   6.502   3.212  1.00 20.00     0.086 C 
HETATM    2  C2  UNL     1     -32.693   8.241   1.330  1.00 20.00    -0.025 C 
HETATM    3  C3  UNL     1     -33.499   7.281   0.853  1.00 20.00    -0.023 C 
HETATM    4  C4  UNL     1     -31.667   6.218   1.758  1.00 20.00     0.020 C 
HETATM    5  C5  UNL     1     -32.715   7.290   3.619  1.00 20.00     0.050 C 
HETATM    6  C6  UNL     1     -31.825   7.605   2.389  1.00 20.00     0.011 C 
HETATM    7  C7  UNL     1     -33.182   6.008   1.613  1.00 20.00     0.046 C 
HETATM    8  C8  UNL     1     -33.658   6.165   3.085  1.00 20.00     0.133 C 
HETATM    9  N9  UNL     1     -36.206   6.767   3.312  1.00 20.00    -0.195 NA
HETATM   10 CL10 UNL     1     -33.409   4.642   3.996  1.00 20.00    -0.102 Cl
ENDROOT
TORSDOF 0
ENDMDL
