MODEL 1
REMARK VINA RESULT:      -1.1      0.000      0.000
REMARK  0 active torsions:
REMARK  status: ('A' for Active; 'I' for Inactive)
ROOT
HETATM    1  C1  UNL     1     -32.216   5.663   1.574  1.00 20.00     0.014 A 
HETATM    2  C2  UNL     1     -31.750   6.811   1.066  1.00 20.00     0.075 A 
HETATM    3  C3  UNL     1     -33.210   5.649   2.627  1.00 20.00    -0.035 A 
HETATM    4  C4  UNL     1     -33.684   6.817   3.101  1.00 20.00     0.018 A 
HETATM    5  C5  UNL     1     -32.264   8.107   1.591  1.00 20.00     0.245 A 
HETATM    6  C6  UNL     1     -33.660   4.312   3.152  1.00 20.00     0.040 C 
HETATM    7  C7  UNL     1     -34.729   6.903   4.178  1.00 20.00     0.057 C 
HETATM    8  C8  UNL     1     -34.434   4.416   4.470  1.00 20.00     0.005 C 
HETATM    9  C9  UNL     1     -35.432   5.568   4.435  1.00 20.00     0.006 C 
HETATM   10  N10 UNL     1     -33.216   8.011   2.591  1.00 20.00    -0.327 N 
HETATM   11  O11 UNL     1     -31.846   9.169   1.138  1.00 20.00    -0.268 OA
HETATM   12  H22 UNL     1     -33.595   8.873   2.974  1.00 20.00     0.169 HD
ENDROOT
TORSDOF 0
ENDMDL
MODEL 2
REMARK VINA RESULT:      -0.1      2.428      4.418
REMARK  0 active torsions:
REMARK  status: ('A' for Active; 'I' for Inactive)
ROOT
HETATM    1  C1  UNL     1     -34.206   7.718   3.985  1.00 20.00     0.014 A 
HETATM    2  C2  UNL     1     -34.974   6.810   4.602  1.00 20.00     0.075 A 
HETATM    3  C3  UNL     1     -33.283   7.341   2.935  1.00 20.00    -0.035 A 
HETATM    4  C4  UNL     1     -33.199   6.050   2.564  1.00 20.00     0.018 A 
HETATM    5  C5  UNL     1     -34.882   5.378   4.201  1.00 20.00     0.245 A 
HETATM    6  C6  UNL     1     -32.445   8.426   2.313  1.00 20.00     0.040 C 
HETATM    7  C7  UNL     1     -32.286   5.566   1.472  1.00 20.00     0.057 C 
HETATM    8  C8  UNL     1     -31.282   7.879   1.479  1.00 20.00     0.005 C 
HETATM    9  C9  UNL     1     -31.726   6.703   0.615  1.00 20.00     0.006 C 
HETATM   10  N10 UNL     1     -33.982   5.099   3.187  1.00 20.00    -0.327 N 
HETATM   11  O11 UNL     1     -35.576   4.533   4.758  1.00 20.00    -0.268 OA
HETATM   12  H22 UNL     1     -33.891   4.133   2.882  1.00 20.00     0.169 HD
ENDROOT
TORSDOF 0
ENDMDL
MODEL 3
REMARK VINA RESULT:       0.3      2.513      4.450
REMARK  0 active torsions:
REMARK  status: ('A' for Active; 'I' for Inactive)
ROOT
HETATM    1  C1  UNL     1     -34.854   6.542   4.021  1.00 20.00     0.014 A 
HETATM    2  C2  UNL     1     -34.989   5.279   4.446  1.00 20.00     0.075 A 
HETATM    3  C3  UNL     1     -33.808   6.922   3.095  1.00 20.00    -0.035 A 
HETATM    4  C4  UNL     1     -32.956   5.983   2.643  1.00 20.00     0.018 A 
HETATM    5  C5  UNL     1     -34.045   4.236   3.956  1.00 20.00     0.245 A 
HETATM    6  C6  UNL     1     -33.720   8.369   2.689  1.00 20.00     0.040 C 
HETATM    7  C7  UNL     1     -31.852   6.278   1.666  1.00 20.00     0.057 C 
HETATM    8  C8  UNL     1     -32.397   8.717   1.998  1.00 20.00     0.005 C 
HETATM    9  C9  UNL     1     -32.001   7.643   0.991  1.00 20.00     0.006 C 
HETATM   10  N10 UNL     1     -33.078   4.676   3.069  1.00 20.00    -0.327 N 
HETATM   11  O11 UNL     1     -34.153   3.074   4.337  1.00 20.00    -0.268 OA
HETATM   12  H22 UNL     1     -32.416   3.994   2.708  1.00 20.00     0.169 HD
ENDROOT
TORSDOF 0
ENDMDL
MODEL 4
REMARK VINA RESULT:       0.4      0.995      2.139
REMARK  0 active torsions:
REMARK  status: ('A' for Active; 'I' for Inactive)
ROOT
HETATM    1  C1  UNL     1     -33.536   8.378   3.221  1.00 20.00     0.014 A 
HETATM    2  C2  UNL     1     -32.649   8.772   2.298  1.00 20.00     0.075 A 
HETATM    3  C3  UNL     1     -33.841   6.977   3.428  1.00 20.00    -0.035 A 
HETATM    4  C4  UNL     1     -33.212   6.049   2.682  1.00 20.00     0.018 A 
HETATM    5  C5  UNL     1     -31.954   7.751   1.464  1.00 20.00     0.245 A 
HETATM    6  C6  UNL     1     -34.867   6.628   4.472  1.00 20.00     0.040 C 
HETATM    7  C7  UNL     1     -33.448   4.573   2.839  1.00 20.00     0.057 C 
HETATM    8  C8  UNL     1     -35.357   5.180   4.370  1.00 20.00     0.005 C 
HETATM    9  C9  UNL     1     -34.197   4.220   4.126  1.00 20.00     0.006 C 
HETATM   10  N10 UNL     1     -32.295   6.435   1.727  1.00 20.00    -0.327 N 
HETATM   11  O11 UNL     1     -31.141   8.095   0.613  1.00 20.00    -0.268 OA
HETATM   12  H22 UNL     1     -31.840   5.707   1.181  1.00 20.00     0.169 HD
ENDROOT
TORSDOF 0
ENDMDL
MODEL 5
REMARK VINA RESULT:       1.0      2.393      3.974
REMARK  0 active torsions:
REMARK  status: ('A' for Active; 'I' for Inactive)
ROOT
HETATM    1  C1  UNL     1     -33.174   4.400   2.875  1.00 20.00     0.014 A 
HETATM    2  C2  UNL     1     -34.139   4.057   3.738  1.00 20.00     0.075 A 
HETATM    3  C3  UNL     1     -32.918   5.785   2.536  1.00 20.00    -0.035 A 
HETATM    4  C4  UNL     1     -33.663   6.750   3.106  1.00 20.00     0.018 A 
HETATM    5  C5  UNL     1     -34.972   5.120   4.368  1.00 20.00     0.245 A 
HETATM    6  C6  UNL     1     -31.827   6.075   1.541  1.00 20.00     0.040 C 
HETATM    7  C7  UNL     1     -33.459   8.214   2.832  1.00 20.00     0.057 C 
HETATM    8  C8  UNL     1     -31.873   7.509   1.003  1.00 20.00     0.005 C 
HETATM    9  C9  UNL     1     -32.136   8.511   2.123  1.00 20.00     0.006 C 
HETATM   10  N10 UNL     1     -34.662   6.418   3.997  1.00 20.00    -0.327 N 
HETATM   11  O11 UNL     1     -35.862   4.823   5.158  1.00 20.00    -0.268 OA
HETATM   12  H22 UNL     1     -35.205   7.173   4.408  1.00 20.00     0.169 HD
ENDROOT
TORSDOF 0
ENDMDL
MODEL 6
REMARK VINA RESULT:       1.7      1.773      2.498
REMARK  0 active torsions:
REMARK  status: ('A' for Active; 'I' for Inactive)
ROOT
HETATM    1  C1  UNL     1     -32.669   7.487   2.137  1.00 20.00     0.014 A 
HETATM    2  C2  UNL     1     -31.832   6.955   1.237  1.00 20.00     0.075 A 
HETATM    3  C3  UNL     1     -33.537   6.658   2.947  1.00 20.00    -0.035 A 
HETATM    4  C4  UNL     1     -33.497   5.320   2.798  1.00 20.00     0.018 A 
HETATM    5  C5  UNL     1     -31.787   5.477   1.061  1.00 20.00     0.245 A 
HETATM    6  C6  UNL     1     -34.459   7.344   3.918  1.00 20.00     0.040 C 
HETATM    7  C7  UNL     1     -34.344   4.378   3.605  1.00 20.00     0.057 C 
HETATM    8  C8  UNL     1     -35.554   6.418   4.459  1.00 20.00     0.005 C 
HETATM    9  C9  UNL     1     -34.991   5.048   4.820  1.00 20.00     0.006 C 
HETATM   10  N10 UNL     1     -32.642   4.753   1.875  1.00 20.00    -0.327 N 
HETATM   11  O11 UNL     1     -31.028   4.973   0.238  1.00 20.00    -0.268 OA
HETATM   12  H22 UNL     1     -32.639   3.740   1.788  1.00 20.00     0.169 HD
ENDROOT
TORSDOF 0
ENDMDL
