MODEL 1
REMARK VINA RESULT:      -0.3      0.000      0.000
REMARK  4 active torsions:
REMARK  status: ('A' for Active; 'I' for Inactive)
REMARK    1  A    between atoms: C1_1  and  O10_10 
REMARK    2  A    between atoms: C1_1  and  O11_11 
REMARK    3  A    between atoms: C7_7  and  O10_10 
REMARK    4  A    between atoms: C8_8  and  O11_11 
ROOT
HETATM    1  C1  UNL     1     -32.502   6.956   1.803  1.00 20.00     0.407 C 
HETATM    2  O9  UNL     1     -31.752   6.018   1.563  1.00 20.00    -0.229 OA
ENDROOT
BRANCH   1   3
HETATM    3  O10 UNL     1     -32.158   8.274   1.810  1.00 20.00    -0.293 OA
BRANCH   3   4
HETATM    4  C7  UNL     1     -32.375   8.976   0.581  1.00 20.00     0.126 C 
HETATM    5  C2  UNL     1     -32.786  10.407   0.889  1.00 20.00     0.040 C 
HETATM    6  C3  UNL     1     -31.108   8.918  -0.259  1.00 20.00     0.040 C 
ENDBRANCH   3   4
ENDBRANCH   1   3
BRANCH   1   7
HETATM    7  O11 UNL     1     -33.827   6.861   2.112  1.00 20.00    -0.288 OA
BRANCH   7   8
HETATM    8  C8  UNL     1     -34.125   6.511   3.463  1.00 20.00     0.062 C 
HETATM    9  C4  UNL     1     -33.465   7.534   4.387  1.00 20.00     0.046 C 
HETATM   10  C5  UNL     1     -35.643   6.544   3.623  1.00 20.00     0.046 C 
HETATM   11  C6  UNL     1     -33.587   5.107   3.734  1.00 20.00     0.046 C 
ENDBRANCH   7   8
ENDBRANCH   1   7
TORSDOF 4
ENDMDL
MODEL 2
REMARK VINA RESULT:      -0.3      0.039      1.316
REMARK  4 active torsions:
REMARK  status: ('A' for Active; 'I' for Inactive)
REMARK    1  A    between atoms: C1_1  and  O10_10 
REMARK    2  A    between atoms: C1_1  and  O11_11 
REMARK    3  A    between atoms: C7_7  and  O10_10 
REMARK    4  A    between atoms: C8_8  and  O11_11 
ROOT
HETATM    1  C1  UNL     1     -32.519   6.991   1.794  1.00 20.00     0.407 C 
HETATM    2  O9  UNL     1     -31.760   6.065   1.540  1.00 20.00    -0.229 OA
ENDROOT
BRANCH   1   3
HETATM    3  O10 UNL     1     -32.193   8.313   1.805  1.00 20.00    -0.293 OA
BRANCH   3   4
HETATM    4  C7  UNL     1     -32.382   9.008   0.567  1.00 20.00     0.126 C 
HETATM    5  C2  UNL     1     -32.784  10.446   0.857  1.00 20.00     0.040 C 
HETATM    6  C3  UNL     1     -31.102   8.930  -0.252  1.00 20.00     0.040 C 
ENDBRANCH   3   4
ENDBRANCH   1   3
BRANCH   1   7
HETATM    7  O11 UNL     1     -33.840   6.877   2.114  1.00 20.00    -0.288 OA
BRANCH   7   8
HETATM    8  C8  UNL     1     -34.121   6.518   3.467  1.00 20.00     0.062 C 
HETATM    9  C4  UNL     1     -35.637   6.518   3.665  1.00 20.00     0.046 C 
HETATM   10  C5  UNL     1     -33.548   5.123   3.702  1.00 20.00     0.046 C 
HETATM   11  C6  UNL     1     -33.452   7.537   4.389  1.00 20.00     0.046 C 
ENDBRANCH   7   8
ENDBRANCH   1   7
TORSDOF 4
ENDMDL
MODEL 3
REMARK VINA RESULT:      -0.2      0.051      1.314
REMARK  4 active torsions:
REMARK  status: ('A' for Active; 'I' for Inactive)
REMARK    1  A    between atoms: C1_1  and  O10_10 
REMARK    2  A    between atoms: C1_1  and  O11_11 
REMARK    3  A    between atoms: C7_7  and  O10_10 
REMARK    4  A    between atoms: C8_8  and  O11_11 
ROOT
HETATM    1  C1  UNL     1     -32.517   7.008   1.800  1.00 20.00     0.407 C 
HETATM    2  O9  UNL     1     -31.750   6.088   1.549  1.00 20.00    -0.229 OA
ENDROOT
BRANCH   1   3
HETATM    3  O10 UNL     1     -32.201   8.333   1.809  1.00 20.00    -0.293 OA
BRANCH   3   4
HETATM    4  C7  UNL     1     -32.393   9.024   0.570  1.00 20.00     0.126 C 
HETATM    5  C2  UNL     1     -32.784  10.465   0.856  1.00 20.00     0.040 C 
HETATM    6  C3  UNL     1     -31.119   8.935  -0.256  1.00 20.00     0.040 C 
ENDBRANCH   3   4
ENDBRANCH   1   3
BRANCH   1   7
HETATM    7  O11 UNL     1     -33.837   6.884   2.118  1.00 20.00    -0.288 OA
BRANCH   7   8
HETATM    8  C8  UNL     1     -34.117   6.505   3.466  1.00 20.00     0.062 C 
HETATM    9  C4  UNL     1     -33.554   5.103   3.703  1.00 20.00     0.046 C 
HETATM   10  C5  UNL     1     -33.435   7.519   4.380  1.00 20.00     0.046 C 
HETATM   11  C6  UNL     1     -35.631   6.526   3.674  1.00 20.00     0.046 C 
ENDBRANCH   7   8
ENDBRANCH   1   7
TORSDOF 4
ENDMDL
MODEL 4
REMARK VINA RESULT:      -0.0      1.471      4.569
REMARK  4 active torsions:
REMARK  status: ('A' for Active; 'I' for Inactive)
REMARK    1  A    between atoms: C1_1  and  O10_10 
REMARK    2  A    between atoms: C1_1  and  O11_11 
REMARK    3  A    between atoms: C7_7  and  O10_10 
REMARK    4  A    between atoms: C8_8  and  O11_11 
ROOT
HETATM    1  C1  UNL     1     -33.663   7.336   3.524  1.00 20.00     0.407 C 
HETATM    2  O9  UNL     1     -33.689   7.819   4.648  1.00 20.00    -0.229 OA
ENDROOT
BRANCH   1   3
HETATM    3  O10 UNL     1     -33.775   6.013   3.218  1.00 20.00    -0.293 OA
BRANCH   3   4
HETATM    4  C7  UNL     1     -34.166   5.160   4.299  1.00 20.00     0.126 C 
HETATM    5  C2  UNL     1     -35.671   5.259   4.496  1.00 20.00     0.040 C 
HETATM    6  C3  UNL     1     -33.726   3.735   3.997  1.00 20.00     0.040 C 
ENDBRANCH   3   4
ENDBRANCH   1   3
BRANCH   1   7
HETATM    7  O11 UNL     1     -33.516   8.030   2.359  1.00 20.00    -0.288 OA
BRANCH   7   8
HETATM    8  C8  UNL     1     -32.202   8.032   1.800  1.00 20.00     0.062 C 
HETATM    9  C4  UNL     1     -31.896   6.631   1.273  1.00 20.00     0.046 C 
HETATM   10  C5  UNL     1     -32.188   9.049   0.662  1.00 20.00     0.046 C 
HETATM   11  C6  UNL     1     -31.210   8.433   2.891  1.00 20.00     0.046 C 
ENDBRANCH   7   8
ENDBRANCH   1   7
TORSDOF 4
ENDMDL
MODEL 5
REMARK VINA RESULT:       0.1      1.030      4.021
REMARK  4 active torsions:
REMARK  status: ('A' for Active; 'I' for Inactive)
REMARK    1  A    between atoms: C1_1  and  O10_10 
REMARK    2  A    between atoms: C1_1  and  O11_11 
REMARK    3  A    between atoms: C7_7  and  O10_10 
REMARK    4  A    between atoms: C8_8  and  O11_11 
ROOT
HETATM    1  C1  UNL     1     -32.762   6.433   1.853  1.00 20.00     0.407 C 
HETATM    2  O9  UNL     1     -32.176   5.602   1.171  1.00 20.00    -0.229 OA
ENDROOT
BRANCH   1   3
HETATM    3  O10 UNL     1     -33.150   6.274   3.149  1.00 20.00    -0.293 OA
BRANCH   3   4
HETATM    4  C7  UNL     1     -34.280   7.054   3.557  1.00 20.00     0.126 C 
HETATM    5  C2  UNL     1     -35.417   6.122   3.944  1.00 20.00     0.040 C 
HETATM    6  C3  UNL     1     -33.873   7.962   4.708  1.00 20.00     0.040 C 
ENDBRANCH   3   4
ENDBRANCH   1   3
BRANCH   1   7
HETATM    7  O11 UNL     1     -33.139   7.678   1.446  1.00 20.00    -0.288 OA
BRANCH   7   8
HETATM    8  C8  UNL     1     -32.079   8.613   1.245  1.00 20.00     0.062 C 
HETATM    9  C4  UNL     1     -31.300   8.202  -0.005  1.00 20.00     0.046 C 
HETATM   10  C5  UNL     1     -32.709   9.991   1.056  1.00 20.00     0.046 C 
HETATM   11  C6  UNL     1     -31.177   8.598   2.478  1.00 20.00     0.046 C 
ENDBRANCH   7   8
ENDBRANCH   1   7
TORSDOF 4
ENDMDL
MODEL 6
REMARK VINA RESULT:       0.1      1.301      4.273
REMARK  4 active torsions:
REMARK  status: ('A' for Active; 'I' for Inactive)
REMARK    1  A    between atoms: C1_1  and  O10_10 
REMARK    2  A    between atoms: C1_1  and  O11_11 
REMARK    3  A    between atoms: C7_7  and  O10_10 
REMARK    4  A    between atoms: C8_8  and  O11_11 
ROOT
HETATM    1  C1  UNL     1     -32.921   5.888   1.738  1.00 20.00     0.407 C 
HETATM    2  O9  UNL     1     -32.518   5.017   0.979  1.00 20.00    -0.229 OA
ENDROOT
BRANCH   1   3
HETATM    3  O10 UNL     1     -33.115   5.753   3.080  1.00 20.00    -0.293 OA
BRANCH   3   4
HETATM    4  C7  UNL     1     -34.315   5.073   3.466  1.00 20.00     0.126 C 
HETATM    5  C2  UNL     1     -33.958   3.900   4.365  1.00 20.00     0.040 C 
HETATM    6  C3  UNL     1     -35.246   6.056   4.159  1.00 20.00     0.040 C 
ENDBRANCH   3   4
ENDBRANCH   1   3
BRANCH   1   7
HETATM    7  O11 UNL     1     -33.255   7.163   1.387  1.00 20.00    -0.288 OA
BRANCH   7   8
HETATM    8  C8  UNL     1     -32.277   8.162   1.678  1.00 20.00     0.062 C 
HETATM    9  C4  UNL     1     -32.515   9.357   0.756  1.00 20.00     0.046 C 
HETATM   10  C5  UNL     1     -32.453   8.567   3.139  1.00 20.00     0.046 C 
HETATM   11  C6  UNL     1     -30.889   7.566   1.449  1.00 20.00     0.046 C 
ENDBRANCH   7   8
ENDBRANCH   1   7
TORSDOF 4
ENDMDL
MODEL 7
REMARK VINA RESULT:       0.1      1.299      4.371
REMARK  4 active torsions:
REMARK  status: ('A' for Active; 'I' for Inactive)
REMARK    1  A    between atoms: C1_1  and  O10_10 
REMARK    2  A    between atoms: C1_1  and  O11_11 
REMARK    3  A    between atoms: C7_7  and  O10_10 
REMARK    4  A    between atoms: C8_8  and  O11_11 
ROOT
HETATM    1  C1  UNL     1     -32.908   5.895   1.745  1.00 20.00     0.407 C 
HETATM    2  O9  UNL     1     -32.495   5.028   0.986  1.00 20.00    -0.229 OA
ENDROOT
BRANCH   1   3
HETATM    3  O10 UNL     1     -33.108   5.755   3.085  1.00 20.00    -0.293 OA
BRANCH   3   4
HETATM    4  C7  UNL     1     -34.311   5.079   3.465  1.00 20.00     0.126 C 
HETATM    5  C2  UNL     1     -33.962   3.902   4.362  1.00 20.00     0.040 C 
HETATM    6  C3  UNL     1     -35.242   6.063   4.157  1.00 20.00     0.040 C 
ENDBRANCH   3   4
ENDBRANCH   1   3
BRANCH   1   7
HETATM    7  O11 UNL     1     -33.247   7.168   1.395  1.00 20.00    -0.288 OA
BRANCH   7   8
HETATM    8  C8  UNL     1     -32.274   8.171   1.689  1.00 20.00     0.062 C 
HETATM    9  C4  UNL     1     -32.432   8.589   3.150  1.00 20.00     0.046 C 
HETATM   10  C5  UNL     1     -30.895   7.559   1.452  1.00 20.00     0.046 C 
HETATM   11  C6  UNL     1     -32.502   9.359   0.755  1.00 20.00     0.046 C 
ENDBRANCH   7   8
ENDBRANCH   1   7
TORSDOF 4
ENDMDL
MODEL 8
REMARK VINA RESULT:       0.1      1.032      4.071
REMARK  4 active torsions:
REMARK  status: ('A' for Active; 'I' for Inactive)
REMARK    1  A    between atoms: C1_1  and  O10_10 
REMARK    2  A    between atoms: C1_1  and  O11_11 
REMARK    3  A    between atoms: C7_7  and  O10_10 
REMARK    4  A    between atoms: C8_8  and  O11_11 
ROOT
HETATM    1  C1  UNL     1     -32.758   6.378   1.857  1.00 20.00     0.407 C 
HETATM    2  O9  UNL     1     -32.131   5.568   1.186  1.00 20.00    -0.229 OA
ENDROOT
BRANCH   1   3
HETATM    3  O10 UNL     1     -33.190   6.194   3.135  1.00 20.00    -0.293 OA
BRANCH   3   4
HETATM    4  C7  UNL     1     -34.301   7.003   3.535  1.00 20.00     0.126 C 
HETATM    5  C2  UNL     1     -35.450   6.101   3.957  1.00 20.00     0.040 C 
HETATM    6  C3  UNL     1     -33.866   7.932   4.659  1.00 20.00     0.040 C 
ENDBRANCH   3   4
ENDBRANCH   1   3
BRANCH   1   7
HETATM    7  O11 UNL     1     -33.144   7.622   1.452  1.00 20.00    -0.288 OA
BRANCH   7   8
HETATM    8  C8  UNL     1     -32.091   8.567   1.264  1.00 20.00     0.062 C 
HETATM    9  C4  UNL     1     -31.200   8.555   2.506  1.00 20.00     0.046 C 
HETATM   10  C5  UNL     1     -31.299   8.137   0.032  1.00 20.00     0.046 C 
HETATM   11  C6  UNL     1     -32.708   9.948   1.051  1.00 20.00     0.046 C 
ENDBRANCH   7   8
ENDBRANCH   1   7
TORSDOF 4
ENDMDL
MODEL 9
REMARK VINA RESULT:       0.2      1.057      4.023
REMARK  4 active torsions:
REMARK  status: ('A' for Active; 'I' for Inactive)
REMARK    1  A    between atoms: C1_1  and  O10_10 
REMARK    2  A    between atoms: C1_1  and  O11_11 
REMARK    3  A    between atoms: C7_7  and  O10_10 
REMARK    4  A    between atoms: C8_8  and  O11_11 
ROOT
HETATM    1  C1  UNL     1     -32.755   6.363   1.863  1.00 20.00     0.407 C 
HETATM    2  O9  UNL     1     -32.175   5.520   1.190  1.00 20.00    -0.229 OA
ENDROOT
BRANCH   1   3
HETATM    3  O10 UNL     1     -33.137   6.224   3.163  1.00 20.00    -0.293 OA
BRANCH   3   4
HETATM    4  C7  UNL     1     -34.277   6.994   3.559  1.00 20.00     0.126 C 
HETATM    5  C2  UNL     1     -35.356   6.057   4.082  1.00 20.00     0.040 C 
HETATM    6  C3  UNL     1     -33.855   8.013   4.606  1.00 20.00     0.040 C 
ENDBRANCH   3   4
ENDBRANCH   1   3
BRANCH   1   7
HETATM    7  O11 UNL     1     -33.132   7.603   1.439  1.00 20.00    -0.288 OA
BRANCH   7   8
HETATM    8  C8  UNL     1     -32.069   8.529   1.210  1.00 20.00     0.062 C 
HETATM    9  C4  UNL     1     -32.675   9.897   0.901  1.00 20.00     0.046 C 
HETATM   10  C5  UNL     1     -31.229   8.589   2.484  1.00 20.00     0.046 C 
HETATM   11  C6  UNL     1     -31.230   8.027   0.036  1.00 20.00     0.046 C 
ENDBRANCH   7   8
ENDBRANCH   1   7
TORSDOF 4
ENDMDL
