MODEL 1
REMARK VINA RESULT:       0.4      0.000      0.000
REMARK  1 active torsions:
REMARK  status: ('A' for Active; 'I' for Inactive)
REMARK    1  A    between atoms: C1_1  and  C3_3 
ROOT
HETATM    1  C2  UNL     1     -31.700   6.813   1.055  1.00 20.00     0.019 C 
HETATM    2  C3  UNL     1     -33.531   7.200   2.179  1.00 20.00     0.070 C 
HETATM    3  C4  UNL     1     -32.821   5.911   1.638  1.00 20.00    -0.036 C 
HETATM    4  C5  UNL     1     -32.228   8.017   1.880  1.00 20.00    -0.036 C 
HETATM    5  C7  UNL     1     -33.634   5.196   0.557  1.00 20.00     0.015 C 
HETATM    6  C8  UNL     1     -32.311   4.909   2.675  1.00 20.00     0.015 C 
HETATM    7  C9  UNL     1     -32.490   9.259   1.024  1.00 20.00     0.015 C 
HETATM    8  C10 UNL     1     -31.338   8.370   3.073  1.00 20.00     0.015 C 
ENDROOT
BRANCH   2   9
HETATM    9  C1  UNL     1     -34.099   7.196   3.602  1.00 20.00     0.128 C 
HETATM   10  C6  UNL     1     -35.293   6.315   3.852  1.00 20.00     0.091 C 
HETATM   11  O11 UNL     1     -33.604   7.881   4.496  1.00 20.00    -0.298 OA
ENDBRANCH   2   9
TORSDOF 1
ENDMDL
MODEL 2
REMARK VINA RESULT:       0.7      1.732      3.471
REMARK  1 active torsions:
REMARK  status: ('A' for Active; 'I' for Inactive)
REMARK    1  A    between atoms: C1_1  and  C3_3 
ROOT
HETATM    1  C2  UNL     1     -33.294   7.294   2.131  1.00 20.00     0.019 C 
HETATM    2  C3  UNL     1     -33.221   5.621   3.532  1.00 20.00     0.070 C 
HETATM    3  C4  UNL     1     -33.885   7.041   3.544  1.00 20.00    -0.036 C 
HETATM    4  C5  UNL     1     -32.945   5.787   1.998  1.00 20.00    -0.036 C 
HETATM    5  C7  UNL     1     -33.293   7.964   4.612  1.00 20.00     0.015 C 
HETATM    6  C8  UNL     1     -35.413   7.094   3.578  1.00 20.00     0.015 C 
HETATM    7  C9  UNL     1     -31.479   5.545   1.630  1.00 20.00     0.015 C 
HETATM    8  C10 UNL     1     -33.867   5.034   1.039  1.00 20.00     0.015 C 
ENDROOT
BRANCH   2   9
HETATM    9  C1  UNL     1     -34.030   4.415   4.018  1.00 20.00     0.128 C 
HETATM   10  C6  UNL     1     -33.291   3.110   4.145  1.00 20.00     0.091 C 
HETATM   11  O11 UNL     1     -35.227   4.507   4.291  1.00 20.00    -0.298 OA
ENDBRANCH   2   9
TORSDOF 1
ENDMDL
MODEL 3
REMARK VINA RESULT:       1.0      1.359      3.331
REMARK  1 active torsions:
REMARK  status: ('A' for Active; 'I' for Inactive)
REMARK    1  A    between atoms: C1_1  and  C3_3 
ROOT
HETATM    1  C2  UNL     1     -33.719   5.434   2.930  1.00 20.00     0.019 C 
HETATM    2  C3  UNL     1     -33.308   7.263   1.810  1.00 20.00     0.070 C 
HETATM    3  C4  UNL     1     -33.823   6.948   3.257  1.00 20.00    -0.036 C 
HETATM    4  C5  UNL     1     -32.899   5.758   1.652  1.00 20.00    -0.036 C 
HETATM    5  C7  UNL     1     -35.264   7.411   3.488  1.00 20.00     0.015 C 
HETATM    6  C8  UNL     1     -32.931   7.377   4.423  1.00 20.00     0.015 C 
HETATM    7  C9  UNL     1     -33.482   5.115   0.391  1.00 20.00     0.015 C 
HETATM    8  C10 UNL     1     -31.414   5.422   1.785  1.00 20.00     0.015 C 
ENDROOT
BRANCH   2   9
HETATM    9  C1  UNL     1     -32.245   8.348   1.617  1.00 20.00     0.128 C 
HETATM   10  C6  UNL     1     -32.500   9.361   0.533  1.00 20.00     0.091 C 
HETATM   11  O11 UNL     1     -31.231   8.391   2.313  1.00 20.00    -0.298 OA
ENDBRANCH   2   9
TORSDOF 1
ENDMDL
MODEL 4
REMARK VINA RESULT:       2.3      1.711      3.512
REMARK  1 active torsions:
REMARK  status: ('A' for Active; 'I' for Inactive)
REMARK    1  A    between atoms: C1_1  and  C3_3 
ROOT
HETATM    1  C2  UNL     1     -33.187   7.815   3.553  1.00 20.00     0.019 C 
HETATM    2  C3  UNL     1     -33.549   6.687   1.719  1.00 20.00     0.070 C 
HETATM    3  C4  UNL     1     -32.547   7.817   2.139  1.00 20.00    -0.036 C 
HETATM    4  C5  UNL     1     -33.919   6.485   3.228  1.00 20.00    -0.036 C 
HETATM    5  C7  UNL     1     -32.780   9.127   1.382  1.00 20.00     0.015 C 
HETATM    6  C8  UNL     1     -31.060   7.461   2.148  1.00 20.00     0.015 C 
HETATM    7  C9  UNL     1     -35.427   6.557   3.484  1.00 20.00     0.015 C 
HETATM    8  C10 UNL     1     -33.316   5.273   3.937  1.00 20.00     0.015 C 
ENDROOT
BRANCH   2   9
HETATM    9  C1  UNL     1     -33.031   5.493   0.912  1.00 20.00     0.128 C 
HETATM   10  C6  UNL     1     -33.964   4.915  -0.118  1.00 20.00     0.091 C 
HETATM   11  O11 UNL     1     -31.907   5.028   1.096  1.00 20.00    -0.298 OA
ENDBRANCH   2   9
TORSDOF 1
ENDMDL
MODEL 5
REMARK VINA RESULT:       2.5      1.578      3.234
REMARK  1 active torsions:
REMARK  status: ('A' for Active; 'I' for Inactive)
REMARK    1  A    between atoms: C1_1  and  C3_3 
ROOT
HETATM    1  C2  UNL     1     -33.653   6.107   3.066  1.00 20.00     0.019 C 
HETATM    2  C3  UNL     1     -32.333   7.632   2.229  1.00 20.00     0.070 C 
HETATM    3  C4  UNL     1     -32.830   6.223   1.755  1.00 20.00    -0.036 C 
HETATM    4  C5  UNL     1     -33.430   7.617   3.348  1.00 20.00    -0.036 C 
HETATM    5  C7  UNL     1     -31.700   5.194   1.668  1.00 20.00     0.015 C 
HETATM    6  C8  UNL     1     -33.692   6.177   0.493  1.00 20.00     0.015 C 
HETATM    7  C9  UNL     1     -32.857   7.884   4.743  1.00 20.00     0.015 C 
HETATM    8  C10 UNL     1     -34.677   8.469   3.112  1.00 20.00     0.015 C 
ENDROOT
BRANCH   2   9
HETATM    9  C1  UNL     1     -32.306   8.790   1.227  1.00 20.00     0.128 C 
HETATM   10  C6  UNL     1     -31.281   8.710   0.128  1.00 20.00     0.091 C 
HETATM   11  O11 UNL     1     -33.084   9.739   1.316  1.00 20.00    -0.298 OA
ENDBRANCH   2   9
TORSDOF 1
ENDMDL
MODEL 6
REMARK VINA RESULT:       2.8      1.649      2.078
REMARK  1 active torsions:
REMARK  status: ('A' for Active; 'I' for Inactive)
REMARK    1  A    between atoms: C1_1  and  C3_3 
ROOT
HETATM    1  C2  UNL     1     -32.675   7.609   2.069  1.00 20.00     0.019 C 
HETATM    2  C3  UNL     1     -34.127   6.162   2.821  1.00 20.00     0.070 C 
HETATM    3  C4  UNL     1     -32.952   6.108   1.785  1.00 20.00    -0.036 C 
HETATM    4  C5  UNL     1     -33.597   7.550   3.317  1.00 20.00    -0.036 C 
HETATM    5  C7  UNL     1     -33.434   5.852   0.355  1.00 20.00     0.015 C 
HETATM    6  C8  UNL     1     -31.768   5.201   2.121  1.00 20.00     0.015 C 
HETATM    7  C9  UNL     1     -34.678   8.635   3.311  1.00 20.00     0.015 C 
HETATM    8  C10 UNL     1     -32.829   7.571   4.638  1.00 20.00     0.015 C 
ENDROOT
BRANCH   2   9
HETATM    9  C1  UNL     1     -34.285   5.020   3.830  1.00 20.00     0.128 C 
HETATM   10  C6  UNL     1     -35.480   5.083   4.743  1.00 20.00     0.091 C 
HETATM   11  O11 UNL     1     -33.474   4.096   3.891  1.00 20.00    -0.298 OA
ENDBRANCH   2   9
TORSDOF 1
ENDMDL
MODEL 7
REMARK VINA RESULT:       3.2      1.801      3.268
REMARK  1 active torsions:
REMARK  status: ('A' for Active; 'I' for Inactive)
REMARK    1  A    between atoms: C1_1  and  C3_3 
ROOT
HETATM    1  C2  UNL     1     -33.765   7.974   2.461  1.00 20.00     0.019 C 
HETATM    2  C3  UNL     1     -33.051   6.134   3.395  1.00 20.00     0.070 C 
HETATM    3  C4  UNL     1     -34.170   7.179   3.731  1.00 20.00    -0.036 C 
HETATM    4  C5  UNL     1     -32.915   6.771   1.969  1.00 20.00    -0.036 C 
HETATM    5  C7  UNL     1     -33.895   7.946   5.027  1.00 20.00     0.015 C 
HETATM    6  C8  UNL     1     -35.617   6.685   3.699  1.00 20.00     0.015 C 
HETATM    7  C9  UNL     1     -31.474   7.159   1.628  1.00 20.00     0.015 C 
HETATM    8  C10 UNL     1     -33.554   6.014   0.805  1.00 20.00     0.015 C 
ENDROOT
BRANCH   2   9
HETATM    9  C1  UNL     1     -33.365   4.640   3.517  1.00 20.00     0.128 C 
HETATM   10  C6  UNL     1     -34.312   4.234   4.614  1.00 20.00     0.091 C 
HETATM   11  O11 UNL     1     -32.867   3.811   2.755  1.00 20.00    -0.298 OA
ENDBRANCH   2   9
TORSDOF 1
ENDMDL
