MODEL 1
REMARK VINA RESULT:      -2.7      0.000      0.000
REMARK  5 active torsions:
REMARK  status: ('A' for Active; 'I' for Inactive)
REMARK    1  A    between atoms: C2_2  and  C4_4 
REMARK    2  A    between atoms: C4_4  and  C6_6 
REMARK    3  A    between atoms: C5_5  and  C6_6 
REMARK    4  A    between atoms: C5_5  and  C7_7 
REMARK    5  A    between atoms: C6_6  and  O8_8 
ROOT
HETATM    1  C6  UNL     1     -32.353   8.315   2.090  1.00 20.00     0.130 C 
ENDROOT
BRANCH   1   2
HETATM    2  C4  UNL     1     -32.820   6.851   2.083  1.00 20.00     0.065 C 
BRANCH   2   3
HETATM    3  C2  UNL     1     -33.767   6.521   3.216  1.00 20.00    -0.091 C 
HETATM    4  C1  UNL     1     -34.323   7.481   3.969  1.00 20.00     0.014 C 
HETATM    5  C3  UNL     1     -34.025   5.066   3.490  1.00 20.00     0.042 C 
ENDBRANCH   2   3
ENDBRANCH   1   2
BRANCH   1   6
HETATM    6  C5  UNL     1     -31.903   8.744   0.687  1.00 20.00     0.149 C 
BRANCH   6   7
HETATM    7  C7  UNL     1     -32.584  10.010   0.205  1.00 20.00     0.390 C 
HETATM    8  F9  UNL     1     -31.700  11.009   0.008  1.00 20.00    -0.171 F 
HETATM    9  F10 UNL     1     -33.215   9.787  -0.971  1.00 20.00    -0.171 F 
HETATM   10  F11 UNL     1     -33.509  10.437   1.090  1.00 20.00    -0.171 F 
ENDBRANCH   6   7
ENDBRANCH   1   6
BRANCH   1  11
HETATM   11  O8  UNL     1     -31.259   8.429   2.999  1.00 20.00    -0.395 OA
HETATM   12  H22 UNL     1     -31.407   9.242   3.507  1.00 20.00     0.210 HD
ENDBRANCH   1  11
TORSDOF 5
ENDMDL
MODEL 2
REMARK VINA RESULT:      -2.7      0.019      1.139
REMARK  5 active torsions:
REMARK  status: ('A' for Active; 'I' for Inactive)
REMARK    1  A    between atoms: C2_2  and  C4_4 
REMARK    2  A    between atoms: C4_4  and  C6_6 
REMARK    3  A    between atoms: C5_5  and  C6_6 
REMARK    4  A    between atoms: C5_5  and  C7_7 
REMARK    5  A    between atoms: C6_6  and  O8_8 
ROOT
HETATM    1  C6  UNL     1     -32.352   8.306   2.086  1.00 20.00     0.130 C 
ENDROOT
BRANCH   1   2
HETATM    2  C4  UNL     1     -32.821   6.843   2.070  1.00 20.00     0.065 C 
BRANCH   2   3
HETATM    3  C2  UNL     1     -33.759   6.504   3.208  1.00 20.00    -0.091 C 
HETATM    4  C1  UNL     1     -34.318   7.459   3.965  1.00 20.00     0.014 C 
HETATM    5  C3  UNL     1     -34.003   5.047   3.483  1.00 20.00     0.042 C 
ENDBRANCH   2   3
ENDBRANCH   1   2
BRANCH   1   6
HETATM    6  C5  UNL     1     -31.887   8.738   0.688  1.00 20.00     0.149 C 
BRANCH   6   7
HETATM    7  C7  UNL     1     -32.577   9.995   0.194  1.00 20.00     0.390 C 
HETATM    8  F9  UNL     1     -33.217   9.787  -0.975  1.00 20.00    -0.171 F 
HETATM    9  F10 UNL     1     -33.497  10.412   1.094  1.00 20.00    -0.171 F 
HETATM   10  F11 UNL     1     -31.695  11.001   0.016  1.00 20.00    -0.171 F 
ENDBRANCH   6   7
ENDBRANCH   1   6
BRANCH   1  11
HETATM   11  O8  UNL     1     -31.267   8.416   3.006  1.00 20.00    -0.395 OA
HETATM   12  H22 UNL     1     -31.569   9.001   3.718  1.00 20.00     0.210 HD
ENDBRANCH   1  11
TORSDOF 5
ENDMDL
MODEL 3
REMARK VINA RESULT:      -2.7      0.009      1.139
REMARK  5 active torsions:
REMARK  status: ('A' for Active; 'I' for Inactive)
REMARK    1  A    between atoms: C2_2  and  C4_4 
REMARK    2  A    between atoms: C4_4  and  C6_6 
REMARK    3  A    between atoms: C5_5  and  C6_6 
REMARK    4  A    between atoms: C5_5  and  C7_7 
REMARK    5  A    between atoms: C6_6  and  O8_8 
ROOT
HETATM    1  C6  UNL     1     -32.350   8.313   2.089  1.00 20.00     0.130 C 
ENDROOT
BRANCH   1   2
HETATM    2  C4  UNL     1     -32.817   6.850   2.079  1.00 20.00     0.065 C 
BRANCH   2   3
HETATM    3  C2  UNL     1     -33.762   6.517   3.213  1.00 20.00    -0.091 C 
HETATM    4  C1  UNL     1     -34.317   7.476   3.969  1.00 20.00     0.014 C 
HETATM    5  C3  UNL     1     -34.019   5.062   3.485  1.00 20.00     0.042 C 
ENDBRANCH   2   3
ENDBRANCH   1   2
BRANCH   1   6
HETATM    6  C5  UNL     1     -31.898   8.744   0.687  1.00 20.00     0.149 C 
BRANCH   6   7
HETATM    7  C7  UNL     1     -32.591  10.002   0.199  1.00 20.00     0.390 C 
HETATM    8  F9  UNL     1     -33.506  10.444   1.085  1.00 20.00    -0.171 F 
HETATM    9  F10 UNL     1     -31.690  10.993   0.013  1.00 20.00    -0.171 F 
HETATM   10  F11 UNL     1     -33.216   9.792  -0.979  1.00 20.00    -0.171 F 
ENDBRANCH   6   7
ENDBRANCH   1   6
BRANCH   1  11
HETATM   11  O8  UNL     1     -31.256   8.425   2.999  1.00 20.00    -0.395 OA
HETATM   12  H22 UNL     1     -31.277   9.330   3.344  1.00 20.00     0.210 HD
ENDBRANCH   1  11
TORSDOF 5
ENDMDL
MODEL 4
REMARK VINA RESULT:      -2.6      5.110      6.346
REMARK  5 active torsions:
REMARK  status: ('A' for Active; 'I' for Inactive)
REMARK    1  A    between atoms: C2_2  and  C4_4 
REMARK    2  A    between atoms: C4_4  and  C6_6 
REMARK    3  A    between atoms: C5_5  and  C6_6 
REMARK    4  A    between atoms: C5_5  and  C7_7 
REMARK    5  A    between atoms: C6_6  and  O8_8 
ROOT
HETATM    1  C6  UNL     1     -34.406   5.093   4.301  1.00 20.00     0.130 C 
ENDROOT
BRANCH   1   2
HETATM    2  C4  UNL     1     -34.490   6.227   3.268  1.00 20.00     0.065 C 
BRANCH   2   3
HETATM    3  C2  UNL     1     -33.536   7.367   3.553  1.00 20.00    -0.091 C 
HETATM    4  C1  UNL     1     -33.589   8.055   4.703  1.00 20.00     0.014 C 
HETATM    5  C3  UNL     1     -32.554   7.724   2.473  1.00 20.00     0.042 C 
ENDBRANCH   2   3
ENDBRANCH   1   2
BRANCH   1   6
HETATM    6  C5  UNL     1     -33.823   3.825   3.662  1.00 20.00     0.149 C 
BRANCH   6   7
HETATM    7  C7  UNL     1     -33.097   2.939   4.656  1.00 20.00     0.390 C 
HETATM    8  F9  UNL     1     -33.351   3.304   5.929  1.00 20.00    -0.171 F 
HETATM    9  F10 UNL     1     -33.489   1.653   4.514  1.00 20.00    -0.171 F 
HETATM   10  F11 UNL     1     -31.761   2.982   4.466  1.00 20.00    -0.171 F 
ENDBRANCH   6   7
ENDBRANCH   1   6
BRANCH   1  11
HETATM   11  O8  UNL     1     -35.725   4.826   4.776  1.00 20.00    -0.395 OA
HETATM   12  H22 UNL     1     -36.137   5.688   4.943  1.00 20.00     0.210 HD
ENDBRANCH   1  11
TORSDOF 5
ENDMDL
MODEL 5
REMARK VINA RESULT:      -2.6      0.620      1.602
REMARK  5 active torsions:
REMARK  status: ('A' for Active; 'I' for Inactive)
REMARK    1  A    between atoms: C2_2  and  C4_4 
REMARK    2  A    between atoms: C4_4  and  C6_6 
REMARK    3  A    between atoms: C5_5  and  C6_6 
REMARK    4  A    between atoms: C5_5  and  C7_7 
REMARK    5  A    between atoms: C6_6  and  O8_8 
ROOT
HETATM    1  C6  UNL     1     -32.346   8.432   2.229  1.00 20.00     0.130 C 
ENDROOT
BRANCH   1   2
HETATM    2  C4  UNL     1     -33.082   7.105   2.468  1.00 20.00     0.065 C 
BRANCH   2   3
HETATM    3  C2  UNL     1     -34.001   7.139   3.670  1.00 20.00    -0.091 C 
HETATM    4  C1  UNL     1     -35.082   6.349   3.750  1.00 20.00     0.014 C 
HETATM    5  C3  UNL     1     -33.675   8.128   4.753  1.00 20.00     0.042 C 
ENDBRANCH   2   3
ENDBRANCH   1   2
BRANCH   1   6
HETATM    6  C5  UNL     1     -32.097   8.648   0.731  1.00 20.00     0.149 C 
BRANCH   6   7
HETATM    7  C7  UNL     1     -32.634   9.972   0.223  1.00 20.00     0.390 C 
HETATM    8  F9  UNL     1     -33.526  10.511   1.079  1.00 20.00    -0.171 F 
HETATM    9  F10 UNL     1     -31.626  10.862   0.071  1.00 20.00    -0.171 F 
HETATM   10  F11 UNL     1     -33.237   9.830  -0.976  1.00 20.00    -0.171 F 
ENDBRANCH   6   7
ENDBRANCH   1   6
BRANCH   1  11
HETATM   11  O8  UNL     1     -31.097   8.379   2.919  1.00 20.00    -0.395 OA
HETATM   12  H22 UNL     1     -30.452   8.831   2.353  1.00 20.00     0.210 HD
ENDBRANCH   1  11
TORSDOF 5
ENDMDL
MODEL 6
REMARK VINA RESULT:      -2.4      3.132      4.880
REMARK  5 active torsions:
REMARK  status: ('A' for Active; 'I' for Inactive)
REMARK    1  A    between atoms: C2_2  and  C4_4 
REMARK    2  A    between atoms: C4_4  and  C6_6 
REMARK    3  A    between atoms: C5_5  and  C6_6 
REMARK    4  A    between atoms: C5_5  and  C7_7 
REMARK    5  A    between atoms: C6_6  and  O8_8 
ROOT
HETATM    1  C6  UNL     1     -33.013   7.339   1.896  1.00 20.00     0.130 C 
ENDROOT
BRANCH   1   2
HETATM    2  C4  UNL     1     -31.911   8.346   1.530  1.00 20.00     0.065 C 
BRANCH   2   3
HETATM    3  C2  UNL     1     -32.369   9.399   0.544  1.00 20.00    -0.091 C 
HETATM    4  C1  UNL     1     -32.389   9.162  -0.776  1.00 20.00     0.014 C 
HETATM    5  C3  UNL     1     -32.758  10.737   1.104  1.00 20.00     0.042 C 
ENDBRANCH   2   3
ENDBRANCH   1   2
BRANCH   1   6
HETATM    6  C5  UNL     1     -33.312   7.393   3.401  1.00 20.00     0.149 C 
BRANCH   6   7
HETATM    7  C7  UNL     1     -34.536   6.587   3.792  1.00 20.00     0.390 C 
HETATM    8  F9  UNL     1     -34.256   5.272   3.899  1.00 20.00    -0.171 F 
HETATM    9  F10 UNL     1     -35.009   7.002   4.990  1.00 20.00    -0.171 F 
HETATM   10  F11 UNL     1     -35.529   6.733   2.889  1.00 20.00    -0.171 F 
ENDBRANCH   6   7
ENDBRANCH   1   6
BRANCH   1  11
HETATM   11  O8  UNL     1     -32.556   6.033   1.546  1.00 20.00    -0.395 OA
HETATM   12  H22 UNL     1     -32.110   5.679   2.331  1.00 20.00     0.210 HD
ENDBRANCH   1  11
TORSDOF 5
ENDMDL
MODEL 7
REMARK VINA RESULT:      -2.3      3.122      4.807
REMARK  5 active torsions:
REMARK  status: ('A' for Active; 'I' for Inactive)
REMARK    1  A    between atoms: C2_2  and  C4_4 
REMARK    2  A    between atoms: C4_4  and  C6_6 
REMARK    3  A    between atoms: C5_5  and  C6_6 
REMARK    4  A    between atoms: C5_5  and  C7_7 
REMARK    5  A    between atoms: C6_6  and  O8_8 
ROOT
HETATM    1  C6  UNL     1     -32.987   7.332   1.894  1.00 20.00     0.130 C 
ENDROOT
BRANCH   1   2
HETATM    2  C4  UNL     1     -31.895   8.344   1.514  1.00 20.00     0.065 C 
BRANCH   2   3
HETATM    3  C2  UNL     1     -32.372   9.400   0.541  1.00 20.00    -0.091 C 
HETATM    4  C1  UNL     1     -32.407   9.173  -0.780  1.00 20.00     0.014 C 
HETATM    5  C3  UNL     1     -32.765  10.732   1.115  1.00 20.00     0.042 C 
ENDBRANCH   2   3
ENDBRANCH   1   2
BRANCH   1   6
HETATM    6  C5  UNL     1     -33.292   7.409   3.397  1.00 20.00     0.149 C 
BRANCH   6   7
HETATM    7  C7  UNL     1     -34.523   6.618   3.794  1.00 20.00     0.390 C 
HETATM    8  F9  UNL     1     -35.514   6.746   2.888  1.00 20.00    -0.171 F 
HETATM    9  F10 UNL     1     -34.226   5.302   3.891  1.00 20.00    -0.171 F 
HETATM   10  F11 UNL     1     -34.998   7.018   4.993  1.00 20.00    -0.171 F 
ENDBRANCH   6   7
ENDBRANCH   1   6
BRANCH   1  11
HETATM   11  O8  UNL     1     -32.515   6.025   1.569  1.00 20.00    -0.395 OA
HETATM   12  H22 UNL     1     -32.960   5.770   0.746  1.00 20.00     0.210 HD
ENDBRANCH   1  11
TORSDOF 5
ENDMDL
MODEL 8
REMARK VINA RESULT:      -2.2      1.119      1.594
REMARK  5 active torsions:
REMARK  status: ('A' for Active; 'I' for Inactive)
REMARK    1  A    between atoms: C2_2  and  C4_4 
REMARK    2  A    between atoms: C4_4  and  C6_6 
REMARK    3  A    between atoms: C5_5  and  C6_6 
REMARK    4  A    between atoms: C5_5  and  C7_7 
REMARK    5  A    between atoms: C6_6  and  O8_8 
ROOT
HETATM    1  C6  UNL     1     -32.351   7.963   2.045  1.00 20.00     0.130 C 
ENDROOT
BRANCH   1   2
HETATM    2  C4  UNL     1     -33.133   6.765   2.604  1.00 20.00     0.065 C 
BRANCH   2   3
HETATM    3  C2  UNL     1     -34.034   7.128   3.764  1.00 20.00    -0.091 C 
HETATM    4  C1  UNL     1     -33.704   8.095   4.633  1.00 20.00     0.014 C 
HETATM    5  C3  UNL     1     -35.295   6.328   3.928  1.00 20.00     0.042 C 
ENDBRANCH   2   3
ENDBRANCH   1   2
BRANCH   1   6
HETATM    6  C5  UNL     1     -33.165   8.678   0.958  1.00 20.00     0.149 C 
BRANCH   6   7
HETATM    7  C7  UNL     1     -32.377   9.754   0.236  1.00 20.00     0.390 C 
HETATM    8  F9  UNL     1     -32.920  10.053  -0.962  1.00 20.00    -0.171 F 
HETATM    9  F10 UNL     1     -32.353  10.891   0.968  1.00 20.00    -0.171 F 
HETATM   10  F11 UNL     1     -31.098   9.373   0.033  1.00 20.00    -0.171 F 
ENDBRANCH   6   7
ENDBRANCH   1   6
BRANCH   1  11
HETATM   11  O8  UNL     1     -31.131   7.477   1.487  1.00 20.00    -0.395 OA
HETATM   12  H22 UNL     1     -31.330   7.221   0.573  1.00 20.00     0.210 HD
ENDBRANCH   1  11
TORSDOF 5
ENDMDL
MODEL 9
REMARK VINA RESULT:      -2.2      3.248      4.580
REMARK  5 active torsions:
REMARK  status: ('A' for Active; 'I' for Inactive)
REMARK    1  A    between atoms: C2_2  and  C4_4 
REMARK    2  A    between atoms: C4_4  and  C6_6 
REMARK    3  A    between atoms: C5_5  and  C6_6 
REMARK    4  A    between atoms: C5_5  and  C7_7 
REMARK    5  A    between atoms: C6_6  and  O8_8 
ROOT
HETATM    1  C6  UNL     1     -33.356   6.163   1.723  1.00 20.00     0.130 C 
ENDROOT
BRANCH   1   2
HETATM    2  C4  UNL     1     -31.951   6.781   1.648  1.00 20.00     0.065 C 
BRANCH   2   3
HETATM    3  C2  UNL     1     -31.939   8.271   1.910  1.00 20.00    -0.091 C 
HETATM    4  C1  UNL     1     -31.678   8.768   3.129  1.00 20.00     0.014 C 
HETATM    5  C3  UNL     1     -32.275   9.172   0.756  1.00 20.00     0.042 C 
ENDBRANCH   2   3
ENDBRANCH   1   2
BRANCH   1   6
HETATM    6  C5  UNL     1     -33.656   5.681   3.149  1.00 20.00     0.149 C 
BRANCH   6   7
HETATM    7  C7  UNL     1     -34.826   6.406   3.787  1.00 20.00     0.390 C 
HETATM    8  F9  UNL     1     -34.426   7.502   4.465  1.00 20.00    -0.171 F 
HETATM    9  F10 UNL     1     -35.703   6.810   2.840  1.00 20.00    -0.171 F 
HETATM   10  F11 UNL     1     -35.492   5.604   4.644  1.00 20.00    -0.171 F 
ENDBRANCH   6   7
ENDBRANCH   1   6
BRANCH   1  11
HETATM   11  O8  UNL     1     -33.403   5.055   0.825  1.00 20.00    -0.395 OA
HETATM   12  H22 UNL     1     -33.818   5.379   0.011  1.00 20.00     0.210 HD
ENDBRANCH   1  11
TORSDOF 5
ENDMDL
