MODEL 1
REMARK VINA RESULT:      -1.7      0.000      0.000
REMARK  4 active torsions:
REMARK  status: ('A' for Active; 'I' for Inactive)
REMARK    1  A    between atoms: C6_6  and  C7_7 
REMARK    2  A    between atoms: C7_7  and  C9_9 
REMARK    3  A    between atoms: C8_8  and  C9_9 
REMARK    4  A    between atoms: C8_8  and  C10_10 
ROOT
HETATM    1  C1  UNL     1     -32.486   8.974   1.111  1.00 20.00     0.068 C 
HETATM    2  C4  UNL     1     -31.923   6.574   1.237  1.00 20.00     0.031 C 
HETATM    3  C5  UNL     1     -30.880   8.230   2.787  1.00 20.00     0.031 C 
HETATM    4  C10 UNL     1     -32.178   7.860   2.036  1.00 20.00     0.042 C 
HETATM    5  N11 UNL     1     -32.717   9.851   0.386  1.00 20.00    -0.196 NA
ENDROOT
BRANCH   4   6
HETATM    6  C8  UNL     1     -33.310   7.678   3.089  1.00 20.00     0.028 C 
BRANCH   6   7
HETATM    7  C9  UNL     1     -34.178   6.394   3.037  1.00 20.00    -0.017 C 
HETATM    8  C3  UNL     1     -35.382   6.446   3.984  1.00 20.00     0.010 C 
BRANCH   7   9
HETATM    9  C7  UNL     1     -33.344   5.135   3.383  1.00 20.00     0.004 C 
BRANCH   9  10
HETATM   10  C6  UNL     1     -34.106   4.084   4.194  1.00 20.00    -0.004 C 
HETATM   11  C2  UNL     1     -33.168   3.011   4.728  1.00 20.00     0.005 C 
ENDBRANCH   9  10
ENDBRANCH   7   9
ENDBRANCH   6   7
ENDBRANCH   4   6
TORSDOF 4
ENDMDL
MODEL 2
REMARK VINA RESULT:      -1.3      1.259      1.758
REMARK  4 active torsions:
REMARK  status: ('A' for Active; 'I' for Inactive)
REMARK    1  A    between atoms: C6_6  and  C7_7 
REMARK    2  A    between atoms: C7_7  and  C9_9 
REMARK    3  A    between atoms: C8_8  and  C9_9 
REMARK    4  A    between atoms: C8_8  and  C10_10 
ROOT
HETATM    1  C1  UNL     1     -32.221   7.568   1.289  1.00 20.00     0.068 C 
HETATM    2  C4  UNL     1     -33.839   5.844   0.579  1.00 20.00     0.031 C 
HETATM    3  C5  UNL     1     -31.446   5.273   1.008  1.00 20.00     0.031 C 
HETATM    4  C10 UNL     1     -32.627   6.156   1.470  1.00 20.00     0.042 C 
HETATM    5  N11 UNL     1     -31.895   8.672   1.140  1.00 20.00    -0.196 NA
ENDROOT
BRANCH   4   6
HETATM    6  C8  UNL     1     -32.908   5.843   2.968  1.00 20.00     0.028 C 
BRANCH   6   7
HETATM    7  C9  UNL     1     -34.375   5.856   3.472  1.00 20.00    -0.017 C 
HETATM    8  C3  UNL     1     -34.733   7.133   4.241  1.00 20.00     0.010 C 
BRANCH   7   9
HETATM    9  C7  UNL     1     -34.668   4.641   4.387  1.00 20.00     0.004 C 
BRANCH   9  10
HETATM   10  C6  UNL     1     -33.774   3.427   4.118  1.00 20.00    -0.004 C 
HETATM   11  C2  UNL     1     -32.959   3.057   5.350  1.00 20.00     0.005 C 
ENDBRANCH   9  10
ENDBRANCH   7   9
ENDBRANCH   6   7
ENDBRANCH   4   6
TORSDOF 4
ENDMDL
MODEL 3
REMARK VINA RESULT:      -1.2      2.537      4.996
REMARK  4 active torsions:
REMARK  status: ('A' for Active; 'I' for Inactive)
REMARK    1  A    between atoms: C6_6  and  C7_7 
REMARK    2  A    between atoms: C7_7  and  C9_9 
REMARK    3  A    between atoms: C8_8  and  C9_9 
REMARK    4  A    between atoms: C8_8  and  C10_10 
ROOT
HETATM    1  C1  UNL     1     -34.322   5.283   4.122  1.00 20.00     0.068 C 
HETATM    2  C4  UNL     1     -35.482   7.074   2.881  1.00 20.00     0.031 C 
HETATM    3  C5  UNL     1     -34.366   7.530   5.067  1.00 20.00     0.031 C 
HETATM    4  C10 UNL     1     -34.272   6.718   3.757  1.00 20.00     0.042 C 
HETATM    5  N11 UNL     1     -34.366   4.162   4.418  1.00 20.00    -0.196 NA
ENDROOT
BRANCH   4   6
HETATM    6  C8  UNL     1     -32.925   7.071   3.063  1.00 20.00     0.028 C 
BRANCH   6   7
HETATM    7  C9  UNL     1     -32.799   6.873   1.530  1.00 20.00    -0.017 C 
HETATM    8  C3  UNL     1     -32.320   5.469   1.145  1.00 20.00     0.010 C 
BRANCH   7   9
HETATM    9  C7  UNL     1     -31.827   7.905   0.907  1.00 20.00     0.004 C 
BRANCH   9  10
HETATM   10  C6  UNL     1     -32.304   9.356   1.014  1.00 20.00    -0.004 C 
HETATM   11  C2  UNL     1     -32.571   9.953  -0.360  1.00 20.00     0.005 C 
ENDBRANCH   9  10
ENDBRANCH   7   9
ENDBRANCH   6   7
ENDBRANCH   4   6
TORSDOF 4
ENDMDL
MODEL 4
REMARK VINA RESULT:      -1.0      2.090      4.608
REMARK  4 active torsions:
REMARK  status: ('A' for Active; 'I' for Inactive)
REMARK    1  A    between atoms: C6_6  and  C7_7 
REMARK    2  A    between atoms: C7_7  and  C9_9 
REMARK    3  A    between atoms: C8_8  and  C9_9 
REMARK    4  A    between atoms: C8_8  and  C10_10 
ROOT
HETATM    1  C1  UNL     1     -34.004   7.455   4.548  1.00 20.00     0.068 C 
HETATM    2  C4  UNL     1     -35.269   5.336   4.626  1.00 20.00     0.031 C 
HETATM    3  C5  UNL     1     -35.518   6.920   2.712  1.00 20.00     0.031 C 
HETATM    4  C10 UNL     1     -34.516   6.331   3.730  1.00 20.00     0.042 C 
HETATM    5  N11 UNL     1     -33.612   8.342   5.185  1.00 20.00    -0.196 NA
ENDROOT
BRANCH   4   6
HETATM    6  C8  UNL     1     -33.366   5.648   2.936  1.00 20.00     0.028 C 
BRANCH   6   7
HETATM    7  C9  UNL     1     -32.953   6.239   1.563  1.00 20.00    -0.017 C 
HETATM    8  C3  UNL     1     -32.401   5.184   0.598  1.00 20.00     0.010 C 
BRANCH   7   9
HETATM    9  C7  UNL     1     -31.886   7.351   1.726  1.00 20.00     0.004 C 
BRANCH   9  10
HETATM   10  C6  UNL     1     -32.434   8.771   1.557  1.00 20.00    -0.004 C 
HETATM   11  C2  UNL     1     -32.147   9.312   0.164  1.00 20.00     0.005 C 
ENDBRANCH   9  10
ENDBRANCH   7   9
ENDBRANCH   6   7
ENDBRANCH   4   6
TORSDOF 4
ENDMDL
MODEL 5
REMARK VINA RESULT:      -0.7      1.427      1.950
REMARK  4 active torsions:
REMARK  status: ('A' for Active; 'I' for Inactive)
REMARK    1  A    between atoms: C6_6  and  C7_7 
REMARK    2  A    between atoms: C7_7  and  C9_9 
REMARK    3  A    between atoms: C8_8  and  C9_9 
REMARK    4  A    between atoms: C8_8  and  C10_10 
ROOT
HETATM    1  C1  UNL     1     -32.070   6.440   1.515  1.00 20.00     0.068 C 
HETATM    2  C4  UNL     1     -31.027   8.288   2.776  1.00 20.00     0.031 C 
HETATM    3  C5  UNL     1     -32.798   8.725   1.071  1.00 20.00     0.031 C 
HETATM    4  C10 UNL     1     -32.328   7.744   2.169  1.00 20.00     0.042 C 
HETATM    5  N11 UNL     1     -31.868   5.423   0.993  1.00 20.00    -0.196 NA
ENDROOT
BRANCH   4   6
HETATM    6  C8  UNL     1     -33.462   7.624   3.228  1.00 20.00     0.028 C 
BRANCH   6   7
HETATM    7  C9  UNL     1     -34.267   6.300   3.313  1.00 20.00    -0.017 C 
HETATM    8  C3  UNL     1     -35.711   6.507   3.782  1.00 20.00     0.010 C 
BRANCH   7   9
HETATM    9  C7  UNL     1     -33.587   5.288   4.268  1.00 20.00     0.004 C 
BRANCH   9  10
HETATM   10  C6  UNL     1     -33.923   3.824   3.967  1.00 20.00    -0.004 C 
HETATM   11  C2  UNL     1     -33.111   2.880   4.842  1.00 20.00     0.005 C 
ENDBRANCH   9  10
ENDBRANCH   7   9
ENDBRANCH   6   7
ENDBRANCH   4   6
TORSDOF 4
ENDMDL
MODEL 6
REMARK VINA RESULT:      -0.5      2.487      5.064
REMARK  4 active torsions:
REMARK  status: ('A' for Active; 'I' for Inactive)
REMARK    1  A    between atoms: C6_6  and  C7_7 
REMARK    2  A    between atoms: C7_7  and  C9_9 
REMARK    3  A    between atoms: C8_8  and  C9_9 
REMARK    4  A    between atoms: C8_8  and  C10_10 
ROOT
HETATM    1  C1  UNL     1     -34.153   4.945   3.948  1.00 20.00     0.068 C 
HETATM    2  C4  UNL     1     -35.808   6.679   3.359  1.00 20.00     0.031 C 
HETATM    3  C5  UNL     1     -33.718   7.255   4.597  1.00 20.00     0.031 C 
HETATM    4  C10 UNL     1     -34.316   6.347   3.499  1.00 20.00     0.042 C 
HETATM    5  N11 UNL     1     -34.023   3.850   4.311  1.00 20.00    -0.196 NA
ENDROOT
BRANCH   4   6
HETATM    6  C8  UNL     1     -33.533   6.606   2.179  1.00 20.00     0.028 C 
BRANCH   6   7
HETATM    7  C9  UNL     1     -32.227   7.440   2.236  1.00 20.00    -0.017 C 
HETATM    8  C3  UNL     1     -32.293   8.588   3.248  1.00 20.00     0.010 C 
BRANCH   7   9
HETATM    9  C7  UNL     1     -31.877   8.035   0.850  1.00 20.00     0.004 C 
BRANCH   9  10
HETATM   10  C6  UNL     1     -32.039   9.556   0.765  1.00 20.00    -0.004 C 
HETATM   11  C2  UNL     1     -32.777   9.963  -0.503  1.00 20.00     0.005 C 
ENDBRANCH   9  10
ENDBRANCH   7   9
ENDBRANCH   6   7
ENDBRANCH   4   6
TORSDOF 4
ENDMDL
MODEL 7
REMARK VINA RESULT:      -0.3      2.516      4.277
REMARK  4 active torsions:
REMARK  status: ('A' for Active; 'I' for Inactive)
REMARK    1  A    between atoms: C6_6  and  C7_7 
REMARK    2  A    between atoms: C7_7  and  C9_9 
REMARK    3  A    between atoms: C8_8  and  C9_9 
REMARK    4  A    between atoms: C8_8  and  C10_10 
ROOT
HETATM    1  C1  UNL     1     -34.228   5.048   3.950  1.00 20.00     0.068 C 
HETATM    2  C4  UNL     1     -36.020   6.683   3.494  1.00 20.00     0.031 C 
HETATM    3  C5  UNL     1     -33.877   7.380   4.570  1.00 20.00     0.031 C 
HETATM    4  C10 UNL     1     -34.504   6.437   3.519  1.00 20.00     0.042 C 
HETATM    5  N11 UNL     1     -34.009   3.963   4.299  1.00 20.00    -0.196 NA
ENDROOT
BRANCH   4   6
HETATM    6  C8  UNL     1     -33.841   6.738   2.143  1.00 20.00     0.028 C 
BRANCH   6   7
HETATM    7  C9  UNL     1     -32.363   7.208   2.114  1.00 20.00    -0.017 C 
HETATM    8  C3  UNL     1     -32.172   8.536   1.373  1.00 20.00     0.010 C 
BRANCH   7   9
HETATM    9  C7  UNL     1     -31.447   6.148   1.453  1.00 20.00     0.004 C 
BRANCH   9  10
HETATM   10  C6  UNL     1     -32.204   4.974   0.824  1.00 20.00    -0.004 C 
HETATM   11  C2  UNL     1     -31.257   4.035   0.090  1.00 20.00     0.005 C 
ENDBRANCH   9  10
ENDBRANCH   7   9
ENDBRANCH   6   7
ENDBRANCH   4   6
TORSDOF 4
ENDMDL
MODEL 8
REMARK VINA RESULT:      -0.1      1.482      2.431
REMARK  4 active torsions:
REMARK  status: ('A' for Active; 'I' for Inactive)
REMARK    1  A    between atoms: C6_6  and  C7_7 
REMARK    2  A    between atoms: C7_7  and  C9_9 
REMARK    3  A    between atoms: C8_8  and  C9_9 
REMARK    4  A    between atoms: C8_8  and  C10_10 
ROOT
HETATM    1  C1  UNL     1     -32.597   9.820   0.746  1.00 20.00     0.068 C 
HETATM    2  C4  UNL     1     -30.965   8.090   0.085  1.00 20.00     0.031 C 
HETATM    3  C5  UNL     1     -31.271   8.732   2.479  1.00 20.00     0.031 C 
HETATM    4  C10 UNL     1     -32.001   8.521   1.133  1.00 20.00     0.042 C 
HETATM    5  N11 UNL     1     -33.057  10.844   0.450  1.00 20.00    -0.196 NA
ENDROOT
BRANCH   4   6
HETATM    6  C8  UNL     1     -33.102   7.442   1.345  1.00 20.00     0.028 C 
BRANCH   6   7
HETATM    7  C9  UNL     1     -32.730   6.131   2.086  1.00 20.00    -0.017 C 
HETATM    8  C3  UNL     1     -32.469   4.958   1.136  1.00 20.00     0.010 C 
BRANCH   7   9
HETATM    9  C7  UNL     1     -33.842   5.711   3.080  1.00 20.00     0.004 C 
BRANCH   9  10
HETATM   10  C6  UNL     1     -34.687   6.877   3.601  1.00 20.00    -0.004 C 
HETATM   11  C2  UNL     1     -33.923   7.696   4.632  1.00 20.00     0.005 C 
ENDBRANCH   9  10
ENDBRANCH   7   9
ENDBRANCH   6   7
ENDBRANCH   4   6
TORSDOF 4
ENDMDL
MODEL 9
REMARK VINA RESULT:      -0.0      0.749      1.255
REMARK  4 active torsions:
REMARK  status: ('A' for Active; 'I' for Inactive)
REMARK    1  A    between atoms: C6_6  and  C7_7 
REMARK    2  A    between atoms: C7_7  and  C9_9 
REMARK    3  A    between atoms: C8_8  and  C9_9 
REMARK    4  A    between atoms: C8_8  and  C10_10 
ROOT
HETATM    1  C1  UNL     1     -32.323   9.207   0.901  1.00 20.00     0.068 C 
HETATM    2  C4  UNL     1     -31.460   6.927   1.287  1.00 20.00     0.031 C 
HETATM    3  C5  UNL     1     -31.066   8.755   2.941  1.00 20.00     0.031 C 
HETATM    4  C10 UNL     1     -32.082   8.173   1.934  1.00 20.00     0.042 C 
HETATM    5  N11 UNL     1     -32.502  10.023   0.095  1.00 20.00    -0.196 NA
ENDROOT
BRANCH   4   6
HETATM    6  C8  UNL     1     -33.391   7.839   2.706  1.00 20.00     0.028 C 
BRANCH   6   7
HETATM    7  C9  UNL     1     -33.666   6.366   3.109  1.00 20.00    -0.017 C 
HETATM    8  C3  UNL     1     -33.746   5.421   1.906  1.00 20.00     0.010 C 
BRANCH   7   9
HETATM    9  C7  UNL     1     -34.982   6.238   3.915  1.00 20.00     0.004 C 
BRANCH   9  10
HETATM   10  C6  UNL     1     -35.211   4.851   4.522  1.00 20.00    -0.004 C 
HETATM   11  C2  UNL     1     -33.939   4.016   4.485  1.00 20.00     0.005 C 
ENDBRANCH   9  10
ENDBRANCH   7   9
ENDBRANCH   6   7
ENDBRANCH   4   6
TORSDOF 4
ENDMDL
