MODEL 1
REMARK VINA RESULT:      -0.2      0.000      0.000
REMARK  3 active torsions:
REMARK  status: ('A' for Active; 'I' for Inactive)
REMARK    1  A    between atoms: C3_3  and  C8_8 
REMARK    2  A    between atoms: C8_8  and  C9_9 
REMARK    3  A    between atoms: C9_9  and  O11_11 
ROOT
HETATM    1  C1  UNL     1     -34.990   5.421   4.186  1.00 20.00     0.088 C 
HETATM    2  C2  UNL     1     -34.492   6.345   3.227  1.00 20.00     0.096 C 
HETATM    3  C3  UNL     1     -33.912   7.520   3.537  1.00 20.00    -0.071 C 
HETATM    4  C4  UNL     1     -33.677   7.999   4.946  1.00 20.00     0.044 C 
HETATM    5  N10 UNL     1     -35.400   4.662   4.962  1.00 20.00    -0.192 NA
ENDROOT
BRANCH   3   6
HETATM    6  C8  UNL     1     -33.405   8.429   2.428  1.00 20.00     0.071 C 
BRANCH   6   7
HETATM    7  C9  UNL     1     -32.078   8.009   1.755  1.00 20.00     0.056 C 
HETATM    8  C5  UNL     1     -30.904   8.383   2.671  1.00 20.00     0.046 C 
HETATM    9  C6  UNL     1     -32.024   6.514   1.427  1.00 20.00     0.046 C 
BRANCH   7  10
HETATM   10  O11 UNL     1     -31.920   8.752   0.545  1.00 20.00    -0.385 OA
HETATM   11  C7  UNL     1     -32.634   9.977   0.597  1.00 20.00     0.202 C 
ENDBRANCH   7  10
ENDBRANCH   6   7
ENDBRANCH   3   6
TORSDOF 3
ENDMDL
MODEL 2
REMARK VINA RESULT:       0.0      1.254      1.531
REMARK  3 active torsions:
REMARK  status: ('A' for Active; 'I' for Inactive)
REMARK    1  A    between atoms: C3_3  and  C8_8 
REMARK    2  A    between atoms: C8_8  and  C9_9 
REMARK    3  A    between atoms: C9_9  and  O11_11 
ROOT
HETATM    1  C1  UNL     1     -33.554   3.977   4.095  1.00 20.00     0.088 C 
HETATM    2  C2  UNL     1     -33.211   5.278   3.637  1.00 20.00     0.096 C 
HETATM    3  C3  UNL     1     -34.079   6.304   3.548  1.00 20.00    -0.071 C 
HETATM    4  C4  UNL     1     -35.526   6.222   3.958  1.00 20.00     0.044 C 
HETATM    5  N10 UNL     1     -33.826   2.912   4.467  1.00 20.00    -0.192 NA
ENDROOT
BRANCH   3   6
HETATM    6  C8  UNL     1     -33.600   7.660   3.052  1.00 20.00     0.071 C 
BRANCH   6   7
HETATM    7  C9  UNL     1     -32.587   7.640   1.884  1.00 20.00     0.056 C 
HETATM    8  C5  UNL     1     -31.244   8.205   2.367  1.00 20.00     0.046 C 
HETATM    9  C6  UNL     1     -32.380   6.239   1.301  1.00 20.00     0.046 C 
BRANCH   7  10
HETATM   10  O11 UNL     1     -33.060   8.504   0.850  1.00 20.00    -0.385 OA
HETATM   11  C7  UNL     1     -32.115   9.519   0.555  1.00 20.00     0.202 C 
ENDBRANCH   7  10
ENDBRANCH   6   7
ENDBRANCH   3   6
TORSDOF 3
ENDMDL
MODEL 3
REMARK VINA RESULT:       0.0      3.182      4.963
REMARK  3 active torsions:
REMARK  status: ('A' for Active; 'I' for Inactive)
REMARK    1  A    between atoms: C3_3  and  C8_8 
REMARK    2  A    between atoms: C8_8  and  C9_9 
REMARK    3  A    between atoms: C9_9  and  O11_11 
ROOT
HETATM    1  C1  UNL     1     -32.234   8.851   0.867  1.00 20.00     0.088 C 
HETATM    2  C2  UNL     1     -32.570   7.993   1.950  1.00 20.00     0.096 C 
HETATM    3  C3  UNL     1     -32.956   6.711   1.808  1.00 20.00    -0.071 C 
HETATM    4  C4  UNL     1     -33.048   5.999   0.484  1.00 20.00     0.044 C 
HETATM    5  N10 UNL     1     -31.959   9.559  -0.011  1.00 20.00    -0.192 NA
ENDROOT
BRANCH   3   6
HETATM    6  C8  UNL     1     -33.283   5.879   3.039  1.00 20.00     0.071 C 
BRANCH   6   7
HETATM    7  C9  UNL     1     -34.555   6.285   3.818  1.00 20.00     0.056 C 
HETATM    8  C5  UNL     1     -34.206   7.397   4.816  1.00 20.00     0.046 C 
HETATM    9  C6  UNL     1     -35.691   6.749   2.901  1.00 20.00     0.046 C 
BRANCH   7  10
HETATM   10  O11 UNL     1     -35.007   5.163   4.578  1.00 20.00    -0.385 OA
HETATM   11  C7  UNL     1     -34.142   4.051   4.416  1.00 20.00     0.202 C 
ENDBRANCH   7  10
ENDBRANCH   6   7
ENDBRANCH   3   6
TORSDOF 3
ENDMDL
MODEL 4
REMARK VINA RESULT:       0.1      1.521      1.977
REMARK  3 active torsions:
REMARK  status: ('A' for Active; 'I' for Inactive)
REMARK    1  A    between atoms: C3_3  and  C8_8 
REMARK    2  A    between atoms: C8_8  and  C9_9 
REMARK    3  A    between atoms: C9_9  and  O11_11 
ROOT
HETATM    1  C1  UNL     1     -33.885   4.483   3.873  1.00 20.00     0.088 C 
HETATM    2  C2  UNL     1     -33.980   5.734   3.204  1.00 20.00     0.096 C 
HETATM    3  C3  UNL     1     -33.241   6.077   2.132  1.00 20.00    -0.071 C 
HETATM    4  C4  UNL     1     -32.239   5.168   1.471  1.00 20.00     0.044 C 
HETATM    5  N10 UNL     1     -33.813   3.465   4.425  1.00 20.00    -0.192 NA
ENDROOT
BRANCH   3   6
HETATM    6  C8  UNL     1     -33.433   7.442   1.487  1.00 20.00     0.071 C 
BRANCH   6   7
HETATM    7  C9  UNL     1     -32.228   8.408   1.565  1.00 20.00     0.056 C 
HETATM    8  C5  UNL     1     -31.682   8.424   2.999  1.00 20.00     0.046 C 
HETATM    9  C6  UNL     1     -31.108   8.041   0.587  1.00 20.00     0.046 C 
BRANCH   7  10
HETATM   10  O11 UNL     1     -32.681   9.731   1.272  1.00 20.00    -0.385 OA
HETATM   11  C7  UNL     1     -32.489  10.049  -0.097  1.00 20.00     0.202 C 
ENDBRANCH   7  10
ENDBRANCH   6   7
ENDBRANCH   3   6
TORSDOF 3
ENDMDL
MODEL 5
REMARK VINA RESULT:       0.5      3.041      4.572
REMARK  3 active torsions:
REMARK  status: ('A' for Active; 'I' for Inactive)
REMARK    1  A    between atoms: C3_3  and  C8_8 
REMARK    2  A    between atoms: C8_8  and  C9_9 
REMARK    3  A    between atoms: C9_9  and  O11_11 
ROOT
HETATM    1  C1  UNL     1     -32.335   9.933   0.405  1.00 20.00     0.088 C 
HETATM    2  C2  UNL     1     -32.228   8.530   0.606  1.00 20.00     0.096 C 
HETATM    3  C3  UNL     1     -31.931   7.954   1.786  1.00 20.00    -0.071 C 
HETATM    4  C4  UNL     1     -31.709   8.718   3.066  1.00 20.00     0.044 C 
HETATM    5  N10 UNL     1     -32.423  11.077   0.232  1.00 20.00    -0.192 NA
ENDROOT
BRANCH   3   6
HETATM    6  C8  UNL     1     -31.853   6.439   1.890  1.00 20.00     0.071 C 
BRANCH   6   7
HETATM    7  C9  UNL     1     -33.197   5.697   2.070  1.00 20.00     0.056 C 
HETATM    8  C5  UNL     1     -33.656   5.143   0.715  1.00 20.00     0.046 C 
HETATM    9  C6  UNL     1     -33.118   4.562   3.095  1.00 20.00     0.046 C 
BRANCH   7  10
HETATM   10  O11 UNL     1     -34.186   6.636   2.498  1.00 20.00    -0.385 OA
HETATM   11  C7  UNL     1     -34.625   6.355   3.817  1.00 20.00     0.202 C 
ENDBRANCH   7  10
ENDBRANCH   6   7
ENDBRANCH   3   6
TORSDOF 3
ENDMDL
MODEL 6
REMARK VINA RESULT:       0.5      3.194      4.780
REMARK  3 active torsions:
REMARK  status: ('A' for Active; 'I' for Inactive)
REMARK    1  A    between atoms: C3_3  and  C8_8 
REMARK    2  A    between atoms: C8_8  and  C9_9 
REMARK    3  A    between atoms: C9_9  and  O11_11 
ROOT
HETATM    1  C1  UNL     1     -32.524   9.502   0.395  1.00 20.00     0.088 C 
HETATM    2  C2  UNL     1     -33.034   8.290   0.936  1.00 20.00     0.096 C 
HETATM    3  C3  UNL     1     -32.576   7.710   2.062  1.00 20.00    -0.071 C 
HETATM    4  C4  UNL     1     -31.484   8.288   2.924  1.00 20.00     0.044 C 
HETATM    5  N10 UNL     1     -32.113  10.490  -0.053  1.00 20.00    -0.192 NA
ENDROOT
BRANCH   3   6
HETATM    6  C8  UNL     1     -33.203   6.416   2.556  1.00 20.00     0.071 C 
BRANCH   6   7
HETATM    7  C9  UNL     1     -34.294   6.558   3.642  1.00 20.00     0.056 C 
HETATM    8  C5  UNL     1     -33.916   7.700   4.594  1.00 20.00     0.046 C 
HETATM    9  C6  UNL     1     -35.687   6.808   3.058  1.00 20.00     0.046 C 
BRANCH   7  10
HETATM   10  O11 UNL     1     -34.329   5.358   4.418  1.00 20.00    -0.385 OA
HETATM   11  C7  UNL     1     -33.879   4.245   3.664  1.00 20.00     0.202 C 
ENDBRANCH   7  10
ENDBRANCH   6   7
ENDBRANCH   3   6
TORSDOF 3
ENDMDL
MODEL 7
REMARK VINA RESULT:       0.6      1.372      2.122
REMARK  3 active torsions:
REMARK  status: ('A' for Active; 'I' for Inactive)
REMARK    1  A    between atoms: C3_3  and  C8_8 
REMARK    2  A    between atoms: C8_8  and  C9_9 
REMARK    3  A    between atoms: C9_9  and  O11_11 
ROOT
HETATM    1  C1  UNL     1     -34.665   6.594   3.818  1.00 20.00     0.088 C 
HETATM    2  C2  UNL     1     -33.611   7.404   3.315  1.00 20.00     0.096 C 
HETATM    3  C3  UNL     1     -32.735   7.008   2.372  1.00 20.00    -0.071 C 
HETATM    4  C4  UNL     1     -32.776   5.664   1.693  1.00 20.00     0.044 C 
HETATM    5  N10 UNL     1     -35.527   5.939   4.235  1.00 20.00    -0.192 NA
ENDROOT
BRANCH   3   6
HETATM    6  C8  UNL     1     -31.650   7.963   1.899  1.00 20.00     0.071 C 
BRANCH   6   7
HETATM    7  C9  UNL     1     -31.983   8.808   0.648  1.00 20.00     0.056 C 
HETATM    8  C5  UNL     1     -30.697   9.066  -0.149  1.00 20.00     0.046 C 
HETATM    9  C6  UNL     1     -33.029   8.148  -0.254  1.00 20.00     0.046 C 
BRANCH   7  10
HETATM   10  O11 UNL     1     -32.477  10.081   1.071  1.00 20.00    -0.385 OA
HETATM   11  C7  UNL     1     -33.010  10.815  -0.019  1.00 20.00     0.202 C 
ENDBRANCH   7  10
ENDBRANCH   6   7
ENDBRANCH   3   6
TORSDOF 3
ENDMDL
MODEL 8
REMARK VINA RESULT:       0.7      0.779      1.758
REMARK  3 active torsions:
REMARK  status: ('A' for Active; 'I' for Inactive)
REMARK    1  A    between atoms: C3_3  and  C8_8 
REMARK    2  A    between atoms: C8_8  and  C9_9 
REMARK    3  A    between atoms: C9_9  and  O11_11 
ROOT
HETATM    1  C1  UNL     1     -35.144   5.568   4.220  1.00 20.00     0.088 C 
HETATM    2  C2  UNL     1     -34.665   6.570   3.333  1.00 20.00     0.096 C 
HETATM    3  C3  UNL     1     -33.921   7.626   3.713  1.00 20.00    -0.071 C 
HETATM    4  C4  UNL     1     -33.463   7.869   5.128  1.00 20.00     0.044 C 
HETATM    5  N10 UNL     1     -35.540   4.746   4.938  1.00 20.00    -0.192 NA
ENDROOT
BRANCH   3   6
HETATM    6  C8  UNL     1     -33.453   8.635   2.676  1.00 20.00     0.071 C 
BRANCH   6   7
HETATM    7  C9  UNL     1     -32.375   8.141   1.683  1.00 20.00     0.056 C 
HETATM    8  C5  UNL     1     -32.256   9.141   0.525  1.00 20.00     0.046 C 
HETATM    9  C6  UNL     1     -31.007   7.943   2.340  1.00 20.00     0.046 C 
BRANCH   7  10
HETATM   10  O11 UNL     1     -32.802   6.898   1.122  1.00 20.00    -0.385 OA
HETATM   11  C7  UNL     1     -31.847   5.875   1.353  1.00 20.00     0.202 C 
ENDBRANCH   7  10
ENDBRANCH   6   7
ENDBRANCH   3   6
TORSDOF 3
ENDMDL
MODEL 9
REMARK VINA RESULT:       0.9      1.558      2.305
REMARK  3 active torsions:
REMARK  status: ('A' for Active; 'I' for Inactive)
REMARK    1  A    between atoms: C3_3  and  C8_8 
REMARK    2  A    between atoms: C8_8  and  C9_9 
REMARK    3  A    between atoms: C9_9  and  O11_11 
ROOT
HETATM    1  C1  UNL     1     -33.613   3.855   4.153  1.00 20.00     0.088 C 
HETATM    2  C2  UNL     1     -33.432   4.875   3.179  1.00 20.00     0.096 C 
HETATM    3  C3  UNL     1     -34.099   6.045   3.174  1.00 20.00    -0.071 C 
HETATM    4  C4  UNL     1     -35.103   6.447   4.222  1.00 20.00     0.044 C 
HETATM    5  N10 UNL     1     -33.756   3.017   4.943  1.00 20.00    -0.192 NA
ENDROOT
BRANCH   3   6
HETATM    6  C8  UNL     1     -33.819   7.071   2.087  1.00 20.00     0.071 C 
BRANCH   6   7
HETATM    7  C9  UNL     1     -32.421   7.732   2.118  1.00 20.00     0.056 C 
HETATM    8  C5  UNL     1     -32.355   8.830   1.049  1.00 20.00     0.046 C 
HETATM    9  C6  UNL     1     -32.072   8.320   3.488  1.00 20.00     0.046 C 
BRANCH   7  10
HETATM   10  O11 UNL     1     -31.441   6.751   1.775  1.00 20.00    -0.385 OA
HETATM   11  C7  UNL     1     -31.926   5.866   0.778  1.00 20.00     0.202 C 
ENDBRANCH   7  10
ENDBRANCH   6   7
ENDBRANCH   3   6
TORSDOF 3
ENDMDL
