MODEL 1
REMARK VINA RESULT:      -1.6      0.000      0.000
REMARK  4 active torsions:
REMARK  status: ('A' for Active; 'I' for Inactive)
REMARK    1  A    between atoms: C6_6  and  C7_7 
REMARK    2  A    between atoms: C7_7  and  C9_9 
REMARK    3  A    between atoms: C8_8  and  C9_9 
REMARK    4  A    between atoms: C8_8  and  C10_10 
ROOT
HETATM    1  C1  UNL     1     -34.173   4.983   3.933  1.00 20.00     0.068 C 
HETATM    2  C4  UNL     1     -35.962   6.622   3.480  1.00 20.00     0.031 C 
HETATM    3  C5  UNL     1     -33.804   7.319   4.526  1.00 20.00     0.031 C 
HETATM    4  C10 UNL     1     -34.447   6.370   3.491  1.00 20.00     0.042 C 
HETATM    5  N11 UNL     1     -33.956   3.901   4.290  1.00 20.00    -0.196 NA
ENDROOT
BRANCH   4   6
HETATM    6  C8  UNL     1     -33.798   6.654   2.105  1.00 20.00     0.028 C 
BRANCH   6   7
HETATM    7  C9  UNL     1     -32.268   6.461   1.943  1.00 20.00    -0.017 C 
HETATM    8  C3  UNL     1     -31.903   5.299   1.014  1.00 20.00     0.010 C 
BRANCH   7   9
HETATM    9  C7  UNL     1     -31.597   7.746   1.398  1.00 20.00     0.004 C 
BRANCH   9  10
HETATM   10  C6  UNL     1     -32.524   8.964   1.354  1.00 20.00    -0.004 C 
HETATM   11  C2  UNL     1     -32.375   9.727   0.046  1.00 20.00     0.005 C 
ENDBRANCH   9  10
ENDBRANCH   7   9
ENDBRANCH   6   7
ENDBRANCH   4   6
TORSDOF 4
ENDMDL
MODEL 2
REMARK VINA RESULT:      -1.4      2.474      4.918
REMARK  4 active torsions:
REMARK  status: ('A' for Active; 'I' for Inactive)
REMARK    1  A    between atoms: C6_6  and  C7_7 
REMARK    2  A    between atoms: C7_7  and  C9_9 
REMARK    3  A    between atoms: C8_8  and  C9_9 
REMARK    4  A    between atoms: C8_8  and  C10_10 
ROOT
HETATM    1  C1  UNL     1     -32.337   8.988   0.684  1.00 20.00     0.068 C 
HETATM    2  C4  UNL     1     -32.082   6.596   1.239  1.00 20.00     0.031 C 
HETATM    3  C5  UNL     1     -31.187   8.375   2.746  1.00 20.00     0.031 C 
HETATM    4  C10 UNL     1     -32.344   8.004   1.792  1.00 20.00     0.042 C 
HETATM    5  N11 UNL     1     -32.320   9.760  -0.181  1.00 20.00    -0.196 NA
ENDROOT
BRANCH   4   6
HETATM    6  C8  UNL     1     -33.675   8.077   2.595  1.00 20.00     0.028 C 
BRANCH   6   7
HETATM    7  C9  UNL     1     -33.841   7.181   3.850  1.00 20.00    -0.017 C 
HETATM    8  C3  UNL     1     -33.764   7.965   5.163  1.00 20.00     0.010 C 
BRANCH   7   9
HETATM    9  C7  UNL     1     -35.190   6.420   3.819  1.00 20.00     0.004 C 
BRANCH   9  10
HETATM   10  C6  UNL     1     -35.149   5.048   4.497  1.00 20.00    -0.004 C 
HETATM   11  C2  UNL     1     -33.966   4.224   4.009  1.00 20.00     0.005 C 
ENDBRANCH   9  10
ENDBRANCH   7   9
ENDBRANCH   6   7
ENDBRANCH   4   6
TORSDOF 4
ENDMDL
MODEL 3
REMARK VINA RESULT:      -1.0      1.354      1.880
REMARK  4 active torsions:
REMARK  status: ('A' for Active; 'I' for Inactive)
REMARK    1  A    between atoms: C6_6  and  C7_7 
REMARK    2  A    between atoms: C7_7  and  C9_9 
REMARK    3  A    between atoms: C8_8  and  C9_9 
REMARK    4  A    between atoms: C8_8  and  C10_10 
ROOT
HETATM    1  C1  UNL     1     -33.783   7.448   4.427  1.00 20.00     0.068 C 
HETATM    2  C4  UNL     1     -34.094   5.023   4.084  1.00 20.00     0.031 C 
HETATM    3  C5  UNL     1     -35.872   6.657   3.446  1.00 20.00     0.031 C 
HETATM    4  C10 UNL     1     -34.346   6.426   3.513  1.00 20.00     0.042 C 
HETATM    5  N11 UNL     1     -33.354   8.250   5.146  1.00 20.00    -0.196 NA
ENDROOT
BRANCH   4   6
HETATM    6  C8  UNL     1     -33.768   6.582   2.077  1.00 20.00     0.028 C 
BRANCH   6   7
HETATM    7  C9  UNL     1     -32.243   6.400   1.860  1.00 20.00    -0.017 C 
HETATM    8  C3  UNL     1     -31.900   5.194   0.982  1.00 20.00     0.010 C 
BRANCH   7   9
HETATM    9  C7  UNL     1     -31.615   7.662   1.218  1.00 20.00     0.004 C 
BRANCH   9  10
HETATM   10  C6  UNL     1     -32.476   8.922   1.344  1.00 20.00    -0.004 C 
HETATM   11  C2  UNL     1     -32.397   9.775   0.086  1.00 20.00     0.005 C 
ENDBRANCH   9  10
ENDBRANCH   7   9
ENDBRANCH   6   7
ENDBRANCH   4   6
TORSDOF 4
ENDMDL
MODEL 4
REMARK VINA RESULT:      -0.9      1.565      4.530
REMARK  4 active torsions:
REMARK  status: ('A' for Active; 'I' for Inactive)
REMARK    1  A    between atoms: C6_6  and  C7_7 
REMARK    2  A    between atoms: C7_7  and  C9_9 
REMARK    3  A    between atoms: C8_8  and  C9_9 
REMARK    4  A    between atoms: C8_8  and  C10_10 
ROOT
HETATM    1  C1  UNL     1     -32.079   6.526   1.430  1.00 20.00     0.068 C 
HETATM    2  C4  UNL     1     -30.984   8.378   2.642  1.00 20.00     0.031 C 
HETATM    3  C5  UNL     1     -32.304   8.794   0.563  1.00 20.00     0.031 C 
HETATM    4  C10 UNL     1     -32.224   7.941   1.847  1.00 20.00     0.042 C 
HETATM    5  N11 UNL     1     -31.962   5.423   1.093  1.00 20.00    -0.196 NA
ENDROOT
BRANCH   4   6
HETATM    6  C8  UNL     1     -33.538   8.153   2.653  1.00 20.00     0.028 C 
BRANCH   6   7
HETATM    7  C9  UNL     1     -33.805   7.262   3.895  1.00 20.00    -0.017 C 
HETATM    8  C3  UNL     1     -33.811   8.048   5.209  1.00 20.00     0.010 C 
BRANCH   7   9
HETATM    9  C7  UNL     1     -35.158   6.519   3.769  1.00 20.00     0.004 C 
BRANCH   9  10
HETATM   10  C6  UNL     1     -35.187   5.152   4.459  1.00 20.00    -0.004 C 
HETATM   11  C2  UNL     1     -34.034   4.274   3.996  1.00 20.00     0.005 C 
ENDBRANCH   9  10
ENDBRANCH   7   9
ENDBRANCH   6   7
ENDBRANCH   4   6
TORSDOF 4
ENDMDL
MODEL 5
REMARK VINA RESULT:      -0.4      2.141      4.208
REMARK  4 active torsions:
REMARK  status: ('A' for Active; 'I' for Inactive)
REMARK    1  A    between atoms: C6_6  and  C7_7 
REMARK    2  A    between atoms: C7_7  and  C9_9 
REMARK    3  A    between atoms: C8_8  and  C9_9 
REMARK    4  A    between atoms: C8_8  and  C10_10 
ROOT
HETATM    1  C1  UNL     1     -32.230   7.148   1.523  1.00 20.00     0.068 C 
HETATM    2  C4  UNL     1     -33.818   5.398   0.809  1.00 20.00     0.031 C 
HETATM    3  C5  UNL     1     -31.385   4.902   1.086  1.00 20.00     0.031 C 
HETATM    4  C10 UNL     1     -32.573   5.712   1.651  1.00 20.00     0.042 C 
HETATM    5  N11 UNL     1     -31.953   8.269   1.414  1.00 20.00    -0.196 NA
ENDROOT
BRANCH   4   6
HETATM    6  C8  UNL     1     -32.763   5.315   3.144  1.00 20.00     0.028 C 
BRANCH   6   7
HETATM    7  C9  UNL     1     -33.965   4.414   3.530  1.00 20.00    -0.017 C 
HETATM    8  C3  UNL     1     -33.555   3.177   4.334  1.00 20.00     0.010 C 
BRANCH   7   9
HETATM    9  C7  UNL     1     -35.013   5.202   4.354  1.00 20.00     0.004 C 
BRANCH   9  10
HETATM   10  C6  UNL     1     -35.295   6.610   3.823  1.00 20.00    -0.004 C 
HETATM   11  C2  UNL     1     -34.310   7.623   4.389  1.00 20.00     0.005 C 
ENDBRANCH   9  10
ENDBRANCH   7   9
ENDBRANCH   6   7
ENDBRANCH   4   6
TORSDOF 4
ENDMDL
MODEL 6
REMARK VINA RESULT:      -0.0      2.061      4.755
REMARK  4 active torsions:
REMARK  status: ('A' for Active; 'I' for Inactive)
REMARK    1  A    between atoms: C6_6  and  C7_7 
REMARK    2  A    between atoms: C7_7  and  C9_9 
REMARK    3  A    between atoms: C8_8  and  C9_9 
REMARK    4  A    between atoms: C8_8  and  C10_10 
ROOT
HETATM    1  C1  UNL     1     -31.954   8.523   3.181  1.00 20.00     0.068 C 
HETATM    2  C4  UNL     1     -32.563   9.045   0.846  1.00 20.00     0.031 C 
HETATM    3  C5  UNL     1     -31.242   7.002   1.413  1.00 20.00     0.031 C 
HETATM    4  C10 UNL     1     -32.378   7.933   1.890  1.00 20.00     0.042 C 
HETATM    5  N11 UNL     1     -31.611   8.982   4.190  1.00 20.00    -0.196 NA
ENDROOT
BRANCH   4   6
HETATM    6  C8  UNL     1     -33.666   7.077   2.064  1.00 20.00     0.028 C 
BRANCH   6   7
HETATM    7  C9  UNL     1     -33.893   6.332   3.405  1.00 20.00    -0.017 C 
HETATM    8  C3  UNL     1     -35.332   6.440   3.917  1.00 20.00     0.010 C 
BRANCH   7   9
HETATM    9  C7  UNL     1     -33.536   4.830   3.277  1.00 20.00     0.004 C 
BRANCH   9  10
HETATM   10  C6  UNL     1     -34.079   3.960   4.414  1.00 20.00    -0.004 C 
HETATM   11  C2  UNL     1     -33.112   2.837   4.763  1.00 20.00     0.005 C 
ENDBRANCH   9  10
ENDBRANCH   7   9
ENDBRANCH   6   7
ENDBRANCH   4   6
TORSDOF 4
ENDMDL
MODEL 7
REMARK VINA RESULT:       0.4      2.658      4.687
REMARK  4 active torsions:
REMARK  status: ('A' for Active; 'I' for Inactive)
REMARK    1  A    between atoms: C6_6  and  C7_7 
REMARK    2  A    between atoms: C7_7  and  C9_9 
REMARK    3  A    between atoms: C8_8  and  C9_9 
REMARK    4  A    between atoms: C8_8  and  C10_10 
ROOT
HETATM    1  C1  UNL     1     -32.361   9.072   1.001  1.00 20.00     0.068 C 
HETATM    2  C4  UNL     1     -30.983   8.478   2.961  1.00 20.00     0.031 C 
HETATM    3  C5  UNL     1     -33.444   8.056   2.935  1.00 20.00     0.031 C 
HETATM    4  C10 UNL     1     -32.164   8.066   2.071  1.00 20.00     0.042 C 
HETATM    5  N11 UNL     1     -32.523   9.865   0.170  1.00 20.00    -0.196 NA
ENDROOT
BRANCH   4   6
HETATM    6  C8  UNL     1     -31.974   6.643   1.471  1.00 20.00     0.028 C 
BRANCH   6   7
HETATM    7  C9  UNL     1     -33.115   5.605   1.633  1.00 20.00    -0.017 C 
HETATM    8  C3  UNL     1     -33.465   4.887   0.326  1.00 20.00     0.010 C 
BRANCH   7   9
HETATM    9  C7  UNL     1     -32.750   4.534   2.691  1.00 20.00     0.004 C 
BRANCH   9  10
HETATM   10  C6  UNL     1     -33.845   4.288   3.733  1.00 20.00    -0.004 C 
HETATM   11  C2  UNL     1     -33.455   3.172   4.692  1.00 20.00     0.005 C 
ENDBRANCH   9  10
ENDBRANCH   7   9
ENDBRANCH   6   7
ENDBRANCH   4   6
TORSDOF 4
ENDMDL
MODEL 8
REMARK VINA RESULT:       0.5      1.338      1.835
REMARK  4 active torsions:
REMARK  status: ('A' for Active; 'I' for Inactive)
REMARK    1  A    between atoms: C6_6  and  C7_7 
REMARK    2  A    between atoms: C7_7  and  C9_9 
REMARK    3  A    between atoms: C8_8  and  C9_9 
REMARK    4  A    between atoms: C8_8  and  C10_10 
ROOT
HETATM    1  C1  UNL     1     -35.854   6.687   3.184  1.00 20.00     0.068 C 
HETATM    2  C4  UNL     1     -33.864   7.580   4.339  1.00 20.00     0.031 C 
HETATM    3  C5  UNL     1     -34.141   5.129   3.948  1.00 20.00     0.031 C 
HETATM    4  C10 UNL     1     -34.390   6.530   3.349  1.00 20.00     0.042 C 
HETATM    5  N11 UNL     1     -37.002   6.800   3.061  1.00 20.00    -0.196 NA
ENDROOT
BRANCH   4   6
HETATM    6  C8  UNL     1     -33.662   6.607   1.976  1.00 20.00     0.028 C 
BRANCH   6   7
HETATM    7  C9  UNL     1     -32.115   6.499   1.944  1.00 20.00    -0.017 C 
HETATM    8  C3  UNL     1     -31.613   5.279   1.166  1.00 20.00     0.010 C 
BRANCH   7   9
HETATM    9  C7  UNL     1     -31.479   7.766   1.320  1.00 20.00     0.004 C 
BRANCH   9  10
HETATM   10  C6  UNL     1     -32.397   8.991   1.321  1.00 20.00    -0.004 C 
HETATM   11  C2  UNL     1     -32.340   9.727  -0.010  1.00 20.00     0.005 C 
ENDBRANCH   9  10
ENDBRANCH   7   9
ENDBRANCH   6   7
ENDBRANCH   4   6
TORSDOF 4
ENDMDL
MODEL 9
REMARK VINA RESULT:       0.7      2.561      4.446
REMARK  4 active torsions:
REMARK  status: ('A' for Active; 'I' for Inactive)
REMARK    1  A    between atoms: C6_6  and  C7_7 
REMARK    2  A    between atoms: C7_7  and  C9_9 
REMARK    3  A    between atoms: C8_8  and  C9_9 
REMARK    4  A    between atoms: C8_8  and  C10_10 
ROOT
HETATM    1  C1  UNL     1     -32.309   9.124   0.868  1.00 20.00     0.068 C 
HETATM    2  C4  UNL     1     -30.991   8.616   2.892  1.00 20.00     0.031 C 
HETATM    3  C5  UNL     1     -33.467   8.295   2.847  1.00 20.00     0.031 C 
HETATM    4  C10 UNL     1     -32.174   8.190   2.010  1.00 20.00     0.042 C 
HETATM    5  N11 UNL     1     -32.423   9.861  -0.021  1.00 20.00    -0.196 NA
ENDROOT
BRANCH   4   6
HETATM    6  C8  UNL     1     -32.033   6.721   1.516  1.00 20.00     0.028 C 
BRANCH   6   7
HETATM    7  C9  UNL     1     -33.213   5.740   1.745  1.00 20.00    -0.017 C 
HETATM    8  C3  UNL     1     -33.418   4.765   0.582  1.00 20.00     0.010 C 
BRANCH   7   9
HETATM    9  C7  UNL     1     -33.010   4.915   3.040  1.00 20.00     0.004 C 
BRANCH   9  10
HETATM   10  C6  UNL     1     -34.309   4.592   3.784  1.00 20.00    -0.004 C 
HETATM   11  C2  UNL     1     -35.100   5.855   4.092  1.00 20.00     0.005 C 
ENDBRANCH   9  10
ENDBRANCH   7   9
ENDBRANCH   6   7
ENDBRANCH   4   6
TORSDOF 4
ENDMDL
