MODEL 1
REMARK VINA RESULT:      -1.1      0.000      0.000
REMARK  3 active torsions:
REMARK  status: ('A' for Active; 'I' for Inactive)
REMARK    1  A    between atoms: C7_7  and  C9_9 
REMARK    2  A    between atoms: C8_8  and  C9_9 
REMARK    3  A    between atoms: C9_9  and  O11_11 
ROOT
HETATM    1  C1  UNL     1     -34.453   7.351   4.476  1.00 20.00     0.027 C 
HETATM    2  C2  UNL     1     -33.669   8.254   3.529  1.00 20.00     0.011 C 
HETATM    3  C5  UNL     1     -34.946   6.107   3.747  1.00 20.00     0.167 C 
HETATM    4  C6  UNL     1     -33.186   6.205   2.162  1.00 20.00     0.174 C 
HETATM    5  C8  UNL     1     -32.581   7.458   2.800  1.00 20.00     0.039 C 
HETATM    6  O10 UNL     1     -33.857   5.411   3.143  1.00 20.00    -0.391 OA
ENDROOT
BRANCH   5   7
HETATM    7  C9  UNL     1     -31.873   8.318   1.760  1.00 20.00     0.128 C 
BRANCH   7   8
HETATM    8  C7  UNL     1     -32.857   9.135   0.939  1.00 20.00     0.015 A 
HETATM    9  C3  UNL     1     -32.658  10.616   0.769  1.00 20.00     0.007 A 
HETATM   10  C4  UNL     1     -32.450   9.690  -0.398  1.00 20.00     0.007 A 
ENDBRANCH   7   8
BRANCH   7  11
HETATM   11  O11 UNL     1     -31.121   7.476   0.893  1.00 20.00    -0.395 OA
HETATM   12  H27 UNL     1     -30.214   7.463   1.236  1.00 20.00     0.210 HD
ENDBRANCH   7  11
ENDBRANCH   5   7
TORSDOF 3
ENDMDL
MODEL 2
REMARK VINA RESULT:      -0.8      2.132      5.024
REMARK  3 active torsions:
REMARK  status: ('A' for Active; 'I' for Inactive)
REMARK    1  A    between atoms: C7_7  and  C9_9 
REMARK    2  A    between atoms: C8_8  and  C9_9 
REMARK    3  A    between atoms: C9_9  and  O11_11 
ROOT
HETATM    1  C1  UNL     1     -32.896   8.411   2.850  1.00 20.00     0.027 C 
HETATM    2  C2  UNL     1     -33.329   7.410   3.917  1.00 20.00     0.011 C 
HETATM    3  C5  UNL     1     -32.073   7.722   1.769  1.00 20.00     0.167 C 
HETATM    4  C6  UNL     1     -33.104   5.625   2.167  1.00 20.00     0.174 C 
HETATM    5  C8  UNL     1     -33.997   6.190   3.275  1.00 20.00     0.039 C 
HETATM    6  O10 UNL     1     -32.798   6.632   1.201  1.00 20.00    -0.391 OA
ENDROOT
BRANCH   5   7
HETATM    7  C9  UNL     1     -34.321   5.126   4.317  1.00 20.00     0.128 C 
BRANCH   7   8
HETATM    8  C7  UNL     1     -33.728   3.777   3.949  1.00 20.00     0.015 A 
HETATM    9  C3  UNL     1     -32.339   3.412   4.396  1.00 20.00     0.007 A 
HETATM   10  C4  UNL     1     -33.530   2.723   5.003  1.00 20.00     0.007 A 
ENDBRANCH   7   8
BRANCH   7  11
HETATM   11  O11 UNL     1     -35.735   5.004   4.433  1.00 20.00    -0.395 OA
HETATM   12  H27 UNL     1     -35.938   4.057   4.376  1.00 20.00     0.210 HD
ENDBRANCH   7  11
ENDBRANCH   5   7
TORSDOF 3
ENDMDL
MODEL 3
REMARK VINA RESULT:      -0.6      0.979      1.647
REMARK  3 active torsions:
REMARK  status: ('A' for Active; 'I' for Inactive)
REMARK    1  A    between atoms: C7_7  and  C9_9 
REMARK    2  A    between atoms: C8_8  and  C9_9 
REMARK    3  A    between atoms: C9_9  and  O11_11 
ROOT
HETATM    1  C1  UNL     1     -33.824   4.798   2.720  1.00 20.00     0.027 C 
HETATM    2  C2  UNL     1     -32.811   5.820   2.212  1.00 20.00     0.011 C 
HETATM    3  C5  UNL     1     -34.365   5.208   4.084  1.00 20.00     0.167 C 
HETATM    4  C6  UNL     1     -33.958   7.507   3.675  1.00 20.00     0.174 C 
HETATM    5  C8  UNL     1     -33.393   7.236   2.279  1.00 20.00     0.039 C 
HETATM    6  O10 UNL     1     -34.926   6.519   4.031  1.00 20.00    -0.391 OA
ENDROOT
BRANCH   5   7
HETATM    7  C9  UNL     1     -32.350   8.279   1.894  1.00 20.00     0.128 C 
BRANCH   7   8
HETATM    8  C7  UNL     1     -32.768   9.069   0.665  1.00 20.00     0.015 A 
HETATM    9  C3  UNL     1     -32.661  10.568   0.656  1.00 20.00     0.007 A 
HETATM   10  C4  UNL     1     -31.731   9.742  -0.190  1.00 20.00     0.007 A 
ENDBRANCH   7   8
BRANCH   7  11
HETATM   11  O11 UNL     1     -31.112   7.625   1.636  1.00 20.00    -0.395 OA
HETATM   12  H27 UNL     1     -30.463   8.004   2.250  1.00 20.00     0.210 HD
ENDBRANCH   7  11
ENDBRANCH   5   7
TORSDOF 3
ENDMDL
MODEL 4
REMARK VINA RESULT:      -0.0      1.801      4.970
REMARK  3 active torsions:
REMARK  status: ('A' for Active; 'I' for Inactive)
REMARK    1  A    between atoms: C7_7  and  C9_9 
REMARK    2  A    between atoms: C8_8  and  C9_9 
REMARK    3  A    between atoms: C9_9  and  O11_11 
ROOT
HETATM    1  C1  UNL     1     -32.191   6.652   1.230  1.00 20.00     0.027 C 
HETATM    2  C2  UNL     1     -33.392   6.068   1.968  1.00 20.00     0.011 C 
HETATM    3  C5  UNL     1     -32.053   8.141   1.520  1.00 20.00     0.167 C 
HETATM    4  C6  UNL     1     -33.142   7.946   3.616  1.00 20.00     0.174 C 
HETATM    5  C8  UNL     1     -33.344   6.437   3.455  1.00 20.00     0.039 C 
HETATM    6  O10 UNL     1     -31.968   8.376   2.924  1.00 20.00    -0.391 OA
ENDROOT
BRANCH   5   7
HETATM    7  C9  UNL     1     -34.601   5.969   4.180  1.00 20.00     0.128 C 
BRANCH   7   8
HETATM    8  C7  UNL     1     -34.667   4.453   4.271  1.00 20.00     0.015 A 
HETATM    9  C3  UNL     1     -33.565   3.610   3.691  1.00 20.00     0.007 A 
HETATM   10  C4  UNL     1     -33.733   3.708   5.183  1.00 20.00     0.007 A 
ENDBRANCH   7   8
BRANCH   7  11
HETATM   11  O11 UNL     1     -35.745   6.451   3.484  1.00 20.00    -0.395 OA
HETATM   12  H27 UNL     1     -35.519   6.448   2.541  1.00 20.00     0.210 HD
ENDBRANCH   7  11
ENDBRANCH   5   7
TORSDOF 3
ENDMDL
MODEL 5
REMARK VINA RESULT:       0.2      1.107      1.723
REMARK  3 active torsions:
REMARK  status: ('A' for Active; 'I' for Inactive)
REMARK    1  A    between atoms: C7_7  and  C9_9 
REMARK    2  A    between atoms: C8_8  and  C9_9 
REMARK    3  A    between atoms: C9_9  and  O11_11 
ROOT
HETATM    1  C1  UNL     1     -34.797   6.151   2.983  1.00 20.00     0.027 C 
HETATM    2  C2  UNL     1     -33.499   6.372   2.212  1.00 20.00     0.011 C 
HETATM    3  C5  UNL     1     -34.641   6.583   4.435  1.00 20.00     0.167 C 
HETATM    4  C6  UNL     1     -32.934   8.140   3.903  1.00 20.00     0.174 C 
HETATM    5  C8  UNL     1     -32.990   7.804   2.410  1.00 20.00     0.039 C 
HETATM    6  O10 UNL     1     -34.210   7.941   4.514  1.00 20.00    -0.391 OA
ENDROOT
BRANCH   5   7
HETATM    7  C9  UNL     1     -31.630   8.001   1.750  1.00 20.00     0.128 C 
BRANCH   7   8
HETATM    8  C7  UNL     1     -31.634   9.181   0.792  1.00 20.00     0.015 A 
HETATM    9  C3  UNL     1     -32.639   9.246  -0.324  1.00 20.00     0.007 A 
HETATM   10  C4  UNL     1     -32.747  10.191   0.841  1.00 20.00     0.007 A 
ENDBRANCH   7   8
BRANCH   7  11
HETATM   11  O11 UNL     1     -31.282   6.818   1.040  1.00 20.00    -0.395 OA
HETATM   12  H27 UNL     1     -30.790   6.256   1.659  1.00 20.00     0.210 HD
ENDBRANCH   7  11
ENDBRANCH   5   7
TORSDOF 3
ENDMDL
MODEL 6
REMARK VINA RESULT:       0.3      1.254      1.570
REMARK  3 active torsions:
REMARK  status: ('A' for Active; 'I' for Inactive)
REMARK    1  A    between atoms: C7_7  and  C9_9 
REMARK    2  A    between atoms: C8_8  and  C9_9 
REMARK    3  A    between atoms: C9_9  and  O11_11 
ROOT
HETATM    1  C1  UNL     1     -34.979   6.789   4.480  1.00 20.00     0.027 C 
HETATM    2  C2  UNL     1     -34.203   7.257   3.252  1.00 20.00     0.011 C 
HETATM    3  C5  UNL     1     -35.364   5.321   4.346  1.00 20.00     0.167 C 
HETATM    4  C6  UNL     1     -33.538   4.861   2.906  1.00 20.00     0.174 C 
HETATM    5  C8  UNL     1     -33.038   6.307   2.955  1.00 20.00     0.039 C 
HETATM    6  O10 UNL     1     -34.208   4.516   4.120  1.00 20.00    -0.391 OA
ENDROOT
BRANCH   5   7
HETATM    7  C9  UNL     1     -32.331   6.690   1.660  1.00 20.00     0.128 C 
BRANCH   7   8
HETATM    8  C7  UNL     1     -31.932   8.156   1.648  1.00 20.00     0.015 A 
HETATM    9  C3  UNL     1     -31.215   8.736   0.460  1.00 20.00     0.007 A 
HETATM   10  C4  UNL     1     -32.640   9.126   0.743  1.00 20.00     0.007 A 
ENDBRANCH   7   8
BRANCH   7  11
HETATM   11  O11 UNL     1     -33.199   6.428   0.562  1.00 20.00    -0.395 OA
HETATM   12  H27 UNL     1     -33.830   5.755   0.861  1.00 20.00     0.210 HD
ENDBRANCH   7  11
ENDBRANCH   5   7
TORSDOF 3
ENDMDL
MODEL 7
REMARK VINA RESULT:       0.3      1.768      2.762
REMARK  3 active torsions:
REMARK  status: ('A' for Active; 'I' for Inactive)
REMARK    1  A    between atoms: C7_7  and  C9_9 
REMARK    2  A    between atoms: C8_8  and  C9_9 
REMARK    3  A    between atoms: C9_9  and  O11_11 
ROOT
HETATM    1  C1  UNL     1     -33.485   3.770   3.549  1.00 20.00     0.027 C 
HETATM    2  C2  UNL     1     -32.982   5.156   3.154  1.00 20.00     0.011 C 
HETATM    3  C5  UNL     1     -34.354   3.850   4.797  1.00 20.00     0.167 C 
HETATM    4  C6  UNL     1     -34.979   6.092   4.353  1.00 20.00     0.174 C 
HETATM    5  C8  UNL     1     -34.146   6.149   3.069  1.00 20.00     0.039 C 
HETATM    6  O10 UNL     1     -35.434   4.761   4.603  1.00 20.00    -0.391 OA
ENDROOT
BRANCH   5   7
HETATM    7  C9  UNL     1     -33.645   7.563   2.799  1.00 20.00     0.128 C 
BRANCH   7   8
HETATM    8  C7  UNL     1     -32.510   7.575   1.790  1.00 20.00     0.015 A 
HETATM    9  C3  UNL     1     -32.228   8.812   0.982  1.00 20.00     0.007 A 
HETATM   10  C4  UNL     1     -31.269   8.381   2.057  1.00 20.00     0.007 A 
ENDBRANCH   7   8
BRANCH   7  11
HETATM   11  O11 UNL     1     -33.197   8.138   4.022  1.00 20.00    -0.395 OA
HETATM   12  H27 UNL     1     -32.227   8.151   3.983  1.00 20.00     0.210 HD
ENDBRANCH   7  11
ENDBRANCH   5   7
TORSDOF 3
ENDMDL
MODEL 8
REMARK VINA RESULT:       0.4      1.698      4.538
REMARK  3 active torsions:
REMARK  status: ('A' for Active; 'I' for Inactive)
REMARK    1  A    between atoms: C7_7  and  C9_9 
REMARK    2  A    between atoms: C8_8  and  C9_9 
REMARK    3  A    between atoms: C9_9  and  O11_11 
ROOT
HETATM    1  C1  UNL     1     -31.349   8.453   0.305  1.00 20.00     0.027 C 
HETATM    2  C2  UNL     1     -31.847   7.540   1.422  1.00 20.00     0.011 C 
HETATM    3  C5  UNL     1     -32.397   9.503  -0.040  1.00 20.00     0.167 C 
HETATM    4  C6  UNL     1     -33.348   9.424   2.130  1.00 20.00     0.174 C 
HETATM    5  C8  UNL     1     -32.351   8.366   2.611  1.00 20.00     0.039 C 
HETATM    6  O10 UNL     1     -32.764  10.249   1.120  1.00 20.00    -0.391 OA
ENDROOT
BRANCH   5   7
HETATM    7  C9  UNL     1     -32.967   7.473   3.681  1.00 20.00     0.128 C 
BRANCH   7   8
HETATM    8  C7  UNL     1     -34.077   6.602   3.116  1.00 20.00     0.015 A 
HETATM    9  C3  UNL     1     -34.314   5.224   3.670  1.00 20.00     0.007 A 
HETATM   10  C4  UNL     1     -35.308   6.322   3.932  1.00 20.00     0.007 A 
ENDBRANCH   7   8
BRANCH   7  11
HETATM   11  O11 UNL     1     -33.492   8.290   4.722  1.00 20.00    -0.395 OA
HETATM   12  H27 UNL     1     -33.709   9.146   4.321  1.00 20.00     0.210 HD
ENDBRANCH   7  11
ENDBRANCH   5   7
TORSDOF 3
ENDMDL
MODEL 9
REMARK VINA RESULT:       0.5      0.999      1.046
REMARK  3 active torsions:
REMARK  status: ('A' for Active; 'I' for Inactive)
REMARK    1  A    between atoms: C7_7  and  C9_9 
REMARK    2  A    between atoms: C8_8  and  C9_9 
REMARK    3  A    between atoms: C9_9  and  O11_11 
ROOT
HETATM    1  C1  UNL     1     -34.773   6.311   4.275  1.00 20.00     0.027 C 
HETATM    2  C2  UNL     1     -34.164   7.606   3.744  1.00 20.00     0.011 C 
HETATM    3  C5  UNL     1     -34.746   5.226   3.207  1.00 20.00     0.167 C 
HETATM    4  C6  UNL     1     -32.877   6.193   2.116  1.00 20.00     0.174 C 
HETATM    5  C8  UNL     1     -32.787   7.340   3.126  1.00 20.00     0.039 C 
HETATM    6  O10 UNL     1     -33.418   5.021   2.729  1.00 20.00    -0.391 OA
ENDROOT
BRANCH   5   7
HETATM    7  C9  UNL     1     -32.222   8.600   2.479  1.00 20.00     0.128 C 
BRANCH   7   8
HETATM    8  C7  UNL     1     -32.490   8.635   0.984  1.00 20.00     0.015 A 
HETATM    9  C3  UNL     1     -32.609   9.951   0.266  1.00 20.00     0.007 A 
HETATM   10  C4  UNL     1     -31.412   9.072   0.032  1.00 20.00     0.007 A 
ENDBRANCH   7   8
BRANCH   7  11
HETATM   11  O11 UNL     1     -30.817   8.650   2.708  1.00 20.00    -0.395 OA
HETATM   12  H27 UNL     1     -30.614   9.555   2.991  1.00 20.00     0.210 HD
ENDBRANCH   7  11
ENDBRANCH   5   7
TORSDOF 3
ENDMDL
