MODEL 1
REMARK VINA RESULT:      -0.4      0.000      0.000
REMARK  0 active torsions:
REMARK  status: ('A' for Active; 'I' for Inactive)
ROOT
HETATM    1  C1  UNL     1     -32.278   9.090   0.516  1.00 20.00     0.065 C 
HETATM    2  C2  UNL     1     -35.113   6.630   3.755  1.00 20.00     0.032 C 
HETATM    3  C3  UNL     1     -34.167   7.476   4.585  1.00 20.00     0.037 C 
HETATM    4  C4  UNL     1     -32.625   8.715   2.948  1.00 20.00     0.056 C 
HETATM    5  C5  UNL     1     -34.185   5.602   3.130  1.00 20.00     0.273 C 
HETATM    6  C6  UNL     1     -32.929   6.894   1.481  1.00 20.00     0.292 C 
HETATM    7  C7  UNL     1     -32.099   8.160   1.633  1.00 20.00     0.123 C 
HETATM    8  C8  UNL     1     -32.863   7.463   3.792  1.00 20.00     0.224 C 
HETATM    9  N9  UNL     1     -32.421   9.827  -0.369  1.00 20.00    -0.197 NA
HETATM   10  N10 UNL     1     -32.944   6.329   2.839  1.00 20.00     0.094 N 
ENDROOT
TORSDOF 0
ENDMDL
MODEL 2
REMARK VINA RESULT:      -0.2      1.846      4.386
REMARK  0 active torsions:
REMARK  status: ('A' for Active; 'I' for Inactive)
ROOT
HETATM    1  C1  UNL     1     -33.571   3.360   4.271  1.00 20.00     0.065 C 
HETATM    2  C2  UNL     1     -32.583   8.189   3.739  1.00 20.00     0.032 C 
HETATM    3  C3  UNL     1     -34.037   8.103   4.158  1.00 20.00     0.037 C 
HETATM    4  C4  UNL     1     -34.617   5.612   4.374  1.00 20.00     0.056 C 
HETATM    5  C5  UNL     1     -32.600   7.599   2.339  1.00 20.00     0.273 C 
HETATM    6  C6  UNL     1     -32.975   5.217   2.729  1.00 20.00     0.292 C 
HETATM    7  C7  UNL     1     -34.074   4.495   3.494  1.00 20.00     0.123 C 
HETATM    8  C8  UNL     1     -34.549   6.843   3.469  1.00 20.00     0.224 C 
HETATM    9  N9  UNL     1     -33.172   2.461   4.885  1.00 20.00    -0.197 NA
HETATM   10  N10 UNL     1     -33.585   6.512   2.391  1.00 20.00     0.094 N 
ENDROOT
TORSDOF 0
ENDMDL
MODEL 3
REMARK VINA RESULT:       1.3      1.509      4.151
REMARK  0 active torsions:
REMARK  status: ('A' for Active; 'I' for Inactive)
ROOT
HETATM    1  C1  UNL     1     -34.638   6.273   3.736  1.00 20.00     0.065 C 
HETATM    2  C2  UNL     1     -32.595   9.446   0.520  1.00 20.00     0.032 C 
HETATM    3  C3  UNL     1     -32.055   8.076   0.158  1.00 20.00     0.037 C 
HETATM    4  C4  UNL     1     -33.028   6.406   1.847  1.00 20.00     0.056 C 
HETATM    5  C5  UNL     1     -31.944   9.720   1.865  1.00 20.00     0.273 C 
HETATM    6  C6  UNL     1     -33.101   8.195   3.381  1.00 20.00     0.292 C 
HETATM    7  C7  UNL     1     -33.296   6.687   3.318  1.00 20.00     0.123 C 
HETATM    8  C8  UNL     1     -31.895   7.372   1.501  1.00 20.00     0.224 C 
HETATM    9  N9  UNL     1     -35.700   5.945   4.067  1.00 20.00    -0.197 NA
HETATM   10  N10 UNL     1     -31.910   8.422   2.549  1.00 20.00     0.094 N 
ENDROOT
TORSDOF 0
ENDMDL
MODEL 4
REMARK VINA RESULT:       2.2      1.410      4.301
REMARK  0 active torsions:
REMARK  status: ('A' for Active; 'I' for Inactive)
ROOT
HETATM    1  C1  UNL     1     -34.313   7.070   3.384  1.00 20.00     0.065 C 
HETATM    2  C2  UNL     1     -32.703   9.580  -0.577  1.00 20.00     0.032 C 
HETATM    3  C3  UNL     1     -31.632   8.551  -0.270  1.00 20.00     0.037 C 
HETATM    4  C4  UNL     1     -32.389   7.274   1.825  1.00 20.00     0.056 C 
HETATM    5  C5  UNL     1     -32.604  10.532   0.603  1.00 20.00     0.273 C 
HETATM    6  C6  UNL     1     -33.526   9.239   2.459  1.00 20.00     0.292 C 
HETATM    7  C7  UNL     1     -33.147   7.869   3.002  1.00 20.00     0.123 C 
HETATM    8  C8  UNL     1     -31.623   8.467   1.253  1.00 20.00     0.224 C 
HETATM    9  N9  UNL     1     -35.237   6.438   3.687  1.00 20.00    -0.197 NA
HETATM   10  N10 UNL     1     -32.308   9.681   1.762  1.00 20.00     0.094 N 
ENDROOT
TORSDOF 0
ENDMDL
MODEL 5
REMARK VINA RESULT:       2.4      1.742      2.720
REMARK  0 active torsions:
REMARK  status: ('A' for Active; 'I' for Inactive)
ROOT
HETATM    1  C1  UNL     1     -32.000   8.002   2.327  1.00 20.00     0.065 C 
HETATM    2  C2  UNL     1     -33.959   4.215   4.857  1.00 20.00     0.032 C 
HETATM    3  C3  UNL     1     -33.696   3.693   3.458  1.00 20.00     0.037 C 
HETATM    4  C4  UNL     1     -32.748   5.645   2.086  1.00 20.00     0.056 C 
HETATM    5  C5  UNL     1     -35.085   5.212   4.638  1.00 20.00     0.273 C 
HETATM    6  C6  UNL     1     -33.986   7.071   3.497  1.00 20.00     0.292 C 
HETATM    7  C7  UNL     1     -33.153   7.105   2.224  1.00 20.00     0.123 C 
HETATM    8  C8  UNL     1     -33.990   4.885   2.554  1.00 20.00     0.224 C 
HETATM    9  N9  UNL     1     -31.087   8.713   2.408  1.00 20.00    -0.197 NA
HETATM   10  N10 UNL     1     -34.790   5.849   3.349  1.00 20.00     0.094 N 
ENDROOT
TORSDOF 0
ENDMDL
