MODEL 1
REMARK VINA RESULT:      -0.3      0.000      0.000
REMARK  0 active torsions:
REMARK  status: ('A' for Active; 'I' for Inactive)
ROOT
HETATM    1  C1  UNL     1     -32.125   9.040   0.946  1.00 20.00     0.065 C 
HETATM    2  C2  UNL     1     -33.792   5.203   3.862  1.00 20.00     0.032 C 
HETATM    3  C3  UNL     1     -33.561   4.908   2.390  1.00 20.00     0.037 C 
HETATM    4  C4  UNL     1     -31.870   6.642   1.540  1.00 20.00     0.056 C 
HETATM    5  C5  UNL     1     -34.496   6.547   3.829  1.00 20.00     0.273 C 
HETATM    6  C6  UNL     1     -32.740   8.115   3.169  1.00 20.00     0.292 C 
HETATM    7  C7  UNL     1     -31.756   8.087   2.006  1.00 20.00     0.123 C 
HETATM    8  C8  UNL     1     -33.340   6.283   1.768  1.00 20.00     0.224 C 
HETATM    9  N9  UNL     1     -32.416   9.790   0.111  1.00 20.00    -0.197 NA
HETATM   10  N10 UNL     1     -33.871   7.284   2.725  1.00 20.00     0.094 N 
ENDROOT
TORSDOF 0
ENDMDL
MODEL 2
REMARK VINA RESULT:       1.0      1.542      3.943
REMARK  0 active torsions:
REMARK  status: ('A' for Active; 'I' for Inactive)
ROOT
HETATM    1  C1  UNL     1     -34.113   4.622   3.821  1.00 20.00     0.065 C 
HETATM    2  C2  UNL     1     -32.263   8.805   1.567  1.00 20.00     0.032 C 
HETATM    3  C3  UNL     1     -31.790   7.464   1.037  1.00 20.00     0.037 C 
HETATM    4  C4  UNL     1     -33.585   5.739   1.668  1.00 20.00     0.056 C 
HETATM    5  C5  UNL     1     -32.201   8.613   3.072  1.00 20.00     0.273 C 
HETATM    6  C6  UNL     1     -34.055   7.091   3.547  1.00 20.00     0.292 C 
HETATM    7  C7  UNL     1     -34.433   5.750   2.931  1.00 20.00     0.123 C 
HETATM    8  C8  UNL     1     -32.295   6.460   2.068  1.00 20.00     0.224 C 
HETATM    9  N9  UNL     1     -33.860   3.733   4.522  1.00 20.00    -0.197 NA
HETATM   10  N10 UNL     1     -32.609   7.222   3.300  1.00 20.00     0.094 N 
ENDROOT
TORSDOF 0
ENDMDL
MODEL 3
REMARK VINA RESULT:       2.4      1.446      2.379
REMARK  0 active torsions:
REMARK  status: ('A' for Active; 'I' for Inactive)
ROOT
HETATM    1  C1  UNL     1     -31.947   7.641   1.693  1.00 20.00     0.065 C 
HETATM    2  C2  UNL     1     -35.413   4.864   4.199  1.00 20.00     0.032 C 
HETATM    3  C3  UNL     1     -35.239   6.310   4.628  1.00 20.00     0.037 C 
HETATM    4  C4  UNL     1     -34.249   7.567   2.620  1.00 20.00     0.056 C 
HETATM    5  C5  UNL     1     -33.981   4.390   4.026  1.00 20.00     0.273 C 
HETATM    6  C6  UNL     1     -33.225   5.531   2.000  1.00 20.00     0.292 C 
HETATM    7  C7  UNL     1     -33.270   7.001   1.602  1.00 20.00     0.123 C 
HETATM    8  C8  UNL     1     -33.981   6.764   3.895  1.00 20.00     0.224 C 
HETATM    9  N9  UNL     1     -30.906   8.144   1.765  1.00 20.00    -0.197 NA
HETATM   10  N10 UNL     1     -33.258   5.541   3.472  1.00 20.00     0.094 N 
ENDROOT
TORSDOF 0
ENDMDL
MODEL 4
REMARK VINA RESULT:       2.6      1.602      3.790
REMARK  0 active torsions:
REMARK  status: ('A' for Active; 'I' for Inactive)
ROOT
HETATM    1  C1  UNL     1     -35.678   6.458   3.584  1.00 20.00     0.065 C 
HETATM    2  C2  UNL     1     -30.974   6.893   1.663  1.00 20.00     0.032 C 
HETATM    3  C3  UNL     1     -31.800   8.162   1.773  1.00 20.00     0.037 C 
HETATM    4  C4  UNL     1     -33.559   7.751   3.598  1.00 20.00     0.056 C 
HETATM    5  C5  UNL     1     -31.972   5.888   1.116  1.00 20.00     0.273 C 
HETATM    6  C6  UNL     1     -33.475   5.467   2.998  1.00 20.00     0.292 C 
HETATM    7  C7  UNL     1     -34.241   6.425   3.902  1.00 20.00     0.123 C 
HETATM    8  C8  UNL     1     -33.201   7.663   2.113  1.00 20.00     0.224 C 
HETATM    9  N9  UNL     1     -36.810   6.483   3.332  1.00 20.00    -0.197 NA
HETATM   10  N10 UNL     1     -33.249   6.225   1.756  1.00 20.00     0.094 N 
ENDROOT
TORSDOF 0
ENDMDL
