MODEL 1
REMARK VINA RESULT:      -2.3      0.000      0.000
REMARK  0 active torsions:
REMARK  status: ('A' for Active; 'I' for Inactive)
ROOT
HETATM    1  C1  UNL     1     -32.742   8.163   2.500  1.00 20.00     0.053 A 
HETATM    2  C2  UNL     1     -31.949   6.342   1.155  1.00 20.00     0.159 A 
HETATM    3  C3  UNL     1     -33.533   7.245   3.159  1.00 20.00    -0.030 A 
HETATM    4  C4  UNL     1     -31.930   7.703   1.465  1.00 20.00     0.134 A 
HETATM    5  C5  UNL     1     -33.479   5.909   2.778  1.00 20.00     0.040 A 
HETATM    6  C6  UNL     1     -34.460   7.446   4.310  1.00 20.00     0.041 C 
HETATM    7  C7  UNL     1     -34.369   5.071   3.651  1.00 20.00     0.060 C 
HETATM    8  C8  UNL     1     -35.282   6.149   4.254  1.00 20.00     0.011 C 
HETATM    9  N9  UNL     1     -32.706   5.418   1.795  1.00 20.00    -0.262 NA
HETATM   10  F10 UNL     1     -31.144   8.546   0.785  1.00 20.00    -0.205 F 
ENDROOT
TORSDOF 0
ENDMDL
MODEL 2
REMARK VINA RESULT:      -1.7      2.528      4.150
REMARK  0 active torsions:
REMARK  status: ('A' for Active; 'I' for Inactive)
ROOT
HETATM    1  C1  UNL     1     -33.973   5.229   3.022  1.00 20.00     0.053 A 
HETATM    2  C2  UNL     1     -34.699   7.050   4.403  1.00 20.00     0.159 A 
HETATM    3  C3  UNL     1     -33.100   6.116   2.425  1.00 20.00    -0.030 A 
HETATM    4  C4  UNL     1     -34.800   5.708   4.035  1.00 20.00     0.134 A 
HETATM    5  C5  UNL     1     -33.072   7.435   2.864  1.00 20.00     0.040 A 
HETATM    6  C6  UNL     1     -32.090   5.877   1.354  1.00 20.00     0.041 C 
HETATM    7  C7  UNL     1     -32.023   8.218   2.129  1.00 20.00     0.060 C 
HETATM    8  C8  UNL     1     -31.791   7.317   0.906  1.00 20.00     0.011 C 
HETATM    9  N9  UNL     1     -33.843   7.939   3.842  1.00 20.00    -0.262 NA
HETATM   10  F10 UNL     1     -35.671   4.897   4.648  1.00 20.00    -0.205 F 
ENDROOT
TORSDOF 0
ENDMDL
MODEL 3
REMARK VINA RESULT:      -0.9      1.588      2.305
REMARK  0 active torsions:
REMARK  status: ('A' for Active; 'I' for Inactive)
ROOT
HETATM    1  C1  UNL     1     -33.203   5.343   1.973  1.00 20.00     0.053 A 
HETATM    2  C2  UNL     1     -31.621   7.024   1.323  1.00 20.00     0.159 A 
HETATM    3  C3  UNL     1     -33.701   6.255   2.879  1.00 20.00    -0.030 A 
HETATM    4  C4  UNL     1     -32.129   5.733   1.175  1.00 20.00     0.134 A 
HETATM    5  C5  UNL     1     -33.127   7.520   2.950  1.00 20.00     0.040 A 
HETATM    6  C6  UNL     1     -34.848   6.124   3.824  1.00 20.00     0.041 C 
HETATM    7  C7  UNL     1     -33.846   8.374   3.954  1.00 20.00     0.060 C 
HETATM    8  C8  UNL     1     -34.582   7.303   4.774  1.00 20.00     0.011 C 
HETATM    9  N9  UNL     1     -32.100   7.944   2.196  1.00 20.00    -0.262 NA
HETATM   10  F10 UNL     1     -31.599   4.890   0.281  1.00 20.00    -0.205 F 
ENDROOT
TORSDOF 0
ENDMDL
MODEL 4
REMARK VINA RESULT:      -0.9      1.228      2.073
REMARK  0 active torsions:
REMARK  status: ('A' for Active; 'I' for Inactive)
ROOT
HETATM    1  C1  UNL     1     -32.382   6.079   1.896  1.00 20.00     0.053 A 
HETATM    2  C2  UNL     1     -32.826   8.346   2.539  1.00 20.00     0.159 A 
HETATM    3  C3  UNL     1     -33.378   5.704   2.774  1.00 20.00    -0.030 A 
HETATM    4  C4  UNL     1     -32.092   7.437   1.777  1.00 20.00     0.134 A 
HETATM    5  C5  UNL     1     -34.055   6.687   3.488  1.00 20.00     0.040 A 
HETATM    6  C6  UNL     1     -33.915   4.346   3.076  1.00 20.00     0.041 C 
HETATM    7  C7  UNL     1     -35.130   6.080   4.342  1.00 20.00     0.060 C 
HETATM    8  C8  UNL     1     -34.671   4.614   4.387  1.00 20.00     0.011 C 
HETATM    9  N9  UNL     1     -33.816   8.006   3.399  1.00 20.00    -0.262 NA
HETATM   10  F10 UNL     1     -31.133   7.861   0.945  1.00 20.00    -0.205 F 
ENDROOT
TORSDOF 0
ENDMDL
MODEL 5
REMARK VINA RESULT:      -0.8      2.403      3.728
REMARK  0 active torsions:
REMARK  status: ('A' for Active; 'I' for Inactive)
ROOT
HETATM    1  C1  UNL     1     -34.650   6.728   3.922  1.00 20.00     0.053 A 
HETATM    2  C2  UNL     1     -34.155   4.398   3.647  1.00 20.00     0.159 A 
HETATM    3  C3  UNL     1     -33.664   6.980   2.991  1.00 20.00    -0.030 A 
HETATM    4  C4  UNL     1     -34.902   5.401   4.266  1.00 20.00     0.134 A 
HETATM    5  C5  UNL     1     -32.977   5.910   2.428  1.00 20.00     0.040 A 
HETATM    6  C6  UNL     1     -33.211   8.280   2.418  1.00 20.00     0.041 C 
HETATM    7  C7  UNL     1     -31.989   6.392   1.404  1.00 20.00     0.060 C 
HETATM    8  C8  UNL     1     -31.866   7.873   1.794  1.00 20.00     0.011 C 
HETATM    9  N9  UNL     1     -33.190   4.617   2.721  1.00 20.00    -0.262 NA
HETATM   10  F10 UNL     1     -35.842   5.094   5.166  1.00 20.00    -0.205 F 
ENDROOT
TORSDOF 0
ENDMDL
MODEL 6
REMARK VINA RESULT:      -0.4      2.102      3.446
REMARK  0 active torsions:
REMARK  status: ('A' for Active; 'I' for Inactive)
ROOT
HETATM    1  C1  UNL     1     -32.929   8.164   3.630  1.00 20.00     0.053 A 
HETATM    2  C2  UNL     1     -34.660   6.648   4.304  1.00 20.00     0.159 A 
HETATM    3  C3  UNL     1     -32.689   7.316   2.569  1.00 20.00    -0.030 A 
HETATM    4  C4  UNL     1     -33.938   7.821   4.527  1.00 20.00     0.134 A 
HETATM    5  C5  UNL     1     -33.465   6.170   2.431  1.00 20.00     0.040 A 
HETATM    6  C6  UNL     1     -31.709   7.446   1.453  1.00 20.00     0.041 C 
HETATM    7  C7  UNL     1     -33.084   5.416   1.190  1.00 20.00     0.060 C 
HETATM    8  C8  UNL     1     -31.697   6.011   0.903  1.00 20.00     0.011 C 
HETATM    9  N9  UNL     1     -34.454   5.804   3.264  1.00 20.00    -0.262 NA
HETATM   10  F10 UNL     1     -34.214   8.601   5.578  1.00 20.00    -0.205 F 
ENDROOT
TORSDOF 0
ENDMDL
