MODEL 1
REMARK VINA RESULT:      -2.2      0.000      0.000
REMARK  0 active torsions:
REMARK  status: ('A' for Active; 'I' for Inactive)
ROOT
HETATM    1  C1  UNL     1     -32.683   5.453   1.752  1.00 20.00     0.015 A 
HETATM    2  C2  UNL     1     -31.940   6.378   1.132  1.00 20.00     0.083 A 
HETATM    3  C3  UNL     1     -33.535   5.859   2.817  1.00 20.00    -0.028 A 
HETATM    4  C4  UNL     1     -33.575   7.139   3.177  1.00 20.00     0.063 A 
HETATM    5  C5  UNL     1     -31.995   7.807   1.542  1.00 20.00     0.287 A 
HETATM    6  C6  UNL     1     -34.436   5.019   3.646  1.00 20.00     0.041 C 
HETATM    7  C7  UNL     1     -34.502   7.404   4.303  1.00 20.00     0.066 C 
HETATM    8  C8  UNL     1     -35.275   6.078   4.382  1.00 20.00     0.011 C 
HETATM    9  O9  UNL     1     -31.308   8.642   0.962  1.00 20.00    -0.260 OA
HETATM   10  O10 UNL     1     -32.831   8.153   2.579  1.00 20.00    -0.279 OA
ENDROOT
TORSDOF 0
ENDMDL
MODEL 2
REMARK VINA RESULT:      -2.1      1.934      4.145
REMARK  0 active torsions:
REMARK  status: ('A' for Active; 'I' for Inactive)
ROOT
HETATM    1  C1  UNL     1     -33.940   7.831   3.897  1.00 20.00     0.015 A 
HETATM    2  C2  UNL     1     -34.739   6.930   4.481  1.00 20.00     0.083 A 
HETATM    3  C3  UNL     1     -33.074   7.406   2.852  1.00 20.00    -0.028 A 
HETATM    4  C4  UNL     1     -33.072   6.129   2.478  1.00 20.00     0.063 A 
HETATM    5  C5  UNL     1     -34.729   5.505   4.054  1.00 20.00     0.287 A 
HETATM    6  C6  UNL     1     -32.107   8.217   2.071  1.00 20.00     0.041 C 
HETATM    7  C7  UNL     1     -32.114   5.838   1.385  1.00 20.00     0.066 C 
HETATM    8  C8  UNL     1     -31.730   7.255   0.930  1.00 20.00     0.011 C 
HETATM    9  O9  UNL     1     -35.469   4.692   4.598  1.00 20.00    -0.260 OA
HETATM   10  O10 UNL     1     -33.873   5.138   3.039  1.00 20.00    -0.279 OA
ENDROOT
TORSDOF 0
ENDMDL
MODEL 3
REMARK VINA RESULT:      -0.7      1.651      2.301
REMARK  0 active torsions:
REMARK  status: ('A' for Active; 'I' for Inactive)
ROOT
HETATM    1  C1  UNL     1     -32.202   7.899   2.178  1.00 20.00     0.015 A 
HETATM    2  C2  UNL     1     -31.623   7.067   1.305  1.00 20.00     0.083 A 
HETATM    3  C3  UNL     1     -33.262   7.412   2.991  1.00 20.00    -0.028 A 
HETATM    4  C4  UNL     1     -33.660   6.148   2.868  1.00 20.00     0.063 A 
HETATM    5  C5  UNL     1     -32.074   5.655   1.176  1.00 20.00     0.287 A 
HETATM    6  C6  UNL     1     -34.049   8.146   4.015  1.00 20.00     0.041 C 
HETATM    7  C7  UNL     1     -34.776   5.792   3.775  1.00 20.00     0.066 C 
HETATM    8  C8  UNL     1     -34.802   7.003   4.720  1.00 20.00     0.011 C 
HETATM    9  O9  UNL     1     -31.532   4.904   0.371  1.00 20.00    -0.260 OA
HETATM   10  O10 UNL     1     -33.106   5.227   1.982  1.00 20.00    -0.279 OA
ENDROOT
TORSDOF 0
ENDMDL
MODEL 4
REMARK VINA RESULT:      -0.5      1.113      2.085
REMARK  0 active torsions:
REMARK  status: ('A' for Active; 'I' for Inactive)
ROOT
HETATM    1  C1  UNL     1     -33.922   8.073   3.420  1.00 20.00     0.015 A 
HETATM    2  C2  UNL     1     -32.937   8.426   2.585  1.00 20.00     0.083 A 
HETATM    3  C3  UNL     1     -34.209   6.691   3.598  1.00 20.00    -0.028 A 
HETATM    4  C4  UNL     1     -33.500   5.781   2.935  1.00 20.00     0.063 A 
HETATM    5  C5  UNL     1     -32.150   7.400   1.850  1.00 20.00     0.287 A 
HETATM    6  C6  UNL     1     -35.247   6.070   4.458  1.00 20.00     0.041 C 
HETATM    7  C7  UNL     1     -33.920   4.388   3.218  1.00 20.00     0.066 C 
HETATM    8  C8  UNL     1     -34.837   4.587   4.435  1.00 20.00     0.011 C 
HETATM    9  O9  UNL     1     -31.250   7.740   1.089  1.00 20.00    -0.260 OA
HETATM   10  O10 UNL     1     -32.464   6.074   2.051  1.00 20.00    -0.279 OA
ENDROOT
TORSDOF 0
ENDMDL
MODEL 5
REMARK VINA RESULT:       0.1      1.926      3.675
REMARK  0 active torsions:
REMARK  status: ('A' for Active; 'I' for Inactive)
ROOT
HETATM    1  C1  UNL     1     -33.090   4.647   2.573  1.00 20.00     0.015 A 
HETATM    2  C2  UNL     1     -34.030   4.286   3.455  1.00 20.00     0.083 A 
HETATM    3  C3  UNL     1     -32.880   6.032   2.323  1.00 20.00    -0.028 A 
HETATM    4  C4  UNL     1     -33.617   6.936   2.963  1.00 20.00     0.063 A 
HETATM    5  C5  UNL     1     -34.847   5.305   4.167  1.00 20.00     0.287 A 
HETATM    6  C6  UNL     1     -31.909   6.662   1.393  1.00 20.00     0.041 C 
HETATM    7  C7  UNL     1     -33.287   8.333   2.593  1.00 20.00     0.066 C 
HETATM    8  C8  UNL     1     -31.976   8.141   1.815  1.00 20.00     0.011 C 
HETATM    9  O9  UNL     1     -35.703   4.957   4.974  1.00 20.00    -0.260 OA
HETATM   10  O10 UNL     1     -34.610   6.634   3.892  1.00 20.00    -0.279 OA
ENDROOT
TORSDOF 0
ENDMDL
MODEL 6
REMARK VINA RESULT:       0.1      1.245      3.395
REMARK  0 active torsions:
REMARK  status: ('A' for Active; 'I' for Inactive)
ROOT
HETATM    1  C1  UNL     1     -34.521   5.828   3.333  1.00 20.00     0.015 A 
HETATM    2  C2  UNL     1     -34.710   6.676   4.352  1.00 20.00     0.083 A 
HETATM    3  C3  UNL     1     -33.480   6.097   2.401  1.00 20.00    -0.028 A 
HETATM    4  C4  UNL     1     -32.721   7.179   2.555  1.00 20.00     0.063 A 
HETATM    5  C5  UNL     1     -33.854   7.882   4.515  1.00 20.00     0.287 A 
HETATM    6  C6  UNL     1     -33.091   5.310   1.204  1.00 20.00     0.041 C 
HETATM    7  C7  UNL     1     -31.687   7.327   1.504  1.00 20.00     0.066 C 
HETATM    8  C8  UNL     1     -31.744   5.950   0.823  1.00 20.00     0.011 C 
HETATM    9  O9  UNL     1     -34.040   8.648   5.455  1.00 20.00    -0.260 OA
HETATM   10  O10 UNL     1     -32.861   8.103   3.588  1.00 20.00    -0.279 OA
ENDROOT
TORSDOF 0
ENDMDL
