MODEL 1
REMARK VINA RESULT:       0.6      0.000      0.000
REMARK  2 active torsions:
REMARK  status: ('A' for Active; 'I' for Inactive)
REMARK    1  A    between atoms: C1_1  and  N9_9 
REMARK    2  A    between atoms: C8_8  and  N9_9 
ROOT
HETATM    1  C2  UNL     1     -31.419   6.232   1.635  1.00 20.00     0.005 C 
HETATM    2  C3  UNL     1     -32.875   5.765   1.506  1.00 20.00     0.007 C 
HETATM    3  C4  UNL     1     -32.754   8.038   0.842  1.00 20.00     0.011 C 
HETATM    4  C5  UNL     1     -32.131   8.095   3.147  1.00 20.00     0.030 C 
HETATM    5  C6  UNL     1     -31.560   7.759   1.757  1.00 20.00    -0.012 C 
HETATM    6  C7  UNL     1     -33.675   7.079   1.602  1.00 20.00     0.009 C 
HETATM    7  C8  UNL     1     -33.606   7.677   3.023  1.00 20.00     0.088 C 
ENDROOT
BRANCH   7   8
HETATM    8  N9  UNL     1     -34.032   6.780   4.059  1.00 20.00    -0.363 N 
HETATM    9  H23 UNL     1     -33.394   6.607   4.838  1.00 20.00     0.162 HD
BRANCH   8  10
HETATM   10  C1  UNL     1     -35.255   6.138   4.062  1.00 20.00     0.348 C 
HETATM   11  O10 UNL     1     -35.511   5.022   4.496  1.00 20.00    -0.284 OA
ENDBRANCH   8  10
ENDBRANCH   7   8
TORSDOF 2
ENDMDL
MODEL 2
REMARK VINA RESULT:       0.6      1.702      1.944
REMARK  2 active torsions:
REMARK  status: ('A' for Active; 'I' for Inactive)
REMARK    1  A    between atoms: C1_1  and  N9_9 
REMARK    2  A    between atoms: C8_8  and  N9_9 
ROOT
HETATM    1  C2  UNL     1     -31.477   7.166   1.909  1.00 20.00     0.005 C 
HETATM    2  C3  UNL     1     -31.731   5.676   1.644  1.00 20.00     0.007 C 
HETATM    3  C4  UNL     1     -33.618   6.905   0.901  1.00 20.00     0.011 C 
HETATM    4  C5  UNL     1     -33.582   7.306   3.255  1.00 20.00     0.030 C 
HETATM    5  C6  UNL     1     -32.897   7.754   1.949  1.00 20.00    -0.012 C 
HETATM    6  C7  UNL     1     -33.269   5.586   1.597  1.00 20.00     0.009 C 
HETATM    7  C8  UNL     1     -33.889   5.823   2.990  1.00 20.00     0.088 C 
ENDROOT
BRANCH   7   8
HETATM    8  N9  UNL     1     -33.389   4.948   4.012  1.00 20.00    -0.363 N 
HETATM    9  H23 UNL     1     -32.733   5.331   4.695  1.00 20.00     0.162 HD
BRANCH   8  10
HETATM   10  C1  UNL     1     -33.743   3.618   4.124  1.00 20.00     0.348 C 
HETATM   11  O10 UNL     1     -33.201   2.755   4.802  1.00 20.00    -0.284 OA
ENDBRANCH   8  10
ENDBRANCH   7   8
TORSDOF 2
ENDMDL
MODEL 3
REMARK VINA RESULT:       0.8      0.857      2.008
REMARK  2 active torsions:
REMARK  status: ('A' for Active; 'I' for Inactive)
REMARK    1  A    between atoms: C1_1  and  N9_9 
REMARK    2  A    between atoms: C8_8  and  N9_9 
ROOT
HETATM    1  C2  UNL     1     -32.714   8.625   0.634  1.00 20.00     0.005 C 
HETATM    2  C3  UNL     1     -32.739   9.357   1.983  1.00 20.00     0.007 C 
HETATM    3  C4  UNL     1     -30.993   7.753   2.031  1.00 20.00     0.011 C 
HETATM    4  C5  UNL     1     -32.965   6.425   1.801  1.00 20.00     0.030 C 
HETATM    5  C6  UNL     1     -32.005   7.303   0.975  1.00 20.00    -0.012 C 
HETATM    6  C7  UNL     1     -32.071   8.350   2.940  1.00 20.00     0.009 C 
HETATM    7  C8  UNL     1     -32.967   7.116   3.174  1.00 20.00     0.088 C 
ENDROOT
BRANCH   7   8
HETATM    8  N9  UNL     1     -34.284   7.429   3.651  1.00 20.00    -0.363 N 
HETATM    9  H23 UNL     1     -34.483   8.395   3.918  1.00 20.00     0.162 HD
BRANCH   8  10
HETATM   10  C1  UNL     1     -35.299   6.499   3.768  1.00 20.00     0.348 C 
HETATM   11  O10 UNL     1     -35.278   5.446   4.393  1.00 20.00    -0.284 OA
ENDBRANCH   8  10
ENDBRANCH   7   8
TORSDOF 2
ENDMDL
MODEL 4
REMARK VINA RESULT:       0.8      2.232      3.461
REMARK  2 active torsions:
REMARK  status: ('A' for Active; 'I' for Inactive)
REMARK    1  A    between atoms: C1_1  and  N9_9 
REMARK    2  A    between atoms: C8_8  and  N9_9 
ROOT
HETATM    1  C2  UNL     1     -34.033   7.556   4.511  1.00 20.00     0.005 C 
HETATM    2  C3  UNL     1     -32.999   7.061   3.491  1.00 20.00     0.007 C 
HETATM    3  C4  UNL     1     -35.165   6.749   2.578  1.00 20.00     0.011 C 
HETATM    4  C5  UNL     1     -35.154   5.319   4.490  1.00 20.00     0.030 C 
HETATM    5  C6  UNL     1     -35.309   6.801   4.100  1.00 20.00    -0.012 C 
HETATM    6  C7  UNL     1     -33.800   6.057   2.639  1.00 20.00     0.009 C 
HETATM    7  C8  UNL     1     -34.155   4.791   3.447  1.00 20.00     0.088 C 
ENDROOT
BRANCH   7   8
HETATM    8  N9  UNL     1     -33.022   4.130   4.029  1.00 20.00    -0.363 N 
HETATM    9  H23 UNL     1     -32.092   4.494   3.819  1.00 20.00     0.162 HD
BRANCH   8  10
HETATM   10  C1  UNL     1     -33.120   3.027   4.857  1.00 20.00     0.348 C 
HETATM   11  O10 UNL     1     -33.490   1.900   4.558  1.00 20.00    -0.284 OA
ENDBRANCH   8  10
ENDBRANCH   7   8
TORSDOF 2
ENDMDL
MODEL 5
REMARK VINA RESULT:       1.3      2.499      3.900
REMARK  2 active torsions:
REMARK  status: ('A' for Active; 'I' for Inactive)
REMARK    1  A    between atoms: C1_1  and  N9_9 
REMARK    2  A    between atoms: C8_8  and  N9_9 
ROOT
HETATM    1  C2  UNL     1     -33.902   6.875   5.041  1.00 20.00     0.005 C 
HETATM    2  C3  UNL     1     -33.812   8.102   4.124  1.00 20.00     0.007 C 
HETATM    3  C4  UNL     1     -35.531   6.683   3.314  1.00 20.00     0.011 C 
HETATM    4  C5  UNL     1     -33.557   5.360   3.079  1.00 20.00     0.030 C 
HETATM    5  C6  UNL     1     -34.573   5.824   4.141  1.00 20.00    -0.012 C 
HETATM    6  C7  UNL     1     -34.413   7.594   2.799  1.00 20.00     0.009 C 
HETATM    7  C8  UNL     1     -33.489   6.561   2.121  1.00 20.00     0.088 C 
ENDROOT
BRANCH   7   8
HETATM    8  N9  UNL     1     -32.152   7.030   1.893  1.00 20.00    -0.363 N 
HETATM    9  H23 UNL     1     -31.386   6.359   1.975  1.00 20.00     0.162 HD
BRANCH   8  10
HETATM   10  C1  UNL     1     -31.843   8.337   1.568  1.00 20.00     0.348 C 
HETATM   11  O10 UNL     1     -32.211   8.969   0.587  1.00 20.00    -0.284 OA
ENDBRANCH   8  10
ENDBRANCH   7   8
TORSDOF 2
ENDMDL
MODEL 6
REMARK VINA RESULT:       1.4      2.931      3.806
REMARK  2 active torsions:
REMARK  status: ('A' for Active; 'I' for Inactive)
REMARK    1  A    between atoms: C1_1  and  N9_9 
REMARK    2  A    between atoms: C8_8  and  N9_9 
ROOT
HETATM    1  C2  UNL     1     -34.377   6.124   1.362  1.00 20.00     0.005 C 
HETATM    2  C3  UNL     1     -33.114   5.825   0.543  1.00 20.00     0.007 C 
HETATM    3  C4  UNL     1     -32.624   5.468   2.835  1.00 20.00     0.011 C 
HETATM    4  C5  UNL     1     -33.117   7.802   2.726  1.00 20.00     0.030 C 
HETATM    5  C6  UNL     1     -33.813   6.428   2.761  1.00 20.00    -0.012 C 
HETATM    6  C7  UNL     1     -31.978   6.026   1.564  1.00 20.00     0.009 C 
HETATM    7  C8  UNL     1     -31.823   7.513   1.948  1.00 20.00     0.088 C 
ENDROOT
BRANCH   7   8
HETATM    8  N9  UNL     1     -31.624   8.390   0.830  1.00 20.00    -0.363 N 
HETATM    9  H23 UNL     1     -30.884   8.162   0.164  1.00 20.00     0.162 HD
BRANCH   8  10
HETATM   10  C1  UNL     1     -32.377   9.526   0.603  1.00 20.00     0.348 C 
HETATM   11  O10 UNL     1     -32.782   9.951  -0.471  1.00 20.00    -0.284 OA
ENDBRANCH   8  10
ENDBRANCH   7   8
TORSDOF 2
ENDMDL
MODEL 7
REMARK VINA RESULT:       1.5      2.194      3.371
REMARK  2 active torsions:
REMARK  status: ('A' for Active; 'I' for Inactive)
REMARK    1  A    between atoms: C1_1  and  N9_9 
REMARK    2  A    between atoms: C8_8  and  N9_9 
ROOT
HETATM    1  C2  UNL     1     -35.637   6.847   2.870  1.00 20.00     0.005 C 
HETATM    2  C3  UNL     1     -35.555   6.180   4.249  1.00 20.00     0.007 C 
HETATM    3  C4  UNL     1     -33.615   7.508   3.941  1.00 20.00     0.011 C 
HETATM    4  C5  UNL     1     -33.433   5.848   2.234  1.00 20.00     0.030 C 
HETATM    5  C6  UNL     1     -34.165   7.164   2.555  1.00 20.00    -0.012 C 
HETATM    6  C7  UNL     1     -34.043   6.166   4.543  1.00 20.00     0.009 C 
HETATM    7  C8  UNL     1     -33.299   5.183   3.614  1.00 20.00     0.088 C 
ENDROOT
BRANCH   7   8
HETATM    8  N9  UNL     1     -33.806   3.842   3.651  1.00 20.00    -0.363 N 
HETATM    9  H23 UNL     1     -34.501   3.571   2.954  1.00 20.00     0.162 HD
BRANCH   8  10
HETATM   10  C1  UNL     1     -33.408   2.897   4.577  1.00 20.00     0.348 C 
HETATM   11  O10 UNL     1     -32.541   3.009   5.433  1.00 20.00    -0.284 OA
ENDBRANCH   8  10
ENDBRANCH   7   8
TORSDOF 2
ENDMDL
MODEL 8
REMARK VINA RESULT:       1.6      2.540      3.846
REMARK  2 active torsions:
REMARK  status: ('A' for Active; 'I' for Inactive)
REMARK    1  A    between atoms: C1_1  and  N9_9 
REMARK    2  A    between atoms: C8_8  and  N9_9 
ROOT
HETATM    1  C2  UNL     1     -35.782   6.720   3.087  1.00 20.00     0.005 C 
HETATM    2  C3  UNL     1     -34.772   6.434   1.967  1.00 20.00     0.007 C 
HETATM    3  C4  UNL     1     -34.068   5.295   3.925  1.00 20.00     0.011 C 
HETATM    4  C5  UNL     1     -33.948   7.598   4.545  1.00 20.00     0.030 C 
HETATM    5  C6  UNL     1     -34.965   6.455   4.362  1.00 20.00    -0.012 C 
HETATM    6  C7  UNL     1     -33.488   6.072   2.739  1.00 20.00     0.009 C 
HETATM    7  C8  UNL     1     -32.899   7.302   3.460  1.00 20.00     0.088 C 
ENDROOT
BRANCH   7   8
HETATM    8  N9  UNL     1     -32.641   8.420   2.599  1.00 20.00    -0.363 N 
HETATM    9  H23 UNL     1     -32.986   9.338   2.885  1.00 20.00     0.162 HD
BRANCH   8  10
HETATM   10  C1  UNL     1     -31.952   8.326   1.405  1.00 20.00     0.348 C 
HETATM   11  O10 UNL     1     -32.001   9.092   0.452  1.00 20.00    -0.284 OA
ENDBRANCH   8  10
ENDBRANCH   7   8
TORSDOF 2
ENDMDL
MODEL 9
REMARK VINA RESULT:       1.9      2.957      3.930
REMARK  2 active torsions:
REMARK  status: ('A' for Active; 'I' for Inactive)
REMARK    1  A    between atoms: C1_1  and  N9_9 
REMARK    2  A    between atoms: C8_8  and  N9_9 
ROOT
HETATM    1  C2  UNL     1     -34.748   7.571   3.769  1.00 20.00     0.005 C 
HETATM    2  C3  UNL     1     -34.845   6.844   2.421  1.00 20.00     0.007 C 
HETATM    3  C4  UNL     1     -33.059   5.895   3.660  1.00 20.00     0.011 C 
HETATM    4  C5  UNL     1     -32.357   8.150   3.307  1.00 20.00     0.030 C 
HETATM    5  C6  UNL     1     -33.293   7.309   4.196  1.00 20.00    -0.012 C 
HETATM    6  C7  UNL     1     -33.424   6.281   2.223  1.00 20.00     0.009 C 
HETATM    7  C8  UNL     1     -32.403   7.409   1.961  1.00 20.00     0.088 C 
ENDROOT
BRANCH   7   8
HETATM    8  N9  UNL     1     -32.740   8.259   0.855  1.00 20.00    -0.363 N 
HETATM    9  H23 UNL     1     -33.398   7.905   0.158  1.00 20.00     0.162 HD
BRANCH   8  10
HETATM   10  C1  UNL     1     -32.225   9.529   0.680  1.00 20.00     0.348 C 
HETATM   11  O10 UNL     1     -32.509  10.336  -0.196  1.00 20.00    -0.284 OA
ENDBRANCH   8  10
ENDBRANCH   7   8
TORSDOF 2
ENDMDL
