MODEL 1
REMARK VINA RESULT:      -1.1      0.000      0.000
REMARK  0 active torsions:
REMARK  status: ('A' for Active; 'I' for Inactive)
ROOT
HETATM    1  C1  UNL     1     -33.984   7.502   4.595  1.00 20.00    -0.023 C 
HETATM    2  C2  UNL     1     -34.530   6.493   3.905  1.00 20.00    -0.083 C 
HETATM    3  C3  UNL     1     -32.002   7.383   1.615  1.00 20.00     0.132 C 
HETATM    4  C4  UNL     1     -33.006   8.286   3.781  1.00 20.00     0.040 C 
HETATM    5  C5  UNL     1     -31.992   5.922   1.253  1.00 20.00     0.079 C 
HETATM    6  C6  UNL     1     -32.959   5.344   2.276  1.00 20.00     0.017 C 
HETATM    7  C7  UNL     1     -34.005   6.437   2.503  1.00 20.00     0.025 C 
HETATM    8  C8  UNL     1     -33.253   7.773   2.365  1.00 20.00     0.067 C 
HETATM    9  C9  UNL     1     -35.518   5.502   4.403  1.00 20.00     0.043 C 
HETATM   10  O10 UNL     1     -31.118   8.169   1.304  1.00 20.00    -0.298 OA
ENDROOT
TORSDOF 0
ENDMDL
MODEL 2
REMARK VINA RESULT:      -1.0      2.021      3.899
REMARK  0 active torsions:
REMARK  status: ('A' for Active; 'I' for Inactive)
ROOT
HETATM    1  C1  UNL     1     -31.643   6.553   1.450  1.00 20.00    -0.023 C 
HETATM    2  C2  UNL     1     -32.394   7.650   1.603  1.00 20.00    -0.083 C 
HETATM    3  C3  UNL     1     -34.263   5.454   3.630  1.00 20.00     0.132 C 
HETATM    4  C4  UNL     1     -32.303   5.330   2.000  1.00 20.00     0.040 C 
HETATM    5  C5  UNL     1     -34.593   6.681   4.436  1.00 20.00     0.079 C 
HETATM    6  C6  UNL     1     -33.729   7.736   3.760  1.00 20.00     0.017 C 
HETATM    7  C7  UNL     1     -33.692   7.339   2.283  1.00 20.00     0.025 C 
HETATM    8  C8  UNL     1     -33.731   5.801   2.260  1.00 20.00     0.067 C 
HETATM    9  C9  UNL     1     -32.045   9.036   1.196  1.00 20.00     0.043 C 
HETATM   10  O10 UNL     1     -34.442   4.310   4.026  1.00 20.00    -0.298 OA
ENDROOT
TORSDOF 0
ENDMDL
MODEL 3
REMARK VINA RESULT:       0.2      1.715      3.327
REMARK  0 active torsions:
REMARK  status: ('A' for Active; 'I' for Inactive)
ROOT
HETATM    1  C1  UNL     1     -32.084   7.346   1.318  1.00 20.00    -0.023 C 
HETATM    2  C2  UNL     1     -32.494   6.088   1.525  1.00 20.00    -0.083 C 
HETATM    3  C3  UNL     1     -34.014   7.599   4.323  1.00 20.00     0.132 C 
HETATM    4  C4  UNL     1     -32.359   8.234   2.488  1.00 20.00     0.040 C 
HETATM    5  C5  UNL     1     -35.082   6.553   4.149  1.00 20.00     0.079 C 
HETATM    6  C6  UNL     1     -34.642   5.875   2.860  1.00 20.00     0.017 C 
HETATM    7  C7  UNL     1     -33.114   5.927   2.880  1.00 20.00     0.025 C 
HETATM    8  C8  UNL     1     -32.747   7.245   3.584  1.00 20.00     0.067 C 
HETATM    9  C9  UNL     1     -32.402   4.950   0.574  1.00 20.00     0.043 C 
HETATM   10  O10 UNL     1     -34.147   8.600   5.015  1.00 20.00    -0.298 OA
ENDROOT
TORSDOF 0
ENDMDL
MODEL 4
REMARK VINA RESULT:       0.4      1.470      2.790
REMARK  0 active torsions:
REMARK  status: ('A' for Active; 'I' for Inactive)
ROOT
HETATM    1  C1  UNL     1     -33.131   6.147   2.240  1.00 20.00    -0.023 C 
HETATM    2  C2  UNL     1     -33.375   7.233   2.984  1.00 20.00    -0.083 C 
HETATM    3  C3  UNL     1     -31.509   8.768   0.418  1.00 20.00     0.132 C 
HETATM    4  C4  UNL     1     -32.126   6.407   1.165  1.00 20.00     0.040 C 
HETATM    5  C5  UNL     1     -32.369   9.973   0.686  1.00 20.00     0.079 C 
HETATM    6  C6  UNL     1     -33.357   9.426   1.706  1.00 20.00     0.017 C 
HETATM    7  C7  UNL     1     -32.565   8.408   2.527  1.00 20.00     0.025 C 
HETATM    8  C8  UNL     1     -31.559   7.771   1.550  1.00 20.00     0.067 C 
HETATM    9  C9  UNL     1     -34.328   7.343   4.119  1.00 20.00     0.043 C 
HETATM   10  O10 UNL     1     -30.819   8.632  -0.583  1.00 20.00    -0.298 OA
ENDROOT
TORSDOF 0
ENDMDL
MODEL 5
REMARK VINA RESULT:       0.5      1.405      2.431
REMARK  0 active torsions:
REMARK  status: ('A' for Active; 'I' for Inactive)
ROOT
HETATM    1  C1  UNL     1     -34.969   6.745   4.066  1.00 20.00    -0.023 C 
HETATM    2  C2  UNL     1     -33.926   7.542   4.325  1.00 20.00    -0.083 C 
HETATM    3  C3  UNL     1     -32.670   5.962   1.436  1.00 20.00     0.132 C 
HETATM    4  C4  UNL     1     -34.664   5.732   3.011  1.00 20.00     0.040 C 
HETATM    5  C5  UNL     1     -31.956   7.263   1.188  1.00 20.00     0.079 C 
HETATM    6  C6  UNL     1     -32.512   8.137   2.303  1.00 20.00     0.017 C 
HETATM    7  C7  UNL     1     -32.740   7.189   3.481  1.00 20.00     0.025 C 
HETATM    8  C8  UNL     1     -33.149   5.840   2.862  1.00 20.00     0.067 C 
HETATM    9  C9  UNL     1     -33.880   8.668   5.294  1.00 20.00     0.043 C 
HETATM   10  O10 UNL     1     -32.809   5.089   0.590  1.00 20.00    -0.298 OA
ENDROOT
TORSDOF 0
ENDMDL
MODEL 6
REMARK VINA RESULT:       1.0      1.766      3.339
REMARK  0 active torsions:
REMARK  status: ('A' for Active; 'I' for Inactive)
ROOT
HETATM    1  C1  UNL     1     -33.106   4.408   2.634  1.00 20.00    -0.023 C 
HETATM    2  C2  UNL     1     -32.739   5.131   1.569  1.00 20.00    -0.083 C 
HETATM    3  C3  UNL     1     -33.565   7.782   3.740  1.00 20.00     0.132 C 
HETATM    4  C4  UNL     1     -33.764   5.239   3.688  1.00 20.00     0.040 C 
HETATM    5  C5  UNL     1     -32.489   8.544   3.015  1.00 20.00     0.079 C 
HETATM    6  C6  UNL     1     -31.911   7.471   2.104  1.00 20.00     0.017 C 
HETATM    7  C7  UNL     1     -33.096   6.577   1.735  1.00 20.00     0.025 C 
HETATM    8  C8  UNL     1     -34.014   6.563   2.971  1.00 20.00     0.067 C 
HETATM    9  C9  UNL     1     -32.042   4.640   0.352  1.00 20.00     0.043 C 
HETATM   10  O10 UNL     1     -34.047   8.134   4.808  1.00 20.00    -0.298 OA
ENDROOT
TORSDOF 0
ENDMDL
MODEL 7
REMARK VINA RESULT:       1.1      2.068      3.836
REMARK  0 active torsions:
REMARK  status: ('A' for Active; 'I' for Inactive)
ROOT
HETATM    1  C1  UNL     1     -32.511   9.753   0.713  1.00 20.00    -0.023 C 
HETATM    2  C2  UNL     1     -31.664   8.744   0.473  1.00 20.00    -0.083 C 
HETATM    3  C3  UNL     1     -33.439   7.307   3.158  1.00 20.00     0.132 C 
HETATM    4  C4  UNL     1     -33.271   9.568   1.986  1.00 20.00     0.040 C 
HETATM    5  C5  UNL     1     -33.167   5.996   2.471  1.00 20.00     0.079 C 
HETATM    6  C6  UNL     1     -32.506   6.456   1.180  1.00 20.00     0.017 C 
HETATM    7  C7  UNL     1     -31.717   7.711   1.557  1.00 20.00     0.025 C 
HETATM    8  C8  UNL     1     -32.538   8.409   2.656  1.00 20.00     0.067 C 
HETATM    9  C9  UNL     1     -30.772   8.587  -0.705  1.00 20.00     0.043 C 
HETATM   10  O10 UNL     1     -34.268   7.451   4.046  1.00 20.00    -0.298 OA
ENDROOT
TORSDOF 0
ENDMDL
MODEL 8
REMARK VINA RESULT:       1.3      1.553      2.302
REMARK  0 active torsions:
REMARK  status: ('A' for Active; 'I' for Inactive)
ROOT
HETATM    1  C1  UNL     1     -32.258   8.328   3.116  1.00 20.00    -0.023 C 
HETATM    2  C2  UNL     1     -33.334   7.811   3.723  1.00 20.00    -0.083 C 
HETATM    3  C3  UNL     1     -32.764   5.232   1.389  1.00 20.00     0.132 C 
HETATM    4  C4  UNL     1     -31.890   7.580   1.876  1.00 20.00     0.040 C 
HETATM    5  C5  UNL     1     -33.327   4.322   2.447  1.00 20.00     0.079 C 
HETATM    6  C6  UNL     1     -33.505   5.281   3.616  1.00 20.00     0.017 C 
HETATM    7  C7  UNL     1     -33.868   6.624   2.981  1.00 20.00     0.025 C 
HETATM    8  C8  UNL     1     -33.102   6.680   1.647  1.00 20.00     0.067 C 
HETATM    9  C9  UNL     1     -33.961   8.284   4.985  1.00 20.00     0.043 C 
HETATM   10  O10 UNL     1     -32.139   4.838   0.414  1.00 20.00    -0.298 OA
ENDROOT
TORSDOF 0
ENDMDL
MODEL 9
REMARK VINA RESULT:       1.7      2.178      3.294
REMARK  0 active torsions:
REMARK  status: ('A' for Active; 'I' for Inactive)
ROOT
HETATM    1  C1  UNL     1     -33.732   8.514   2.926  1.00 20.00    -0.023 C 
HETATM    2  C2  UNL     1     -32.736   8.075   2.147  1.00 20.00    -0.083 C 
HETATM    3  C3  UNL     1     -33.826   4.967   3.402  1.00 20.00     0.132 C 
HETATM    4  C4  UNL     1     -34.271   7.445   3.820  1.00 20.00     0.040 C 
HETATM    5  C5  UNL     1     -33.382   4.418   2.072  1.00 20.00     0.079 C 
HETATM    6  C6  UNL     1     -32.999   5.687   1.327  1.00 20.00     0.017 C 
HETATM    7  C7  UNL     1     -32.440   6.628   2.396  1.00 20.00     0.025 C 
HETATM    8  C8  UNL     1     -33.238   6.329   3.677  1.00 20.00     0.067 C 
HETATM    9  C9  UNL     1     -31.988   8.856   1.128  1.00 20.00     0.043 C 
HETATM   10  O10 UNL     1     -34.546   4.361   4.183  1.00 20.00    -0.298 OA
ENDROOT
TORSDOF 0
ENDMDL
