MODEL 1
REMARK VINA RESULT:      -1.9      0.000      0.000
REMARK  1 active torsions:
REMARK  status: ('A' for Active; 'I' for Inactive)
REMARK    1  A    between atoms: C2_2  and  C9_9 
ROOT
HETATM    1  C1  UNL     1     -33.005   8.335   2.862  1.00 20.00     0.053 C 
HETATM    2  C2  UNL     1     -32.486   7.995   1.672  1.00 20.00    -0.072 C 
HETATM    3  C3  UNL     1     -33.715   7.330   3.692  1.00 20.00     0.149 C 
HETATM    4  C4  UNL     1     -32.525   6.588   1.132  1.00 20.00     0.035 C 
HETATM    5  C5  UNL     1     -33.922   5.944   3.125  1.00 20.00     0.083 C 
HETATM    6  C6  UNL     1     -32.764   5.549   2.225  1.00 20.00     0.012 C 
HETATM    7  O10 UNL     1     -34.174   7.655   4.786  1.00 20.00    -0.293 OA
ENDROOT
BRANCH   2   8
HETATM    8  C9  UNL     1     -31.826   9.015   0.790  1.00 20.00     0.014 A 
HETATM    9  C7  UNL     1     -32.494   9.361  -0.497  1.00 20.00     0.010 A 
HETATM   10  C8  UNL     1     -32.489  10.340   0.639  1.00 20.00     0.010 A 
ENDBRANCH   2   8
TORSDOF 1
ENDMDL
MODEL 2
REMARK VINA RESULT:      -1.7      1.877      2.880
REMARK  1 active torsions:
REMARK  status: ('A' for Active; 'I' for Inactive)
REMARK    1  A    between atoms: C2_2  and  C9_9 
ROOT
HETATM    1  C1  UNL     1     -33.115   5.084   2.901  1.00 20.00     0.053 C 
HETATM    2  C2  UNL     1     -33.200   6.402   2.663  1.00 20.00    -0.072 C 
HETATM    3  C3  UNL     1     -34.031   4.428   3.868  1.00 20.00     0.149 C 
HETATM    4  C4  UNL     1     -34.249   7.282   3.293  1.00 20.00     0.035 C 
HETATM    5  C5  UNL     1     -34.996   5.294   4.646  1.00 20.00     0.083 C 
HETATM    6  C6  UNL     1     -35.442   6.487   3.818  1.00 20.00     0.012 C 
HETATM    7  O10 UNL     1     -33.947   3.217   4.064  1.00 20.00    -0.293 OA
ENDROOT
BRANCH   2   8
HETATM    8  C9  UNL     1     -32.236   7.091   1.741  1.00 20.00     0.014 A 
HETATM    9  C7  UNL     1     -32.568   8.472   1.291  1.00 20.00     0.010 A 
HETATM   10  C8  UNL     1     -31.461   8.245   2.277  1.00 20.00     0.010 A 
ENDBRANCH   2   8
TORSDOF 1
ENDMDL
MODEL 3
REMARK VINA RESULT:      -1.1      1.642      2.267
REMARK  1 active torsions:
REMARK  status: ('A' for Active; 'I' for Inactive)
REMARK    1  A    between atoms: C2_2  and  C9_9 
ROOT
HETATM    1  C1  UNL     1     -32.324   6.902   1.052  1.00 20.00     0.053 C 
HETATM    2  C2  UNL     1     -32.430   8.082   1.685  1.00 20.00    -0.072 C 
HETATM    3  C3  UNL     1     -32.809   5.654   1.691  1.00 20.00     0.149 C 
HETATM    4  C4  UNL     1     -33.093   8.233   3.029  1.00 20.00     0.035 C 
HETATM    5  C5  UNL     1     -33.337   5.728   3.106  1.00 20.00     0.083 C 
HETATM    6  C6  UNL     1     -34.016   7.063   3.362  1.00 20.00     0.012 C 
HETATM    7  O10 UNL     1     -32.716   4.585   1.092  1.00 20.00    -0.293 OA
ENDROOT
BRANCH   2   8
HETATM    8  C9  UNL     1     -31.881   9.341   1.081  1.00 20.00     0.014 A 
HETATM    9  C7  UNL     1     -32.346   9.721  -0.283  1.00 20.00     0.010 A 
HETATM   10  C8  UNL     1     -32.806  10.497   0.915  1.00 20.00     0.010 A 
ENDBRANCH   2   8
TORSDOF 1
ENDMDL
MODEL 4
REMARK VINA RESULT:      -0.9      1.922      4.024
REMARK  1 active torsions:
REMARK  status: ('A' for Active; 'I' for Inactive)
REMARK    1  A    between atoms: C2_2  and  C9_9 
ROOT
HETATM    1  C1  UNL     1     -33.245   7.971   2.618  1.00 20.00     0.053 C 
HETATM    2  C2  UNL     1     -33.590   6.753   3.067  1.00 20.00    -0.072 C 
HETATM    3  C3  UNL     1     -32.207   8.124   1.568  1.00 20.00     0.149 C 
HETATM    4  C4  UNL     1     -33.013   5.480   2.505  1.00 20.00     0.035 C 
HETATM    5  C5  UNL     1     -31.483   6.888   1.086  1.00 20.00     0.083 C 
HETATM    6  C6  UNL     1     -32.397   5.675   1.122  1.00 20.00     0.012 C 
HETATM    7  O10 UNL     1     -31.913   9.246   1.160  1.00 20.00    -0.293 OA
ENDROOT
BRANCH   2   8
HETATM    8  C9  UNL     1     -34.587   6.586   4.176  1.00 20.00     0.014 A 
HETATM    9  C7  UNL     1     -35.991   6.246   3.807  1.00 20.00     0.010 A 
HETATM   10  C8  UNL     1     -35.108   5.217   4.447  1.00 20.00     0.010 A 
ENDBRANCH   2   8
TORSDOF 1
ENDMDL
MODEL 5
REMARK VINA RESULT:      -0.7      2.261      4.336
REMARK  1 active torsions:
REMARK  status: ('A' for Active; 'I' for Inactive)
REMARK    1  A    between atoms: C2_2  and  C9_9 
ROOT
HETATM    1  C1  UNL     1     -33.154   5.785   2.380  1.00 20.00     0.053 C 
HETATM    2  C2  UNL     1     -33.567   6.832   3.112  1.00 20.00    -0.072 C 
HETATM    3  C3  UNL     1     -32.137   5.963   1.313  1.00 20.00     0.149 C 
HETATM    4  C4  UNL     1     -32.995   8.217   2.957  1.00 20.00     0.035 C 
HETATM    5  C5  UNL     1     -31.648   7.361   1.009  1.00 20.00     0.083 C 
HETATM    6  C6  UNL     1     -31.634   8.215   2.266  1.00 20.00     0.012 C 
HETATM    7  O10 UNL     1     -31.760   4.991   0.661  1.00 20.00    -0.293 OA
ENDROOT
BRANCH   2   8
HETATM    8  C9  UNL     1     -34.645   6.681   4.145  1.00 20.00     0.014 A 
HETATM    9  C7  UNL     1     -36.011   6.311   3.679  1.00 20.00     0.010 A 
HETATM   10  C8  UNL     1     -35.168   5.313   4.415  1.00 20.00     0.010 A 
ENDBRANCH   2   8
TORSDOF 1
ENDMDL
MODEL 6
REMARK VINA RESULT:      -0.6      2.227      4.872
REMARK  1 active torsions:
REMARK  status: ('A' for Active; 'I' for Inactive)
REMARK    1  A    between atoms: C2_2  and  C9_9 
ROOT
HETATM    1  C1  UNL     1     -32.808   5.721   2.532  1.00 20.00     0.053 C 
HETATM    2  C2  UNL     1     -33.764   5.370   3.407  1.00 20.00    -0.072 C 
HETATM    3  C3  UNL     1     -32.613   7.142   2.153  1.00 20.00     0.149 C 
HETATM    4  C4  UNL     1     -34.644   6.375   4.104  1.00 20.00     0.035 C 
HETATM    5  C5  UNL     1     -33.575   8.172   2.701  1.00 20.00     0.083 C 
HETATM    6  C6  UNL     1     -34.052   7.782   4.090  1.00 20.00     0.012 C 
HETATM    7  O10 UNL     1     -31.724   7.447   1.360  1.00 20.00    -0.293 OA
ENDROOT
BRANCH   2   8
HETATM    8  C9  UNL     1     -34.018   3.931   3.747  1.00 20.00     0.014 A 
HETATM    9  C7  UNL     1     -32.841   3.065   4.043  1.00 20.00     0.010 A 
HETATM   10  C8  UNL     1     -33.764   3.488   5.146  1.00 20.00     0.010 A 
ENDBRANCH   2   8
TORSDOF 1
ENDMDL
MODEL 7
REMARK VINA RESULT:      -0.4      1.966      4.701
REMARK  1 active torsions:
REMARK  status: ('A' for Active; 'I' for Inactive)
REMARK    1  A    between atoms: C2_2  and  C9_9 
ROOT
HETATM    1  C1  UNL     1     -34.291   6.131   4.059  1.00 20.00     0.053 C 
HETATM    2  C2  UNL     1     -33.712   4.987   3.660  1.00 20.00    -0.072 C 
HETATM    3  C3  UNL     1     -33.946   7.420   3.410  1.00 20.00     0.149 C 
HETATM    4  C4  UNL     1     -32.744   4.918   2.507  1.00 20.00     0.035 C 
HETATM    5  C5  UNL     1     -32.861   7.429   2.357  1.00 20.00     0.083 C 
HETATM    6  C6  UNL     1     -32.852   6.124   1.578  1.00 20.00     0.012 C 
HETATM    7  O10 UNL     1     -34.495   8.456   3.780  1.00 20.00    -0.293 OA
ENDROOT
BRANCH   2   8
HETATM    8  C9  UNL     1     -33.999   3.686   4.352  1.00 20.00     0.014 A 
HETATM    9  C7  UNL     1     -33.087   2.539   4.085  1.00 20.00     0.010 A 
HETATM   10  C8  UNL     1     -33.055   3.236   5.412  1.00 20.00     0.010 A 
ENDBRANCH   2   8
TORSDOF 1
ENDMDL
MODEL 8
REMARK VINA RESULT:      -0.0      1.932      3.285
REMARK  1 active torsions:
REMARK  status: ('A' for Active; 'I' for Inactive)
REMARK    1  A    between atoms: C2_2  and  C9_9 
ROOT
HETATM    1  C1  UNL     1     -33.899   5.713   2.677  1.00 20.00     0.053 C 
HETATM    2  C2  UNL     1     -32.900   6.401   2.101  1.00 20.00    -0.072 C 
HETATM    3  C3  UNL     1     -34.611   6.261   3.858  1.00 20.00     0.149 C 
HETATM    4  C4  UNL     1     -32.483   7.775   2.556  1.00 20.00     0.035 C 
HETATM    5  C5  UNL     1     -34.125   7.563   4.453  1.00 20.00     0.083 C 
HETATM    6  C6  UNL     1     -33.565   8.475   3.374  1.00 20.00     0.012 C 
HETATM    7  O10 UNL     1     -35.532   5.623   4.366  1.00 20.00    -0.293 OA
ENDROOT
BRANCH   2   8
HETATM    8  C9  UNL     1     -32.124   5.829   0.950  1.00 20.00     0.014 A 
HETATM    9  C7  UNL     1     -31.379   4.558   1.174  1.00 20.00     0.010 A 
HETATM   10  C8  UNL     1     -32.620   4.568   0.331  1.00 20.00     0.010 A 
ENDBRANCH   2   8
TORSDOF 1
ENDMDL
MODEL 9
REMARK VINA RESULT:       0.7      2.231      3.097
REMARK  1 active torsions:
REMARK  status: ('A' for Active; 'I' for Inactive)
REMARK    1  A    between atoms: C2_2  and  C9_9 
ROOT
HETATM    1  C1  UNL     1     -33.212   7.152   2.975  1.00 20.00     0.053 C 
HETATM    2  C2  UNL     1     -33.110   5.975   2.338  1.00 20.00    -0.072 C 
HETATM    3  C3  UNL     1     -34.203   7.340   4.064  1.00 20.00     0.149 C 
HETATM    4  C4  UNL     1     -33.927   4.766   2.716  1.00 20.00     0.035 C 
HETATM    5  C5  UNL     1     -35.156   6.208   4.373  1.00 20.00     0.083 C 
HETATM    6  C6  UNL     1     -34.496   4.862   4.129  1.00 20.00     0.012 C 
HETATM    7  O10 UNL     1     -34.274   8.421   4.645  1.00 20.00    -0.293 OA
ENDROOT
BRANCH   2   8
HETATM    8  C9  UNL     1     -32.162   5.790   1.189  1.00 20.00     0.014 A 
HETATM    9  C7  UNL     1     -31.211   4.645   1.247  1.00 20.00     0.010 A 
HETATM   10  C8  UNL     1     -32.368   4.617   0.294  1.00 20.00     0.010 A 
ENDBRANCH   2   8
TORSDOF 1
ENDMDL
