MODEL 1
REMARK VINA RESULT:      -1.5      0.000      0.000
REMARK  2 active torsions:
REMARK  status: ('A' for Active; 'I' for Inactive)
REMARK    1  A    between atoms: C7_7  and  C8_8 
REMARK    2  A    between atoms: C9_9  and  O10_10 
ROOT
HETATM    1  C1  UNL     1     -35.594   6.374   4.101  1.00 20.00     0.003 C 
HETATM    2  C2  UNL     1     -34.465   7.344   3.760  1.00 20.00     0.005 C 
HETATM    3  C5  UNL     1     -35.054   5.030   4.577  1.00 20.00     0.032 C 
HETATM    4  C6  UNL     1     -32.951   5.393   3.226  1.00 20.00     0.036 C 
HETATM    5  C8  UNL     1     -33.488   6.743   2.739  1.00 20.00    -0.008 C 
HETATM    6  C9  UNL     1     -34.085   4.423   3.565  1.00 20.00     0.118 C 
ENDROOT
BRANCH   5   7
HETATM    7  C7  UNL     1     -32.340   7.711   2.458  1.00 20.00    -0.010 A 
HETATM    8  C3  UNL     1     -31.410   7.469   1.302  1.00 20.00     0.005 A 
HETATM    9  C4  UNL     1     -32.386   8.611   1.254  1.00 20.00     0.005 A 
ENDBRANCH   5   7
BRANCH   6  10
HETATM   10  O10 UNL     1     -33.543   3.228   4.116  1.00 20.00    -0.396 OA
HETATM   11  H26 UNL     1     -33.092   2.767   3.390  1.00 20.00     0.210 HD
ENDBRANCH   6  10
TORSDOF 2
ENDMDL
MODEL 2
REMARK VINA RESULT:      -1.1      1.970      3.033
REMARK  2 active torsions:
REMARK  status: ('A' for Active; 'I' for Inactive)
REMARK    1  A    between atoms: C7_7  and  C8_8 
REMARK    2  A    between atoms: C9_9  and  O10_10 
ROOT
HETATM    1  C1  UNL     1     -32.718   5.586   1.828  1.00 20.00     0.003 C 
HETATM    2  C2  UNL     1     -32.377   6.748   0.898  1.00 20.00     0.005 C 
HETATM    3  C5  UNL     1     -33.793   5.971   2.837  1.00 20.00     0.032 C 
HETATM    4  C6  UNL     1     -33.064   8.385   2.696  1.00 20.00     0.036 C 
HETATM    5  C8  UNL     1     -31.977   8.006   1.684  1.00 20.00    -0.008 C 
HETATM    6  C9  UNL     1     -33.403   7.219   3.625  1.00 20.00     0.118 C 
ENDROOT
BRANCH   5   7
HETATM    7  C7  UNL     1     -31.695   9.168   0.733  1.00 20.00    -0.010 A 
HETATM    8  C3  UNL     1     -32.552   9.377  -0.483  1.00 20.00     0.005 A 
HETATM    9  C4  UNL     1     -32.637  10.338   0.669  1.00 20.00     0.005 A 
ENDBRANCH   5   7
BRANCH   6  10
HETATM   10  O10 UNL     1     -34.489   7.580   4.470  1.00 20.00    -0.396 OA
HETATM   11  H26 UNL     1     -34.291   7.217   5.349  1.00 20.00     0.210 HD
ENDBRANCH   6  10
TORSDOF 2
ENDMDL
MODEL 3
REMARK VINA RESULT:      -0.2      1.678      2.478
REMARK  2 active torsions:
REMARK  status: ('A' for Active; 'I' for Inactive)
REMARK    1  A    between atoms: C7_7  and  C8_8 
REMARK    2  A    between atoms: C9_9  and  O10_10 
ROOT
HETATM    1  C1  UNL     1     -33.959   6.820   3.408  1.00 20.00     0.003 C 
HETATM    2  C2  UNL     1     -33.253   8.117   3.019  1.00 20.00     0.005 C 
HETATM    3  C5  UNL     1     -33.137   5.596   3.018  1.00 20.00     0.032 C 
HETATM    4  C6  UNL     1     -32.067   6.908   1.144  1.00 20.00     0.036 C 
HETATM    5  C8  UNL     1     -32.893   8.142   1.527  1.00 20.00    -0.008 C 
HETATM    6  C9  UNL     1     -32.777   5.611   1.535  1.00 20.00     0.118 C 
ENDROOT
BRANCH   5   7
HETATM    7  C7  UNL     1     -32.140   9.424   1.176  1.00 20.00    -0.010 A 
HETATM    8  C3  UNL     1     -32.109   9.921  -0.242  1.00 20.00     0.005 A 
HETATM    9  C4  UNL     1     -32.897  10.667   0.798  1.00 20.00     0.005 A 
ENDBRANCH   5   7
BRANCH   6  10
HETATM   10  O10 UNL     1     -31.929   4.501   1.263  1.00 20.00    -0.396 OA
HETATM   11  H26 UNL     1     -31.019   4.840   1.259  1.00 20.00     0.210 HD
ENDBRANCH   6  10
TORSDOF 2
ENDMDL
MODEL 4
REMARK VINA RESULT:      -0.1      1.663      3.861
REMARK  2 active torsions:
REMARK  status: ('A' for Active; 'I' for Inactive)
REMARK    1  A    between atoms: C7_7  and  C8_8 
REMARK    2  A    between atoms: C9_9  and  O10_10 
ROOT
HETATM    1  C1  UNL     1     -31.694   8.168   2.057  1.00 20.00     0.003 C 
HETATM    2  C2  UNL     1     -33.006   8.192   2.839  1.00 20.00     0.005 C 
HETATM    3  C5  UNL     1     -31.718   7.118   0.953  1.00 20.00     0.032 C 
HETATM    4  C6  UNL     1     -33.380   5.757   2.280  1.00 20.00     0.036 C 
HETATM    5  C8  UNL     1     -33.359   6.806   3.398  1.00 20.00    -0.008 C 
HETATM    6  C9  UNL     1     -32.065   5.735   1.500  1.00 20.00     0.118 C 
ENDROOT
BRANCH   5   7
HETATM    7  C7  UNL     1     -34.701   6.845   4.127  1.00 20.00    -0.010 A 
HETATM    8  C3  UNL     1     -35.962   6.440   3.417  1.00 20.00     0.005 A 
HETATM    9  C4  UNL     1     -35.397   5.566   4.501  1.00 20.00     0.005 A 
ENDBRANCH   5   7
BRANCH   6  10
HETATM   10  O10 UNL     1     -32.172   4.829   0.408  1.00 20.00    -0.396 OA
HETATM   11  H26 UNL     1     -32.148   3.935   0.786  1.00 20.00     0.210 HD
ENDBRANCH   6  10
TORSDOF 2
ENDMDL
MODEL 5
REMARK VINA RESULT:       0.1      1.707      2.382
REMARK  2 active torsions:
REMARK  status: ('A' for Active; 'I' for Inactive)
REMARK    1  A    between atoms: C7_7  and  C8_8 
REMARK    2  A    between atoms: C9_9  and  O10_10 
ROOT
HETATM    1  C1  UNL     1     -33.806   8.280   3.817  1.00 20.00     0.003 C 
HETATM    2  C2  UNL     1     -32.709   7.708   2.922  1.00 20.00     0.005 C 
HETATM    3  C5  UNL     1     -34.480   7.191   4.643  1.00 20.00     0.032 C 
HETATM    4  C6  UNL     1     -33.913   5.488   2.867  1.00 20.00     0.036 C 
HETATM    5  C8  UNL     1     -33.237   6.578   2.027  1.00 20.00    -0.008 C 
HETATM    6  C9  UNL     1     -35.012   6.064   3.761  1.00 20.00     0.118 C 
ENDROOT
BRANCH   5   7
HETATM    7  C7  UNL     1     -32.109   5.987   1.183  1.00 20.00    -0.010 A 
HETATM    8  C3  UNL     1     -31.445   4.704   1.597  1.00 20.00     0.005 A 
HETATM    9  C4  UNL     1     -32.337   4.731   0.388  1.00 20.00     0.005 A 
ENDBRANCH   5   7
BRANCH   6  10
HETATM   10  O10 UNL     1     -35.534   5.039   4.599  1.00 20.00    -0.396 OA
HETATM   11  H26 UNL     1     -36.384   5.362   4.937  1.00 20.00     0.210 HD
ENDBRANCH   6  10
TORSDOF 2
ENDMDL
MODEL 6
REMARK VINA RESULT:       0.3      2.062      3.993
REMARK  2 active torsions:
REMARK  status: ('A' for Active; 'I' for Inactive)
REMARK    1  A    between atoms: C7_7  and  C8_8 
REMARK    2  A    between atoms: C9_9  and  O10_10 
ROOT
HETATM    1  C1  UNL     1     -34.606   7.635   4.019  1.00 20.00     0.003 C 
HETATM    2  C2  UNL     1     -34.880   6.139   4.145  1.00 20.00     0.005 C 
HETATM    3  C5  UNL     1     -33.927   7.971   2.696  1.00 20.00     0.032 C 
HETATM    4  C6  UNL     1     -32.928   5.654   2.617  1.00 20.00     0.036 C 
HETATM    5  C8  UNL     1     -33.603   5.309   3.950  1.00 20.00    -0.008 C 
HETATM    6  C9  UNL     1     -32.654   7.153   2.494  1.00 20.00     0.118 C 
ENDROOT
BRANCH   5   7
HETATM    7  C7  UNL     1     -33.914   3.815   4.026  1.00 20.00    -0.010 A 
HETATM    8  C3  UNL     1     -32.813   2.803   3.879  1.00 20.00     0.005 A 
HETATM    9  C4  UNL     1     -33.470   3.009   5.215  1.00 20.00     0.005 A 
ENDBRANCH   5   7
BRANCH   6  10
HETATM   10  O10 UNL     1     -32.130   7.440   1.202  1.00 20.00    -0.396 OA
HETATM   11  H26 UNL     1     -32.836   7.240   0.566  1.00 20.00     0.210 HD
ENDBRANCH   6  10
TORSDOF 2
ENDMDL
MODEL 7
REMARK VINA RESULT:       0.6      2.155      4.120
REMARK  2 active torsions:
REMARK  status: ('A' for Active; 'I' for Inactive)
REMARK    1  A    between atoms: C7_7  and  C8_8 
REMARK    2  A    between atoms: C9_9  and  O10_10 
ROOT
HETATM    1  C1  UNL     1     -33.377   8.508   3.770  1.00 20.00     0.003 C 
HETATM    2  C2  UNL     1     -34.146   7.191   3.837  1.00 20.00     0.005 C 
HETATM    3  C5  UNL     1     -32.814   8.759   2.375  1.00 20.00     0.032 C 
HETATM    4  C6  UNL     1     -32.730   6.269   1.959  1.00 20.00     0.036 C 
HETATM    5  C8  UNL     1     -33.291   6.008   3.361  1.00 20.00    -0.008 C 
HETATM    6  C9  UNL     1     -31.959   7.588   1.895  1.00 20.00     0.118 C 
ENDROOT
BRANCH   5   7
HETATM    7  C7  UNL     1     -34.101   4.713   3.386  1.00 20.00    -0.010 A 
HETATM    8  C3  UNL     1     -33.611   3.527   4.168  1.00 20.00     0.005 A 
HETATM    9  C4  UNL     1     -34.816   4.291   4.640  1.00 20.00     0.005 A 
ENDBRANCH   5   7
BRANCH   6  10
HETATM   10  O10 UNL     1     -31.554   7.842   0.555  1.00 20.00    -0.396 OA
HETATM   11  H26 UNL     1     -31.392   8.797   0.489  1.00 20.00     0.210 HD
ENDBRANCH   6  10
TORSDOF 2
ENDMDL
MODEL 8
REMARK VINA RESULT:       0.7      2.169      4.352
REMARK  2 active torsions:
REMARK  status: ('A' for Active; 'I' for Inactive)
REMARK    1  A    between atoms: C7_7  and  C8_8 
REMARK    2  A    between atoms: C9_9  and  O10_10 
ROOT
HETATM    1  C1  UNL     1     -32.777   5.934   1.686  1.00 20.00     0.003 C 
HETATM    2  C2  UNL     1     -32.790   4.745   2.644  1.00 20.00     0.005 C 
HETATM    3  C5  UNL     1     -32.946   7.255   2.428  1.00 20.00     0.032 C 
HETATM    4  C6  UNL     1     -34.213   6.066   4.261  1.00 20.00     0.036 C 
HETATM    5  C8  UNL     1     -34.052   4.734   3.518  1.00 20.00    -0.008 C 
HETATM    6  C9  UNL     1     -34.200   7.254   3.298  1.00 20.00     0.118 C 
ENDROOT
BRANCH   5   7
HETATM    7  C7  UNL     1     -34.014   3.568   4.504  1.00 20.00    -0.010 A 
HETATM    8  C3  UNL     1     -33.136   2.378   4.237  1.00 20.00     0.005 A 
HETATM    9  C4  UNL     1     -32.792   3.329   5.348  1.00 20.00     0.005 A 
ENDBRANCH   5   7
BRANCH   6  10
HETATM   10  O10 UNL     1     -34.240   8.469   4.038  1.00 20.00    -0.396 OA
HETATM   11  H26 UNL     1     -33.754   9.128   3.516  1.00 20.00     0.210 HD
ENDBRANCH   6  10
TORSDOF 2
ENDMDL
MODEL 9
REMARK VINA RESULT:       0.7      2.392      4.594
REMARK  2 active torsions:
REMARK  status: ('A' for Active; 'I' for Inactive)
REMARK    1  A    between atoms: C7_7  and  C8_8 
REMARK    2  A    between atoms: C9_9  and  O10_10 
ROOT
HETATM    1  C1  UNL     1     -32.009   5.835   0.967  1.00 20.00     0.003 C 
HETATM    2  C2  UNL     1     -32.642   5.495   2.314  1.00 20.00     0.005 C 
HETATM    3  C5  UNL     1     -31.449   7.253   0.953  1.00 20.00     0.032 C 
HETATM    4  C6  UNL     1     -33.140   7.942   2.697  1.00 20.00     0.036 C 
HETATM    5  C8  UNL     1     -33.713   6.520   2.714  1.00 20.00    -0.008 C 
HETATM    6  C9  UNL     1     -32.507   8.280   1.347  1.00 20.00     0.118 C 
ENDROOT
BRANCH   5   7
HETATM    7  C7  UNL     1     -34.291   6.187   4.089  1.00 20.00    -0.010 A 
HETATM    8  C3  UNL     1     -35.769   5.974   4.259  1.00 20.00     0.005 A 
HETATM    9  C4  UNL     1     -34.825   4.811   4.373  1.00 20.00     0.005 A 
ENDBRANCH   5   7
BRANCH   6  10
HETATM   10  O10 UNL     1     -31.894   9.562   1.413  1.00 20.00    -0.396 OA
HETATM   11  H26 UNL     1     -31.241   9.520   2.130  1.00 20.00     0.210 HD
ENDBRANCH   6  10
TORSDOF 2
ENDMDL
