MODEL 1
REMARK VINA RESULT:      -1.9      0.000      0.000
REMARK  2 active torsions:
REMARK  status: ('A' for Active; 'I' for Inactive)
REMARK    1  A    between atoms: C4_4  and  O10_10 
REMARK    2  A    between atoms: C5_5  and  C8_8 
ROOT
HETATM    1  C1  UNL     1     -34.545   7.178   4.218  1.00 20.00     0.040 A 
HETATM    2  C2  UNL     1     -33.627   7.980   3.549  1.00 20.00     0.030 A 
HETATM    3  C3  UNL     1     -33.883   5.358   2.838  1.00 20.00     0.153 A 
HETATM    4  C4  UNL     1     -34.681   5.841   3.863  1.00 20.00     0.083 A 
HETATM    5  C5  UNL     1     -32.875   7.401   2.538  1.00 20.00     0.038 A 
HETATM    6  N9  UNL     1     -32.981   6.106   2.164  1.00 20.00    -0.262 NA
ENDROOT
BRANCH   5   7
HETATM    7  C8  UNL     1     -31.885   8.242   1.805  1.00 20.00     0.038 A 
HETATM    8  C6  UNL     1     -32.345   9.531   1.177  1.00 20.00     0.011 A 
HETATM    9  C7  UNL     1     -31.994   8.363   0.308  1.00 20.00     0.011 A 
ENDBRANCH   5   7
BRANCH   4  10
HETATM   10  O10 UNL     1     -35.566   5.035   4.499  1.00 20.00    -0.359 OA
HETATM   11  H19 UNL     1     -35.210   4.134   4.580  1.00 20.00     0.217 HD
ENDBRANCH   4  10
TORSDOF 2
ENDMDL
MODEL 2
REMARK VINA RESULT:      -1.7      1.212      1.833
REMARK  2 active torsions:
REMARK  status: ('A' for Active; 'I' for Inactive)
REMARK    1  A    between atoms: C4_4  and  O10_10 
REMARK    2  A    between atoms: C5_5  and  C8_8 
ROOT
HETATM    1  C1  UNL     1     -33.121   5.590   2.094  1.00 20.00     0.040 A 
HETATM    2  C2  UNL     1     -32.480   6.577   1.352  1.00 20.00     0.030 A 
HETATM    3  C3  UNL     1     -33.820   7.269   3.625  1.00 20.00     0.153 A 
HETATM    4  C4  UNL     1     -33.807   5.935   3.253  1.00 20.00     0.083 A 
HETATM    5  C5  UNL     1     -32.553   7.883   1.810  1.00 20.00     0.038 A 
HETATM    6  N9  UNL     1     -33.209   8.256   2.932  1.00 20.00    -0.262 NA
ENDROOT
BRANCH   5   7
HETATM    7  C8  UNL     1     -31.872   8.958   1.031  1.00 20.00     0.038 A 
HETATM    8  C6  UNL     1     -32.569  10.280   0.847  1.00 20.00     0.011 A 
HETATM    9  C7  UNL     1     -32.423   9.347  -0.316  1.00 20.00     0.011 A 
ENDBRANCH   5   7
BRANCH   4  10
HETATM   10  O10 UNL     1     -34.442   4.994   3.995  1.00 20.00    -0.359 OA
HETATM   11  H19 UNL     1     -35.384   5.217   4.093  1.00 20.00     0.217 HD
ENDBRANCH   4  10
TORSDOF 2
ENDMDL
MODEL 3
REMARK VINA RESULT:      -0.7      2.358      4.246
REMARK  2 active torsions:
REMARK  status: ('A' for Active; 'I' for Inactive)
REMARK    1  A    between atoms: C4_4  and  O10_10 
REMARK    2  A    between atoms: C5_5  and  C8_8 
ROOT
HETATM    1  C1  UNL     1     -33.270   7.930   2.996  1.00 20.00     0.040 A 
HETATM    2  C2  UNL     1     -33.839   6.772   3.514  1.00 20.00     0.030 A 
HETATM    3  C3  UNL     1     -32.203   6.603   1.337  1.00 20.00     0.153 A 
HETATM    4  C4  UNL     1     -32.436   7.853   1.887  1.00 20.00     0.083 A 
HETATM    5  C5  UNL     1     -33.543   5.570   2.891  1.00 20.00     0.038 A 
HETATM    6  N9  UNL     1     -32.737   5.455   1.812  1.00 20.00    -0.262 NA
ENDROOT
BRANCH   5   7
HETATM    7  C8  UNL     1     -34.141   4.314   3.430  1.00 20.00     0.038 A 
HETATM    8  C6  UNL     1     -34.579   4.272   4.870  1.00 20.00     0.011 A 
HETATM    9  C7  UNL     1     -33.365   3.508   4.439  1.00 20.00     0.011 A 
ENDBRANCH   5   7
BRANCH   4  10
HETATM   10  O10 UNL     1     -31.869   8.966   1.360  1.00 20.00    -0.359 OA
HETATM   11  H19 UNL     1     -31.697   9.624   2.055  1.00 20.00     0.217 HD
ENDBRANCH   4  10
TORSDOF 2
ENDMDL
MODEL 4
REMARK VINA RESULT:      -0.6      1.190      1.877
REMARK  2 active torsions:
REMARK  status: ('A' for Active; 'I' for Inactive)
REMARK    1  A    between atoms: C4_4  and  O10_10 
REMARK    2  A    between atoms: C5_5  and  C8_8 
ROOT
HETATM    1  C1  UNL     1     -33.970   4.900   3.228  1.00 20.00     0.040 A 
HETATM    2  C2  UNL     1     -33.201   5.790   2.486  1.00 20.00     0.030 A 
HETATM    3  C3  UNL     1     -34.993   6.759   4.301  1.00 20.00     0.153 A 
HETATM    4  C4  UNL     1     -34.886   5.385   4.154  1.00 20.00     0.083 A 
HETATM    5  C5  UNL     1     -33.384   7.146   2.707  1.00 20.00     0.038 A 
HETATM    6  N9  UNL     1     -34.263   7.655   3.599  1.00 20.00    -0.262 NA
ENDROOT
BRANCH   5   7
HETATM    7  C8  UNL     1     -32.570   8.120   1.923  1.00 20.00     0.038 A 
HETATM    8  C6  UNL     1     -31.376   7.620   1.153  1.00 20.00     0.011 A 
HETATM    9  C7  UNL     1     -31.174   8.446   2.386  1.00 20.00     0.011 A 
ENDBRANCH   5   7
BRANCH   4  10
HETATM   10  O10 UNL     1     -35.650   4.541   4.890  1.00 20.00    -0.359 OA
HETATM   11  H19 UNL     1     -35.495   4.681   5.840  1.00 20.00     0.217 HD
ENDBRANCH   4  10
TORSDOF 2
ENDMDL
MODEL 5
REMARK VINA RESULT:      -0.3      2.531      4.598
REMARK  2 active torsions:
REMARK  status: ('A' for Active; 'I' for Inactive)
REMARK    1  A    between atoms: C4_4  and  O10_10 
REMARK    2  A    between atoms: C5_5  and  C8_8 
ROOT
HETATM    1  C1  UNL     1     -32.239   6.137   1.568  1.00 20.00     0.040 A 
HETATM    2  C2  UNL     1     -32.719   5.019   2.241  1.00 20.00     0.030 A 
HETATM    3  C3  UNL     1     -33.425   7.508   3.107  1.00 20.00     0.153 A 
HETATM    4  C4  UNL     1     -32.593   7.409   2.003  1.00 20.00     0.083 A 
HETATM    5  C5  UNL     1     -33.544   5.225   3.335  1.00 20.00     0.038 A 
HETATM    6  N9  UNL     1     -33.911   6.445   3.786  1.00 20.00    -0.262 NA
ENDROOT
BRANCH   5   7
HETATM    7  C8  UNL     1     -34.073   4.040   4.072  1.00 20.00     0.038 A 
HETATM    8  C6  UNL     1     -33.406   3.621   5.355  1.00 20.00     0.011 A 
HETATM    9  C7  UNL     1     -33.245   2.783   4.125  1.00 20.00     0.011 A 
ENDBRANCH   5   7
BRANCH   4  10
HETATM   10  O10 UNL     1     -32.139   8.517   1.367  1.00 20.00    -0.359 OA
HETATM   11  H19 UNL     1     -32.563   8.609   0.497  1.00 20.00     0.217 HD
ENDBRANCH   4  10
TORSDOF 2
ENDMDL
MODEL 6
REMARK VINA RESULT:      -0.2      2.538      4.421
REMARK  2 active torsions:
REMARK  status: ('A' for Active; 'I' for Inactive)
REMARK    1  A    between atoms: C4_4  and  O10_10 
REMARK    2  A    between atoms: C5_5  and  C8_8 
ROOT
HETATM    1  C1  UNL     1     -32.260   6.564   1.174  1.00 20.00     0.040 A 
HETATM    2  C2  UNL     1     -33.078   6.032   2.165  1.00 20.00     0.030 A 
HETATM    3  C3  UNL     1     -32.279   8.634   2.343  1.00 20.00     0.153 A 
HETATM    4  C4  UNL     1     -31.848   7.889   1.257  1.00 20.00     0.083 A 
HETATM    5  C5  UNL     1     -33.454   6.860   3.210  1.00 20.00     0.038 A 
HETATM    6  N9  UNL     1     -33.074   8.153   3.325  1.00 20.00    -0.262 NA
ENDROOT
BRANCH   5   7
HETATM    7  C8  UNL     1     -34.332   6.312   4.284  1.00 20.00     0.038 A 
HETATM    8  C6  UNL     1     -34.762   4.871   4.211  1.00 20.00     0.011 A 
HETATM    9  C7  UNL     1     -35.758   5.960   3.955  1.00 20.00     0.011 A 
ENDBRANCH   5   7
BRANCH   4  10
HETATM   10  O10 UNL     1     -31.050   8.434   0.307  1.00 20.00    -0.359 OA
HETATM   11  H19 UNL     1     -31.562   8.632  -0.496  1.00 20.00     0.217 HD
ENDBRANCH   4  10
TORSDOF 2
ENDMDL
MODEL 7
REMARK VINA RESULT:       0.0      2.402      4.162
REMARK  2 active torsions:
REMARK  status: ('A' for Active; 'I' for Inactive)
REMARK    1  A    between atoms: C4_4  and  O10_10 
REMARK    2  A    between atoms: C5_5  and  C8_8 
ROOT
HETATM    1  C1  UNL     1     -32.282   8.708   2.408  1.00 20.00     0.040 A 
HETATM    2  C2  UNL     1     -33.110   8.190   3.398  1.00 20.00     0.030 A 
HETATM    3  C3  UNL     1     -32.361   6.601   1.311  1.00 20.00     0.153 A 
HETATM    4  C4  UNL     1     -31.897   7.906   1.341  1.00 20.00     0.083 A 
HETATM    5  C5  UNL     1     -33.521   6.872   3.275  1.00 20.00     0.038 A 
HETATM    6  N9  UNL     1     -33.166   6.061   2.253  1.00 20.00    -0.262 NA
ENDROOT
BRANCH   5   7
HETATM    7  C8  UNL     1     -34.408   6.293   4.326  1.00 20.00     0.038 A 
HETATM    8  C6  UNL     1     -34.782   4.837   4.245  1.00 20.00     0.011 A 
HETATM    9  C7  UNL     1     -35.811   5.887   3.957  1.00 20.00     0.011 A 
ENDBRANCH   5   7
BRANCH   4  10
HETATM   10  O10 UNL     1     -31.092   8.385   0.361  1.00 20.00    -0.359 OA
HETATM   11  H19 UNL     1     -30.195   8.543   0.703  1.00 20.00     0.217 HD
ENDBRANCH   4  10
TORSDOF 2
ENDMDL
MODEL 8
REMARK VINA RESULT:       1.0      2.136      2.971
REMARK  2 active torsions:
REMARK  status: ('A' for Active; 'I' for Inactive)
REMARK    1  A    between atoms: C4_4  and  O10_10 
REMARK    2  A    between atoms: C5_5  and  C8_8 
ROOT
HETATM    1  C1  UNL     1     -34.295   6.503   3.767  1.00 20.00     0.040 A 
HETATM    2  C2  UNL     1     -33.850   5.854   2.621  1.00 20.00     0.030 A 
HETATM    3  C3  UNL     1     -32.719   8.231   3.339  1.00 20.00     0.153 A 
HETATM    4  C4  UNL     1     -33.726   7.715   4.140  1.00 20.00     0.083 A 
HETATM    5  C5  UNL     1     -32.838   6.454   1.888  1.00 20.00     0.038 A 
HETATM    6  N9  UNL     1     -32.259   7.630   2.219  1.00 20.00    -0.262 NA
ENDROOT
BRANCH   5   7
HETATM    7  C8  UNL     1     -32.342   5.776   0.655  1.00 20.00     0.038 A 
HETATM    8  C6  UNL     1     -32.869   4.407   0.313  1.00 20.00     0.011 A 
HETATM    9  C7  UNL     1     -31.459   4.564   0.792  1.00 20.00     0.011 A 
ENDBRANCH   5   7
BRANCH   4  10
HETATM   10  O10 UNL     1     -34.141   8.371   5.251  1.00 20.00    -0.359 OA
HETATM   11  H19 UNL     1     -34.998   8.803   5.092  1.00 20.00     0.217 HD
ENDBRANCH   4  10
TORSDOF 2
ENDMDL
