MODEL 1
REMARK VINA RESULT:      -1.1      0.000      0.000
REMARK  2 active torsions:
REMARK  status: ('A' for Active; 'I' for Inactive)
REMARK    1  A    between atoms: C7_7  and  C8_8 
REMARK    2  A    between atoms: C9_9  and  O10_10 
ROOT
HETATM    1  C1  UNL     1     -33.208   5.260   1.920  1.00 20.00     0.003 C 
HETATM    2  C2  UNL     1     -32.363   6.416   1.389  1.00 20.00     0.005 C 
HETATM    3  C5  UNL     1     -33.468   5.395   3.420  1.00 20.00     0.032 C 
HETATM    4  C6  UNL     1     -33.243   7.907   3.231  1.00 20.00     0.036 C 
HETATM    5  C8  UNL     1     -32.990   7.777   1.721  1.00 20.00    -0.008 C 
HETATM    6  C9  UNL     1     -34.078   6.748   3.779  1.00 20.00     0.118 C 
ENDROOT
BRANCH   5   7
HETATM    7  C7  UNL     1     -32.099   8.915   1.225  1.00 20.00    -0.010 A 
HETATM    8  C3  UNL     1     -32.273   9.462  -0.166  1.00 20.00     0.005 A 
HETATM    9  C4  UNL     1     -32.670  10.291   1.023  1.00 20.00     0.005 A 
ENDBRANCH   5   7
BRANCH   6  10
HETATM   10  O10 UNL     1     -35.400   6.811   3.248  1.00 20.00    -0.396 OA
HETATM   11  H26 UNL     1     -35.306   7.006   2.302  1.00 20.00     0.210 HD
ENDBRANCH   6  10
TORSDOF 2
ENDMDL
MODEL 2
REMARK VINA RESULT:      -0.7      1.690      4.214
REMARK  2 active torsions:
REMARK  status: ('A' for Active; 'I' for Inactive)
REMARK    1  A    between atoms: C7_7  and  C8_8 
REMARK    2  A    between atoms: C9_9  and  O10_10 
ROOT
HETATM    1  C1  UNL     1     -31.798   7.004   1.261  1.00 20.00     0.003 C 
HETATM    2  C2  UNL     1     -32.739   5.850   1.597  1.00 20.00     0.005 C 
HETATM    3  C5  UNL     1     -32.419   8.357   1.606  1.00 20.00     0.032 C 
HETATM    4  C6  UNL     1     -33.819   7.254   3.401  1.00 20.00     0.036 C 
HETATM    5  C8  UNL     1     -33.190   5.893   3.063  1.00 20.00    -0.008 C 
HETATM    6  C9  UNL     1     -32.891   8.421   3.057  1.00 20.00     0.118 C 
ENDROOT
BRANCH   5   7
HETATM    7  C7  UNL     1     -34.171   4.759   3.358  1.00 20.00    -0.010 A 
HETATM    8  C3  UNL     1     -33.870   3.760   4.442  1.00 20.00     0.005 A 
HETATM    9  C4  UNL     1     -34.973   4.764   4.629  1.00 20.00     0.005 A 
ENDBRANCH   5   7
BRANCH   6  10
HETATM   10  O10 UNL     1     -31.750   8.399   3.912  1.00 20.00    -0.396 OA
HETATM   11  H26 UNL     1     -31.907   9.067   4.598  1.00 20.00     0.210 HD
ENDBRANCH   6  10
TORSDOF 2
ENDMDL
MODEL 3
REMARK VINA RESULT:      -0.1      1.323      2.129
REMARK  2 active torsions:
REMARK  status: ('A' for Active; 'I' for Inactive)
REMARK    1  A    between atoms: C7_7  and  C8_8 
REMARK    2  A    between atoms: C9_9  and  O10_10 
ROOT
HETATM    1  C1  UNL     1     -34.272   7.405   4.489  1.00 20.00     0.003 C 
HETATM    2  C2  UNL     1     -33.427   8.271   3.559  1.00 20.00     0.005 C 
HETATM    3  C5  UNL     1     -35.043   6.335   3.718  1.00 20.00     0.032 C 
HETATM    4  C6  UNL     1     -33.265   6.354   1.918  1.00 20.00     0.036 C 
HETATM    5  C8  UNL     1     -32.482   7.423   2.696  1.00 20.00    -0.008 C 
HETATM    6  C9  UNL     1     -34.127   5.486   2.838  1.00 20.00     0.118 C 
ENDROOT
BRANCH   5   7
HETATM    7  C7  UNL     1     -31.687   8.310   1.739  1.00 20.00    -0.010 A 
HETATM    8  C3  UNL     1     -31.977   8.284   0.263  1.00 20.00     0.005 A 
HETATM    9  C4  UNL     1     -32.342   9.491   1.080  1.00 20.00     0.005 A 
ENDBRANCH   5   7
BRANCH   6  10
HETATM   10  O10 UNL     1     -33.290   4.693   3.678  1.00 20.00    -0.396 OA
HETATM   11  H26 UNL     1     -32.376   4.896   3.424  1.00 20.00     0.210 HD
ENDBRANCH   6  10
TORSDOF 2
ENDMDL
MODEL 4
REMARK VINA RESULT:       0.4      2.044      4.925
REMARK  2 active torsions:
REMARK  status: ('A' for Active; 'I' for Inactive)
REMARK    1  A    between atoms: C7_7  and  C8_8 
REMARK    2  A    between atoms: C9_9  and  O10_10 
ROOT
HETATM    1  C1  UNL     1     -34.236   7.324   3.085  1.00 20.00     0.003 C 
HETATM    2  C2  UNL     1     -34.293   6.199   4.117  1.00 20.00     0.005 C 
HETATM    3  C5  UNL     1     -32.893   7.352   2.357  1.00 20.00     0.032 C 
HETATM    4  C6  UNL     1     -32.622   4.870   2.763  1.00 20.00     0.036 C 
HETATM    5  C8  UNL     1     -33.977   4.835   3.489  1.00 20.00    -0.008 C 
HETATM    6  C9  UNL     1     -32.546   6.001   1.735  1.00 20.00     0.118 C 
ENDROOT
BRANCH   5   7
HETATM    7  C7  UNL     1     -33.990   3.737   4.551  1.00 20.00    -0.010 A 
HETATM    8  C3  UNL     1     -33.343   2.408   4.275  1.00 20.00     0.005 A 
HETATM    9  C4  UNL     1     -32.722   3.356   5.262  1.00 20.00     0.005 A 
ENDBRANCH   5   7
BRANCH   6  10
HETATM   10  O10 UNL     1     -33.452   5.743   0.665  1.00 20.00    -0.396 OA
HETATM   11  H26 UNL     1     -33.667   4.797   0.709  1.00 20.00     0.210 HD
ENDBRANCH   6  10
TORSDOF 2
ENDMDL
MODEL 5
REMARK VINA RESULT:       0.4      1.955      3.922
REMARK  2 active torsions:
REMARK  status: ('A' for Active; 'I' for Inactive)
REMARK    1  A    between atoms: C7_7  and  C8_8 
REMARK    2  A    between atoms: C9_9  and  O10_10 
ROOT
HETATM    1  C1  UNL     1     -32.048   5.853   1.477  1.00 20.00     0.003 C 
HETATM    2  C2  UNL     1     -33.304   5.725   2.335  1.00 20.00     0.005 C 
HETATM    3  C5  UNL     1     -31.948   7.231   0.826  1.00 20.00     0.032 C 
HETATM    4  C6  UNL     1     -33.294   8.223   2.724  1.00 20.00     0.036 C 
HETATM    5  C8  UNL     1     -33.389   6.840   3.386  1.00 20.00    -0.008 C 
HETATM    6  C9  UNL     1     -32.046   8.360   1.849  1.00 20.00     0.118 C 
ENDROOT
BRANCH   5   7
HETATM    7  C7  UNL     1     -34.680   6.718   4.196  1.00 20.00    -0.010 A 
HETATM    8  C3  UNL     1     -35.979   6.399   3.508  1.00 20.00     0.005 A 
HETATM    9  C4  UNL     1     -35.325   5.376   4.394  1.00 20.00     0.005 A 
ENDBRANCH   5   7
BRANCH   6  10
HETATM   10  O10 UNL     1     -30.878   8.340   2.668  1.00 20.00    -0.396 OA
HETATM   11  H26 UNL     1     -31.147   8.674   3.538  1.00 20.00     0.210 HD
ENDBRANCH   6  10
TORSDOF 2
ENDMDL
MODEL 6
REMARK VINA RESULT:       0.7      2.005      4.273
REMARK  2 active torsions:
REMARK  status: ('A' for Active; 'I' for Inactive)
REMARK    1  A    between atoms: C7_7  and  C8_8 
REMARK    2  A    between atoms: C9_9  and  O10_10 
ROOT
HETATM    1  C1  UNL     1     -32.305   8.709   3.922  1.00 20.00     0.003 C 
HETATM    2  C2  UNL     1     -33.251   7.541   4.187  1.00 20.00     0.005 C 
HETATM    3  C5  UNL     1     -31.227   8.342   2.903  1.00 20.00     0.032 C 
HETATM    4  C6  UNL     1     -32.785   6.635   1.873  1.00 20.00     0.036 C 
HETATM    5  C8  UNL     1     -33.875   7.009   2.890  1.00 20.00    -0.008 C 
HETATM    6  C9  UNL     1     -31.821   7.794   1.607  1.00 20.00     0.118 C 
ENDROOT
BRANCH   5   7
HETATM    7  C7  UNL     1     -34.775   5.808   3.179  1.00 20.00    -0.010 A 
HETATM    8  C3  UNL     1     -34.287   4.687   4.055  1.00 20.00     0.005 A 
HETATM    9  C4  UNL     1     -35.362   5.614   4.549  1.00 20.00     0.005 A 
ENDBRANCH   5   7
BRANCH   6  10
HETATM   10  O10 UNL     1     -32.508   8.849   0.936  1.00 20.00    -0.396 OA
HETATM   11  H26 UNL     1     -33.245   9.107   1.513  1.00 20.00     0.210 HD
ENDBRANCH   6  10
TORSDOF 2
ENDMDL
MODEL 7
REMARK VINA RESULT:       0.7      1.724      4.264
REMARK  2 active torsions:
REMARK  status: ('A' for Active; 'I' for Inactive)
REMARK    1  A    between atoms: C7_7  and  C8_8 
REMARK    2  A    between atoms: C9_9  and  O10_10 
ROOT
HETATM    1  C1  UNL     1     -32.339   8.272   1.850  1.00 20.00     0.003 C 
HETATM    2  C2  UNL     1     -33.046   7.886   3.147  1.00 20.00     0.005 C 
HETATM    3  C5  UNL     1     -31.492   7.122   1.306  1.00 20.00     0.032 C 
HETATM    4  C6  UNL     1     -33.026   5.459   2.438  1.00 20.00     0.036 C 
HETATM    5  C8  UNL     1     -33.886   6.612   2.979  1.00 20.00    -0.008 C 
HETATM    6  C9  UNL     1     -32.301   5.837   1.144  1.00 20.00     0.118 C 
ENDROOT
BRANCH   5   7
HETATM    7  C7  UNL     1     -34.540   6.220   4.303  1.00 20.00    -0.010 A 
HETATM    8  C3  UNL     1     -35.957   5.716   4.329  1.00 20.00     0.005 A 
HETATM    9  C4  UNL     1     -34.818   4.776   4.612  1.00 20.00     0.005 A 
ENDBRANCH   5   7
BRANCH   6  10
HETATM   10  O10 UNL     1     -33.250   6.021   0.095  1.00 20.00    -0.396 OA
HETATM   11  H26 UNL     1     -34.022   6.452   0.495  1.00 20.00     0.210 HD
ENDBRANCH   6  10
TORSDOF 2
ENDMDL
MODEL 8
REMARK VINA RESULT:       1.0      1.921      3.720
REMARK  2 active torsions:
REMARK  status: ('A' for Active; 'I' for Inactive)
REMARK    1  A    between atoms: C7_7  and  C8_8 
REMARK    2  A    between atoms: C9_9  and  O10_10 
ROOT
HETATM    1  C1  UNL     1     -33.938   7.586   3.638  1.00 20.00     0.003 C 
HETATM    2  C2  UNL     1     -33.730   6.164   3.122  1.00 20.00     0.005 C 
HETATM    3  C5  UNL     1     -32.627   8.370   3.675  1.00 20.00     0.032 C 
HETATM    4  C6  UNL     1     -31.720   6.936   1.798  1.00 20.00     0.036 C 
HETATM    5  C8  UNL     1     -33.041   6.152   1.751  1.00 20.00    -0.008 C 
HETATM    6  C9  UNL     1     -31.912   8.360   2.325  1.00 20.00     0.118 C 
ENDROOT
BRANCH   5   7
HETATM    7  C7  UNL     1     -32.799   4.718   1.283  1.00 20.00    -0.010 A 
HETATM    8  C3  UNL     1     -33.153   4.308  -0.120  1.00 20.00     0.005 A 
HETATM    9  C4  UNL     1     -31.711   4.419   0.289  1.00 20.00     0.005 A 
ENDBRANCH   5   7
BRANCH   6  10
HETATM   10  O10 UNL     1     -32.679   9.121   1.394  1.00 20.00    -0.396 OA
HETATM   11  H26 UNL     1     -33.553   9.247   1.797  1.00 20.00     0.210 HD
ENDBRANCH   6  10
TORSDOF 2
ENDMDL
MODEL 9
REMARK VINA RESULT:       1.5      1.509      2.490
REMARK  2 active torsions:
REMARK  status: ('A' for Active; 'I' for Inactive)
REMARK    1  A    between atoms: C7_7  and  C8_8 
REMARK    2  A    between atoms: C9_9  and  O10_10 
ROOT
HETATM    1  C1  UNL     1     -34.704   4.012   4.213  1.00 20.00     0.003 C 
HETATM    2  C2  UNL     1     -33.391   4.522   3.626  1.00 20.00     0.005 C 
HETATM    3  C5  UNL     1     -35.381   5.070   5.083  1.00 20.00     0.032 C 
HETATM    4  C6  UNL     1     -34.260   6.893   3.735  1.00 20.00     0.036 C 
HETATM    5  C8  UNL     1     -33.585   5.832   2.851  1.00 20.00    -0.008 C 
HETATM    6  C9  UNL     1     -35.572   6.390   4.340  1.00 20.00     0.118 C 
ENDROOT
BRANCH   5   7
HETATM    7  C7  UNL     1     -32.248   6.346   2.319  1.00 20.00    -0.010 A 
HETATM    8  C3  UNL     1     -32.048   6.550   0.842  1.00 20.00     0.005 A 
HETATM    9  C4  UNL     1     -32.141   7.737   1.759  1.00 20.00     0.005 A 
ENDBRANCH   5   7
BRANCH   6  10
HETATM   10  O10 UNL     1     -36.539   6.200   3.309  1.00 20.00    -0.396 OA
HETATM   11  H26 UNL     1     -36.431   6.941   2.692  1.00 20.00     0.210 HD
ENDBRANCH   6  10
TORSDOF 2
ENDMDL
