MODEL 1
REMARK VINA RESULT:      -1.5      0.000      0.000
REMARK  1 active torsions:
REMARK  status: ('A' for Active; 'I' for Inactive)
REMARK    1  A    between atoms: C7_7  and  C8_8 
ROOT
HETATM    1  C1  UNL     1     -34.053   6.618   3.399  1.00 20.00     0.131 C 
HETATM    2  C2  UNL     1     -33.314   5.350   3.043  1.00 20.00     0.104 C 
HETATM    3  C3  UNL     1     -33.369   7.906   3.009  1.00 20.00     0.110 C 
HETATM    4  C6  UNL     1     -32.818   5.439   1.610  1.00 20.00     0.175 C 
HETATM    5  C8  UNL     1     -32.873   7.805   1.567  1.00 20.00     0.132 C 
HETATM    6  O9  UNL     1     -35.088   6.605   4.062  1.00 20.00    -0.298 OA
HETATM    7  O10 UNL     1     -32.060   6.634   1.410  1.00 20.00    -0.385 OA
ENDROOT
BRANCH   5   8
HETATM    8  C7  UNL     1     -32.057   9.005   1.186  1.00 20.00     0.015 A 
HETATM    9  C4  UNL     1     -32.148   9.573  -0.204  1.00 20.00     0.007 A 
HETATM   10  C5  UNL     1     -32.725  10.332   0.959  1.00 20.00     0.007 A 
ENDBRANCH   5   8
TORSDOF 1
ENDMDL
MODEL 2
REMARK VINA RESULT:      -0.7      1.501      2.491
REMARK  1 active torsions:
REMARK  status: ('A' for Active; 'I' for Inactive)
REMARK    1  A    between atoms: C7_7  and  C8_8 
ROOT
HETATM    1  C1  UNL     1     -34.194   4.881   3.731  1.00 20.00     0.131 C 
HETATM    2  C2  UNL     1     -35.222   5.856   4.253  1.00 20.00     0.104 C 
HETATM    3  C3  UNL     1     -33.421   5.332   2.515  1.00 20.00     0.110 C 
HETATM    4  C6  UNL     1     -34.611   7.245   4.325  1.00 20.00     0.175 C 
HETATM    5  C8  UNL     1     -32.935   6.766   2.722  1.00 20.00     0.132 C 
HETATM    6  O9  UNL     1     -34.075   3.749   4.195  1.00 20.00    -0.298 OA
HETATM    7  O10 UNL     1     -34.041   7.612   3.066  1.00 20.00    -0.385 OA
ENDROOT
BRANCH   5   8
HETATM    8  C7  UNL     1     -32.290   7.308   1.481  1.00 20.00     0.015 A 
HETATM    9  C4  UNL     1     -32.347   8.780   1.178  1.00 20.00     0.007 A 
HETATM   10  C5  UNL     1     -31.045   8.145   1.579  1.00 20.00     0.007 A 
ENDBRANCH   5   8
TORSDOF 1
ENDMDL
MODEL 3
REMARK VINA RESULT:      -0.3      1.447      1.997
REMARK  1 active torsions:
REMARK  status: ('A' for Active; 'I' for Inactive)
REMARK    1  A    between atoms: C7_7  and  C8_8 
ROOT
HETATM    1  C1  UNL     1     -33.646   5.657   2.977  1.00 20.00     0.131 C 
HETATM    2  C2  UNL     1     -34.600   6.515   3.772  1.00 20.00     0.104 C 
HETATM    3  C3  UNL     1     -32.934   6.349   1.839  1.00 20.00     0.110 C 
HETATM    4  C6  UNL     1     -33.932   7.838   4.106  1.00 20.00     0.175 C 
HETATM    5  C8  UNL     1     -32.381   7.689   2.324  1.00 20.00     0.132 C 
HETATM    6  O9  UNL     1     -33.541   4.447   3.170  1.00 20.00    -0.298 OA
HETATM    7  O10 UNL     1     -33.429   8.463   2.922  1.00 20.00    -0.385 OA
ENDROOT
BRANCH   5   8
HETATM    8  C7  UNL     1     -31.795   8.478   1.190  1.00 20.00     0.015 A 
HETATM    9  C4  UNL     1     -32.602   8.733  -0.053  1.00 20.00     0.007 A 
HETATM   10  C5  UNL     1     -32.300   9.862   0.892  1.00 20.00     0.007 A 
ENDBRANCH   5   8
TORSDOF 1
ENDMDL
MODEL 4
REMARK VINA RESULT:       0.0      1.656      4.168
REMARK  1 active torsions:
REMARK  status: ('A' for Active; 'I' for Inactive)
REMARK    1  A    between atoms: C7_7  and  C8_8 
ROOT
HETATM    1  C1  UNL     1     -31.983   5.817   1.263  1.00 20.00     0.131 C 
HETATM    2  C2  UNL     1     -31.210   7.113   1.323  1.00 20.00     0.104 C 
HETATM    3  C3  UNL     1     -32.909   5.552   2.426  1.00 20.00     0.110 C 
HETATM    4  C6  UNL     1     -32.149   8.245   1.704  1.00 20.00     0.175 C 
HETATM    5  C8  UNL     1     -33.731   6.806   2.720  1.00 20.00     0.132 C 
HETATM    6  O9  UNL     1     -31.786   4.982   0.383  1.00 20.00    -0.298 OA
HETATM    7  O10 UNL     1     -32.859   7.930   2.905  1.00 20.00    -0.385 OA
ENDROOT
BRANCH   5   8
HETATM    8  C7  UNL     1     -34.557   6.637   3.961  1.00 20.00     0.015 A 
HETATM    9  C4  UNL     1     -36.007   6.251   3.859  1.00 20.00     0.007 A 
HETATM   10  C5  UNL     1     -35.002   5.268   4.393  1.00 20.00     0.007 A 
ENDBRANCH   5   8
TORSDOF 1
ENDMDL
MODEL 5
REMARK VINA RESULT:       0.2      1.738      4.091
REMARK  1 active torsions:
REMARK  status: ('A' for Active; 'I' for Inactive)
REMARK    1  A    between atoms: C7_7  and  C8_8 
ROOT
HETATM    1  C1  UNL     1     -32.168   8.251   2.991  1.00 20.00     0.131 C 
HETATM    2  C2  UNL     1     -31.824   8.069   1.532  1.00 20.00     0.104 C 
HETATM    3  C3  UNL     1     -33.375   7.486   3.480  1.00 20.00     0.110 C 
HETATM    4  C6  UNL     1     -31.868   6.592   1.182  1.00 20.00     0.175 C 
HETATM    5  C8  UNL     1     -33.298   6.041   2.987  1.00 20.00     0.132 C 
HETATM    6  O9  UNL     1     -31.574   9.055   3.706  1.00 20.00    -0.298 OA
HETATM    7  O10 UNL     1     -33.122   6.019   1.564  1.00 20.00    -0.385 OA
ENDROOT
BRANCH   5   8
HETATM    8  C7  UNL     1     -34.548   5.284   3.323  1.00 20.00     0.015 A 
HETATM    9  C4  UNL     1     -34.603   4.417   4.551  1.00 20.00     0.007 A 
HETATM   10  C5  UNL     1     -35.390   5.697   4.498  1.00 20.00     0.007 A 
ENDBRANCH   5   8
TORSDOF 1
ENDMDL
MODEL 6
REMARK VINA RESULT:       0.6      2.353      5.204
REMARK  1 active torsions:
REMARK  status: ('A' for Active; 'I' for Inactive)
REMARK    1  A    between atoms: C7_7  and  C8_8 
ROOT
HETATM    1  C1  UNL     1     -33.256   6.446   2.639  1.00 20.00     0.131 C 
HETATM    2  C2  UNL     1     -34.251   7.361   3.311  1.00 20.00     0.104 C 
HETATM    3  C3  UNL     1     -32.938   5.167   3.377  1.00 20.00     0.110 C 
HETATM    4  C6  UNL     1     -35.443   6.549   3.788  1.00 20.00     0.175 C 
HETATM    5  C8  UNL     1     -34.237   4.512   3.845  1.00 20.00     0.132 C 
HETATM    6  O9  UNL     1     -32.658   6.772   1.615  1.00 20.00    -0.298 OA
HETATM    7  O10 UNL     1     -35.015   5.452   4.600  1.00 20.00    -0.385 OA
ENDROOT
BRANCH   5   8
HETATM    8  C7  UNL     1     -33.964   3.318   4.711  1.00 20.00     0.015 A 
HETATM    9  C4  UNL     1     -33.041   2.231   4.234  1.00 20.00     0.007 A 
HETATM   10  C5  UNL     1     -32.615   3.141   5.352  1.00 20.00     0.007 A 
ENDBRANCH   5   8
TORSDOF 1
ENDMDL
MODEL 7
REMARK VINA RESULT:       0.6      2.273      3.207
REMARK  1 active torsions:
REMARK  status: ('A' for Active; 'I' for Inactive)
REMARK    1  A    between atoms: C7_7  and  C8_8 
ROOT
HETATM    1  C1  UNL     1     -34.783   6.194   3.890  1.00 20.00     0.131 C 
HETATM    2  C2  UNL     1     -34.554   7.650   4.217  1.00 20.00     0.104 C 
HETATM    3  C3  UNL     1     -34.197   5.716   2.584  1.00 20.00     0.110 C 
HETATM    4  C6  UNL     1     -33.097   8.001   3.968  1.00 20.00     0.175 C 
HETATM    5  C8  UNL     1     -32.756   6.208   2.460  1.00 20.00     0.132 C 
HETATM    6  O9  UNL     1     -35.497   5.475   4.586  1.00 20.00    -0.298 OA
HETATM    7  O10 UNL     1     -32.707   7.630   2.643  1.00 20.00    -0.385 OA
ENDROOT
BRANCH   5   8
HETATM    8  C7  UNL     1     -32.183   5.883   1.112  1.00 20.00     0.015 A 
HETATM    9  C4  UNL     1     -31.332   4.657   0.926  1.00 20.00     0.007 A 
HETATM   10  C5  UNL     1     -32.710   4.714   0.328  1.00 20.00     0.007 A 
ENDBRANCH   5   8
TORSDOF 1
ENDMDL
MODEL 8
REMARK VINA RESULT:       0.7      1.704      3.940
REMARK  1 active torsions:
REMARK  status: ('A' for Active; 'I' for Inactive)
REMARK    1  A    between atoms: C7_7  and  C8_8 
ROOT
HETATM    1  C1  UNL     1     -32.014   7.850   1.622  1.00 20.00     0.131 C 
HETATM    2  C2  UNL     1     -31.988   6.595   0.783  1.00 20.00     0.104 C 
HETATM    3  C3  UNL     1     -33.181   7.979   2.572  1.00 20.00     0.110 C 
HETATM    4  C6  UNL     1     -32.269   5.391   1.666  1.00 20.00     0.175 C 
HETATM    5  C8  UNL     1     -33.369   6.666   3.330  1.00 20.00     0.132 C 
HETATM    6  O9  UNL     1     -31.203   8.759   1.461  1.00 20.00    -0.298 OA
HETATM    7  O10 UNL     1     -33.481   5.577   2.403  1.00 20.00    -0.385 OA
ENDROOT
BRANCH   5   8
HETATM    8  C7  UNL     1     -34.608   6.697   4.176  1.00 20.00     0.015 A 
HETATM    9  C4  UNL     1     -35.959   6.480   3.551  1.00 20.00     0.007 A 
HETATM   10  C5  UNL     1     -35.369   5.430   4.451  1.00 20.00     0.007 A 
ENDBRANCH   5   8
TORSDOF 1
ENDMDL
MODEL 9
REMARK VINA RESULT:       0.9      1.961      4.622
REMARK  1 active torsions:
REMARK  status: ('A' for Active; 'I' for Inactive)
REMARK    1  A    between atoms: C7_7  and  C8_8 
ROOT
HETATM    1  C1  UNL     1     -33.943   7.441   3.536  1.00 20.00     0.131 C 
HETATM    2  C2  UNL     1     -33.447   7.499   2.111  1.00 20.00     0.104 C 
HETATM    3  C3  UNL     1     -34.372   6.079   4.025  1.00 20.00     0.110 C 
HETATM    4  C6  UNL     1     -32.471   6.361   1.868  1.00 20.00     0.175 C 
HETATM    5  C8  UNL     1     -33.316   5.043   3.643  1.00 20.00     0.132 C 
HETATM    6  O9  UNL     1     -34.094   8.454   4.215  1.00 20.00    -0.298 OA
HETATM    7  O10 UNL     1     -33.054   5.108   2.234  1.00 20.00    -0.385 OA
ENDROOT
BRANCH   5   8
HETATM    8  C7  UNL     1     -33.770   3.652   3.977  1.00 20.00     0.015 A 
HETATM    9  C4  UNL     1     -32.766   2.545   4.140  1.00 20.00     0.007 A 
HETATM   10  C5  UNL     1     -33.501   3.076   5.339  1.00 20.00     0.007 A 
ENDBRANCH   5   8
TORSDOF 1
ENDMDL
