MODEL 1
REMARK VINA RESULT:      -1.1      0.000      0.000
REMARK  0 active torsions:
REMARK  status: ('A' for Active; 'I' for Inactive)
ROOT
HETATM    1  C1  UNL     1     -34.047   5.756   3.366  1.00 20.00     0.136 C 
HETATM    2  C2  UNL     1     -33.358   5.499   0.892  1.00 20.00     0.018 A 
HETATM    3  C3  UNL     1     -33.995   8.133   4.640  1.00 20.00     0.018 A 
HETATM    4  C4  UNL     1     -32.541   8.651   1.305  1.00 20.00     0.011 A 
HETATM    5  C5  UNL     1     -33.098   5.212   2.347  1.00 20.00     0.060 A 
HETATM    6  C6  UNL     1     -34.140   7.214   3.477  1.00 20.00     0.060 A 
HETATM    7  C7  UNL     1     -32.076   5.987   1.519  1.00 20.00     0.002 A 
HETATM    8  C8  UNL     1     -32.776   7.799   3.856  1.00 20.00     0.002 A 
HETATM    9  C9  UNL     1     -31.649   7.470   1.569  1.00 20.00    -0.005 A 
HETATM   10  C10 UNL     1     -32.030   8.424   2.702  1.00 20.00    -0.005 A 
HETATM   11  O11 UNL     1     -34.742   5.016   4.050  1.00 20.00    -0.297 OA
ENDROOT
TORSDOF 0
ENDMDL
MODEL 2
REMARK VINA RESULT:      -0.1      1.522      2.995
REMARK  0 active torsions:
REMARK  status: ('A' for Active; 'I' for Inactive)
ROOT
HETATM    1  C1  UNL     1     -32.687   5.684   1.706  1.00 20.00     0.136 C 
HETATM    2  C2  UNL     1     -33.684   4.741   3.891  1.00 20.00     0.018 A 
HETATM    3  C3  UNL     1     -31.735   8.201   1.522  1.00 20.00     0.018 A 
HETATM    4  C4  UNL     1     -33.253   7.850   4.851  1.00 20.00     0.011 A 
HETATM    5  C5  UNL     1     -33.872   5.178   2.463  1.00 20.00     0.060 A 
HETATM    6  C6  UNL     1     -32.060   6.915   2.197  1.00 20.00     0.060 A 
HETATM    7  C7  UNL     1     -34.626   5.879   3.590  1.00 20.00     0.002 A 
HETATM    8  C8  UNL     1     -33.069   8.066   2.166  1.00 20.00     0.002 A 
HETATM    9  C9  UNL     1     -34.479   7.301   4.176  1.00 20.00    -0.005 A 
HETATM   10  C10 UNL     1     -33.658   8.408   3.514  1.00 20.00    -0.005 A 
HETATM   11  O11 UNL     1     -32.239   5.077   0.743  1.00 20.00    -0.297 OA
ENDROOT
TORSDOF 0
ENDMDL
MODEL 3
REMARK VINA RESULT:      -0.0      1.742      3.081
REMARK  0 active torsions:
REMARK  status: ('A' for Active; 'I' for Inactive)
ROOT
HETATM    1  C1  UNL     1     -32.558   7.673   2.243  1.00 20.00     0.136 C 
HETATM    2  C2  UNL     1     -31.715   5.332   1.558  1.00 20.00     0.018 A 
HETATM    3  C3  UNL     1     -33.970   8.094   4.504  1.00 20.00     0.018 A 
HETATM    4  C4  UNL     1     -33.500   4.464   4.172  1.00 20.00     0.011 A 
HETATM    5  C5  UNL     1     -32.612   6.513   1.301  1.00 20.00     0.060 A 
HETATM    6  C6  UNL     1     -32.968   7.424   3.629  1.00 20.00     0.060 A 
HETATM    7  C7  UNL     1     -33.209   5.132   1.558  1.00 20.00     0.002 A 
HETATM    8  C8  UNL     1     -34.424   6.951   3.668  1.00 20.00     0.002 A 
HETATM    9  C9  UNL     1     -34.007   4.581   2.761  1.00 20.00    -0.005 A 
HETATM   10  C10 UNL     1     -34.584   5.462   3.870  1.00 20.00    -0.005 A 
HETATM   11  O11 UNL     1     -32.156   8.770   1.882  1.00 20.00    -0.297 OA
ENDROOT
TORSDOF 0
ENDMDL
MODEL 4
REMARK VINA RESULT:       0.0      0.803      2.809
REMARK  0 active torsions:
REMARK  status: ('A' for Active; 'I' for Inactive)
ROOT
HETATM    1  C1  UNL     1     -33.945   5.423   3.482  1.00 20.00     0.136 C 
HETATM    2  C2  UNL     1     -33.671   7.651   4.754  1.00 20.00     0.018 A 
HETATM    3  C3  UNL     1     -32.353   4.735   1.416  1.00 20.00     0.018 A 
HETATM    4  C4  UNL     1     -31.472   8.172   2.373  1.00 20.00     0.011 A 
HETATM    5  C5  UNL     1     -34.486   6.768   3.848  1.00 20.00     0.060 A 
HETATM    6  C6  UNL     1     -32.703   5.394   2.704  1.00 20.00     0.060 A 
HETATM    7  C7  UNL     1     -33.998   8.131   3.362  1.00 20.00     0.002 A 
HETATM    8  C8  UNL     1     -32.904   6.115   1.368  1.00 20.00     0.002 A 
HETATM    9  C9  UNL     1     -32.936   8.509   2.307  1.00 20.00    -0.005 A 
HETATM   10  C10 UNL     1     -32.324   7.509   1.325  1.00 20.00    -0.005 A 
HETATM   11  O11 UNL     1     -34.496   4.393   3.848  1.00 20.00    -0.297 OA
ENDROOT
TORSDOF 0
ENDMDL
MODEL 5
REMARK VINA RESULT:       1.0      1.849      3.907
REMARK  0 active torsions:
REMARK  status: ('A' for Active; 'I' for Inactive)
ROOT
HETATM    1  C1  UNL     1     -32.355   7.621   2.065  1.00 20.00     0.136 C 
HETATM    2  C2  UNL     1     -34.091   8.957   3.429  1.00 20.00     0.018 A 
HETATM    3  C3  UNL     1     -32.778   5.071   1.293  1.00 20.00     0.018 A 
HETATM    4  C4  UNL     1     -35.591   6.037   3.453  1.00 20.00     0.011 A 
HETATM    5  C5  UNL     1     -32.742   8.295   3.342  1.00 20.00     0.060 A 
HETATM    6  C6  UNL     1     -33.157   6.465   1.654  1.00 20.00     0.060 A 
HETATM    7  C7  UNL     1     -33.767   7.824   4.370  1.00 20.00     0.002 A 
HETATM    8  C8  UNL     1     -33.080   5.367   2.719  1.00 20.00     0.002 A 
HETATM    9  C9  UNL     1     -34.583   6.516   4.461  1.00 20.00    -0.005 A 
HETATM   10  C10 UNL     1     -34.300   5.280   3.606  1.00 20.00    -0.005 A 
HETATM   11  O11 UNL     1     -31.434   8.039   1.377  1.00 20.00    -0.297 OA
ENDROOT
TORSDOF 0
ENDMDL
MODEL 6
REMARK VINA RESULT:       1.1      1.520      3.095
REMARK  0 active torsions:
REMARK  status: ('A' for Active; 'I' for Inactive)
ROOT
HETATM    1  C1  UNL     1     -32.251   5.825   1.612  1.00 20.00     0.136 C 
HETATM    2  C2  UNL     1     -32.573   8.368   1.311  1.00 20.00     0.018 A 
HETATM    3  C3  UNL     1     -33.944   4.319   3.075  1.00 20.00     0.018 A 
HETATM    4  C4  UNL     1     -34.972   7.824   3.484  1.00 20.00     0.011 A 
HETATM    5  C5  UNL     1     -31.773   7.219   1.864  1.00 20.00     0.060 A 
HETATM    6  C6  UNL     1     -33.543   5.450   2.194  1.00 20.00     0.060 A 
HETATM    7  C7  UNL     1     -32.382   8.257   2.802  1.00 20.00     0.002 A 
HETATM    8  C8  UNL     1     -33.489   5.579   3.719  1.00 20.00     0.002 A 
HETATM    9  C9  UNL     1     -33.542   8.148   3.816  1.00 20.00    -0.005 A 
HETATM   10  C10 UNL     1     -34.160   6.821   4.258  1.00 20.00    -0.005 A 
HETATM   11  O11 UNL     1     -31.609   5.046   0.921  1.00 20.00    -0.297 OA
ENDROOT
TORSDOF 0
ENDMDL
MODEL 7
REMARK VINA RESULT:       1.3      1.304      2.878
REMARK  0 active torsions:
REMARK  status: ('A' for Active; 'I' for Inactive)
ROOT
HETATM    1  C1  UNL     1     -33.494   7.736   3.958  1.00 20.00     0.136 C 
HETATM    2  C2  UNL     1     -31.281   8.303   2.758  1.00 20.00     0.018 A 
HETATM    3  C3  UNL     1     -34.604   5.279   3.854  1.00 20.00     0.018 A 
HETATM    4  C4  UNL     1     -31.698   5.258   1.605  1.00 20.00     0.011 A 
HETATM    5  C5  UNL     1     -32.769   8.488   2.889  1.00 20.00     0.060 A 
HETATM    6  C6  UNL     1     -33.496   6.273   3.858  1.00 20.00     0.060 A 
HETATM    7  C7  UNL     1     -32.171   7.929   1.600  1.00 20.00     0.002 A 
HETATM    8  C8  UNL     1     -34.160   5.837   2.549  1.00 20.00     0.002 A 
HETATM    9  C9  UNL     1     -32.238   6.515   0.982  1.00 20.00    -0.005 A 
HETATM   10  C10 UNL     1     -33.188   5.421   1.471  1.00 20.00    -0.005 A 
HETATM   11  O11 UNL     1     -34.030   8.315   4.893  1.00 20.00    -0.297 OA
ENDROOT
TORSDOF 0
ENDMDL
MODEL 8
REMARK VINA RESULT:       1.3      1.431      2.931
REMARK  0 active torsions:
REMARK  status: ('A' for Active; 'I' for Inactive)
ROOT
HETATM    1  C1  UNL     1     -33.475   7.744   3.921  1.00 20.00     0.136 C 
HETATM    2  C2  UNL     1     -35.290   5.933   3.626  1.00 20.00     0.018 A 
HETATM    3  C3  UNL     1     -31.807   8.455   1.923  1.00 20.00     0.018 A 
HETATM    4  C4  UNL     1     -33.794   5.605   0.723  1.00 20.00     0.011 A 
HETATM    5  C5  UNL     1     -34.007   6.391   4.268  1.00 20.00     0.060 A 
HETATM    6  C6  UNL     1     -33.077   7.965   2.527  1.00 20.00     0.060 A 
HETATM    7  C7  UNL     1     -34.027   5.144   3.386  1.00 20.00     0.002 A 
HETATM    8  C8  UNL     1     -31.961   6.992   2.140  1.00 20.00     0.002 A 
HETATM    9  C9  UNL     1     -33.425   4.883   1.989  1.00 20.00    -0.005 A 
HETATM   10  C10 UNL     1     -32.425   5.819   1.308  1.00 20.00    -0.005 A 
HETATM   11  O11 UNL     1     -33.410   8.637   4.755  1.00 20.00    -0.297 OA
ENDROOT
TORSDOF 0
ENDMDL
