MODEL 1
REMARK VINA RESULT:       1.4      0.000      0.000
REMARK  0 active torsions:
REMARK  status: ('A' for Active; 'I' for Inactive)
ROOT
HETATM    1  C1  UNL     1     -32.463   8.398   1.202  1.00 20.00     0.132 C 
HETATM    2  C2  UNL     1     -31.328   7.899   2.091  1.00 20.00     0.084 C 
HETATM    3  C3  UNL     1     -33.271   6.205   0.574  1.00 20.00     0.013 C 
HETATM    4  C4  UNL     1     -32.123   5.594   1.429  1.00 20.00     0.006 C 
HETATM    5  C5  UNL     1     -34.420   6.283   3.621  1.00 20.00     0.011 A 
HETATM    6  C6  UNL     1     -33.968   7.678   3.996  1.00 20.00     0.011 A 
HETATM    7  C7  UNL     1     -33.662   7.466   1.370  1.00 20.00     0.064 C 
HETATM    8  C8  UNL     1     -31.979   6.588   2.615  1.00 20.00     0.002 C 
HETATM    9  C9  UNL     1     -33.414   7.005   2.775  1.00 20.00    -0.026 A 
HETATM   10  O10 UNL     1     -32.410   9.362   0.457  1.00 20.00    -0.298 OA
ENDROOT
TORSDOF 0
ENDMDL
MODEL 2
REMARK VINA RESULT:       1.6      1.722      3.212
REMARK  0 active torsions:
REMARK  status: ('A' for Active; 'I' for Inactive)
ROOT
HETATM    1  C1  UNL     1     -32.605   6.541   1.497  1.00 20.00     0.132 C 
HETATM    2  C2  UNL     1     -31.132   6.909   1.642  1.00 20.00     0.084 C 
HETATM    3  C3  UNL     1     -33.403   8.020   3.239  1.00 20.00     0.013 C 
HETATM    4  C4  UNL     1     -31.924   8.438   3.490  1.00 20.00     0.006 C 
HETATM    5  C5  UNL     1     -32.809  10.258   0.947  1.00 20.00     0.011 A 
HETATM    6  C6  UNL     1     -32.367   9.330  -0.163  1.00 20.00     0.011 A 
HETATM    7  C7  UNL     1     -33.446   7.799   1.715  1.00 20.00     0.064 C 
HETATM    8  C8  UNL     1     -31.285   8.394   2.074  1.00 20.00     0.002 C 
HETATM    9  C9  UNL     1     -32.463   8.830   1.248  1.00 20.00    -0.026 A 
HETATM   10  O10 UNL     1     -33.040   5.424   1.277  1.00 20.00    -0.298 OA
ENDROOT
TORSDOF 0
ENDMDL
MODEL 3
REMARK VINA RESULT:       2.2      1.526      2.680
REMARK  0 active torsions:
REMARK  status: ('A' for Active; 'I' for Inactive)
ROOT
HETATM    1  C1  UNL     1     -32.085   5.644   1.450  1.00 20.00     0.132 C 
HETATM    2  C2  UNL     1     -33.309   5.989   0.608  1.00 20.00     0.084 C 
HETATM    3  C3  UNL     1     -31.501   7.931   1.988  1.00 20.00     0.013 C 
HETATM    4  C4  UNL     1     -32.710   8.389   1.120  1.00 20.00     0.006 C 
HETATM    5  C5  UNL     1     -34.068   7.615   3.969  1.00 20.00     0.011 A 
HETATM    6  C6  UNL     1     -34.398   6.167   3.679  1.00 20.00     0.011 A 
HETATM    7  C7  UNL     1     -32.008   6.621   2.623  1.00 20.00     0.064 C 
HETATM    8  C8  UNL     1     -33.769   7.276   1.350  1.00 20.00     0.002 C 
HETATM    9  C9  UNL     1     -33.467   6.926   2.779  1.00 20.00    -0.026 A 
HETATM   10  O10 UNL     1     -31.283   4.757   1.208  1.00 20.00    -0.298 OA
ENDROOT
TORSDOF 0
ENDMDL
MODEL 4
REMARK VINA RESULT:       2.4      1.702      3.149
REMARK  0 active torsions:
REMARK  status: ('A' for Active; 'I' for Inactive)
ROOT
HETATM    1  C1  UNL     1     -32.681   8.023   3.466  1.00 20.00     0.132 C 
HETATM    2  C2  UNL     1     -33.978   7.583   2.796  1.00 20.00     0.084 C 
HETATM    3  C3  UNL     1     -31.210   6.778   2.001  1.00 20.00     0.013 C 
HETATM    4  C4  UNL     1     -32.476   6.243   1.270  1.00 20.00     0.006 C 
HETATM    5  C5  UNL     1     -32.015   9.174  -0.054  1.00 20.00     0.011 A 
HETATM    6  C6  UNL     1     -32.887   9.987   0.878  1.00 20.00     0.011 A 
HETATM    7  C7  UNL     1     -31.615   8.214   2.387  1.00 20.00     0.064 C 
HETATM    8  C8  UNL     1     -33.469   7.436   1.335  1.00 20.00     0.002 C 
HETATM    9  C9  UNL     1     -32.501   8.581   1.235  1.00 20.00    -0.026 A 
HETATM   10  O10 UNL     1     -32.513   8.167   4.665  1.00 20.00    -0.298 OA
ENDROOT
TORSDOF 0
ENDMDL
MODEL 5
REMARK VINA RESULT:       2.4      2.632      3.602
REMARK  0 active torsions:
REMARK  status: ('A' for Active; 'I' for Inactive)
ROOT
HETATM    1  C1  UNL     1     -34.324   5.106   4.006  1.00 20.00     0.132 C 
HETATM    2  C2  UNL     1     -35.499   6.047   3.766  1.00 20.00     0.084 C 
HETATM    3  C3  UNL     1     -33.137   5.664   1.973  1.00 20.00     0.013 C 
HETATM    4  C4  UNL     1     -34.305   6.630   1.617  1.00 20.00     0.006 C 
HETATM    5  C5  UNL     1     -32.479   8.368   3.668  1.00 20.00     0.011 A 
HETATM    6  C6  UNL     1     -33.170   7.995   4.962  1.00 20.00     0.011 A 
HETATM    7  C7  UNL     1     -33.047   5.780   3.507  1.00 20.00     0.064 C 
HETATM    8  C8  UNL     1     -34.760   7.179   2.998  1.00 20.00     0.002 C 
HETATM    9  C9  UNL     1     -33.437   7.214   3.709  1.00 20.00    -0.026 A 
HETATM   10  O10 UNL     1     -34.397   3.987   4.487  1.00 20.00    -0.298 OA
ENDROOT
TORSDOF 0
ENDMDL
MODEL 6
REMARK VINA RESULT:       2.9      2.016      3.474
REMARK  0 active torsions:
REMARK  status: ('A' for Active; 'I' for Inactive)
ROOT
HETATM    1  C1  UNL     1     -33.512   7.696   4.611  1.00 20.00     0.132 C 
HETATM    2  C2  UNL     1     -34.463   8.431   3.674  1.00 20.00     0.084 C 
HETATM    3  C3  UNL     1     -34.571   5.531   4.393  1.00 20.00     0.013 C 
HETATM    4  C4  UNL     1     -35.616   6.195   3.449  1.00 20.00     0.006 C 
HETATM    5  C5  UNL     1     -33.080   5.627   1.498  1.00 20.00     0.011 A 
HETATM    6  C6  UNL     1     -32.368   6.952   1.656  1.00 20.00     0.011 A 
HETATM    7  C7  UNL     1     -33.272   6.290   4.061  1.00 20.00     0.064 C 
HETATM    8  C8  UNL     1     -34.792   7.273   2.691  1.00 20.00     0.002 C 
HETATM    9  C9  UNL     1     -33.469   6.567   2.600  1.00 20.00    -0.026 A 
HETATM   10  O10 UNL     1     -33.045   8.144   5.645  1.00 20.00    -0.298 OA
ENDROOT
TORSDOF 0
ENDMDL
MODEL 7
REMARK VINA RESULT:       3.0      1.101      2.574
REMARK  0 active torsions:
REMARK  status: ('A' for Active; 'I' for Inactive)
ROOT
HETATM    1  C1  UNL     1     -32.514   9.091   0.953  1.00 20.00     0.132 C 
HETATM    2  C2  UNL     1     -33.723   8.945   1.871  1.00 20.00     0.084 C 
HETATM    3  C3  UNL     1     -30.875   8.373   2.583  1.00 20.00     0.013 C 
HETATM    4  C4  UNL     1     -32.037   8.224   3.608  1.00 20.00     0.006 C 
HETATM    5  C5  UNL     1     -32.173   5.465   1.897  1.00 20.00     0.011 A 
HETATM    6  C6  UNL     1     -33.156   5.903   0.834  1.00 20.00     0.011 A 
HETATM    7  C7  UNL     1     -31.533   7.958   1.252  1.00 20.00     0.064 C 
HETATM    8  C8  UNL     1     -33.235   7.751   2.739  1.00 20.00     0.002 C 
HETATM    9  C9  UNL     1     -32.503   6.918   1.725  1.00 20.00    -0.026 A 
HETATM   10  O10 UNL     1     -32.344   9.983   0.139  1.00 20.00    -0.298 OA
ENDROOT
TORSDOF 0
ENDMDL
MODEL 8
REMARK VINA RESULT:       3.0      2.093      3.645
REMARK  0 active torsions:
REMARK  status: ('A' for Active; 'I' for Inactive)
ROOT
HETATM    1  C1  UNL     1     -35.439   6.516   3.374  1.00 20.00     0.132 C 
HETATM    2  C2  UNL     1     -34.610   5.493   4.143  1.00 20.00     0.084 C 
HETATM    3  C3  UNL     1     -34.119   8.440   4.019  1.00 20.00     0.013 C 
HETATM    4  C4  UNL     1     -33.230   7.482   4.865  1.00 20.00     0.006 C 
HETATM    5  C5  UNL     1     -32.056   7.149   1.853  1.00 20.00     0.011 A 
HETATM    6  C6  UNL     1     -32.904   5.979   1.404  1.00 20.00     0.011 A 
HETATM    7  C7  UNL     1     -34.498   7.576   2.801  1.00 20.00     0.064 C 
HETATM    8  C8  UNL     1     -33.214   6.168   4.035  1.00 20.00     0.002 C 
HETATM    9  C9  UNL     1     -33.261   6.741   2.647  1.00 20.00    -0.026 A 
HETATM   10  O10 UNL     1     -36.653   6.509   3.263  1.00 20.00    -0.298 OA
ENDROOT
TORSDOF 0
ENDMDL
MODEL 9
REMARK VINA RESULT:       3.1      1.582      2.945
REMARK  0 active torsions:
REMARK  status: ('A' for Active; 'I' for Inactive)
ROOT
HETATM    1  C1  UNL     1     -32.700   7.220   2.658  1.00 20.00     0.132 C 
HETATM    2  C2  UNL     1     -33.571   6.613   1.563  1.00 20.00     0.084 C 
HETATM    3  C3  UNL     1     -34.503   7.597   4.229  1.00 20.00     0.013 C 
HETATM    4  C4  UNL     1     -35.482   7.023   3.163  1.00 20.00     0.006 C 
HETATM    5  C5  UNL     1     -34.242   4.367   4.566  1.00 20.00     0.011 A 
HETATM    6  C6  UNL     1     -33.076   4.137   3.630  1.00 20.00     0.011 A 
HETATM    7  C7  UNL     1     -33.228   6.757   4.015  1.00 20.00     0.064 C 
HETATM    8  C8  UNL     1     -34.646   5.924   2.451  1.00 20.00     0.002 C 
HETATM    9  C9  UNL     1     -33.819   5.440   3.608  1.00 20.00    -0.026 A 
HETATM   10  O10 UNL     1     -31.760   7.975   2.480  1.00 20.00    -0.298 OA
ENDROOT
TORSDOF 0
ENDMDL
