MODEL 1
REMARK VINA RESULT:       3.0      0.000      0.000
REMARK  0 active torsions:
REMARK  status: ('A' for Active; 'I' for Inactive)
ROOT
HETATM    1  C1  UNL     1     -32.326   8.206   3.869  1.00 20.00     0.005 C 
HETATM    2  C2  UNL     1     -33.272   6.463   2.353  1.00 20.00     0.005 C 
HETATM    3  C3  UNL     1     -31.102   8.348   2.948  1.00 20.00     0.008 C 
HETATM    4  C4  UNL     1     -32.050   6.599   1.427  1.00 20.00     0.008 C 
HETATM    5  C5  UNL     1     -33.831   8.883   1.979  1.00 20.00     0.045 C 
HETATM    6  C6  UNL     1     -32.712   9.523  -0.306  1.00 20.00     0.207 A 
HETATM    7  C7  UNL     1     -33.569   7.804   3.054  1.00 20.00    -0.012 C 
HETATM    8  C8  UNL     1     -31.494   8.033   1.492  1.00 20.00     0.022 C 
HETATM    9  C9  UNL     1     -32.614   8.967   1.094  1.00 20.00     0.086 A 
HETATM   10  O10 UNL     1     -32.195  10.303   0.781  1.00 20.00    -0.375 OA
ENDROOT
TORSDOF 0
ENDMDL
MODEL 2
REMARK VINA RESULT:       3.1      2.078      3.492
REMARK  0 active torsions:
REMARK  status: ('A' for Active; 'I' for Inactive)
ROOT
HETATM    1  C1  UNL     1     -32.905   8.256   0.848  1.00 20.00     0.005 C 
HETATM    2  C2  UNL     1     -31.082   6.957   1.953  1.00 20.00     0.005 C 
HETATM    3  C3  UNL     1     -33.667   6.950   0.562  1.00 20.00     0.008 C 
HETATM    4  C4  UNL     1     -31.838   5.646   1.670  1.00 20.00     0.008 C 
HETATM    5  C5  UNL     1     -33.025   7.789   3.311  1.00 20.00     0.045 C 
HETATM    6  C6  UNL     1     -34.317   5.643   4.087  1.00 20.00     0.207 A 
HETATM    7  C7  UNL     1     -32.075   8.122   2.139  1.00 20.00    -0.012 C 
HETATM    8  C8  UNL     1     -33.356   5.905   1.650  1.00 20.00     0.022 C 
HETATM    9  C9  UNL     1     -33.729   6.495   2.990  1.00 20.00     0.086 A 
HETATM   10  O10 UNL     1     -35.135   6.495   3.274  1.00 20.00    -0.375 OA
ENDROOT
TORSDOF 0
ENDMDL
MODEL 3
REMARK VINA RESULT:       3.1      2.190      3.448
REMARK  0 active torsions:
REMARK  status: ('A' for Active; 'I' for Inactive)
ROOT
HETATM    1  C1  UNL     1     -31.302   6.713   1.772  1.00 20.00     0.005 C 
HETATM    2  C2  UNL     1     -32.973   5.271   0.605  1.00 20.00     0.005 C 
HETATM    3  C3  UNL     1     -32.301   7.884   1.763  1.00 20.00     0.008 C 
HETATM    4  C4  UNL     1     -33.978   6.438   0.592  1.00 20.00     0.008 C 
HETATM    5  C5  UNL     1     -32.918   5.341   3.116  1.00 20.00     0.045 C 
HETATM    6  C6  UNL     1     -35.171   6.471   3.842  1.00 20.00     0.207 A 
HETATM    7  C7  UNL     1     -32.051   5.368   1.837  1.00 20.00    -0.012 C 
HETATM    8  C8  UNL     1     -33.745   7.349   1.811  1.00 20.00     0.022 C 
HETATM    9  C9  UNL     1     -33.889   6.492   3.047  1.00 20.00     0.086 A 
HETATM   10  O10 UNL     1     -34.031   7.227   4.271  1.00 20.00    -0.375 OA
ENDROOT
TORSDOF 0
ENDMDL
MODEL 4
REMARK VINA RESULT:       3.2      0.973      1.522
REMARK  0 active torsions:
REMARK  status: ('A' for Active; 'I' for Inactive)
ROOT
HETATM    1  C1  UNL     1     -33.693   6.840   2.935  1.00 20.00     0.005 C 
HETATM    2  C2  UNL     1     -31.883   5.862   1.521  1.00 20.00     0.005 C 
HETATM    3  C3  UNL     1     -32.756   7.989   3.345  1.00 20.00     0.008 C 
HETATM    4  C4  UNL     1     -30.940   7.009   1.927  1.00 20.00     0.008 C 
HETATM    5  C5  UNL     1     -33.484   7.524   0.529  1.00 20.00     0.045 C 
HETATM    6  C6  UNL     1     -32.049   9.651  -0.016  1.00 20.00     0.207 A 
HETATM    7  C7  UNL     1     -33.347   6.344   1.518  1.00 20.00    -0.012 C 
HETATM    8  C8  UNL     1     -31.752   8.284   2.215  1.00 20.00     0.022 C 
HETATM    9  C9  UNL     1     -32.534   8.611   0.964  1.00 20.00     0.086 A 
HETATM   10  O10 UNL     1     -33.087   9.934   0.932  1.00 20.00    -0.375 OA
ENDROOT
TORSDOF 0
ENDMDL
MODEL 5
REMARK VINA RESULT:       3.5      1.703      2.617
REMARK  0 active torsions:
REMARK  status: ('A' for Active; 'I' for Inactive)
ROOT
HETATM    1  C1  UNL     1     -33.574   5.327   4.002  1.00 20.00     0.005 C 
HETATM    2  C2  UNL     1     -35.417   6.695   3.020  1.00 20.00     0.005 C 
HETATM    3  C3  UNL     1     -33.012   5.065   2.594  1.00 20.00     0.008 C 
HETATM    4  C4  UNL     1     -34.862   6.436   1.607  1.00 20.00     0.008 C 
HETATM    5  C5  UNL     1     -33.254   7.795   3.672  1.00 20.00     0.045 C 
HETATM    6  C6  UNL     1     -32.162   8.597   1.426  1.00 20.00     0.207 A 
HETATM    7  C7  UNL     1     -34.274   6.698   4.055  1.00 20.00    -0.012 C 
HETATM    8  C8  UNL     1     -33.334   6.251   1.665  1.00 20.00     0.022 C 
HETATM    9  C9  UNL     1     -32.753   7.503   2.281  1.00 20.00     0.086 A 
HETATM   10  O10 UNL     1     -31.336   7.648   2.115  1.00 20.00    -0.375 OA
ENDROOT
TORSDOF 0
ENDMDL
MODEL 6
REMARK VINA RESULT:       3.5      1.704      2.902
REMARK  0 active torsions:
REMARK  status: ('A' for Active; 'I' for Inactive)
ROOT
HETATM    1  C1  UNL     1     -34.288   8.827   2.735  1.00 20.00     0.005 C 
HETATM    2  C2  UNL     1     -32.536   8.159   4.383  1.00 20.00     0.005 C 
HETATM    3  C3  UNL     1     -33.227   8.874   1.621  1.00 20.00     0.008 C 
HETATM    4  C4  UNL     1     -31.469   8.205   3.274  1.00 20.00     0.008 C 
HETATM    5  C5  UNL     1     -33.791   6.395   3.108  1.00 20.00     0.045 C 
HETATM    6  C6  UNL     1     -32.019   5.256   1.545  1.00 20.00     0.207 A 
HETATM    7  C7  UNL     1     -33.908   7.775   3.795  1.00 20.00    -0.012 C 
HETATM    8  C8  UNL     1     -32.104   7.862   1.915  1.00 20.00     0.022 C 
HETATM    9  C9  UNL     1     -32.728   6.491   2.043  1.00 20.00     0.086 A 
HETATM   10  O10 UNL     1     -33.075   5.872   0.797  1.00 20.00    -0.375 OA
ENDROOT
TORSDOF 0
ENDMDL
MODEL 7
REMARK VINA RESULT:       3.7      3.509      4.808
REMARK  0 active torsions:
REMARK  status: ('A' for Active; 'I' for Inactive)
ROOT
HETATM    1  C1  UNL     1     -35.267   6.571   2.316  1.00 20.00     0.005 C 
HETATM    2  C2  UNL     1     -34.256   7.547   4.379  1.00 20.00     0.005 C 
HETATM    3  C3  UNL     1     -33.911   5.949   1.942  1.00 20.00     0.008 C 
HETATM    4  C4  UNL     1     -32.896   6.928   4.011  1.00 20.00     0.008 C 
HETATM    5  C5  UNL     1     -35.284   5.256   4.453  1.00 20.00     0.045 C 
HETATM    6  C6  UNL     1     -33.295   3.602   4.886  1.00 20.00     0.207 A 
HETATM    7  C7  UNL     1     -35.408   6.672   3.847  1.00 20.00    -0.012 C 
HETATM    8  C8  UNL     1     -33.105   5.627   3.214  1.00 20.00     0.022 C 
HETATM    9  C9  UNL     1     -33.934   4.702   4.075  1.00 20.00     0.086 A 
HETATM   10  O10 UNL     1     -33.951   3.335   3.639  1.00 20.00    -0.375 OA
ENDROOT
TORSDOF 0
ENDMDL
MODEL 8
REMARK VINA RESULT:       3.8      2.601      3.157
REMARK  0 active torsions:
REMARK  status: ('A' for Active; 'I' for Inactive)
ROOT
HETATM    1  C1  UNL     1     -34.561   7.766   4.335  1.00 20.00     0.005 C 
HETATM    2  C2  UNL     1     -35.408   5.425   4.147  1.00 20.00     0.005 C 
HETATM    3  C3  UNL     1     -33.121   7.238   4.467  1.00 20.00     0.008 C 
HETATM    4  C4  UNL     1     -33.971   4.889   4.279  1.00 20.00     0.008 C 
HETATM    5  C5  UNL     1     -34.751   6.688   2.076  1.00 20.00     0.045 C 
HETATM    6  C6  UNL     1     -32.640   5.449   1.132  1.00 20.00     0.207 A 
HETATM    7  C7  UNL     1     -35.406   6.811   3.471  1.00 20.00    -0.012 C 
HETATM    8  C8  UNL     1     -32.971   5.909   3.703  1.00 20.00     0.022 C 
HETATM    9  C9  UNL     1     -33.355   6.149   2.261  1.00 20.00     0.086 A 
HETATM   10  O10 UNL     1     -32.352   6.810   1.478  1.00 20.00    -0.375 OA
ENDROOT
TORSDOF 0
ENDMDL
MODEL 9
REMARK VINA RESULT:       3.9      2.466      3.677
REMARK  0 active torsions:
REMARK  status: ('A' for Active; 'I' for Inactive)
ROOT
HETATM    1  C1  UNL     1     -35.690   6.223   3.772  1.00 20.00     0.005 C 
HETATM    2  C2  UNL     1     -33.668   7.099   4.946  1.00 20.00     0.005 C 
HETATM    3  C3  UNL     1     -35.387   7.130   2.566  1.00 20.00     0.008 C 
HETATM    4  C4  UNL     1     -33.359   8.010   3.744  1.00 20.00     0.008 C 
HETATM    5  C5  UNL     1     -33.478   5.076   3.469  1.00 20.00     0.045 C 
HETATM    6  C6  UNL     1     -31.985   5.816   1.443  1.00 20.00     0.207 A 
HETATM    7  C7  UNL     1     -34.384   5.815   4.480  1.00 20.00    -0.012 C 
HETATM    8  C8  UNL     1     -33.869   7.360   2.444  1.00 20.00     0.022 C 
HETATM    9  C9  UNL     1     -33.196   6.012   2.322  1.00 20.00     0.086 A 
HETATM   10  O10 UNL     1     -33.295   5.411   1.023  1.00 20.00    -0.375 OA
ENDROOT
TORSDOF 0
ENDMDL
