MODEL 1
REMARK VINA RESULT:       0.5      0.000      0.000
REMARK  0 active torsions:
REMARK  status: ('A' for Active; 'I' for Inactive)
ROOT
HETATM    1  C1  UNL     1     -34.734   6.248   3.821  1.00 20.00     0.064 C 
HETATM    2  C2  UNL     1     -33.117   5.459   2.131  1.00 20.00     0.045 C 
HETATM    3  C3  UNL     1     -33.459   7.909   2.507  1.00 20.00     0.056 C 
HETATM    4  C4  UNL     1     -31.845   5.810   1.372  1.00 20.00     0.170 C 
HETATM    5  C5  UNL     1     -33.440   6.529   3.175  1.00 20.00     0.097 C 
HETATM    6  C6  UNL     1     -32.186   8.183   1.683  1.00 20.00     0.055 C 
HETATM    7  C7  UNL     1     -32.410   9.424   0.808  1.00 20.00     0.045 C 
HETATM    8  C8  UNL     1     -30.961   8.439   2.575  1.00 20.00     0.045 C 
HETATM    9  N9  UNL     1     -35.752   6.027   4.330  1.00 20.00    -0.197 NA
HETATM   10  O10 UNL     1     -31.935   7.101   0.773  1.00 20.00    -0.381 OA
ENDROOT
TORSDOF 0
ENDMDL
MODEL 2
REMARK VINA RESULT:       0.6      2.193      3.153
REMARK  0 active torsions:
REMARK  status: ('A' for Active; 'I' for Inactive)
ROOT
HETATM    1  C1  UNL     1     -33.532   3.405   4.293  1.00 20.00     0.064 C 
HETATM    2  C2  UNL     1     -34.781   5.533   4.355  1.00 20.00     0.045 C 
HETATM    3  C3  UNL     1     -32.753   5.299   2.907  1.00 20.00     0.056 C 
HETATM    4  C4  UNL     1     -35.125   6.794   3.574  1.00 20.00     0.170 C 
HETATM    5  C5  UNL     1     -33.965   4.566   3.496  1.00 20.00     0.097 C 
HETATM    6  C6  UNL     1     -33.145   6.610   2.199  1.00 20.00     0.055 C 
HETATM    7  C7  UNL     1     -31.877   7.428   1.917  1.00 20.00     0.045 C 
HETATM    8  C8  UNL     1     -33.860   6.358   0.863  1.00 20.00     0.045 C 
HETATM    9  N9  UNL     1     -33.191   2.490   4.919  1.00 20.00    -0.197 NA
HETATM   10  O10 UNL     1     -33.952   7.425   3.062  1.00 20.00    -0.381 OA
ENDROOT
TORSDOF 0
ENDMDL
MODEL 3
REMARK VINA RESULT:       1.0      1.456      2.276
REMARK  0 active torsions:
REMARK  status: ('A' for Active; 'I' for Inactive)
ROOT
HETATM    1  C1  UNL     1     -34.955   6.176   4.041  1.00 20.00     0.064 C 
HETATM    2  C2  UNL     1     -33.203   7.780   4.712  1.00 20.00     0.045 C 
HETATM    3  C3  UNL     1     -33.226   6.825   2.398  1.00 20.00     0.056 C 
HETATM    4  C4  UNL     1     -32.225   8.833   4.207  1.00 20.00     0.170 C 
HETATM    5  C5  UNL     1     -34.096   7.279   3.576  1.00 20.00     0.097 C 
HETATM    6  C6  UNL     1     -32.197   7.894   1.980  1.00 20.00     0.055 C 
HETATM    7  C7  UNL     1     -31.175   7.262   1.025  1.00 20.00     0.045 C 
HETATM    8  C8  UNL     1     -32.854   9.082   1.261  1.00 20.00     0.045 C 
HETATM    9  N9  UNL     1     -35.632   5.307   4.407  1.00 20.00    -0.197 NA
HETATM   10  O10 UNL     1     -31.446   8.340   3.119  1.00 20.00    -0.381 OA
ENDROOT
TORSDOF 0
ENDMDL
MODEL 4
REMARK VINA RESULT:       1.6      2.782      4.189
REMARK  0 active torsions:
REMARK  status: ('A' for Active; 'I' for Inactive)
ROOT
HETATM    1  C1  UNL     1     -32.050   8.485   1.164  1.00 20.00     0.064 C 
HETATM    2  C2  UNL     1     -32.316   8.665   3.612  1.00 20.00     0.045 C 
HETATM    3  C3  UNL     1     -33.859   7.218   2.274  1.00 20.00     0.056 C 
HETATM    4  C4  UNL     1     -32.825   7.957   4.860  1.00 20.00     0.170 C 
HETATM    5  C5  UNL     1     -32.428   7.755   2.387  1.00 20.00     0.097 C 
HETATM    6  C6  UNL     1     -34.356   6.585   3.589  1.00 20.00     0.055 C 
HETATM    7  C7  UNL     1     -35.872   6.358   3.497  1.00 20.00     0.045 C 
HETATM    8  C8  UNL     1     -33.685   5.233   3.873  1.00 20.00     0.045 C 
HETATM    9  N9  UNL     1     -31.753   9.059   0.201  1.00 20.00    -0.197 NA
HETATM   10  O10 UNL     1     -34.161   7.490   4.686  1.00 20.00    -0.381 OA
ENDROOT
TORSDOF 0
ENDMDL
MODEL 5
REMARK VINA RESULT:       1.7      2.523      3.867
REMARK  0 active torsions:
REMARK  status: ('A' for Active; 'I' for Inactive)
ROOT
HETATM    1  C1  UNL     1     -32.307   9.491   0.873  1.00 20.00     0.064 C 
HETATM    2  C2  UNL     1     -33.205   8.210   2.783  1.00 20.00     0.045 C 
HETATM    3  C3  UNL     1     -32.668   7.058   0.626  1.00 20.00     0.056 C 
HETATM    4  C4  UNL     1     -33.265   6.836   3.437  1.00 20.00     0.170 C 
HETATM    5  C5  UNL     1     -32.268   8.196   1.573  1.00 20.00     0.097 C 
HETATM    6  C6  UNL     1     -32.797   5.705   1.353  1.00 20.00     0.055 C 
HETATM    7  C7  UNL     1     -33.491   4.699   0.424  1.00 20.00     0.045 C 
HETATM    8  C8  UNL     1     -31.430   5.127   1.750  1.00 20.00     0.045 C 
HETATM    9  N9  UNL     1     -32.338  10.511   0.321  1.00 20.00    -0.197 NA
HETATM   10  O10 UNL     1     -33.649   5.831   2.501  1.00 20.00    -0.381 OA
ENDROOT
TORSDOF 0
ENDMDL
MODEL 6
REMARK VINA RESULT:       2.0      2.620      3.826
REMARK  0 active torsions:
REMARK  status: ('A' for Active; 'I' for Inactive)
ROOT
HETATM    1  C1  UNL     1     -32.370   9.031   0.612  1.00 20.00     0.064 C 
HETATM    2  C2  UNL     1     -32.274   6.665   1.310  1.00 20.00     0.045 C 
HETATM    3  C3  UNL     1     -33.269   8.392   2.825  1.00 20.00     0.056 C 
HETATM    4  C4  UNL     1     -32.922   5.603   2.188  1.00 20.00     0.170 C 
HETATM    5  C5  UNL     1     -33.066   7.972   1.364  1.00 20.00     0.097 C 
HETATM    6  C6  UNL     1     -33.850   7.255   3.689  1.00 20.00     0.055 C 
HETATM    7  C7  UNL     1     -33.733   7.639   5.171  1.00 20.00     0.045 C 
HETATM    8  C8  UNL     1     -35.331   6.988   3.378  1.00 20.00     0.045 C 
HETATM    9  N9  UNL     1     -31.822   9.865   0.021  1.00 20.00    -0.197 NA
HETATM   10  O10 UNL     1     -33.074   6.058   3.531  1.00 20.00    -0.381 OA
ENDROOT
TORSDOF 0
ENDMDL
MODEL 7
REMARK VINA RESULT:       2.2      2.534      3.331
REMARK  0 active torsions:
REMARK  status: ('A' for Active; 'I' for Inactive)
ROOT
HETATM    1  C1  UNL     1     -33.268   3.071   4.381  1.00 20.00     0.064 C 
HETATM    2  C2  UNL     1     -32.692   4.590   2.522  1.00 20.00     0.045 C 
HETATM    3  C3  UNL     1     -34.610   5.120   4.040  1.00 20.00     0.056 C 
HETATM    4  C4  UNL     1     -32.756   6.029   2.031  1.00 20.00     0.170 C 
HETATM    5  C5  UNL     1     -33.219   4.480   3.954  1.00 20.00     0.097 C 
HETATM    6  C6  UNL     1     -34.641   6.545   3.454  1.00 20.00     0.055 C 
HETATM    7  C7  UNL     1     -36.100   6.991   3.291  1.00 20.00     0.045 C 
HETATM    8  C8  UNL     1     -33.926   7.560   4.358  1.00 20.00     0.045 C 
HETATM    9  N9  UNL     1     -33.308   1.962   4.718  1.00 20.00    -0.197 NA
HETATM   10  O10 UNL     1     -34.077   6.556   2.134  1.00 20.00    -0.381 OA
ENDROOT
TORSDOF 0
ENDMDL
MODEL 8
REMARK VINA RESULT:       2.6      1.401      2.854
REMARK  0 active torsions:
REMARK  status: ('A' for Active; 'I' for Inactive)
ROOT
HETATM    1  C1  UNL     1     -33.880   7.803   4.344  1.00 20.00     0.064 C 
HETATM    2  C2  UNL     1     -32.353   8.483   2.527  1.00 20.00     0.045 C 
HETATM    3  C3  UNL     1     -33.123   6.109   2.710  1.00 20.00     0.056 C 
HETATM    4  C4  UNL     1     -31.887   8.164   1.113  1.00 20.00     0.170 C 
HETATM    5  C5  UNL     1     -33.514   7.574   2.935  1.00 20.00     0.097 C 
HETATM    6  C6  UNL     1     -32.579   5.855   1.290  1.00 20.00     0.055 C 
HETATM    7  C7  UNL     1     -31.928   4.466   1.240  1.00 20.00     0.045 C 
HETATM    8  C8  UNL     1     -33.687   5.904   0.227  1.00 20.00     0.045 C 
HETATM    9  N9  UNL     1     -34.169   7.982   5.453  1.00 20.00    -0.197 NA
HETATM   10  O10 UNL     1     -31.535   6.789   0.979  1.00 20.00    -0.381 OA
ENDROOT
TORSDOF 0
ENDMDL
MODEL 9
REMARK VINA RESULT:       2.7      2.382      3.606
REMARK  0 active torsions:
REMARK  status: ('A' for Active; 'I' for Inactive)
ROOT
HETATM    1  C1  UNL     1     -31.685   5.102   0.965  1.00 20.00     0.064 C 
HETATM    2  C2  UNL     1     -32.069   7.533   1.148  1.00 20.00     0.045 C 
HETATM    3  C3  UNL     1     -33.382   5.935   2.557  1.00 20.00     0.056 C 
HETATM    4  C4  UNL     1     -32.544   8.648   2.069  1.00 20.00     0.170 C 
HETATM    5  C5  UNL     1     -32.027   6.196   1.889  1.00 20.00     0.097 C 
HETATM    6  C6  UNL     1     -33.857   7.127   3.412  1.00 20.00     0.055 C 
HETATM    7  C7  UNL     1     -35.332   6.922   3.785  1.00 20.00     0.045 C 
HETATM    8  C8  UNL     1     -33.048   7.269   4.710  1.00 20.00     0.045 C 
HETATM    9  N9  UNL     1     -31.416   4.239   0.237  1.00 20.00    -0.197 NA
HETATM   10  O10 UNL     1     -33.810   8.341   2.649  1.00 20.00    -0.381 OA
ENDROOT
TORSDOF 0
ENDMDL
