MODEL 1
REMARK VINA RESULT:      -0.1      0.000      0.000
REMARK  2 active torsions:
REMARK  status: ('A' for Active; 'I' for Inactive)
REMARK    1  A    between atoms: C8_8  and  C9_9 
REMARK    2  A    between atoms: C9_9  and  N11_11 
ROOT
HETATM    1  C1  UNL     1     -31.989   6.272   1.377  1.00 20.00     0.096 C 
HETATM    2  C9  UNL     1     -32.168   7.685   1.738  1.00 20.00     0.332 C 
HETATM    3  N10 UNL     1     -31.847   5.156   1.094  1.00 20.00    -0.195 NA
ENDROOT
BRANCH   2   4
HETATM    4  C8  UNL     1     -32.412   8.539   0.501  1.00 20.00     0.033 A 
HETATM    5  C4  UNL     1     -32.642  10.019   0.635  1.00 20.00     0.008 A 
HETATM    6  C5  UNL     1     -31.363   9.509   0.032  1.00 20.00     0.008 A 
ENDBRANCH   2   4
BRANCH   2   7
HETATM    7  N11 UNL     1     -33.279   7.823   2.687  1.00 20.00     0.106 N 
HETATM    8  C6  UNL     1     -34.005   6.559   2.824  1.00 20.00     0.274 C 
HETATM    9  C2  UNL     1     -34.772   6.746   4.126  1.00 20.00     0.032 C 
HETATM   10  C3  UNL     1     -33.969   7.775   4.916  1.00 20.00     0.032 C 
HETATM   11  C7  UNL     1     -32.781   8.120   4.030  1.00 20.00     0.274 C 
ENDBRANCH   2   7
TORSDOF 2
ENDMDL
MODEL 2
REMARK VINA RESULT:       0.6      1.476      1.872
REMARK  2 active torsions:
REMARK  status: ('A' for Active; 'I' for Inactive)
REMARK    1  A    between atoms: C8_8  and  C9_9 
REMARK    2  A    between atoms: C9_9  and  N11_11 
ROOT
HETATM    1  C1  UNL     1     -32.162   5.253   1.114  1.00 20.00     0.096 C 
HETATM    2  C9  UNL     1     -32.546   6.168   2.197  1.00 20.00     0.332 C 
HETATM    3  N10 UNL     1     -31.858   4.528   0.260  1.00 20.00    -0.195 NA
ENDROOT
BRANCH   2   4
HETATM    4  C8  UNL     1     -32.598   7.608   1.704  1.00 20.00     0.033 A 
HETATM    5  C4  UNL     1     -31.666   8.639   2.276  1.00 20.00     0.008 A 
HETATM    6  C5  UNL     1     -31.481   8.161   0.863  1.00 20.00     0.008 A 
ENDBRANCH   2   4
BRANCH   2   7
HETATM    7  N11 UNL     1     -33.842   5.767   2.756  1.00 20.00     0.106 N 
HETATM    8  C6  UNL     1     -33.684   4.640   3.678  1.00 20.00     0.274 C 
HETATM    9  C2  UNL     1     -34.978   4.672   4.479  1.00 20.00     0.032 C 
HETATM   10  C3  UNL     1     -35.458   6.118   4.403  1.00 20.00     0.032 C 
HETATM   11  C7  UNL     1     -34.413   6.842   3.568  1.00 20.00     0.274 C 
ENDBRANCH   2   7
TORSDOF 2
ENDMDL
MODEL 3
REMARK VINA RESULT:       0.7      1.669      3.040
REMARK  2 active torsions:
REMARK  status: ('A' for Active; 'I' for Inactive)
REMARK    1  A    between atoms: C8_8  and  C9_9 
REMARK    2  A    between atoms: C9_9  and  N11_11 
ROOT
HETATM    1  C1  UNL     1     -33.242   8.126   4.497  1.00 20.00     0.096 C 
HETATM    2  C9  UNL     1     -33.486   7.627   3.137  1.00 20.00     0.332 C 
HETATM    3  N10 UNL     1     -33.053   8.521   5.572  1.00 20.00    -0.195 NA
ENDROOT
BRANCH   2   4
HETATM    4  C8  UNL     1     -32.187   7.541   2.346  1.00 20.00     0.033 A 
HETATM    5  C4  UNL     1     -32.184   6.970   0.955  1.00 20.00     0.008 A 
HETATM    6  C5  UNL     1     -31.960   8.442   1.163  1.00 20.00     0.008 A 
ENDBRANCH   2   4
BRANCH   2   7
HETATM    7  N11 UNL     1     -34.142   6.316   3.194  1.00 20.00     0.106 N 
HETATM    8  C6  UNL     1     -33.190   5.274   3.585  1.00 20.00     0.274 C 
HETATM    9  C2  UNL     1     -34.095   4.136   4.034  1.00 20.00     0.032 C 
HETATM   10  C3  UNL     1     -35.398   4.807   4.456  1.00 20.00     0.032 C 
HETATM   11  C7  UNL     1     -35.172   6.295   4.233  1.00 20.00     0.274 C 
ENDBRANCH   2   7
TORSDOF 2
ENDMDL
MODEL 4
REMARK VINA RESULT:       0.8      0.922      3.816
REMARK  2 active torsions:
REMARK  status: ('A' for Active; 'I' for Inactive)
REMARK    1  A    between atoms: C8_8  and  C9_9 
REMARK    2  A    between atoms: C9_9  and  N11_11 
ROOT
HETATM    1  C1  UNL     1     -32.526   5.702   1.482  1.00 20.00     0.096 C 
HETATM    2  C9  UNL     1     -33.241   6.879   1.993  1.00 20.00     0.332 C 
HETATM    3  N10 UNL     1     -31.962   4.773   1.075  1.00 20.00    -0.195 NA
ENDROOT
BRANCH   2   4
HETATM    4  C8  UNL     1     -33.509   6.750   3.486  1.00 20.00     0.033 A 
HETATM    5  C4  UNL     1     -34.194   7.861   4.233  1.00 20.00     0.008 A 
HETATM    6  C5  UNL     1     -34.914   6.564   3.990  1.00 20.00     0.008 A 
ENDBRANCH   2   4
BRANCH   2   7
HETATM    7  N11 UNL     1     -32.470   8.095   1.712  1.00 20.00     0.106 N 
HETATM    8  C6  UNL     1     -31.415   7.827   0.732  1.00 20.00     0.274 C 
HETATM    9  C2  UNL     1     -31.052   9.218   0.232  1.00 20.00     0.032 C 
HETATM   10  C3  UNL     1     -32.300  10.064   0.468  1.00 20.00     0.032 C 
HETATM   11  C7  UNL     1     -33.315   9.114   1.086  1.00 20.00     0.274 C 
ENDBRANCH   2   7
TORSDOF 2
ENDMDL
MODEL 5
REMARK VINA RESULT:       0.9      1.553      3.985
REMARK  2 active torsions:
REMARK  status: ('A' for Active; 'I' for Inactive)
REMARK    1  A    between atoms: C8_8  and  C9_9 
REMARK    2  A    between atoms: C9_9  and  N11_11 
ROOT
HETATM    1  C1  UNL     1     -32.350   8.289   1.517  1.00 20.00     0.096 C 
HETATM    2  C9  UNL     1     -32.690   7.295   2.544  1.00 20.00     0.332 C 
HETATM    3  N10 UNL     1     -32.078   9.074   0.706  1.00 20.00    -0.195 NA
ENDROOT
BRANCH   2   4
HETATM    4  C8  UNL     1     -33.994   7.656   3.243  1.00 20.00     0.033 A 
HETATM    5  C4  UNL     1     -34.773   6.604   3.983  1.00 20.00     0.008 A 
HETATM    6  C5  UNL     1     -34.063   7.689   4.745  1.00 20.00     0.008 A 
ENDBRANCH   2   4
BRANCH   2   7
HETATM    7  N11 UNL     1     -32.781   5.961   1.939  1.00 20.00     0.106 N 
HETATM    8  C6  UNL     1     -33.681   5.975   0.783  1.00 20.00     0.274 C 
HETATM    9  C2  UNL     1     -33.300   4.702   0.040  1.00 20.00     0.032 C 
HETATM   10  C3  UNL     1     -31.859   4.418   0.451  1.00 20.00     0.032 C 
HETATM   11  C7  UNL     1     -31.485   5.544   1.403  1.00 20.00     0.274 C 
ENDBRANCH   2   7
TORSDOF 2
ENDMDL
MODEL 6
REMARK VINA RESULT:       1.1      1.634      4.015
REMARK  2 active torsions:
REMARK  status: ('A' for Active; 'I' for Inactive)
REMARK    1  A    between atoms: C8_8  and  C9_9 
REMARK    2  A    between atoms: C9_9  and  N11_11 
ROOT
HETATM    1  C1  UNL     1     -33.165   7.667   3.252  1.00 20.00     0.096 C 
HETATM    2  C9  UNL     1     -32.150   7.519   2.200  1.00 20.00     0.332 C 
HETATM    3  N10 UNL     1     -33.964   7.785   4.085  1.00 20.00    -0.195 NA
ENDROOT
BRANCH   2   4
HETATM    4  C8  UNL     1     -32.558   6.452   1.193  1.00 20.00     0.033 A 
HETATM    5  C4  UNL     1     -31.756   5.187   1.064  1.00 20.00     0.008 A 
HETATM    6  C5  UNL     1     -33.133   5.145   1.666  1.00 20.00     0.008 A 
ENDBRANCH   2   4
BRANCH   2   7
HETATM    7  N11 UNL     1     -31.933   8.806   1.529  1.00 20.00     0.106 N 
HETATM    8  C6  UNL     1     -31.832   8.625   0.079  1.00 20.00     0.274 C 
HETATM    9  C2  UNL     1     -32.078  10.028  -0.458  1.00 20.00     0.032 C 
HETATM   10  C3  UNL     1     -32.897  10.729   0.621  1.00 20.00     0.032 C 
HETATM   11  C7  UNL     1     -33.083   9.691   1.719  1.00 20.00     0.274 C 
ENDBRANCH   2   7
TORSDOF 2
ENDMDL
MODEL 7
REMARK VINA RESULT:       1.2      2.238      4.772
REMARK  2 active torsions:
REMARK  status: ('A' for Active; 'I' for Inactive)
REMARK    1  A    between atoms: C8_8  and  C9_9 
REMARK    2  A    between atoms: C9_9  and  N11_11 
ROOT
HETATM    1  C1  UNL     1     -35.289   6.195   3.664  1.00 20.00     0.096 C 
HETATM    2  C9  UNL     1     -33.995   5.624   4.062  1.00 20.00     0.332 C 
HETATM    3  N10 UNL     1     -36.310   6.649   3.352  1.00 20.00    -0.195 NA
ENDROOT
BRANCH   2   4
HETATM    4  C8  UNL     1     -34.015   4.105   3.963  1.00 20.00     0.033 A 
HETATM    5  C4  UNL     1     -32.726   3.330   3.942  1.00 20.00     0.008 A 
HETATM    6  C5  UNL     1     -33.623   3.264   5.147  1.00 20.00     0.008 A 
ENDBRANCH   2   4
BRANCH   2   7
HETATM    7  N11 UNL     1     -32.924   6.181   3.227  1.00 20.00     0.106 N 
HETATM    8  C6  UNL     1     -33.108   5.803   1.825  1.00 20.00     0.274 C 
HETATM    9  C2  UNL     1     -32.234   6.805   1.084  1.00 20.00     0.032 C 
HETATM   10  C3  UNL     1     -32.139   8.012   2.012  1.00 20.00     0.032 C 
HETATM   11  C7  UNL     1     -32.968   7.644   3.233  1.00 20.00     0.274 C 
ENDBRANCH   2   7
TORSDOF 2
ENDMDL
MODEL 8
REMARK VINA RESULT:       1.7      1.314      3.095
REMARK  2 active torsions:
REMARK  status: ('A' for Active; 'I' for Inactive)
REMARK    1  A    between atoms: C8_8  and  C9_9 
REMARK    2  A    between atoms: C9_9  and  N11_11 
ROOT
HETATM    1  C1  UNL     1     -32.366   8.236   1.197  1.00 20.00     0.096 C 
HETATM    2  C9  UNL     1     -32.804   6.856   1.446  1.00 20.00     0.332 C 
HETATM    3  N10 UNL     1     -32.023   9.327   1.000  1.00 20.00    -0.195 NA
ENDROOT
BRANCH   2   4
HETATM    4  C8  UNL     1     -31.709   5.862   1.087  1.00 20.00     0.033 A 
HETATM    5  C4  UNL     1     -31.571   4.576   1.855  1.00 20.00     0.008 A 
HETATM    6  C5  UNL     1     -32.059   4.553   0.433  1.00 20.00     0.008 A 
ENDBRANCH   2   4
BRANCH   2   7
HETATM    7  N11 UNL     1     -33.200   6.702   2.851  1.00 20.00     0.106 N 
HETATM    8  C6  UNL     1     -33.304   8.007   3.508  1.00 20.00     0.274 C 
HETATM    9  C2  UNL     1     -34.140   7.701   4.743  1.00 20.00     0.032 C 
HETATM   10  C3  UNL     1     -34.948   6.459   4.379  1.00 20.00     0.032 C 
HETATM   11  C7  UNL     1     -34.539   6.120   2.953  1.00 20.00     0.274 C 
ENDBRANCH   2   7
TORSDOF 2
ENDMDL
MODEL 9
REMARK VINA RESULT:       2.0      1.447      2.767
REMARK  2 active torsions:
REMARK  status: ('A' for Active; 'I' for Inactive)
REMARK    1  A    between atoms: C8_8  and  C9_9 
REMARK    2  A    between atoms: C9_9  and  N11_11 
ROOT
HETATM    1  C1  UNL     1     -32.103   8.739   3.164  1.00 20.00     0.096 C 
HETATM    2  C9  UNL     1     -32.823   8.610   1.890  1.00 20.00     0.332 C 
HETATM    3  N10 UNL     1     -31.538   8.841   4.172  1.00 20.00    -0.195 NA
ENDROOT
BRANCH   2   4
HETATM    4  C8  UNL     1     -32.066   9.298   0.762  1.00 20.00     0.033 A 
HETATM    5  C4  UNL     1     -32.713   9.485  -0.582  1.00 20.00     0.008 A 
HETATM    6  C5  UNL     1     -32.472  10.673   0.306  1.00 20.00     0.008 A 
ENDBRANCH   2   4
BRANCH   2   7
HETATM    7  N11 UNL     1     -33.036   7.192   1.577  1.00 20.00     0.106 N 
HETATM    8  C6  UNL     1     -31.761   6.519   1.321  1.00 20.00     0.274 C 
HETATM    9  C2  UNL     1     -32.116   5.047   1.480  1.00 20.00     0.032 C 
HETATM   10  C3  UNL     1     -33.334   5.028   2.398  1.00 20.00     0.032 C 
HETATM   11  C7  UNL     1     -33.613   6.488   2.723  1.00 20.00     0.274 C 
ENDBRANCH   2   7
TORSDOF 2
ENDMDL
