MODEL 1
REMARK VINA RESULT:       2.2      0.000      0.000
REMARK  1 active torsions:
REMARK  status: ('A' for Active; 'I' for Inactive)
REMARK    1  A    between atoms: C5_5  and  C9_9 
ROOT
HETATM    1  C1  UNL     1     -34.076   6.423   3.393  1.00 20.00     0.133 C 
HETATM    2  C2  UNL     1     -33.575   5.169   2.712  1.00 20.00     0.093 C 
HETATM    3  C3  UNL     1     -33.006   7.431   3.794  1.00 20.00     0.065 C 
HETATM    4  C4  UNL     1     -32.901   5.459   1.377  1.00 20.00     0.050 C 
HETATM    5  C5  UNL     1     -32.294   8.002   2.557  1.00 20.00     0.058 C 
HETATM    6  C6  UNL     1     -33.585   8.520   4.697  1.00 20.00     0.019 C 
HETATM    7  C7  UNL     1     -33.897   5.827   0.280  1.00 20.00     0.022 C 
HETATM    8  O10 UNL     1     -35.272   6.584   3.628  1.00 20.00    -0.298 OA
HETATM    9  S11 UNL     1     -31.545   6.685   1.513  1.00 20.00    -0.159 SA
ENDROOT
BRANCH   5  10
HETATM   10  C9  UNL     1     -33.137   8.959   1.714  1.00 20.00     0.011 C 
HETATM   11  C8  UNL     1     -32.359   9.520   0.570  1.00 20.00     0.006 C 
ENDBRANCH   5  10
TORSDOF 1
ENDMDL
MODEL 2
REMARK VINA RESULT:       2.9      1.628      3.592
REMARK  1 active torsions:
REMARK  status: ('A' for Active; 'I' for Inactive)
REMARK    1  A    between atoms: C5_5  and  C9_9 
ROOT
HETATM    1  C1  UNL     1     -33.950   7.560   3.709  1.00 20.00     0.133 C 
HETATM    2  C2  UNL     1     -33.388   8.300   2.517  1.00 20.00     0.093 C 
HETATM    3  C3  UNL     1     -34.756   6.306   3.392  1.00 20.00     0.065 C 
HETATM    4  C4  UNL     1     -32.379   7.467   1.736  1.00 20.00     0.050 C 
HETATM    5  C5  UNL     1     -33.872   5.233   2.738  1.00 20.00     0.058 C 
HETATM    6  C6  UNL     1     -35.490   5.793   4.631  1.00 20.00     0.019 C 
HETATM    7  C7  UNL     1     -31.042   7.329   2.459  1.00 20.00     0.022 C 
HETATM    8  O10 UNL     1     -33.783   7.979   4.854  1.00 20.00    -0.298 OA
HETATM    9  S11 UNL     1     -33.047   5.844   1.211  1.00 20.00    -0.159 SA
ENDROOT
BRANCH   5  10
HETATM   10  C9  UNL     1     -32.867   4.567   3.678  1.00 20.00     0.011 C 
HETATM   11  C8  UNL     1     -33.408   3.303   4.260  1.00 20.00     0.006 C 
ENDBRANCH   5  10
TORSDOF 1
ENDMDL
MODEL 3
REMARK VINA RESULT:       2.9      2.146      3.382
REMARK  1 active torsions:
REMARK  status: ('A' for Active; 'I' for Inactive)
REMARK    1  A    between atoms: C5_5  and  C9_9 
ROOT
HETATM    1  C1  UNL     1     -32.632   5.812   1.852  1.00 20.00     0.133 C 
HETATM    2  C2  UNL     1     -33.634   4.694   2.025  1.00 20.00     0.093 C 
HETATM    3  C3  UNL     1     -33.196   7.225   1.930  1.00 20.00     0.065 C 
HETATM    4  C4  UNL     1     -34.280   4.697   3.405  1.00 20.00     0.050 C 
HETATM    5  C5  UNL     1     -33.762   7.517   3.330  1.00 20.00     0.058 C 
HETATM    6  C6  UNL     1     -32.161   8.258   1.484  1.00 20.00     0.019 C 
HETATM    7  C7  UNL     1     -33.336   4.211   4.501  1.00 20.00     0.022 C 
HETATM    8  O10 UNL     1     -31.446   5.574   1.630  1.00 20.00    -0.298 OA
HETATM    9  S11 UNL     1     -35.053   6.304   3.827  1.00 20.00    -0.159 SA
ENDROOT
BRANCH   5  10
HETATM   10  C9  UNL     1     -32.709   7.682   4.426  1.00 20.00     0.011 C 
HETATM   11  C8  UNL     1     -33.253   8.417   5.607  1.00 20.00     0.006 C 
ENDBRANCH   5  10
TORSDOF 1
ENDMDL
MODEL 4
REMARK VINA RESULT:       3.1      1.728      3.290
REMARK  1 active torsions:
REMARK  status: ('A' for Active; 'I' for Inactive)
REMARK    1  A    between atoms: C5_5  and  C9_9 
ROOT
HETATM    1  C1  UNL     1     -32.703   5.901   1.614  1.00 20.00     0.133 C 
HETATM    2  C2  UNL     1     -31.569   6.820   1.222  1.00 20.00     0.093 C 
HETATM    3  C3  UNL     1     -32.914   5.711   3.111  1.00 20.00     0.065 C 
HETATM    4  C4  UNL     1     -31.789   8.253   1.693  1.00 20.00     0.050 C 
HETATM    5  C5  UNL     1     -33.326   7.030   3.783  1.00 20.00     0.058 C 
HETATM    6  C6  UNL     1     -33.897   4.574   3.390  1.00 20.00     0.019 C 
HETATM    7  C7  UNL     1     -32.852   8.986   0.879  1.00 20.00     0.022 C 
HETATM    8  O10 UNL     1     -33.380   5.327   0.763  1.00 20.00    -0.298 OA
HETATM    9  S11 UNL     1     -32.100   8.372   3.495  1.00 20.00    -0.159 SA
ENDROOT
BRANCH   5  10
HETATM   10  C9  UNL     1     -34.744   7.501   3.460  1.00 20.00     0.011 C 
HETATM   11  C8  UNL     1     -35.767   6.493   3.869  1.00 20.00     0.006 C 
ENDBRANCH   5  10
TORSDOF 1
ENDMDL
MODEL 5
REMARK VINA RESULT:       3.5      1.757      3.386
REMARK  1 active torsions:
REMARK  status: ('A' for Active; 'I' for Inactive)
REMARK    1  A    between atoms: C5_5  and  C9_9 
ROOT
HETATM    1  C1  UNL     1     -33.140   8.098   2.712  1.00 20.00     0.133 C 
HETATM    2  C2  UNL     1     -33.721   7.699   4.049  1.00 20.00     0.093 C 
HETATM    3  C3  UNL     1     -32.109   7.142   2.126  1.00 20.00     0.065 C 
HETATM    4  C4  UNL     1     -34.506   6.395   3.979  1.00 20.00     0.050 C 
HETATM    5  C5  UNL     1     -32.741   5.778   1.805  1.00 20.00     0.058 C 
HETATM    6  C6  UNL     1     -31.402   7.763   0.921  1.00 20.00     0.019 C 
HETATM    7  C7  UNL     1     -35.855   6.555   3.281  1.00 20.00     0.022 C 
HETATM    8  O10 UNL     1     -33.469   9.149   2.164  1.00 20.00    -0.298 OA
HETATM    9  S11 UNL     1     -33.531   5.011   3.279  1.00 20.00    -0.159 SA
ENDROOT
BRANCH   5  10
HETATM   10  C9  UNL     1     -33.691   5.775   0.607  1.00 20.00     0.011 C 
HETATM   11  C8  UNL     1     -33.664   4.469  -0.116  1.00 20.00     0.006 C 
ENDBRANCH   5  10
TORSDOF 1
ENDMDL
MODEL 6
REMARK VINA RESULT:       3.7      1.802      3.237
REMARK  1 active torsions:
REMARK  status: ('A' for Active; 'I' for Inactive)
REMARK    1  A    between atoms: C5_5  and  C9_9 
ROOT
HETATM    1  C1  UNL     1     -33.740   5.449   3.116  1.00 20.00     0.133 C 
HETATM    2  C2  UNL     1     -34.782   6.255   3.856  1.00 20.00     0.093 C 
HETATM    3  C3  UNL     1     -33.447   5.895   1.689  1.00 20.00     0.065 C 
HETATM    4  C4  UNL     1     -34.361   7.705   4.062  1.00 20.00     0.050 C 
HETATM    5  C5  UNL     1     -32.835   7.305   1.667  1.00 20.00     0.058 C 
HETATM    6  C6  UNL     1     -32.587   4.866   0.954  1.00 20.00     0.019 C 
HETATM    7  C7  UNL     1     -33.279   7.862   5.127  1.00 20.00     0.022 C 
HETATM    8  O10 UNL     1     -33.197   4.477   3.640  1.00 20.00    -0.298 OA
HETATM    9  S11 UNL     1     -33.911   8.546   2.497  1.00 20.00    -0.159 SA
ENDROOT
BRANCH   5  10
HETATM   10  C9  UNL     1     -31.398   7.391   2.180  1.00 20.00     0.011 C 
HETATM   11  C8  UNL     1     -31.039   8.782   2.588  1.00 20.00     0.006 C 
ENDBRANCH   5  10
TORSDOF 1
ENDMDL
MODEL 7
REMARK VINA RESULT:       4.6      1.432      3.211
REMARK  1 active torsions:
REMARK  status: ('A' for Active; 'I' for Inactive)
REMARK    1  A    between atoms: C5_5  and  C9_9 
ROOT
HETATM    1  C1  UNL     1     -33.662   7.687   3.755  1.00 20.00     0.133 C 
HETATM    2  C2  UNL     1     -33.339   8.805   2.791  1.00 20.00     0.093 C 
HETATM    3  C3  UNL     1     -34.501   6.548   3.191  1.00 20.00     0.065 C 
HETATM    4  C4  UNL     1     -32.485   8.337   1.619  1.00 20.00     0.050 C 
HETATM    5  C5  UNL     1     -33.745   5.802   2.080  1.00 20.00     0.058 C 
HETATM    6  C6  UNL     1     -34.986   5.616   4.303  1.00 20.00     0.019 C 
HETATM    7  C7  UNL     1     -31.035   8.069   2.013  1.00 20.00     0.022 C 
HETATM    8  O10 UNL     1     -33.288   7.730   4.926  1.00 20.00    -0.298 OA
HETATM    9  S11 UNL     1     -33.225   6.923   0.717  1.00 20.00    -0.159 SA
ENDROOT
BRANCH   5  10
HETATM   10  C9  UNL     1     -32.576   4.943   2.563  1.00 20.00     0.011 C 
HETATM   11  C8  UNL     1     -31.595   4.679   1.468  1.00 20.00     0.006 C 
ENDBRANCH   5  10
TORSDOF 1
ENDMDL
