MODEL 1
REMARK VINA RESULT:       6.2      0.000      0.000
REMARK  1 active torsions:
REMARK  status: ('A' for Active; 'I' for Inactive)
REMARK    1  A    between atoms: C11_11  and  C12_12 
ROOT
HETATM    1  C1  UNL     1     -32.764   7.905   0.459  1.00 20.00     0.009 C 
HETATM    2  C2  UNL     1     -32.635   5.401   0.457  1.00 20.00     0.009 C 
HETATM    3  C3  UNL     1     -30.990   6.741   1.793  1.00 20.00     0.009 C 
HETATM    4  C4  UNL     1     -34.529   6.558   1.625  1.00 20.00     0.017 C 
HETATM    5  C5  UNL     1     -32.880   7.901   2.964  1.00 20.00     0.017 C 
HETATM    6  C6  UNL     1     -32.749   5.391   2.962  1.00 20.00     0.017 C 
HETATM    7  C8  UNL     1     -33.587   6.607   0.410  1.00 20.00    -0.013 C 
HETATM    8  C9  UNL     1     -31.934   7.954   1.752  1.00 20.00    -0.013 C 
HETATM    9  C10 UNL     1     -31.803   5.437   1.751  1.00 20.00    -0.013 C 
HETATM   10  C12 UNL     1     -33.716   6.599   2.941  1.00 20.00    -0.011 C 
ENDROOT
BRANCH  10  11
HETATM   11  C11 UNL     1     -34.644   6.550   4.133  1.00 20.00     0.153 A 
HETATM   12  C7  UNL     1     -35.337   5.275   4.527  1.00 20.00     0.201 A 
HETATM   13  O13 UNL     1     -36.018   6.316   3.808  1.00 20.00    -0.380 OA
ENDBRANCH  10  11
TORSDOF 1
ENDMDL
MODEL 2
REMARK VINA RESULT:       6.3      0.052      2.096
REMARK  1 active torsions:
REMARK  status: ('A' for Active; 'I' for Inactive)
REMARK    1  A    between atoms: C11_11  and  C12_12 
ROOT
HETATM    1  C1  UNL     1     -31.000   6.775   1.828  1.00 20.00     0.009 C 
HETATM    2  C2  UNL     1     -32.784   7.956   0.520  1.00 20.00     0.009 C 
HETATM    3  C3  UNL     1     -32.640   5.454   0.468  1.00 20.00     0.009 C 
HETATM    4  C4  UNL     1     -32.896   7.900   3.025  1.00 20.00     0.017 C 
HETATM    5  C5  UNL     1     -32.750   5.392   2.972  1.00 20.00     0.017 C 
HETATM    6  C6  UNL     1     -34.538   6.574   1.661  1.00 20.00     0.017 C 
HETATM    7  C8  UNL     1     -31.952   7.983   1.813  1.00 20.00    -0.013 C 
HETATM    8  C9  UNL     1     -31.806   5.468   1.760  1.00 20.00    -0.013 C 
HETATM    9  C10 UNL     1     -33.599   6.654   0.446  1.00 20.00    -0.013 C 
HETATM   10  C12 UNL     1     -33.724   6.594   2.976  1.00 20.00    -0.011 C 
ENDROOT
BRANCH  10  11
HETATM   11  C11 UNL     1     -34.650   6.516   4.168  1.00 20.00     0.153 A 
HETATM   12  C7  UNL     1     -35.336   5.229   4.538  1.00 20.00     0.201 A 
HETATM   13  O13 UNL     1     -36.023   6.280   3.840  1.00 20.00    -0.380 OA
ENDBRANCH  10  11
TORSDOF 1
ENDMDL
MODEL 3
REMARK VINA RESULT:       6.3      0.040      2.107
REMARK  1 active torsions:
REMARK  status: ('A' for Active; 'I' for Inactive)
REMARK    1  A    between atoms: C11_11  and  C12_12 
ROOT
HETATM    1  C1  UNL     1     -32.590   5.409   0.484  1.00 20.00     0.009 C 
HETATM    2  C2  UNL     1     -30.988   6.802   1.818  1.00 20.00     0.009 C 
HETATM    3  C3  UNL     1     -32.780   7.909   0.459  1.00 20.00     0.009 C 
HETATM    4  C4  UNL     1     -32.725   5.422   2.989  1.00 20.00     0.017 C 
HETATM    5  C5  UNL     1     -34.521   6.531   1.625  1.00 20.00     0.017 C 
HETATM    6  C6  UNL     1     -32.915   7.929   2.962  1.00 20.00     0.017 C 
HETATM    7  C8  UNL     1     -31.770   5.479   1.784  1.00 20.00    -0.013 C 
HETATM    8  C9  UNL     1     -33.571   6.591   0.416  1.00 20.00    -0.013 C 
HETATM    9  C10 UNL     1     -31.962   7.992   1.757  1.00 20.00    -0.013 C 
HETATM   10  C12 UNL     1     -33.719   6.606   2.947  1.00 20.00    -0.011 C 
ENDROOT
BRANCH  10  11
HETATM   11  C11 UNL     1     -34.655   6.548   4.132  1.00 20.00     0.153 A 
HETATM   12  C7  UNL     1     -35.326   5.263   4.531  1.00 20.00     0.201 A 
HETATM   13  O13 UNL     1     -36.022   6.284   3.799  1.00 20.00    -0.380 OA
ENDBRANCH  10  11
TORSDOF 1
ENDMDL
MODEL 4
REMARK VINA RESULT:       6.9      1.888      3.380
REMARK  1 active torsions:
REMARK  status: ('A' for Active; 'I' for Inactive)
REMARK    1  A    between atoms: C11_11  and  C12_12 
ROOT
HETATM    1  C1  UNL     1     -32.482   7.308   2.603  1.00 20.00     0.009 C 
HETATM    2  C2  UNL     1     -34.542   8.050   3.825  1.00 20.00     0.009 C 
HETATM    3  C3  UNL     1     -34.750   6.733   1.702  1.00 20.00     0.009 C 
HETATM    4  C4  UNL     1     -33.085   6.255   4.799  1.00 20.00     0.017 C 
HETATM    5  C5  UNL     1     -33.293   4.936   2.670  1.00 20.00     0.017 C 
HETATM    6  C6  UNL     1     -35.358   5.679   3.894  1.00 20.00     0.017 C 
HETATM    7  C8  UNL     1     -33.093   7.565   3.991  1.00 20.00    -0.013 C 
HETATM    8  C9  UNL     1     -33.301   6.242   1.857  1.00 20.00    -0.013 C 
HETATM    9  C10 UNL     1     -35.371   6.987   3.084  1.00 20.00    -0.013 C 
HETATM   10  C12 UNL     1     -33.909   5.167   4.070  1.00 20.00    -0.011 C 
ENDROOT
BRANCH  10  11
HETATM   11  C11 UNL     1     -33.900   3.882   4.866  1.00 20.00     0.153 A 
HETATM   12  C7  UNL     1     -32.643   3.071   5.020  1.00 20.00     0.201 A 
HETATM   13  O13 UNL     1     -33.673   2.702   4.088  1.00 20.00    -0.380 OA
ENDBRANCH  10  11
TORSDOF 1
ENDMDL
MODEL 5
REMARK VINA RESULT:       6.9      1.892      3.060
REMARK  1 active torsions:
REMARK  status: ('A' for Active; 'I' for Inactive)
REMARK    1  A    between atoms: C11_11  and  C12_12 
ROOT
HETATM    1  C1  UNL     1     -34.642   6.711   1.586  1.00 20.00     0.009 C 
HETATM    2  C2  UNL     1     -32.410   7.296   2.567  1.00 20.00     0.009 C 
HETATM    3  C3  UNL     1     -34.515   8.065   3.692  1.00 20.00     0.009 C 
HETATM    4  C4  UNL     1     -33.231   4.927   2.646  1.00 20.00     0.017 C 
HETATM    5  C5  UNL     1     -35.341   5.699   3.771  1.00 20.00     0.017 C 
HETATM    6  C6  UNL     1     -33.105   6.287   4.756  1.00 20.00     0.017 C 
HETATM    7  C8  UNL     1     -33.202   6.218   1.809  1.00 20.00    -0.013 C 
HETATM    8  C9  UNL     1     -35.318   6.992   2.938  1.00 20.00    -0.013 C 
HETATM    9  C10 UNL     1     -33.075   7.581   3.925  1.00 20.00    -0.013 C 
HETATM   10  C12 UNL     1     -33.901   5.186   4.015  1.00 20.00    -0.011 C 
ENDROOT
BRANCH  10  11
HETATM   11  C11 UNL     1     -33.928   3.917   4.835  1.00 20.00     0.153 A 
HETATM   12  C7  UNL     1     -32.685   3.097   5.042  1.00 20.00     0.201 A 
HETATM   13  O13 UNL     1     -33.689   2.720   4.087  1.00 20.00    -0.380 OA
ENDBRANCH  10  11
TORSDOF 1
ENDMDL
MODEL 6
REMARK VINA RESULT:       6.9      1.885      2.759
REMARK  1 active torsions:
REMARK  status: ('A' for Active; 'I' for Inactive)
REMARK    1  A    between atoms: C11_11  and  C12_12 
ROOT
HETATM    1  C1  UNL     1     -34.561   8.050   3.745  1.00 20.00     0.009 C 
HETATM    2  C2  UNL     1     -34.744   6.694   1.644  1.00 20.00     0.009 C 
HETATM    3  C3  UNL     1     -32.487   7.294   2.557  1.00 20.00     0.009 C 
HETATM    4  C4  UNL     1     -35.368   5.677   3.851  1.00 20.00     0.017 C 
HETATM    5  C5  UNL     1     -33.106   6.280   4.765  1.00 20.00     0.017 C 
HETATM    6  C6  UNL     1     -33.288   4.921   2.659  1.00 20.00     0.017 C 
HETATM    7  C8  UNL     1     -35.379   6.970   3.017  1.00 20.00    -0.013 C 
HETATM    8  C9  UNL     1     -33.111   7.574   3.934  1.00 20.00    -0.013 C 
HETATM    9  C10 UNL     1     -33.294   6.211   1.822  1.00 20.00    -0.013 C 
HETATM   10  C12 UNL     1     -33.919   5.175   4.049  1.00 20.00    -0.011 C 
ENDROOT
BRANCH  10  11
HETATM   11  C11 UNL     1     -33.911   3.904   4.868  1.00 20.00     0.153 A 
HETATM   12  C7  UNL     1     -32.659   3.086   5.023  1.00 20.00     0.201 A 
HETATM   13  O13 UNL     1     -33.702   2.709   4.110  1.00 20.00    -0.380 OA
ENDBRANCH  10  11
TORSDOF 1
ENDMDL
MODEL 7
REMARK VINA RESULT:       7.0      2.155      4.039
REMARK  1 active torsions:
REMARK  status: ('A' for Active; 'I' for Inactive)
REMARK    1  A    between atoms: C11_11  and  C12_12 
ROOT
HETATM    1  C1  UNL     1     -35.131   6.699   3.024  1.00 20.00     0.009 C 
HETATM    2  C2  UNL     1     -33.944   8.088   4.741  1.00 20.00     0.009 C 
HETATM    3  C3  UNL     1     -32.947   5.919   3.976  1.00 20.00     0.009 C 
HETATM    4  C4  UNL     1     -34.068   8.873   2.362  1.00 20.00     0.017 C 
HETATM    5  C5  UNL     1     -33.070   6.697   1.596  1.00 20.00     0.017 C 
HETATM    6  C6  UNL     1     -31.879   8.089   3.317  1.00 20.00     0.017 C 
HETATM    7  C8  UNL     1     -34.824   8.135   3.482  1.00 20.00    -0.013 C 
HETATM    8  C9  UNL     1     -33.823   5.954   2.713  1.00 20.00    -0.013 C 
HETATM    9  C10 UNL     1     -32.629   7.349   4.438  1.00 20.00    -0.013 C 
HETATM   10  C12 UNL     1     -32.743   8.145   2.035  1.00 20.00    -0.011 C 
ENDROOT
BRANCH  10  11
HETATM   11  C11 UNL     1     -32.004   8.872   0.935  1.00 20.00     0.153 A 
HETATM   12  C7  UNL     1     -32.445  10.231   0.467  1.00 20.00     0.201 A 
HETATM   13  O13 UNL     1     -32.750   9.039  -0.275  1.00 20.00    -0.380 OA
ENDBRANCH  10  11
TORSDOF 1
ENDMDL
MODEL 8
REMARK VINA RESULT:       7.1      2.153      4.062
REMARK  1 active torsions:
REMARK  status: ('A' for Active; 'I' for Inactive)
REMARK    1  A    between atoms: C11_11  and  C12_12 
ROOT
HETATM    1  C1  UNL     1     -33.888   8.072   4.732  1.00 20.00     0.009 C 
HETATM    2  C2  UNL     1     -32.933   5.899   3.925  1.00 20.00     0.009 C 
HETATM    3  C3  UNL     1     -35.126   6.715   3.027  1.00 20.00     0.009 C 
HETATM    4  C4  UNL     1     -31.854   8.064   3.265  1.00 20.00     0.017 C 
HETATM    5  C5  UNL     1     -34.053   8.882   2.365  1.00 20.00     0.017 C 
HETATM    6  C6  UNL     1     -33.096   6.703   1.556  1.00 20.00     0.017 C 
HETATM    7  C8  UNL     1     -32.588   7.322   4.394  1.00 20.00    -0.013 C 
HETATM    8  C9  UNL     1     -34.794   8.142   3.492  1.00 20.00    -0.013 C 
HETATM    9  C10 UNL     1     -33.835   5.958   2.680  1.00 20.00    -0.013 C 
HETATM   10  C12 UNL     1     -32.743   8.142   2.002  1.00 20.00    -0.011 C 
ENDROOT
BRANCH  10  11
HETATM   11  C11 UNL     1     -32.018   8.872   0.894  1.00 20.00     0.153 A 
HETATM   12  C7  UNL     1     -32.442  10.248   0.461  1.00 20.00     0.201 A 
HETATM   13  O13 UNL     1     -32.794   9.076  -0.291  1.00 20.00    -0.380 OA
ENDBRANCH  10  11
TORSDOF 1
ENDMDL
MODEL 9
REMARK VINA RESULT:       7.1      2.047      3.832
REMARK  1 active torsions:
REMARK  status: ('A' for Active; 'I' for Inactive)
REMARK    1  A    between atoms: C11_11  and  C12_12 
ROOT
HETATM    1  C1  UNL     1     -32.603   5.458   3.210  1.00 20.00     0.009 C 
HETATM    2  C2  UNL     1     -32.931   5.011   0.765  1.00 20.00     0.009 C 
HETATM    3  C3  UNL     1     -34.742   6.131   2.088  1.00 20.00     0.009 C 
HETATM    4  C4  UNL     1     -31.299   6.763   1.510  1.00 20.00     0.017 C 
HETATM    5  C5  UNL     1     -33.113   7.885   2.838  1.00 20.00     0.017 C 
HETATM    6  C6  UNL     1     -33.444   7.436   0.387  1.00 20.00     0.017 C 
HETATM    7  C8  UNL     1     -31.902   5.387   1.842  1.00 20.00    -0.013 C 
HETATM    8  C9  UNL     1     -33.722   6.512   3.174  1.00 20.00    -0.013 C 
HETATM    9  C10 UNL     1     -34.053   6.063   0.717  1.00 20.00    -0.013 C 
HETATM   10  C12 UNL     1     -32.407   7.841   1.462  1.00 20.00    -0.011 C 
ENDROOT
BRANCH  10  11
HETATM   11  C11 UNL     1     -31.811   9.191   1.134  1.00 20.00     0.153 A 
HETATM   12  C7  UNL     1     -32.681  10.345   0.720  1.00 20.00     0.201 A 
HETATM   13  O13 UNL     1     -31.934   9.579  -0.238  1.00 20.00    -0.380 OA
ENDBRANCH  10  11
TORSDOF 1
ENDMDL
