MODEL 1
REMARK VINA RESULT:      -1.0      0.000      0.000
REMARK  3 active torsions:
REMARK  status: ('A' for Active; 'I' for Inactive)
REMARK    1  A    between atoms: C6_6  and  C9_9 
REMARK    2  A    between atoms: C7_7  and  C9_9 
REMARK    3  A    between atoms: C8_8  and  O10_10 
ROOT
HETATM    1  C1  UNL     1     -34.350   5.975   3.398  1.00 20.00     0.003 C 
HETATM    2  C2  UNL     1     -32.916   6.029   2.875  1.00 20.00     0.007 C 
HETATM    3  C5  UNL     1     -34.675   7.375   3.928  1.00 20.00     0.032 C 
HETATM    4  C7  UNL     1     -32.606   7.515   2.679  1.00 20.00     0.015 C 
HETATM    5  C8  UNL     1     -33.375   8.168   3.830  1.00 20.00     0.122 C 
ENDROOT
BRANCH   4   6
HETATM    6  C9  UNL     1     -33.070   8.017   1.314  1.00 20.00     0.011 C 
BRANCH   6   7
HETATM    7  C6  UNL     1     -32.197   9.147   0.823  1.00 20.00    -0.014 A 
HETATM    8  C3  UNL     1     -32.493   9.820  -0.487  1.00 20.00     0.005 A 
HETATM    9  C4  UNL     1     -32.722  10.556   0.803  1.00 20.00     0.005 A 
ENDBRANCH   6   7
ENDBRANCH   4   6
BRANCH   5  10
HETATM   10  O10 UNL     1     -32.654   8.006   5.048  1.00 20.00    -0.395 OA
HETATM   11  H26 UNL     1     -33.212   7.478   5.644  1.00 20.00     0.210 HD
ENDBRANCH   5  10
TORSDOF 3
ENDMDL
MODEL 2
REMARK VINA RESULT:      -0.8      2.462      5.088
REMARK  3 active torsions:
REMARK  status: ('A' for Active; 'I' for Inactive)
REMARK    1  A    between atoms: C6_6  and  C9_9 
REMARK    2  A    between atoms: C7_7  and  C9_9 
REMARK    3  A    between atoms: C8_8  and  O10_10 
ROOT
HETATM    1  C1  UNL     1     -32.986   7.720   2.890  1.00 20.00     0.003 C 
HETATM    2  C2  UNL     1     -33.335   6.567   1.950  1.00 20.00     0.007 C 
HETATM    3  C5  UNL     1     -33.847   7.537   4.144  1.00 20.00     0.032 C 
HETATM    4  C7  UNL     1     -34.009   5.511   2.829  1.00 20.00     0.015 C 
HETATM    5  C8  UNL     1     -34.774   6.363   3.844  1.00 20.00     0.122 C 
ENDROOT
BRANCH   4   6
HETATM    6  C9  UNL     1     -32.988   4.593   3.498  1.00 20.00     0.011 C 
BRANCH   6   7
HETATM    7  C6  UNL     1     -33.661   3.631   4.448  1.00 20.00    -0.014 A 
HETATM    8  C3  UNL     1     -33.255   2.184   4.475  1.00 20.00     0.005 A 
HETATM    9  C4  UNL     1     -32.909   3.083   5.629  1.00 20.00     0.005 A 
ENDBRANCH   6   7
ENDBRANCH   4   6
BRANCH   5  10
HETATM   10  O10 UNL     1     -35.966   6.871   3.249  1.00 20.00    -0.395 OA
HETATM   11  H26 UNL     1     -36.578   6.122   3.147  1.00 20.00     0.210 HD
ENDBRANCH   5  10
TORSDOF 3
ENDMDL
MODEL 3
REMARK VINA RESULT:      -0.4      2.126      4.413
REMARK  3 active torsions:
REMARK  status: ('A' for Active; 'I' for Inactive)
REMARK    1  A    between atoms: C6_6  and  C9_9 
REMARK    2  A    between atoms: C7_7  and  C9_9 
REMARK    3  A    between atoms: C8_8  and  O10_10 
ROOT
HETATM    1  C1  UNL     1     -31.937   5.902   1.213  1.00 20.00     0.003 C 
HETATM    2  C2  UNL     1     -33.416   6.280   1.166  1.00 20.00     0.007 C 
HETATM    3  C5  UNL     1     -31.207   7.072   1.880  1.00 20.00     0.032 C 
HETATM    4  C7  UNL     1     -33.585   7.404   2.191  1.00 20.00     0.015 C 
HETATM    5  C8  UNL     1     -32.259   8.160   2.076  1.00 20.00     0.122 C 
ENDROOT
BRANCH   4   6
HETATM    6  C9  UNL     1     -33.820   6.859   3.597  1.00 20.00     0.011 C 
BRANCH   6   7
HETATM    7  C6  UNL     1     -34.634   5.587   3.559  1.00 20.00    -0.014 A 
HETATM    8  C3  UNL     1     -34.139   4.349   4.253  1.00 20.00     0.005 A 
HETATM    9  C4  UNL     1     -35.324   5.093   4.800  1.00 20.00     0.005 A 
ENDBRANCH   6   7
ENDBRANCH   4   6
BRANCH   5  10
HETATM   10  O10 UNL     1     -32.273   8.988   0.916  1.00 20.00    -0.395 OA
HETATM   11  H26 UNL     1     -31.540   8.698   0.347  1.00 20.00     0.210 HD
ENDBRANCH   5  10
TORSDOF 3
ENDMDL
MODEL 4
REMARK VINA RESULT:      -0.4      2.076      4.123
REMARK  3 active torsions:
REMARK  status: ('A' for Active; 'I' for Inactive)
REMARK    1  A    between atoms: C6_6  and  C9_9 
REMARK    2  A    between atoms: C7_7  and  C9_9 
REMARK    3  A    between atoms: C8_8  and  O10_10 
ROOT
HETATM    1  C1  UNL     1     -31.690   6.093   1.350  1.00 20.00     0.003 C 
HETATM    2  C2  UNL     1     -33.201   6.287   1.467  1.00 20.00     0.007 C 
HETATM    3  C5  UNL     1     -31.049   7.445   1.676  1.00 20.00     0.032 C 
HETATM    4  C7  UNL     1     -33.388   7.565   2.289  1.00 20.00     0.015 C 
HETATM    5  C8  UNL     1     -32.207   8.426   1.836  1.00 20.00     0.122 C 
ENDROOT
BRANCH   4   6
HETATM    6  C9  UNL     1     -33.358   7.284   3.789  1.00 20.00     0.011 C 
BRANCH   6   7
HETATM    7  C6  UNL     1     -34.743   6.996   4.317  1.00 20.00    -0.014 A 
HETATM    8  C3  UNL     1     -35.826   6.525   3.388  1.00 20.00     0.005 A 
HETATM    9  C4  UNL     1     -35.243   5.581   4.401  1.00 20.00     0.005 A 
ENDBRANCH   6   7
ENDBRANCH   4   6
BRANCH   5  10
HETATM   10  O10 UNL     1     -32.488   9.003   0.563  1.00 20.00    -0.395 OA
HETATM   11  H26 UNL     1     -32.642   8.270  -0.057  1.00 20.00     0.210 HD
ENDBRANCH   5  10
TORSDOF 3
ENDMDL
MODEL 5
REMARK VINA RESULT:      -0.1      1.261      1.718
REMARK  3 active torsions:
REMARK  status: ('A' for Active; 'I' for Inactive)
REMARK    1  A    between atoms: C6_6  and  C9_9 
REMARK    2  A    between atoms: C7_7  and  C9_9 
REMARK    3  A    between atoms: C8_8  and  O10_10 
ROOT
HETATM    1  C1  UNL     1     -35.109   5.149   4.001  1.00 20.00     0.003 C 
HETATM    2  C2  UNL     1     -33.581   5.139   3.976  1.00 20.00     0.007 C 
HETATM    3  C5  UNL     1     -35.540   6.604   3.796  1.00 20.00     0.032 C 
HETATM    4  C7  UNL     1     -33.174   6.454   3.308  1.00 20.00     0.015 C 
HETATM    5  C8  UNL     1     -34.252   7.423   3.797  1.00 20.00     0.122 C 
ENDROOT
BRANCH   4   6
HETATM    6  C9  UNL     1     -33.150   6.335   1.786  1.00 20.00     0.011 C 
BRANCH   6   7
HETATM    7  C6  UNL     1     -32.051   7.182   1.190  1.00 20.00    -0.014 A 
HETATM    8  C3  UNL     1     -32.289   8.637   0.899  1.00 20.00     0.005 A 
HETATM    9  C4  UNL     1     -31.373   8.236   2.021  1.00 20.00     0.005 A 
ENDBRANCH   6   7
ENDBRANCH   4   6
BRANCH   5  10
HETATM   10  O10 UNL     1     -33.973   7.822   5.137  1.00 20.00    -0.395 OA
HETATM   11  H26 UNL     1     -33.219   8.435   5.103  1.00 20.00     0.210 HD
ENDBRANCH   5  10
TORSDOF 3
ENDMDL
MODEL 6
REMARK VINA RESULT:      -0.0      1.497      1.990
REMARK  3 active torsions:
REMARK  status: ('A' for Active; 'I' for Inactive)
REMARK    1  A    between atoms: C6_6  and  C9_9 
REMARK    2  A    between atoms: C7_7  and  C9_9 
REMARK    3  A    between atoms: C8_8  and  O10_10 
ROOT
HETATM    1  C1  UNL     1     -32.615   5.307   0.936  1.00 20.00     0.003 C 
HETATM    2  C2  UNL     1     -31.501   5.930   1.776  1.00 20.00     0.007 C 
HETATM    3  C5  UNL     1     -33.859   6.174   1.149  1.00 20.00     0.032 C 
HETATM    4  C7  UNL     1     -31.961   7.358   2.074  1.00 20.00     0.015 C 
HETATM    5  C8  UNL     1     -33.476   7.196   2.216  1.00 20.00     0.122 C 
ENDROOT
BRANCH   4   6
HETATM    6  C9  UNL     1     -31.585   8.322   0.951  1.00 20.00     0.011 C 
BRANCH   6   7
HETATM    7  C6  UNL     1     -32.680   9.334   0.713  1.00 20.00    -0.014 A 
HETATM    8  C3  UNL     1     -32.344  10.790   0.547  1.00 20.00     0.005 A 
HETATM    9  C4  UNL     1     -32.824   9.991  -0.632  1.00 20.00     0.005 A 
ENDBRANCH   6   7
ENDBRANCH   4   6
BRANCH   5  10
HETATM   10  O10 UNL     1     -33.787   6.649   3.495  1.00 20.00    -0.395 OA
HETATM   11  H26 UNL     1     -33.883   5.688   3.382  1.00 20.00     0.210 HD
ENDBRANCH   5  10
TORSDOF 3
ENDMDL
MODEL 7
REMARK VINA RESULT:       0.1      1.868      4.426
REMARK  3 active torsions:
REMARK  status: ('A' for Active; 'I' for Inactive)
REMARK    1  A    between atoms: C6_6  and  C9_9 
REMARK    2  A    between atoms: C7_7  and  C9_9 
REMARK    3  A    between atoms: C8_8  and  O10_10 
ROOT
HETATM    1  C1  UNL     1     -32.356   8.549   1.137  1.00 20.00     0.003 C 
HETATM    2  C2  UNL     1     -31.872   8.180   2.539  1.00 20.00     0.007 C 
HETATM    3  C5  UNL     1     -33.037   7.301   0.567  1.00 20.00     0.032 C 
HETATM    4  C7  UNL     1     -32.664   6.931   2.930  1.00 20.00     0.015 C 
HETATM    5  C8  UNL     1     -32.808   6.197   1.595  1.00 20.00     0.122 C 
ENDROOT
BRANCH   4   6
HETATM    6  C9  UNL     1     -34.017   7.285   3.544  1.00 20.00     0.011 C 
BRANCH   6   7
HETATM    7  C6  UNL     1     -34.951   6.099   3.525  1.00 20.00    -0.014 A 
HETATM    8  C3  UNL     1     -34.477   4.753   3.997  1.00 20.00     0.005 A 
HETATM    9  C4  UNL     1     -35.473   5.526   4.814  1.00 20.00     0.005 A 
ENDBRANCH   6   7
ENDBRANCH   4   6
BRANCH   5  10
HETATM   10  O10 UNL     1     -31.590   5.529   1.276  1.00 20.00    -0.395 OA
HETATM   11  H26 UNL     1     -30.867   6.047   1.670  1.00 20.00     0.210 HD
ENDBRANCH   5  10
TORSDOF 3
ENDMDL
MODEL 8
REMARK VINA RESULT:       0.4      2.017      2.504
REMARK  3 active torsions:
REMARK  status: ('A' for Active; 'I' for Inactive)
REMARK    1  A    between atoms: C6_6  and  C9_9 
REMARK    2  A    between atoms: C7_7  and  C9_9 
REMARK    3  A    between atoms: C8_8  and  O10_10 
ROOT
HETATM    1  C1  UNL     1     -33.563   5.749   3.450  1.00 20.00     0.003 C 
HETATM    2  C2  UNL     1     -34.170   6.907   2.659  1.00 20.00     0.007 C 
HETATM    3  C5  UNL     1     -32.517   5.098   2.539  1.00 20.00     0.032 C 
HETATM    4  C7  UNL     1     -33.177   7.198   1.531  1.00 20.00     0.015 C 
HETATM    5  C8  UNL     1     -32.642   5.805   1.192  1.00 20.00     0.122 C 
ENDROOT
BRANCH   4   6
HETATM    6  C9  UNL     1     -32.071   8.150   1.980  1.00 20.00     0.011 C 
BRANCH   6   7
HETATM    7  C6  UNL     1     -31.717   9.128   0.886  1.00 20.00    -0.014 A 
HETATM    8  C3  UNL     1     -32.605   9.272  -0.318  1.00 20.00     0.005 A 
HETATM    9  C4  UNL     1     -32.531  10.378   0.696  1.00 20.00     0.005 A 
ENDBRANCH   6   7
ENDBRANCH   4   6
BRANCH   5  10
HETATM   10  O10 UNL     1     -33.594   5.100   0.400  1.00 20.00    -0.395 OA
HETATM   11  H26 UNL     1     -33.973   5.738  -0.229  1.00 20.00     0.210 HD
ENDBRANCH   5  10
TORSDOF 3
ENDMDL
MODEL 9
REMARK VINA RESULT:       0.4      2.033      4.374
REMARK  3 active torsions:
REMARK  status: ('A' for Active; 'I' for Inactive)
REMARK    1  A    between atoms: C6_6  and  C9_9 
REMARK    2  A    between atoms: C7_7  and  C9_9 
REMARK    3  A    between atoms: C8_8  and  O10_10 
ROOT
HETATM    1  C1  UNL     1     -32.796  10.363   1.176  1.00 20.00     0.003 C 
HETATM    2  C2  UNL     1     -32.024   9.458   2.134  1.00 20.00     0.007 C 
HETATM    3  C5  UNL     1     -32.723   9.703  -0.204  1.00 20.00     0.032 C 
HETATM    4  C7  UNL     1     -31.925   8.103   1.429  1.00 20.00     0.015 C 
HETATM    5  C8  UNL     1     -31.792   8.504  -0.042  1.00 20.00     0.122 C 
ENDROOT
BRANCH   4   6
HETATM    6  C9  UNL     1     -33.158   7.239   1.684  1.00 20.00     0.011 C 
BRANCH   6   7
HETATM    7  C6  UNL     1     -33.280   6.883   3.146  1.00 20.00    -0.014 A 
HETATM    8  C3  UNL     1     -34.234   7.635   4.033  1.00 20.00     0.005 A 
HETATM    9  C4  UNL     1     -34.522   6.208   3.660  1.00 20.00     0.005 A 
ENDBRANCH   6   7
ENDBRANCH   4   6
BRANCH   5  10
HETATM   10  O10 UNL     1     -30.458   8.929  -0.310  1.00 20.00    -0.395 OA
HETATM   11  H26 UNL     1     -30.100   9.290   0.520  1.00 20.00     0.210 HD
ENDBRANCH   5  10
TORSDOF 3
ENDMDL
