MODEL 1
REMARK VINA RESULT:       2.2      0.000      0.000
REMARK  0 active torsions:
REMARK  status: ('A' for Active; 'I' for Inactive)
ROOT
HETATM    1  C1  UNL     1     -35.256   5.312   4.498  1.00 20.00     0.000 C 
HETATM    2  C2  UNL     1     -34.357   4.341   3.736  1.00 20.00     0.003 C 
HETATM    3  C3  UNL     1     -35.304   6.677   3.812  1.00 20.00     0.003 C 
HETATM    4  C4  UNL     1     -32.956   4.918   3.539  1.00 20.00     0.044 C 
HETATM    5  C5  UNL     1     -33.901   7.256   3.608  1.00 20.00     0.044 C 
HETATM    6  C6  UNL     1     -32.368   8.483   0.743  1.00 20.00     0.032 C 
HETATM    7  C7  UNL     1     -31.579   8.115   1.970  1.00 20.00     0.112 C 
HETATM    8  C8  UNL     1     -33.414   7.405   0.659  1.00 20.00     0.112 C 
HETATM    9  C9  UNL     1     -33.022   6.277   2.856  1.00 20.00     0.095 A 
HETATM   10  N10 UNL     1     -31.778   6.687   2.194  1.00 20.00    -0.223 NA
HETATM   11  N11 UNL     1     -32.905   6.253   1.394  1.00 20.00    -0.223 NA
ENDROOT
TORSDOF 0
ENDMDL
MODEL 2
REMARK VINA RESULT:       3.0      1.073      1.197
REMARK  0 active torsions:
REMARK  status: ('A' for Active; 'I' for Inactive)
ROOT
HETATM    1  C1  UNL     1     -34.840   6.481   4.482  1.00 20.00     0.000 C 
HETATM    2  C2  UNL     1     -34.726   5.574   3.259  1.00 20.00     0.003 C 
HETATM    3  C3  UNL     1     -34.336   7.890   4.177  1.00 20.00     0.003 C 
HETATM    4  C4  UNL     1     -33.298   5.553   2.714  1.00 20.00     0.044 C 
HETATM    5  C5  UNL     1     -32.907   7.872   3.626  1.00 20.00     0.044 C 
HETATM    6  C6  UNL     1     -31.585   9.306   0.752  1.00 20.00     0.032 C 
HETATM    7  C7  UNL     1     -30.857   8.229   1.509  1.00 20.00     0.112 C 
HETATM    8  C8  UNL     1     -33.022   8.864   0.805  1.00 20.00     0.112 C 
HETATM    9  C9  UNL     1     -32.811   6.964   2.416  1.00 20.00     0.095 A 
HETATM   10  N10 UNL     1     -31.694   7.035   1.467  1.00 20.00    -0.223 NA
HETATM   11  N11 UNL     1     -33.022   7.425   1.040  1.00 20.00    -0.223 NA
ENDROOT
TORSDOF 0
ENDMDL
MODEL 3
REMARK VINA RESULT:       3.2      1.365      2.333
REMARK  0 active torsions:
REMARK  status: ('A' for Active; 'I' for Inactive)
ROOT
HETATM    1  C1  UNL     1     -34.226   5.119   3.539  1.00 20.00     0.000 C 
HETATM    2  C2  UNL     1     -34.128   6.387   4.385  1.00 20.00     0.003 C 
HETATM    3  C3  UNL     1     -33.230   5.148   2.381  1.00 20.00     0.003 C 
HETATM    4  C4  UNL     1     -34.302   7.640   3.529  1.00 20.00     0.044 C 
HETATM    5  C5  UNL     1     -33.397   6.406   1.524  1.00 20.00     0.044 C 
HETATM    6  C6  UNL     1     -31.059   8.769   0.515  1.00 20.00     0.032 C 
HETATM    7  C7  UNL     1     -32.538   9.034   0.443  1.00 20.00     0.112 C 
HETATM    8  C8  UNL     1     -30.897   8.025   1.813  1.00 20.00     0.112 C 
HETATM    9  C9  UNL     1     -33.304   7.653   2.380  1.00 20.00     0.095 A 
HETATM   10  N10 UNL     1     -33.049   8.981   1.808  1.00 20.00    -0.223 NA
HETATM   11  N11 UNL     1     -32.045   8.358   2.647  1.00 20.00    -0.223 NA
ENDROOT
TORSDOF 0
ENDMDL
MODEL 4
REMARK VINA RESULT:       3.9      1.760      4.387
REMARK  0 active torsions:
REMARK  status: ('A' for Active; 'I' for Inactive)
ROOT
HETATM    1  C1  UNL     1     -32.026  10.050  -0.249  1.00 20.00     0.000 C 
HETATM    2  C2  UNL     1     -31.115   8.854   0.017  1.00 20.00     0.003 C 
HETATM    3  C3  UNL     1     -32.784  10.461   1.012  1.00 20.00     0.003 C 
HETATM    4  C4  UNL     1     -31.897   7.681   0.607  1.00 20.00     0.044 C 
HETATM    5  C5  UNL     1     -33.564   9.286   1.610  1.00 20.00     0.044 C 
HETATM    6  C6  UNL     1     -33.584   8.009   4.840  1.00 20.00     0.032 C 
HETATM    7  C7  UNL     1     -34.125   7.227   3.674  1.00 20.00     0.112 C 
HETATM    8  C8  UNL     1     -32.357   8.676   4.279  1.00 20.00     0.112 C 
HETATM    9  C9  UNL     1     -32.646   8.106   1.862  1.00 20.00     0.095 A 
HETATM   10  N10 UNL     1     -33.013   7.003   2.757  1.00 20.00    -0.223 NA
HETATM   11  N11 UNL     1     -31.931   7.894   3.125  1.00 20.00    -0.223 NA
ENDROOT
TORSDOF 0
ENDMDL
MODEL 5
REMARK VINA RESULT:       3.9      1.499      4.023
REMARK  0 active torsions:
REMARK  status: ('A' for Active; 'I' for Inactive)
ROOT
HETATM    1  C1  UNL     1     -31.929   8.060   0.550  1.00 20.00     0.000 C 
HETATM    2  C2  UNL     1     -32.036   8.973   1.769  1.00 20.00     0.003 C 
HETATM    3  C3  UNL     1     -33.020   6.990   0.560  1.00 20.00     0.003 C 
HETATM    4  C4  UNL     1     -32.020   8.169   3.068  1.00 20.00     0.044 C 
HETATM    5  C5  UNL     1     -33.010   6.186   1.863  1.00 20.00     0.044 C 
HETATM    6  C6  UNL     1     -35.575   5.491   4.099  1.00 20.00     0.032 C 
HETATM    7  C7  UNL     1     -34.128   5.311   4.470  1.00 20.00     0.112 C 
HETATM    8  C8  UNL     1     -35.577   6.760   3.290  1.00 20.00     0.112 C 
HETATM    9  C9  UNL     1     -33.111   7.108   3.062  1.00 20.00     0.095 A 
HETATM   10  N10 UNL     1     -33.500   6.625   4.393  1.00 20.00    -0.223 NA
HETATM   11  N11 UNL     1     -34.385   7.512   3.665  1.00 20.00    -0.223 NA
ENDROOT
TORSDOF 0
ENDMDL
MODEL 6
REMARK VINA RESULT:       4.0      1.653      2.212
REMARK  0 active torsions:
REMARK  status: ('A' for Active; 'I' for Inactive)
ROOT
HETATM    1  C1  UNL     1     -33.559   6.052   3.445  1.00 20.00     0.000 C 
HETATM    2  C2  UNL     1     -32.980   5.507   2.142  1.00 20.00     0.003 C 
HETATM    3  C3  UNL     1     -33.921   7.530   3.316  1.00 20.00     0.003 C 
HETATM    4  C4  UNL     1     -31.785   6.337   1.675  1.00 20.00     0.044 C 
HETATM    5  C5  UNL     1     -32.727   8.365   2.843  1.00 20.00     0.044 C 
HETATM    6  C6  UNL     1     -32.454  10.612   0.209  1.00 20.00     0.032 C 
HETATM    7  C7  UNL     1     -31.242  10.033   0.887  1.00 20.00     0.112 C 
HETATM    8  C8  UNL     1     -33.408   9.450   0.139  1.00 20.00     0.112 C 
HETATM    9  C9  UNL     1     -32.161   7.807   1.552  1.00 20.00     0.095 A 
HETATM   10  N10 UNL     1     -31.282   8.590   0.677  1.00 20.00    -0.223 NA
HETATM   11  N11 UNL     1     -32.610   8.232   0.223  1.00 20.00    -0.223 NA
ENDROOT
TORSDOF 0
ENDMDL
MODEL 7
REMARK VINA RESULT:       4.3      1.389      3.982
REMARK  0 active torsions:
REMARK  status: ('A' for Active; 'I' for Inactive)
ROOT
HETATM    1  C1  UNL     1     -31.520   8.962   3.252  1.00 20.00     0.000 C 
HETATM    2  C2  UNL     1     -31.603   8.036   2.041  1.00 20.00     0.003 C 
HETATM    3  C3  UNL     1     -32.199   8.343   4.472  1.00 20.00     0.003 C 
HETATM    4  C4  UNL     1     -33.049   7.645   1.739  1.00 20.00     0.044 C 
HETATM    5  C5  UNL     1     -33.646   7.944   4.172  1.00 20.00     0.044 C 
HETATM    6  C6  UNL     1     -35.293   4.923   4.641  1.00 20.00     0.032 C 
HETATM    7  C7  UNL     1     -35.847   5.998   3.747  1.00 20.00     0.112 C 
HETATM    8  C8  UNL     1     -33.815   4.963   4.367  1.00 20.00     0.112 C 
HETATM    9  C9  UNL     1     -33.711   7.030   2.964  1.00 20.00     0.095 A 
HETATM   10  N10 UNL     1     -34.884   6.198   2.671  1.00 20.00    -0.223 NA
HETATM   11  N11 UNL     1     -33.636   5.568   3.052  1.00 20.00    -0.223 NA
ENDROOT
TORSDOF 0
ENDMDL
MODEL 8
REMARK VINA RESULT:       4.5      2.416      4.312
REMARK  0 active torsions:
REMARK  status: ('A' for Active; 'I' for Inactive)
ROOT
HETATM    1  C1  UNL     1     -32.461  10.615   0.017  1.00 20.00     0.000 C 
HETATM    2  C2  UNL     1     -32.941  10.438   1.456  1.00 20.00     0.003 C 
HETATM    3  C3  UNL     1     -32.467   9.287  -0.737  1.00 20.00     0.003 C 
HETATM    4  C4  UNL     1     -32.122   9.375   2.187  1.00 20.00     0.044 C 
HETATM    5  C5  UNL     1     -31.652   8.218  -0.004  1.00 20.00     0.044 C 
HETATM    6  C6  UNL     1     -32.517   4.994   0.956  1.00 20.00     0.032 C 
HETATM    7  C7  UNL     1     -31.321   5.700   1.534  1.00 20.00     0.112 C 
HETATM    8  C8  UNL     1     -33.556   6.077   0.862  1.00 20.00     0.112 C 
HETATM    9  C9  UNL     1     -32.138   8.059   1.423  1.00 20.00     0.095 A 
HETATM   10  N10 UNL     1     -31.818   6.879   2.235  1.00 20.00    -0.223 NA
HETATM   11  N11 UNL     1     -33.186   7.113   1.820  1.00 20.00    -0.223 NA
ENDROOT
TORSDOF 0
ENDMDL
MODEL 9
REMARK VINA RESULT:       4.7      1.526      2.788
REMARK  0 active torsions:
REMARK  status: ('A' for Active; 'I' for Inactive)
ROOT
HETATM    1  C1  UNL     1     -33.837   8.070   5.011  1.00 20.00     0.000 C 
HETATM    2  C2  UNL     1     -32.458   8.443   4.471  1.00 20.00     0.003 C 
HETATM    3  C3  UNL     1     -34.354   6.783   4.373  1.00 20.00     0.003 C 
HETATM    4  C4  UNL     1     -32.467   8.539   2.945  1.00 20.00     0.044 C 
HETATM    5  C5  UNL     1     -34.359   6.873   2.844  1.00 20.00     0.044 C 
HETATM    6  C6  UNL     1     -33.002   4.744   0.459  1.00 20.00     0.032 C 
HETATM    7  C7  UNL     1     -33.418   6.150   0.123  1.00 20.00     0.112 C 
HETATM    8  C8  UNL     1     -32.379   4.876   1.822  1.00 20.00     0.112 C 
HETATM    9  C9  UNL     1     -32.985   7.249   2.325  1.00 20.00     0.095 A 
HETATM   10  N10 UNL     1     -32.591   7.044   0.926  1.00 20.00    -0.223 NA
HETATM   11  N11 UNL     1     -31.958   6.264   1.970  1.00 20.00    -0.223 NA
ENDROOT
TORSDOF 0
ENDMDL
