MODEL 1
REMARK VINA RESULT:      -1.1      0.000      0.000
REMARK  0 active torsions:
REMARK  status: ('A' for Active; 'I' for Inactive)
ROOT
HETATM    1  C1  UNL     1     -34.886   6.336   4.186  1.00 20.00     0.032 C 
HETATM    2  C2  UNL     1     -31.703   7.232   1.395  1.00 20.00     0.032 C 
HETATM    3  C3  UNL     1     -34.117   5.373   3.304  1.00 20.00     0.109 C 
HETATM    4  C4  UNL     1     -34.035   7.587   4.106  1.00 20.00     0.109 C 
HETATM    5  C5  UNL     1     -32.308   5.881   1.721  1.00 20.00     0.109 C 
HETATM    6  C6  UNL     1     -32.231   8.098   2.519  1.00 20.00     0.109 C 
HETATM    7  N7  UNL     1     -33.636   6.228   2.221  1.00 20.00    -0.250 NA
HETATM    8  N8  UNL     1     -33.588   7.594   2.716  1.00 20.00    -0.250 NA
ENDROOT
TORSDOF 0
ENDMDL
MODEL 2
REMARK VINA RESULT:      -1.1      0.060      3.317
REMARK  0 active torsions:
REMARK  status: ('A' for Active; 'I' for Inactive)
ROOT
HETATM    1  C1  UNL     1     -31.711   7.297   1.447  1.00 20.00     0.032 C 
HETATM    2  C2  UNL     1     -34.904   6.273   4.182  1.00 20.00     0.032 C 
HETATM    3  C3  UNL     1     -32.271   8.128   2.583  1.00 20.00     0.109 C 
HETATM    4  C4  UNL     1     -32.289   5.927   1.741  1.00 20.00     0.109 C 
HETATM    5  C5  UNL     1     -34.083   7.546   4.138  1.00 20.00     0.109 C 
HETATM    6  C6  UNL     1     -34.104   5.346   3.290  1.00 20.00     0.109 C 
HETATM    7  N7  UNL     1     -33.619   7.590   2.753  1.00 20.00    -0.250 NA
HETATM    8  N8  UNL     1     -33.630   6.234   2.231  1.00 20.00    -0.250 NA
ENDROOT
TORSDOF 0
ENDMDL
MODEL 3
REMARK VINA RESULT:      -0.6      0.549      1.897
REMARK  0 active torsions:
REMARK  status: ('A' for Active; 'I' for Inactive)
ROOT
HETATM    1  C1  UNL     1     -34.946   6.498   4.287  1.00 20.00     0.032 C 
HETATM    2  C2  UNL     1     -31.813   7.182   1.381  1.00 20.00     0.032 C 
HETATM    3  C3  UNL     1     -34.274   7.807   3.927  1.00 20.00     0.109 C 
HETATM    4  C4  UNL     1     -34.508   5.594   3.151  1.00 20.00     0.109 C 
HETATM    5  C5  UNL     1     -32.497   8.197   2.276  1.00 20.00     0.109 C 
HETATM    6  C6  UNL     1     -32.727   5.981   1.504  1.00 20.00     0.109 C 
HETATM    7  N7  UNL     1     -32.986   7.380   3.384  1.00 20.00    -0.250 NA
HETATM    8  N8  UNL     1     -33.131   6.015   2.908  1.00 20.00    -0.250 NA
ENDROOT
TORSDOF 0
ENDMDL
MODEL 4
REMARK VINA RESULT:      -0.6      0.542      2.827
REMARK  0 active torsions:
REMARK  status: ('A' for Active; 'I' for Inactive)
ROOT
HETATM    1  C1  UNL     1     -31.791   7.275   1.421  1.00 20.00     0.032 C 
HETATM    2  C2  UNL     1     -34.953   6.419   4.248  1.00 20.00     0.032 C 
HETATM    3  C3  UNL     1     -32.669   6.043   1.497  1.00 20.00     0.109 C 
HETATM    4  C4  UNL     1     -32.525   8.243   2.327  1.00 20.00     0.109 C 
HETATM    5  C5  UNL     1     -34.466   5.557   3.101  1.00 20.00     0.109 C 
HETATM    6  C6  UNL     1     -34.317   7.757   3.935  1.00 20.00     0.109 C 
HETATM    7  N7  UNL     1     -33.099   6.028   2.893  1.00 20.00    -0.250 NA
HETATM    8  N8  UNL     1     -33.007   7.385   3.405  1.00 20.00    -0.250 NA
ENDROOT
TORSDOF 0
ENDMDL
MODEL 5
REMARK VINA RESULT:       1.1      1.022      1.580
REMARK  0 active torsions:
REMARK  status: ('A' for Active; 'I' for Inactive)
ROOT
HETATM    1  C1  UNL     1     -34.052   4.173   3.794  1.00 20.00     0.032 C 
HETATM    2  C2  UNL     1     -32.661   7.937   2.175  1.00 20.00     0.032 C 
HETATM    3  C3  UNL     1     -32.881   4.415   2.862  1.00 20.00     0.109 C 
HETATM    4  C4  UNL     1     -34.366   5.574   4.279  1.00 20.00     0.109 C 
HETATM    5  C5  UNL     1     -32.090   6.552   1.944  1.00 20.00     0.109 C 
HETATM    6  C6  UNL     1     -33.580   7.711   3.357  1.00 20.00     0.109 C 
HETATM    7  N7  UNL     1     -33.229   5.678   2.216  1.00 20.00    -0.250 NA
HETATM    8  N8  UNL     1     -34.146   6.391   3.089  1.00 20.00    -0.250 NA
ENDROOT
TORSDOF 0
ENDMDL
MODEL 6
REMARK VINA RESULT:       1.2      1.181      2.972
REMARK  0 active torsions:
REMARK  status: ('A' for Active; 'I' for Inactive)
ROOT
HETATM    1  C1  UNL     1     -33.341   8.240   3.000  1.00 20.00     0.032 C 
HETATM    2  C2  UNL     1     -34.082   4.039   3.728  1.00 20.00     0.032 C 
HETATM    3  C3  UNL     1     -34.185   7.614   4.092  1.00 20.00     0.109 C 
HETATM    4  C4  UNL     1     -32.564   7.048   2.478  1.00 20.00     0.109 C 
HETATM    5  C5  UNL     1     -34.604   5.230   4.507  1.00 20.00     0.109 C 
HETATM    6  C6  UNL     1     -32.987   4.663   2.888  1.00 20.00     0.109 C 
HETATM    7  N7  UNL     1     -34.542   6.314   3.530  1.00 20.00    -0.250 NA
HETATM    8  N8  UNL     1     -33.543   5.967   2.534  1.00 20.00    -0.250 NA
ENDROOT
TORSDOF 0
ENDMDL
MODEL 7
REMARK VINA RESULT:       1.7      1.706      2.784
REMARK  0 active torsions:
REMARK  status: ('A' for Active; 'I' for Inactive)
ROOT
HETATM    1  C1  UNL     1     -33.001   6.118   2.650  1.00 20.00     0.032 C 
HETATM    2  C2  UNL     1     -31.893   9.778   0.623  1.00 20.00     0.032 C 
HETATM    3  C3  UNL     1     -33.540   7.515   2.881  1.00 20.00     0.109 C 
HETATM    4  C4  UNL     1     -32.272   6.274   1.331  1.00 20.00     0.109 C 
HETATM    5  C5  UNL     1     -32.913   9.593   1.729  1.00 20.00     0.109 C 
HETATM    6  C6  UNL     1     -31.639   8.351   0.182  1.00 20.00     0.109 C 
HETATM    7  N7  UNL     1     -32.462   8.371   2.391  1.00 20.00    -0.250 NA
HETATM    8  N8  UNL     1     -31.679   7.605   1.437  1.00 20.00    -0.250 NA
ENDROOT
TORSDOF 0
ENDMDL
