MODEL 1
REMARK VINA RESULT:      -1.0      0.000      0.000
REMARK  1 active torsions:
REMARK  status: ('A' for Active; 'I' for Inactive)
REMARK    1  A    between atoms: N5_5  and  N6_6 
ROOT
HETATM    1  C1  UNL     1     -33.438   8.105   4.567  1.00 20.00     0.130 C 
HETATM    2  C2  UNL     1     -34.837   6.291   3.791  1.00 20.00     0.130 C 
HETATM    3  N5  UNL     1     -33.911   7.353   3.408  1.00 20.00    -0.259 NA
ENDROOT
BRANCH   3   4
HETATM    4  N6  UNL     1     -32.771   6.915   2.619  1.00 20.00    -0.259 NA
HETATM    5  C3  UNL     1     -32.186   8.063   1.934  1.00 20.00     0.130 C 
HETATM    6  C4  UNL     1     -33.049   5.816   1.697  1.00 20.00     0.130 C 
ENDBRANCH   3   4
TORSDOF 1
ENDMDL
MODEL 2
REMARK VINA RESULT:      -1.0      0.029      2.481
REMARK  1 active torsions:
REMARK  status: ('A' for Active; 'I' for Inactive)
REMARK    1  A    between atoms: N5_5  and  N6_6 
ROOT
HETATM    1  C1  UNL     1     -32.189   8.055   1.939  1.00 20.00     0.130 C 
HETATM    2  C2  UNL     1     -33.050   5.806   1.715  1.00 20.00     0.130 C 
HETATM    3  N5  UNL     1     -32.774   6.910   2.630  1.00 20.00    -0.259 NA
ENDROOT
BRANCH   3   4
HETATM    4  N6  UNL     1     -33.915   7.353   3.416  1.00 20.00    -0.259 NA
HETATM    5  C3  UNL     1     -33.441   8.066   4.598  1.00 20.00     0.130 C 
HETATM    6  C4  UNL     1     -34.866   6.299   3.763  1.00 20.00     0.130 C 
ENDBRANCH   3   4
TORSDOF 1
ENDMDL
MODEL 3
REMARK VINA RESULT:      -0.9      0.536      3.129
REMARK  1 active torsions:
REMARK  status: ('A' for Active; 'I' for Inactive)
REMARK    1  A    between atoms: N5_5  and  N6_6 
ROOT
HETATM    1  C1  UNL     1     -32.754   5.699   1.523  1.00 20.00     0.130 C 
HETATM    2  C2  UNL     1     -32.044   7.980   1.901  1.00 20.00     0.130 C 
HETATM    3  N5  UNL     1     -33.100   6.992   2.106  1.00 20.00    -0.259 NA
ENDROOT
BRANCH   3   4
HETATM    4  N6  UNL     1     -33.499   6.804   3.492  1.00 20.00    -0.259 NA
HETATM    5  C3  UNL     1     -34.555   5.798   3.560  1.00 20.00     0.130 C 
HETATM    6  C4  UNL     1     -33.871   8.030   4.195  1.00 20.00     0.130 C 
ENDBRANCH   3   4
TORSDOF 1
ENDMDL
MODEL 4
REMARK VINA RESULT:      -0.9      0.549      2.018
REMARK  1 active torsions:
REMARK  status: ('A' for Active; 'I' for Inactive)
REMARK    1  A    between atoms: N5_5  and  N6_6 
ROOT
HETATM    1  C1  UNL     1     -34.555   5.782   3.549  1.00 20.00     0.130 C 
HETATM    2  C2  UNL     1     -33.876   8.019   4.173  1.00 20.00     0.130 C 
HETATM    3  N5  UNL     1     -33.499   6.788   3.482  1.00 20.00    -0.259 NA
ENDROOT
BRANCH   3   4
HETATM    4  N6  UNL     1     -33.090   6.965   2.097  1.00 20.00    -0.259 NA
HETATM    5  C3  UNL     1     -32.721   5.671   1.532  1.00 20.00     0.130 C 
HETATM    6  C4  UNL     1     -32.045   7.966   1.890  1.00 20.00     0.130 C 
ENDBRANCH   3   4
TORSDOF 1
ENDMDL
MODEL 5
REMARK VINA RESULT:      -0.9      0.916      2.782
REMARK  1 active torsions:
REMARK  status: ('A' for Active; 'I' for Inactive)
REMARK    1  A    between atoms: N5_5  and  N6_6 
ROOT
HETATM    1  C1  UNL     1     -32.458   5.582   1.487  1.00 20.00     0.130 C 
HETATM    2  C2  UNL     1     -32.134   7.867   2.211  1.00 20.00     0.130 C 
HETATM    3  N5  UNL     1     -33.106   6.816   1.922  1.00 20.00    -0.259 NA
ENDROOT
BRANCH   3   4
HETATM    4  N6  UNL     1     -34.026   6.519   3.009  1.00 20.00    -0.259 NA
HETATM    5  C3  UNL     1     -33.920   7.556   4.031  1.00 20.00     0.130 C 
HETATM    6  C4  UNL     1     -33.891   5.180   3.578  1.00 20.00     0.130 C 
ENDBRANCH   3   4
TORSDOF 1
ENDMDL
MODEL 6
REMARK VINA RESULT:      -0.4      1.315      1.670
REMARK  1 active torsions:
REMARK  status: ('A' for Active; 'I' for Inactive)
REMARK    1  A    between atoms: N5_5  and  N6_6 
ROOT
HETATM    1  C1  UNL     1     -33.794   7.785   4.131  1.00 20.00     0.130 C 
HETATM    2  C2  UNL     1     -35.556   6.128   4.171  1.00 20.00     0.130 C 
HETATM    3  N5  UNL     1     -34.390   6.637   3.453  1.00 20.00    -0.259 NA
ENDROOT
BRANCH   3   4
HETATM    4  N6  UNL     1     -33.359   5.648   3.182  1.00 20.00    -0.259 NA
HETATM    5  C3  UNL     1     -32.990   5.706   1.771  1.00 20.00     0.130 C 
HETATM    6  C4  UNL     1     -33.689   4.287   3.602  1.00 20.00     0.130 C 
ENDBRANCH   3   4
TORSDOF 1
ENDMDL
MODEL 7
REMARK VINA RESULT:      -0.4      1.319      2.757
REMARK  1 active torsions:
REMARK  status: ('A' for Active; 'I' for Inactive)
REMARK    1  A    between atoms: N5_5  and  N6_6 
ROOT
HETATM    1  C1  UNL     1     -32.999   5.686   1.745  1.00 20.00     0.130 C 
HETATM    2  C2  UNL     1     -33.704   4.284   3.585  1.00 20.00     0.130 C 
HETATM    3  N5  UNL     1     -33.358   5.637   3.159  1.00 20.00    -0.259 NA
ENDROOT
BRANCH   3   4
HETATM    4  N6  UNL     1     -34.373   6.642   3.433  1.00 20.00    -0.259 NA
HETATM    5  C3  UNL     1     -33.754   7.789   4.092  1.00 20.00     0.130 C 
HETATM    6  C4  UNL     1     -35.535   6.154   4.173  1.00 20.00     0.130 C 
ENDBRANCH   3   4
TORSDOF 1
ENDMDL
MODEL 8
REMARK VINA RESULT:      -0.4      1.029      2.108
REMARK  1 active torsions:
REMARK  status: ('A' for Active; 'I' for Inactive)
REMARK    1  A    between atoms: N5_5  and  N6_6 
ROOT
HETATM    1  C1  UNL     1     -32.072   7.977   2.172  1.00 20.00     0.130 C 
HETATM    2  C2  UNL     1     -33.691   7.658   3.940  1.00 20.00     0.130 C 
HETATM    3  N5  UNL     1     -33.367   7.410   2.538  1.00 20.00    -0.259 NA
ENDROOT
BRANCH   3   4
HETATM    4  N6  UNL     1     -33.411   6.013   2.138  1.00 20.00    -0.259 NA
HETATM    5  C3  UNL     1     -33.715   5.185   3.301  1.00 20.00     0.130 C 
HETATM    6  C4  UNL     1     -32.223   5.539   1.430  1.00 20.00     0.130 C 
ENDBRANCH   3   4
TORSDOF 1
ENDMDL
MODEL 9
REMARK VINA RESULT:      -0.4      1.474      2.439
REMARK  1 active torsions:
REMARK  status: ('A' for Active; 'I' for Inactive)
REMARK    1  A    between atoms: N5_5  and  N6_6 
ROOT
HETATM    1  C1  UNL     1     -33.700   6.675   3.035  1.00 20.00     0.130 C 
HETATM    2  C2  UNL     1     -32.401   5.500   1.367  1.00 20.00     0.130 C 
HETATM    3  N5  UNL     1     -32.980   6.780   1.770  1.00 20.00    -0.259 NA
ENDROOT
BRANCH   3   4
HETATM    4  N6  UNL     1     -32.034   7.882   1.844  1.00 20.00    -0.259 NA
HETATM    5  C3  UNL     1     -32.025   8.423   3.199  1.00 20.00     0.130 C 
HETATM    6  C4  UNL     1     -32.232   8.928   0.843  1.00 20.00     0.130 C 
ENDBRANCH   3   4
TORSDOF 1
ENDMDL
