MODEL 1
REMARK VINA RESULT:      -1.6      0.000      0.000
REMARK  0 active torsions:
REMARK  status: ('A' for Active; 'I' for Inactive)
ROOT
HETATM    1  C1  UNL     1     -35.220   6.482   3.983  1.00 20.00    -0.029 A 
HETATM    2  C2  UNL     1     -34.534   5.410   3.573  1.00 20.00    -0.018 A 
HETATM    3  C3  UNL     1     -32.915   6.055   1.764  1.00 20.00     0.135 A 
HETATM    4  C4  UNL     1     -34.409   7.743   4.013  1.00 20.00     0.033 A 
HETATM    5  C5  UNL     1     -32.691   7.557   1.998  1.00 20.00     0.084 A 
HETATM    6  C6  UNL     1     -33.146   5.782   3.260  1.00 20.00     0.082 A 
HETATM    7  C7  UNL     1     -33.026   7.317   3.499  1.00 20.00     0.011 A 
HETATM    8  O8  UNL     1     -32.916   5.356   0.772  1.00 20.00    -0.297 OA
ENDROOT
TORSDOF 0
ENDMDL
MODEL 2
REMARK VINA RESULT:      -1.4      1.568      2.786
REMARK  0 active torsions:
REMARK  status: ('A' for Active; 'I' for Inactive)
ROOT
HETATM    1  C1  UNL     1     -31.710   6.720   1.638  1.00 20.00    -0.029 A 
HETATM    2  C2  UNL     1     -32.693   5.816   1.560  1.00 20.00    -0.018 A 
HETATM    3  C3  UNL     1     -34.167   5.960   3.588  1.00 20.00     0.135 A 
HETATM    4  C4  UNL     1     -32.131   8.017   2.260  1.00 20.00     0.033 A 
HETATM    5  C5  UNL     1     -33.946   7.394   4.094  1.00 20.00     0.084 A 
HETATM    6  C6  UNL     1     -33.935   6.364   2.122  1.00 20.00     0.082 A 
HETATM    7  C7  UNL     1     -33.605   7.799   2.631  1.00 20.00     0.011 A 
HETATM    8  O8  UNL     1     -34.419   4.910   4.141  1.00 20.00    -0.297 OA
ENDROOT
TORSDOF 0
ENDMDL
MODEL 3
REMARK VINA RESULT:      -1.4      1.570      2.750
REMARK  0 active torsions:
REMARK  status: ('A' for Active; 'I' for Inactive)
ROOT
HETATM    1  C1  UNL     1     -33.126   7.500   3.460  1.00 20.00    -0.029 A 
HETATM    2  C2  UNL     1     -32.986   6.358   2.777  1.00 20.00    -0.018 A 
HETATM    3  C3  UNL     1     -34.206   4.497   3.940  1.00 20.00     0.135 A 
HETATM    4  C4  UNL     1     -34.477   7.666   4.088  1.00 20.00     0.033 A 
HETATM    5  C5  UNL     1     -35.271   5.228   4.774  1.00 20.00     0.084 A 
HETATM    6  C6  UNL     1     -34.226   5.571   2.840  1.00 20.00     0.082 A 
HETATM    7  C7  UNL     1     -35.226   6.375   3.724  1.00 20.00     0.011 A 
HETATM    8  O8  UNL     1     -33.585   3.467   4.098  1.00 20.00    -0.297 OA
ENDROOT
TORSDOF 0
ENDMDL
MODEL 4
REMARK VINA RESULT:      -1.0      2.105      2.839
REMARK  0 active torsions:
REMARK  status: ('A' for Active; 'I' for Inactive)
ROOT
HETATM    1  C1  UNL     1     -34.221   4.417   4.007  1.00 20.00    -0.029 A 
HETATM    2  C2  UNL     1     -35.048   5.370   4.450  1.00 20.00    -0.018 A 
HETATM    3  C3  UNL     1     -33.972   7.627   4.223  1.00 20.00     0.135 A 
HETATM    4  C4  UNL     1     -33.411   4.827   2.815  1.00 20.00     0.033 A 
HETATM    5  C5  UNL     1     -32.927   7.419   3.115  1.00 20.00     0.084 A 
HETATM    6  C6  UNL     1     -34.923   6.578   3.623  1.00 20.00     0.082 A 
HETATM    7  C7  UNL     1     -33.828   6.282   2.554  1.00 20.00     0.011 A 
HETATM    8  O8  UNL     1     -34.019   8.342   5.201  1.00 20.00    -0.297 OA
ENDROOT
TORSDOF 0
ENDMDL
MODEL 5
REMARK VINA RESULT:      -0.9      1.508      2.250
REMARK  0 active torsions:
REMARK  status: ('A' for Active; 'I' for Inactive)
ROOT
HETATM    1  C1  UNL     1     -34.268   6.082   4.152  1.00 20.00    -0.029 A 
HETATM    2  C2  UNL     1     -34.175   7.277   3.557  1.00 20.00    -0.018 A 
HETATM    3  C3  UNL     1     -32.200   7.322   2.006  1.00 20.00     0.135 A 
HETATM    4  C4  UNL     1     -33.889   4.935   3.265  1.00 20.00     0.033 A 
HETATM    5  C5  UNL     1     -31.964   5.839   1.678  1.00 20.00     0.084 A 
HETATM    6  C6  UNL     1     -33.716   7.120   2.170  1.00 20.00     0.082 A 
HETATM    7  C7  UNL     1     -33.478   5.597   1.942  1.00 20.00     0.011 A 
HETATM    8  O8  UNL     1     -31.465   8.282   2.106  1.00 20.00    -0.297 OA
ENDROOT
TORSDOF 0
ENDMDL
MODEL 6
REMARK VINA RESULT:      -0.8      1.005      2.301
REMARK  0 active torsions:
REMARK  status: ('A' for Active; 'I' for Inactive)
ROOT
HETATM    1  C1  UNL     1     -32.321   8.409   3.440  1.00 20.00    -0.029 A 
HETATM    2  C2  UNL     1     -32.131   8.074   2.159  1.00 20.00    -0.018 A 
HETATM    3  C3  UNL     1     -32.651   5.641   1.813  1.00 20.00     0.135 A 
HETATM    4  C4  UNL     1     -33.486   7.716   4.079  1.00 20.00     0.033 A 
HETATM    5  C5  UNL     1     -33.603   5.307   2.972  1.00 20.00     0.084 A 
HETATM    6  C6  UNL     1     -33.143   7.097   1.733  1.00 20.00     0.082 A 
HETATM    7  C7  UNL     1     -34.036   6.801   2.975  1.00 20.00     0.011 A 
HETATM    8  O8  UNL     1     -31.823   5.000   1.202  1.00 20.00    -0.297 OA
ENDROOT
TORSDOF 0
ENDMDL
MODEL 7
REMARK VINA RESULT:      -0.4      1.900      2.763
REMARK  0 active torsions:
REMARK  status: ('A' for Active; 'I' for Inactive)
ROOT
HETATM    1  C1  UNL     1     -33.105   5.763   1.832  1.00 20.00    -0.029 A 
HETATM    2  C2  UNL     1     -32.029   6.268   1.219  1.00 20.00    -0.018 A 
HETATM    3  C3  UNL     1     -32.204   8.769   1.080  1.00 20.00     0.135 A 
HETATM    4  C4  UNL     1     -33.619   6.617   2.951  1.00 20.00     0.033 A 
HETATM    5  C5  UNL     1     -33.163   9.128   2.225  1.00 20.00     0.084 A 
HETATM    6  C6  UNL     1     -31.647   7.548   1.832  1.00 20.00     0.082 A 
HETATM    7  C7  UNL     1     -32.689   7.839   2.954  1.00 20.00     0.011 A 
HETATM    8  O8  UNL     1     -31.980   9.261  -0.006  1.00 20.00    -0.297 OA
ENDROOT
TORSDOF 0
ENDMDL
MODEL 8
REMARK VINA RESULT:      -0.2      2.008      3.648
REMARK  0 active torsions:
REMARK  status: ('A' for Active; 'I' for Inactive)
ROOT
HETATM    1  C1  UNL     1     -32.423   9.523   0.601  1.00 20.00    -0.029 A 
HETATM    2  C2  UNL     1     -32.600   9.577   1.926  1.00 20.00    -0.018 A 
HETATM    3  C3  UNL     1     -33.215   7.310   2.813  1.00 20.00     0.135 A 
HETATM    4  C4  UNL     1     -31.784   8.252   0.128  1.00 20.00     0.033 A 
HETATM    5  C5  UNL     1     -32.658   6.345   1.754  1.00 20.00     0.084 A 
HETATM    6  C6  UNL     1     -32.106   8.345   2.556  1.00 20.00     0.082 A 
HETATM    7  C7  UNL     1     -31.593   7.425   1.408  1.00 20.00     0.011 A 
HETATM    8  O8  UNL     1     -34.170   7.269   3.558  1.00 20.00    -0.297 OA
ENDROOT
TORSDOF 0
ENDMDL
MODEL 9
REMARK VINA RESULT:      -0.1      1.845      3.332
REMARK  0 active torsions:
REMARK  status: ('A' for Active; 'I' for Inactive)
ROOT
HETATM    1  C1  UNL     1     -32.316   7.179   1.086  1.00 20.00    -0.029 A 
HETATM    2  C2  UNL     1     -32.190   7.941   2.178  1.00 20.00    -0.018 A 
HETATM    3  C3  UNL     1     -34.058   7.464   3.788  1.00 20.00     0.135 A 
HETATM    4  C4  UNL     1     -32.829   5.799   1.368  1.00 20.00     0.033 A 
HETATM    5  C5  UNL     1     -34.509   6.045   3.407  1.00 20.00     0.084 A 
HETATM    6  C6  UNL     1     -32.602   7.190   3.373  1.00 20.00     0.082 A 
HETATM    7  C7  UNL     1     -33.067   5.785   2.885  1.00 20.00     0.011 A 
HETATM    8  O8  UNL     1     -34.636   8.431   4.237  1.00 20.00    -0.297 OA
ENDROOT
TORSDOF 0
ENDMDL
