MODEL 1
REMARK VINA RESULT:      -0.8      0.000      0.000
REMARK  2 active torsions:
REMARK  status: ('A' for Active; 'I' for Inactive)
REMARK    1  A    between atoms: C6_6  and  N9_9 
REMARK    2  A    between atoms: C7_7  and  N9_9 
ROOT
HETATM    1  C1  UNL     1     -34.116   4.951   3.911  1.00 20.00     0.100 C 
HETATM    2  C4  UNL     1     -35.895   6.611   3.528  1.00 20.00     0.065 C 
HETATM    3  C5  UNL     1     -33.655   7.312   4.426  1.00 20.00     0.065 C 
HETATM    4  C7  UNL     1     -34.389   6.340   3.497  1.00 20.00     0.237 C 
HETATM    5  N8  UNL     1     -33.902   3.858   4.237  1.00 20.00    -0.195 NA
ENDROOT
BRANCH   4   6
HETATM    6  N9  UNL     1     -33.914   6.542   2.140  1.00 20.00     0.110 N 
HETATM    7  H23 UNL     1     -34.226   7.454   1.802  1.00 20.00     0.318 HD
BRANCH   6   8
HETATM    8  C6  UNL     1     -32.457   6.486   2.079  1.00 20.00     0.214 C 
HETATM    9  C2  UNL     1     -31.926   7.840   1.631  1.00 20.00     0.042 C 
HETATM   10  C3  UNL     1     -32.047   5.376   1.123  1.00 20.00     0.042 C 
ENDBRANCH   6   8
ENDBRANCH   4   6
TORSDOF 2
ENDMDL
MODEL 2
REMARK VINA RESULT:      -0.6      1.852      4.348
REMARK  2 active torsions:
REMARK  status: ('A' for Active; 'I' for Inactive)
REMARK    1  A    between atoms: C6_6  and  N9_9 
REMARK    2  A    between atoms: C7_7  and  N9_9 
ROOT
HETATM    1  C1  UNL     1     -32.376   9.009   0.818  1.00 20.00     0.100 C 
HETATM    2  C4  UNL     1     -32.215   6.622   1.402  1.00 20.00     0.065 C 
HETATM    3  C5  UNL     1     -31.247   8.382   2.910  1.00 20.00     0.065 C 
HETATM    4  C7  UNL     1     -32.379   8.047   1.935  1.00 20.00     0.237 C 
HETATM    5  N8  UNL     1     -32.374   9.765  -0.063  1.00 20.00    -0.195 NA
ENDROOT
BRANCH   4   6
HETATM    6  N9  UNL     1     -33.644   8.130   2.641  1.00 20.00     0.110 N 
HETATM    7  H23 UNL     1     -34.403   7.865   2.012  1.00 20.00     0.318 HD
BRANCH   6   8
HETATM    8  C6  UNL     1     -33.658   7.245   3.802  1.00 20.00     0.214 C 
HETATM    9  C2  UNL     1     -34.932   6.412   3.777  1.00 20.00     0.042 C 
HETATM   10  C3  UNL     1     -33.560   8.087   5.065  1.00 20.00     0.042 C 
ENDBRANCH   6   8
ENDBRANCH   4   6
TORSDOF 2
ENDMDL
MODEL 3
REMARK VINA RESULT:      -0.5      1.375      3.704
REMARK  2 active torsions:
REMARK  status: ('A' for Active; 'I' for Inactive)
REMARK    1  A    between atoms: C6_6  and  N9_9 
REMARK    2  A    between atoms: C7_7  and  N9_9 
ROOT
HETATM    1  C1  UNL     1     -32.248   7.474   1.591  1.00 20.00     0.100 C 
HETATM    2  C4  UNL     1     -33.969   5.913   0.773  1.00 20.00     0.065 C 
HETATM    3  C5  UNL     1     -31.672   5.093   1.377  1.00 20.00     0.065 C 
HETATM    4  C7  UNL     1     -32.775   6.102   1.711  1.00 20.00     0.237 C 
HETATM    5  N8  UNL     1     -31.834   8.554   1.495  1.00 20.00    -0.195 NA
ENDROOT
BRANCH   4   6
HETATM    6  N9  UNL     1     -33.221   5.874   3.073  1.00 20.00     0.110 N 
HETATM    7  H23 UNL     1     -32.445   6.034   3.717  1.00 20.00     0.318 HD
BRANCH   6   8
HETATM    8  C6  UNL     1     -34.321   6.766   3.423  1.00 20.00     0.214 C 
HETATM    9  C2  UNL     1     -33.808   7.840   4.372  1.00 20.00     0.042 C 
HETATM   10  C3  UNL     1     -35.439   5.947   4.051  1.00 20.00     0.042 C 
ENDBRANCH   6   8
ENDBRANCH   4   6
TORSDOF 2
ENDMDL
MODEL 4
REMARK VINA RESULT:      -0.2      1.666      3.786
REMARK  2 active torsions:
REMARK  status: ('A' for Active; 'I' for Inactive)
REMARK    1  A    between atoms: C6_6  and  N9_9 
REMARK    2  A    between atoms: C7_7  and  N9_9 
ROOT
HETATM    1  C1  UNL     1     -32.220   6.559   1.526  1.00 20.00     0.100 C 
HETATM    2  C4  UNL     1     -31.187   8.351   2.862  1.00 20.00     0.065 C 
HETATM    3  C5  UNL     1     -32.339   8.868   0.690  1.00 20.00     0.065 C 
HETATM    4  C7  UNL     1     -32.341   7.971   1.931  1.00 20.00     0.237 C 
HETATM    5  N8  UNL     1     -32.123   5.446   1.208  1.00 20.00    -0.195 NA
ENDROOT
BRANCH   4   6
HETATM    6  N9  UNL     1     -33.589   8.164   2.645  1.00 20.00     0.110 N 
HETATM    7  H23 UNL     1     -34.373   7.962   2.022  1.00 20.00     0.318 HD
BRANCH   6   8
HETATM    8  C6  UNL     1     -33.671   7.287   3.809  1.00 20.00     0.214 C 
HETATM    9  C2  UNL     1     -34.974   6.503   3.750  1.00 20.00     0.042 C 
HETATM   10  C3  UNL     1     -33.579   8.133   5.070  1.00 20.00     0.042 C 
ENDBRANCH   6   8
ENDBRANCH   4   6
TORSDOF 2
ENDMDL
MODEL 5
REMARK VINA RESULT:      -0.2      1.149      2.103
REMARK  2 active torsions:
REMARK  status: ('A' for Active; 'I' for Inactive)
REMARK    1  A    between atoms: C6_6  and  N9_9 
REMARK    2  A    between atoms: C7_7  and  N9_9 
ROOT
HETATM    1  C1  UNL     1     -33.711   7.401   4.372  1.00 20.00     0.100 C 
HETATM    2  C4  UNL     1     -33.842   4.975   3.963  1.00 20.00     0.065 C 
HETATM    3  C5  UNL     1     -35.837   6.453   3.579  1.00 20.00     0.065 C 
HETATM    4  C7  UNL     1     -34.309   6.362   3.514  1.00 20.00     0.237 C 
HETATM    5  N8  UNL     1     -33.239   8.218   5.048  1.00 20.00    -0.195 NA
ENDROOT
BRANCH   4   6
HETATM    6  N9  UNL     1     -33.887   6.566   2.141  1.00 20.00     0.110 N 
HETATM    7  H23 UNL     1     -34.208   7.480   1.818  1.00 20.00     0.318 HD
BRANCH   6   8
HETATM    8  C6  UNL     1     -32.434   6.505   2.023  1.00 20.00     0.214 C 
HETATM    9  C2  UNL     1     -31.912   7.863   1.576  1.00 20.00     0.042 C 
HETATM   10  C3  UNL     1     -32.066   5.407   1.035  1.00 20.00     0.042 C 
ENDBRANCH   6   8
ENDBRANCH   4   6
TORSDOF 2
ENDMDL
MODEL 6
REMARK VINA RESULT:       0.2      1.998      3.472
REMARK  2 active torsions:
REMARK  status: ('A' for Active; 'I' for Inactive)
REMARK    1  A    between atoms: C6_6  and  N9_9 
REMARK    2  A    between atoms: C7_7  and  N9_9 
ROOT
HETATM    1  C1  UNL     1     -33.479   7.440   3.176  1.00 20.00     0.100 C 
HETATM    2  C4  UNL     1     -31.235   8.307   2.645  1.00 20.00     0.065 C 
HETATM    3  C5  UNL     1     -32.103   6.224   1.540  1.00 20.00     0.065 C 
HETATM    4  C7  UNL     1     -32.479   7.597   2.104  1.00 20.00     0.237 C 
HETATM    5  N8  UNL     1     -34.266   7.318   4.020  1.00 20.00    -0.195 NA
ENDROOT
BRANCH   4   6
HETATM    6  N9  UNL     1     -33.038   8.404   1.035  1.00 20.00     0.110 N 
HETATM    7  H23 UNL     1     -33.908   8.835   1.352  1.00 20.00     0.318 HD
BRANCH   6   8
HETATM    8  C6  UNL     1     -32.110   9.453   0.626  1.00 20.00     0.214 C 
HETATM    9  C2  UNL     1     -32.838  10.790   0.630  1.00 20.00     0.042 C 
HETATM   10  C3  UNL     1     -31.560   9.115  -0.752  1.00 20.00     0.042 C 
ENDBRANCH   6   8
ENDBRANCH   4   6
TORSDOF 2
ENDMDL
MODEL 7
REMARK VINA RESULT:       0.6      0.861      1.459
REMARK  2 active torsions:
REMARK  status: ('A' for Active; 'I' for Inactive)
REMARK    1  A    between atoms: C6_6  and  N9_9 
REMARK    2  A    between atoms: C7_7  and  N9_9 
ROOT
HETATM    1  C1  UNL     1     -34.392   5.321   4.151  1.00 20.00     0.100 C 
HETATM    2  C4  UNL     1     -35.154   7.133   2.667  1.00 20.00     0.065 C 
HETATM    3  C5  UNL     1     -34.245   7.640   4.954  1.00 20.00     0.065 C 
HETATM    4  C7  UNL     1     -34.144   6.714   3.738  1.00 20.00     0.237 C 
HETATM    5  N8  UNL     1     -34.588   4.223   4.475  1.00 20.00    -0.195 NA
ENDROOT
BRANCH   4   6
HETATM    6  N9  UNL     1     -32.810   6.823   3.177  1.00 20.00     0.110 N 
HETATM    7  H23 UNL     1     -32.262   6.003   3.442  1.00 20.00     0.318 HD
BRANCH   6   8
HETATM    8  C6  UNL     1     -32.857   6.912   1.722  1.00 20.00     0.214 C 
HETATM    9  C2  UNL     1     -32.392   5.591   1.126  1.00 20.00     0.042 C 
HETATM   10  C3  UNL     1     -31.981   8.072   1.271  1.00 20.00     0.042 C 
ENDBRANCH   6   8
ENDBRANCH   4   6
TORSDOF 2
ENDMDL
MODEL 8
REMARK VINA RESULT:       0.6      1.539      3.492
REMARK  2 active torsions:
REMARK  status: ('A' for Active; 'I' for Inactive)
REMARK    1  A    between atoms: C6_6  and  N9_9 
REMARK    2  A    between atoms: C7_7  and  N9_9 
ROOT
HETATM    1  C1  UNL     1     -31.897   5.258   1.211  1.00 20.00     0.100 C 
HETATM    2  C4  UNL     1     -32.052   7.657   1.747  1.00 20.00     0.065 C 
HETATM    3  C5  UNL     1     -34.026   6.421   0.805  1.00 20.00     0.065 C 
HETATM    4  C7  UNL     1     -32.793   6.319   1.708  1.00 20.00     0.237 C 
HETATM    5  N8  UNL     1     -31.191   4.424   0.820  1.00 20.00    -0.195 NA
ENDROOT
BRANCH   4   6
HETATM    6  N9  UNL     1     -33.225   5.994   3.055  1.00 20.00     0.110 N 
HETATM    7  H23 UNL     1     -32.447   6.123   3.703  1.00 20.00     0.318 HD
BRANCH   6   8
HETATM    8  C6  UNL     1     -34.335   6.845   3.471  1.00 20.00     0.214 C 
HETATM    9  C2  UNL     1     -33.820   7.893   4.447  1.00 20.00     0.042 C 
HETATM   10  C3  UNL     1     -35.415   5.976   4.096  1.00 20.00     0.042 C 
ENDBRANCH   6   8
ENDBRANCH   4   6
TORSDOF 2
ENDMDL
MODEL 9
REMARK VINA RESULT:       0.6      2.122      3.242
REMARK  2 active torsions:
REMARK  status: ('A' for Active; 'I' for Inactive)
REMARK    1  A    between atoms: C6_6  and  N9_9 
REMARK    2  A    between atoms: C7_7  and  N9_9 
ROOT
HETATM    1  C1  UNL     1     -32.416   6.377   1.657  1.00 20.00     0.100 C 
HETATM    2  C4  UNL     1     -33.394   7.680   3.504  1.00 20.00     0.065 C 
HETATM    3  C5  UNL     1     -31.167   8.309   2.525  1.00 20.00     0.065 C 
HETATM    4  C7  UNL     1     -32.553   7.730   2.226  1.00 20.00     0.237 C 
HETATM    5  N8  UNL     1     -32.309   5.311   1.209  1.00 20.00    -0.195 NA
ENDROOT
BRANCH   4   6
HETATM    6  N9  UNL     1     -33.223   8.592   1.270  1.00 20.00     0.110 N 
HETATM    7  H23 UNL     1     -33.935   9.145   1.749  1.00 20.00     0.318 HD
BRANCH   6   8
HETATM    8  C6  UNL     1     -32.277   9.494   0.622  1.00 20.00     0.214 C 
HETATM    9  C2  UNL     1     -32.723  10.931   0.851  1.00 20.00     0.042 C 
HETATM   10  C3  UNL     1     -32.209   9.155  -0.860  1.00 20.00     0.042 C 
ENDBRANCH   6   8
ENDBRANCH   4   6
TORSDOF 2
ENDMDL
