MODEL 1
REMARK VINA RESULT:      -0.8      0.000      0.000
REMARK  0 active torsions:
REMARK  status: ('A' for Active; 'I' for Inactive)
ROOT
HETATM    1  C1  UNL     1     -35.032   6.456   4.323  1.00 20.00     0.086 C 
HETATM    2  C2  UNL     1     -34.452   5.298   3.563  1.00 20.00     0.055 C 
HETATM    3  C3  UNL     1     -31.866   6.559   0.951  1.00 20.00     0.030 C 
HETATM    4  C4  UNL     1     -32.522   5.480   1.824  1.00 20.00     0.010 C 
HETATM    5  C5  UNL     1     -31.602   7.862   1.723  1.00 20.00     0.272 C 
HETATM    6  C6  UNL     1     -33.713   6.107   2.524  1.00 20.00     0.045 C 
HETATM    7  C7  UNL     1     -33.266   7.307   3.354  1.00 20.00     0.345 C 
HETATM    8  N8  UNL     1     -34.445   7.610   4.199  1.00 20.00    -0.270 NA
HETATM    9  N9  UNL     1     -32.784   8.352   2.454  1.00 20.00     0.108 N 
HETATM   10  H21 UNL     1     -32.522   9.172   2.999  1.00 20.00     0.318 HD
ENDROOT
TORSDOF 0
ENDMDL
MODEL 2
REMARK VINA RESULT:      -0.8      1.541      3.711
REMARK  0 active torsions:
REMARK  status: ('A' for Active; 'I' for Inactive)
ROOT
HETATM    1  C1  UNL     1     -31.733   7.375   1.354  1.00 20.00     0.086 C 
HETATM    2  C2  UNL     1     -32.409   8.273   2.350  1.00 20.00     0.055 C 
HETATM    3  C3  UNL     1     -35.192   6.332   4.244  1.00 20.00     0.030 C 
HETATM    4  C4  UNL     1     -34.212   7.500   4.062  1.00 20.00     0.010 C 
HETATM    5  C5  UNL     1     -34.542   4.967   3.966  1.00 20.00     0.272 C 
HETATM    6  C6  UNL     1     -33.533   7.334   2.716  1.00 20.00     0.045 C 
HETATM    7  C7  UNL     1     -32.821   5.986   2.646  1.00 20.00     0.345 C 
HETATM    8  N8  UNL     1     -31.972   6.099   1.438  1.00 20.00    -0.270 NA
HETATM    9  N9  UNL     1     -33.821   4.920   2.682  1.00 20.00     0.108 N 
HETATM   10  H21 UNL     1     -33.355   4.018   2.594  1.00 20.00     0.318 HD
ENDROOT
TORSDOF 0
ENDMDL
MODEL 3
REMARK VINA RESULT:      -0.6      0.679      3.161
REMARK  0 active torsions:
REMARK  status: ('A' for Active; 'I' for Inactive)
ROOT
HETATM    1  C1  UNL     1     -31.709   7.423   1.480  1.00 20.00     0.086 C 
HETATM    2  C2  UNL     1     -32.051   5.963   1.394  1.00 20.00     0.055 C 
HETATM    3  C3  UNL     1     -34.650   5.023   4.125  1.00 20.00     0.030 C 
HETATM    4  C4  UNL     1     -33.882   4.780   2.819  1.00 20.00     0.010 C 
HETATM    5  C5  UNL     1     -35.165   6.467   4.247  1.00 20.00     0.272 C 
HETATM    6  C6  UNL     1     -32.849   5.882   2.673  1.00 20.00     0.045 C 
HETATM    7  C7  UNL     1     -33.530   7.247   2.678  1.00 20.00     0.345 C 
HETATM    8  N8  UNL     1     -32.466   8.174   2.226  1.00 20.00    -0.270 NA
HETATM    9  N9  UNL     1     -34.121   7.476   3.995  1.00 20.00     0.108 N 
HETATM   10  H21 UNL     1     -34.542   8.404   4.020  1.00 20.00     0.318 HD
ENDROOT
TORSDOF 0
ENDMDL
MODEL 4
REMARK VINA RESULT:      -0.5      1.436      2.068
REMARK  0 active torsions:
REMARK  status: ('A' for Active; 'I' for Inactive)
ROOT
HETATM    1  C1  UNL     1     -35.010   6.258   4.380  1.00 20.00     0.086 C 
HETATM    2  C2  UNL     1     -34.507   7.653   4.138  1.00 20.00     0.055 C 
HETATM    3  C3  UNL     1     -31.541   7.600   1.628  1.00 20.00     0.030 C 
HETATM    4  C4  UNL     1     -32.673   8.289   2.402  1.00 20.00     0.010 C 
HETATM    5  C5  UNL     1     -31.977   6.257   1.017  1.00 20.00     0.272 C 
HETATM    6  C6  UNL     1     -33.273   7.274   3.357  1.00 20.00     0.045 C 
HETATM    7  C7  UNL     1     -33.779   6.059   2.584  1.00 20.00     0.345 C 
HETATM    8  N8  UNL     1     -34.592   5.322   3.579  1.00 20.00    -0.270 NA
HETATM    9  N9  UNL     1     -32.637   5.367   1.988  1.00 20.00     0.108 N 
HETATM   10  H21 UNL     1     -32.964   4.531   1.505  1.00 20.00     0.318 HD
ENDROOT
TORSDOF 0
ENDMDL
MODEL 5
REMARK VINA RESULT:       0.7      1.614      2.281
REMARK  0 active torsions:
REMARK  status: ('A' for Active; 'I' for Inactive)
ROOT
HETATM    1  C1  UNL     1     -34.302   4.542   3.612  1.00 20.00     0.086 C 
HETATM    2  C2  UNL     1     -34.742   5.896   4.091  1.00 20.00     0.055 C 
HETATM    3  C3  UNL     1     -32.400   8.654   2.673  1.00 20.00     0.030 C 
HETATM    4  C4  UNL     1     -33.700   8.154   3.320  1.00 20.00     0.010 C 
HETATM    5  C5  UNL     1     -31.959   7.783   1.486  1.00 20.00     0.272 C 
HETATM    6  C6  UNL     1     -33.546   6.670   3.590  1.00 20.00     0.045 C 
HETATM    7  C7  UNL     1     -33.242   5.927   2.292  1.00 20.00     0.345 C 
HETATM    8  N8  UNL     1     -33.426   4.501   2.651  1.00 20.00    -0.270 NA
HETATM    9  N9  UNL     1     -31.929   6.344   1.804  1.00 20.00     0.108 N 
HETATM   10  H21 UNL     1     -31.701   5.821   0.959  1.00 20.00     0.318 HD
ENDROOT
TORSDOF 0
ENDMDL
