MODEL 1
REMARK VINA RESULT:      -1.8      0.000      0.000
REMARK  5 active torsions:
REMARK  status: ('A' for Active; 'I' for Inactive)
REMARK    1  A    between atoms: C5_5  and  C7_7 
REMARK    2  A    between atoms: C6_6  and  C8_8 
REMARK    3  A    between atoms: C6_6  and  C9_9 
REMARK    4  A    between atoms: C7_7  and  O11_11 
REMARK    5  A    between atoms: C9_9  and  O11_11 
ROOT
HETATM    1  C1  UNL     1     -34.537   5.007   4.143  1.00 20.00     0.061 C 
HETATM    2  C5  UNL     1     -35.067   6.373   4.021  1.00 20.00     0.150 C 
HETATM    3  N10 UNL     1     -34.120   3.928   4.240  1.00 20.00    -0.197 NA
ENDROOT
BRANCH   2   4
HETATM    4  C7  UNL     1     -33.946   7.399   3.933  1.00 20.00     0.182 C 
BRANCH   4   5
HETATM    5  O11 UNL     1     -33.669   7.686   2.572  1.00 20.00    -0.385 OA
BRANCH   5   6
HETATM    6  C9  UNL     1     -32.336   7.305   2.224  1.00 20.00     0.117 C 
HETATM    7  C4  UNL     1     -32.399   6.027   1.397  1.00 20.00     0.039 C 
BRANCH   6   8
HETATM    8  C6  UNL     1     -31.707   8.485   1.474  1.00 20.00     0.035 C 
BRANCH   8   9
HETATM    9  C8  UNL     1     -32.675   9.350   0.646  1.00 20.00    -0.020 C 
HETATM   10  C2  UNL     1     -32.660  10.817   1.078  1.00 20.00     0.009 C 
HETATM   11  C3  UNL     1     -32.320   9.245  -0.840  1.00 20.00     0.009 C 
ENDBRANCH   8   9
ENDBRANCH   6   8
ENDBRANCH   5   6
ENDBRANCH   4   5
ENDBRANCH   2   4
TORSDOF 5
ENDMDL
MODEL 2
REMARK VINA RESULT:      -1.8      2.710      4.998
REMARK  5 active torsions:
REMARK  status: ('A' for Active; 'I' for Inactive)
REMARK    1  A    between atoms: C5_5  and  C7_7 
REMARK    2  A    between atoms: C6_6  and  C8_8 
REMARK    3  A    between atoms: C6_6  and  C9_9 
REMARK    4  A    between atoms: C7_7  and  O11_11 
REMARK    5  A    between atoms: C9_9  and  O11_11 
ROOT
HETATM    1  C1  UNL     1     -32.388   9.709  -0.150  1.00 20.00     0.061 C 
HETATM    2  C5  UNL     1     -31.373   8.971   0.619  1.00 20.00     0.150 C 
HETATM    3  N10 UNL     1     -33.187  10.291  -0.757  1.00 20.00    -0.197 NA
ENDROOT
BRANCH   2   4
HETATM    4  C7  UNL     1     -31.992   8.246   1.805  1.00 20.00     0.182 C 
BRANCH   4   5
HETATM    5  O11 UNL     1     -31.699   6.861   1.721  1.00 20.00    -0.385 OA
BRANCH   5   6
HETATM    6  C9  UNL     1     -32.891   6.088   1.563  1.00 20.00     0.117 C 
HETATM    7  C4  UNL     1     -32.588   4.913   0.644  1.00 20.00     0.039 C 
BRANCH   6   8
HETATM    8  C6  UNL     1     -33.348   5.664   2.965  1.00 20.00     0.035 C 
BRANCH   8   9
HETATM    9  C8  UNL     1     -34.584   6.395   3.521  1.00 20.00    -0.020 C 
HETATM   10  C2  UNL     1     -35.429   5.501   4.428  1.00 20.00     0.009 C 
HETATM   11  C3  UNL     1     -34.144   7.643   4.290  1.00 20.00     0.009 C 
ENDBRANCH   8   9
ENDBRANCH   6   8
ENDBRANCH   5   6
ENDBRANCH   4   5
ENDBRANCH   2   4
TORSDOF 5
ENDMDL
MODEL 3
REMARK VINA RESULT:      -1.0      0.847      1.229
REMARK  5 active torsions:
REMARK  status: ('A' for Active; 'I' for Inactive)
REMARK    1  A    between atoms: C5_5  and  C7_7 
REMARK    2  A    between atoms: C6_6  and  C8_8 
REMARK    3  A    between atoms: C6_6  and  C9_9 
REMARK    4  A    between atoms: C7_7  and  O11_11 
REMARK    5  A    between atoms: C9_9  and  O11_11 
ROOT
HETATM    1  C1  UNL     1     -34.581   4.978   4.168  1.00 20.00     0.061 C 
HETATM    2  C5  UNL     1     -35.200   6.308   4.060  1.00 20.00     0.150 C 
HETATM    3  N10 UNL     1     -34.094   3.928   4.255  1.00 20.00    -0.197 NA
ENDROOT
BRANCH   2   4
HETATM    4  C7  UNL     1     -34.258   7.309   3.408  1.00 20.00     0.182 C 
BRANCH   4   5
HETATM    5  O11 UNL     1     -32.950   6.762   3.347  1.00 20.00    -0.385 OA
BRANCH   5   6
HETATM    6  C9  UNL     1     -32.355   6.984   2.067  1.00 20.00     0.117 C 
HETATM    7  C4  UNL     1     -32.607   5.760   1.197  1.00 20.00     0.039 C 
BRANCH   6   8
HETATM    8  C6  UNL     1     -32.964   8.272   1.499  1.00 20.00     0.035 C 
BRANCH   8   9
HETATM    9  C8  UNL     1     -31.970   9.272   0.880  1.00 20.00    -0.020 C 
HETATM   10  C2  UNL     1     -31.094   8.631  -0.197  1.00 20.00     0.009 C 
HETATM   11  C3  UNL     1     -32.733  10.459   0.287  1.00 20.00     0.009 C 
ENDBRANCH   8   9
ENDBRANCH   6   8
ENDBRANCH   5   6
ENDBRANCH   4   5
ENDBRANCH   2   4
TORSDOF 5
ENDMDL
MODEL 4
REMARK VINA RESULT:      -0.8      1.397      2.626
REMARK  5 active torsions:
REMARK  status: ('A' for Active; 'I' for Inactive)
REMARK    1  A    between atoms: C5_5  and  C7_7 
REMARK    2  A    between atoms: C6_6  and  C8_8 
REMARK    3  A    between atoms: C6_6  and  C9_9 
REMARK    4  A    between atoms: C7_7  and  O11_11 
REMARK    5  A    between atoms: C9_9  and  O11_11 
ROOT
HETATM    1  C1  UNL     1     -33.496   3.482   4.506  1.00 20.00     0.061 C 
HETATM    2  C5  UNL     1     -34.263   4.369   3.618  1.00 20.00     0.150 C 
HETATM    3  N10 UNL     1     -32.892   2.781   5.207  1.00 20.00    -0.197 NA
ENDROOT
BRANCH   2   4
HETATM    4  C7  UNL     1     -34.675   5.649   4.329  1.00 20.00     0.182 C 
BRANCH   4   5
HETATM    5  O11 UNL     1     -34.806   6.699   3.384  1.00 20.00    -0.385 OA
BRANCH   5   6
HETATM    6  C9  UNL     1     -33.971   7.808   3.723  1.00 20.00     0.117 C 
HETATM    7  C4  UNL     1     -33.917   7.928   5.240  1.00 20.00     0.039 C 
BRANCH   6   8
HETATM    8  C6  UNL     1     -32.601   7.558   3.082  1.00 20.00     0.035 C 
BRANCH   8   9
HETATM    9  C8  UNL     1     -32.600   7.334   1.558  1.00 20.00    -0.020 C 
HETATM   10  C2  UNL     1     -31.783   8.391   0.815  1.00 20.00     0.009 C 
HETATM   11  C3  UNL     1     -32.053   5.940   1.241  1.00 20.00     0.009 C 
ENDBRANCH   8   9
ENDBRANCH   6   8
ENDBRANCH   5   6
ENDBRANCH   4   5
ENDBRANCH   2   4
TORSDOF 5
ENDMDL
MODEL 5
REMARK VINA RESULT:      -0.8      1.066      1.576
REMARK  5 active torsions:
REMARK  status: ('A' for Active; 'I' for Inactive)
REMARK    1  A    between atoms: C5_5  and  C7_7 
REMARK    2  A    between atoms: C6_6  and  C8_8 
REMARK    3  A    between atoms: C6_6  and  C9_9 
REMARK    4  A    between atoms: C7_7  and  O11_11 
REMARK    5  A    between atoms: C9_9  and  O11_11 
ROOT
HETATM    1  C1  UNL     1     -34.274   4.222   4.402  1.00 20.00     0.061 C 
HETATM    2  C5  UNL     1     -34.996   5.502   4.331  1.00 20.00     0.150 C 
HETATM    3  N10 UNL     1     -33.706   3.211   4.460  1.00 20.00    -0.197 NA
ENDROOT
BRANCH   2   4
HETATM    4  C7  UNL     1     -34.276   6.496   3.431  1.00 20.00     0.182 C 
BRANCH   4   5
HETATM    5  O11 UNL     1     -33.893   5.857   2.225  1.00 20.00    -0.385 OA
BRANCH   5   6
HETATM    6  C9  UNL     1     -32.581   6.257   1.821  1.00 20.00     0.117 C 
HETATM    7  C4  UNL     1     -31.877   5.054   1.207  1.00 20.00     0.039 C 
BRANCH   6   8
HETATM    8  C6  UNL     1     -32.743   7.430   0.847  1.00 20.00     0.035 C 
BRANCH   8   9
HETATM    9  C8  UNL     1     -31.832   8.646   1.100  1.00 20.00    -0.020 C 
HETATM   10  C2  UNL     1     -32.429   9.944   0.556  1.00 20.00     0.009 C 
HETATM   11  C3  UNL     1     -31.566   8.789   2.601  1.00 20.00     0.009 C 
ENDBRANCH   8   9
ENDBRANCH   6   8
ENDBRANCH   5   6
ENDBRANCH   4   5
ENDBRANCH   2   4
TORSDOF 5
ENDMDL
MODEL 6
REMARK VINA RESULT:      -0.6      2.706      5.595
REMARK  5 active torsions:
REMARK  status: ('A' for Active; 'I' for Inactive)
REMARK    1  A    between atoms: C5_5  and  C7_7 
REMARK    2  A    between atoms: C6_6  and  C8_8 
REMARK    3  A    between atoms: C6_6  and  C9_9 
REMARK    4  A    between atoms: C7_7  and  O11_11 
REMARK    5  A    between atoms: C9_9  and  O11_11 
ROOT
HETATM    1  C1  UNL     1     -32.409   9.863   0.205  1.00 20.00     0.061 C 
HETATM    2  C5  UNL     1     -31.599   8.648   0.382  1.00 20.00     0.150 C 
HETATM    3  N10 UNL     1     -33.047  10.823   0.065  1.00 20.00    -0.197 NA
ENDROOT
BRANCH   2   4
HETATM    4  C7  UNL     1     -31.748   8.080   1.786  1.00 20.00     0.182 C 
BRANCH   4   5
HETATM    5  O11 UNL     1     -32.727   7.054   1.784  1.00 20.00    -0.385 OA
BRANCH   5   6
HETATM    6  C9  UNL     1     -33.073   6.665   3.115  1.00 20.00     0.117 C 
HETATM    7  C4  UNL     1     -34.074   7.670   3.669  1.00 20.00     0.039 C 
BRANCH   6   8
HETATM    8  C6  UNL     1     -33.620   5.235   3.043  1.00 20.00     0.035 C 
BRANCH   8   9
HETATM    9  C8  UNL     1     -33.947   4.569   4.393  1.00 20.00    -0.020 C 
HETATM   10  C2  UNL     1     -35.417   4.727   4.780  1.00 20.00     0.009 C 
HETATM   11  C3  UNL     1     -33.584   3.083   4.338  1.00 20.00     0.009 C 
ENDBRANCH   8   9
ENDBRANCH   6   8
ENDBRANCH   5   6
ENDBRANCH   4   5
ENDBRANCH   2   4
TORSDOF 5
ENDMDL
MODEL 7
REMARK VINA RESULT:      -0.6      2.847      5.873
REMARK  5 active torsions:
REMARK  status: ('A' for Active; 'I' for Inactive)
REMARK    1  A    between atoms: C5_5  and  C7_7 
REMARK    2  A    between atoms: C6_6  and  C8_8 
REMARK    3  A    between atoms: C6_6  and  C9_9 
REMARK    4  A    between atoms: C7_7  and  O11_11 
REMARK    5  A    between atoms: C9_9  and  O11_11 
ROOT
HETATM    1  C1  UNL     1     -32.230   8.777   1.039  1.00 20.00     0.061 C 
HETATM    2  C5  UNL     1     -32.088   7.589   1.895  1.00 20.00     0.150 C 
HETATM    3  N10 UNL     1     -32.341   9.715   0.364  1.00 20.00    -0.197 NA
ENDROOT
BRANCH   2   4
HETATM    4  C7  UNL     1     -33.364   6.760   1.913  1.00 20.00     0.182 C 
BRANCH   4   5
HETATM    5  O11 UNL     1     -33.131   5.541   2.598  1.00 20.00    -0.385 OA
BRANCH   5   6
HETATM    6  C9  UNL     1     -33.788   5.526   3.867  1.00 20.00     0.117 C 
HETATM    7  C4  UNL     1     -34.992   6.455   3.799  1.00 20.00     0.039 C 
BRANCH   6   8
HETATM    8  C6  UNL     1     -34.158   4.069   4.171  1.00 20.00     0.035 C 
BRANCH   8   9
HETATM    9  C8  UNL     1     -33.005   3.165   4.644  1.00 20.00    -0.020 C 
HETATM   10  C2  UNL     1     -32.620   3.426   6.100  1.00 20.00     0.009 C 
HETATM   11  C3  UNL     1     -33.395   1.695   4.468  1.00 20.00     0.009 C 
ENDBRANCH   8   9
ENDBRANCH   6   8
ENDBRANCH   5   6
ENDBRANCH   4   5
ENDBRANCH   2   4
TORSDOF 5
ENDMDL
MODEL 8
REMARK VINA RESULT:      -0.5      2.612      5.247
REMARK  5 active torsions:
REMARK  status: ('A' for Active; 'I' for Inactive)
REMARK    1  A    between atoms: C5_5  and  C7_7 
REMARK    2  A    between atoms: C6_6  and  C8_8 
REMARK    3  A    between atoms: C6_6  and  C9_9 
REMARK    4  A    between atoms: C7_7  and  O11_11 
REMARK    5  A    between atoms: C9_9  and  O11_11 
ROOT
HETATM    1  C1  UNL     1     -32.311   9.678   0.379  1.00 20.00     0.061 C 
HETATM    2  C5  UNL     1     -31.771   8.372   0.790  1.00 20.00     0.150 C 
HETATM    3  N10 UNL     1     -32.736  10.708   0.055  1.00 20.00    -0.197 NA
ENDROOT
BRANCH   2   4
HETATM    4  C7  UNL     1     -31.895   8.166   2.292  1.00 20.00     0.182 C 
BRANCH   4   5
HETATM    5  O11 UNL     1     -33.256   7.965   2.635  1.00 20.00    -0.385 OA
BRANCH   5   6
HETATM    6  C9  UNL     1     -33.380   7.261   3.873  1.00 20.00     0.117 C 
HETATM    7  C4  UNL     1     -33.605   8.275   4.986  1.00 20.00     0.039 C 
BRANCH   6   8
HETATM    8  C6  UNL     1     -34.534   6.263   3.715  1.00 20.00     0.035 C 
BRANCH   8   9
HETATM    9  C8  UNL     1     -34.152   4.872   3.177  1.00 20.00    -0.020 C 
HETATM   10  C2  UNL     1     -32.953   4.922   2.229  1.00 20.00     0.009 C 
HETATM   11  C3  UNL     1     -33.847   3.931   4.346  1.00 20.00     0.009 C 
ENDBRANCH   8   9
ENDBRANCH   6   8
ENDBRANCH   5   6
ENDBRANCH   4   5
ENDBRANCH   2   4
TORSDOF 5
ENDMDL
MODEL 9
REMARK VINA RESULT:      -0.3      1.184      2.890
REMARK  5 active torsions:
REMARK  status: ('A' for Active; 'I' for Inactive)
REMARK    1  A    between atoms: C5_5  and  C7_7 
REMARK    2  A    between atoms: C6_6  and  C8_8 
REMARK    3  A    between atoms: C6_6  and  C9_9 
REMARK    4  A    between atoms: C7_7  and  O11_11 
REMARK    5  A    between atoms: C9_9  and  O11_11 
ROOT
HETATM    1  C1  UNL     1     -35.024   6.049   4.159  1.00 20.00     0.061 C 
HETATM    2  C5  UNL     1     -34.551   7.392   3.790  1.00 20.00     0.150 C 
HETATM    3  N10 UNL     1     -35.399   4.990   4.451  1.00 20.00    -0.197 NA
ENDROOT
BRANCH   2   4
HETATM    4  C7  UNL     1     -33.046   7.521   3.975  1.00 20.00     0.182 C 
BRANCH   4   5
HETATM    5  O11 UNL     1     -32.531   8.465   3.050  1.00 20.00    -0.385 OA
BRANCH   5   6
HETATM    6  C9  UNL     1     -32.594   7.967   1.712  1.00 20.00     0.117 C 
HETATM    7  C4  UNL     1     -32.194   9.085   0.759  1.00 20.00     0.039 C 
BRANCH   6   8
HETATM    8  C6  UNL     1     -31.672   6.744   1.638  1.00 20.00     0.035 C 
BRANCH   8   9
HETATM    9  C8  UNL     1     -32.357   5.401   1.325  1.00 20.00    -0.020 C 
HETATM   10  C2  UNL     1     -33.678   5.582   0.577  1.00 20.00     0.009 C 
HETATM   11  C3  UNL     1     -31.414   4.519   0.502  1.00 20.00     0.009 C 
ENDBRANCH   8   9
ENDBRANCH   6   8
ENDBRANCH   5   6
ENDBRANCH   4   5
ENDBRANCH   2   4
TORSDOF 5
ENDMDL
