MODEL 1
REMARK VINA RESULT:      -2.5      0.000      0.000
REMARK  2 active torsions:
REMARK  status: ('A' for Active; 'I' for Inactive)
REMARK    1  A    between atoms: C2_2  and  C3_3 
REMARK    2  A    between atoms: C2_2  and  N4_4 
ROOT
HETATM    1  C1  UNL     1     -32.106   8.876   0.989  1.00 20.00     0.157 C 
HETATM    2  N4  UNL     1     -31.766   8.029   1.731  1.00 20.00    -0.267 NA
HETATM    3  S8  UNL     1     -32.540  10.029  -0.020  1.00 20.00    -0.055 SA
ENDROOT
BRANCH   2   4
HETATM    4  C2  UNL     1     -32.854   7.233   2.298  1.00 20.00     0.267 C 
BRANCH   4   5
HETATM    5  C3  UNL     1     -32.817   5.847   1.704  1.00 20.00     0.405 C 
HETATM    6  F5  UNL     1     -33.283   4.940   2.591  1.00 20.00    -0.169 F 
HETATM    7  F6  UNL     1     -31.559   5.487   1.372  1.00 20.00    -0.169 F 
HETATM    8  F7  UNL     1     -33.584   5.767   0.595  1.00 20.00    -0.169 F 
ENDBRANCH   4   5
ENDBRANCH   2   4
TORSDOF 2
ENDMDL
MODEL 2
REMARK VINA RESULT:      -2.5      0.010      1.336
REMARK  2 active torsions:
REMARK  status: ('A' for Active; 'I' for Inactive)
REMARK    1  A    between atoms: C2_2  and  C3_3 
REMARK    2  A    between atoms: C2_2  and  N4_4 
ROOT
HETATM    1  C1  UNL     1     -32.108   8.878   0.987  1.00 20.00     0.157 C 
HETATM    2  N4  UNL     1     -31.769   8.031   1.730  1.00 20.00    -0.267 NA
HETATM    3  S8  UNL     1     -32.541  10.032  -0.021  1.00 20.00    -0.055 SA
ENDROOT
BRANCH   2   4
HETATM    4  C2  UNL     1     -32.857   7.239   2.301  1.00 20.00     0.267 C 
BRANCH   4   5
HETATM    5  C3  UNL     1     -32.820   5.849   1.718  1.00 20.00     0.405 C 
HETATM    6  F5  UNL     1     -33.586   5.781   0.608  1.00 20.00    -0.169 F 
HETATM    7  F6  UNL     1     -33.286   4.935   2.595  1.00 20.00    -0.169 F 
HETATM    8  F7  UNL     1     -31.563   5.495   1.371  1.00 20.00    -0.169 F 
ENDBRANCH   4   5
ENDBRANCH   2   4
TORSDOF 2
ENDMDL
MODEL 3
REMARK VINA RESULT:      -2.5      1.894      2.391
REMARK  2 active torsions:
REMARK  status: ('A' for Active; 'I' for Inactive)
REMARK    1  A    between atoms: C2_2  and  C3_3 
REMARK    2  A    between atoms: C2_2  and  N4_4 
ROOT
HETATM    1  C1  UNL     1     -32.344   8.576   1.395  1.00 20.00     0.157 C 
HETATM    2  N4  UNL     1     -32.298   7.739   2.219  1.00 20.00    -0.267 NA
HETATM    3  S8  UNL     1     -32.386   9.724   0.291  1.00 20.00    -0.055 SA
ENDROOT
BRANCH   2   4
HETATM    4  C2  UNL     1     -33.319   6.699   2.101  1.00 20.00     0.267 C 
BRANCH   4   5
HETATM    5  C3  UNL     1     -34.077   6.596   3.401  1.00 20.00     0.405 C 
HETATM    6  F5  UNL     1     -33.929   5.365   3.937  1.00 20.00    -0.169 F 
HETATM    7  F6  UNL     1     -35.397   6.809   3.219  1.00 20.00    -0.169 F 
HETATM    8  F7  UNL     1     -33.627   7.494   4.304  1.00 20.00    -0.169 F 
ENDBRANCH   4   5
ENDBRANCH   2   4
TORSDOF 2
ENDMDL
MODEL 4
REMARK VINA RESULT:      -2.5      1.883      2.321
REMARK  2 active torsions:
REMARK  status: ('A' for Active; 'I' for Inactive)
REMARK    1  A    between atoms: C2_2  and  C3_3 
REMARK    2  A    between atoms: C2_2  and  N4_4 
ROOT
HETATM    1  C1  UNL     1     -32.325   8.583   1.408  1.00 20.00     0.157 C 
HETATM    2  N4  UNL     1     -32.281   7.739   2.226  1.00 20.00    -0.267 NA
HETATM    3  S8  UNL     1     -32.363   9.738   0.313  1.00 20.00    -0.055 SA
ENDROOT
BRANCH   2   4
HETATM    4  C2  UNL     1     -33.304   6.702   2.097  1.00 20.00     0.267 C 
BRANCH   4   5
HETATM    5  C3  UNL     1     -34.056   6.581   3.399  1.00 20.00     0.405 C 
HETATM    6  F5  UNL     1     -35.376   6.793   3.204  1.00 20.00    -0.169 F 
HETATM    7  F6  UNL     1     -33.625   7.486   4.303  1.00 20.00    -0.169 F 
HETATM    8  F7  UNL     1     -33.914   5.350   3.937  1.00 20.00    -0.169 F 
ENDBRANCH   4   5
ENDBRANCH   2   4
TORSDOF 2
ENDMDL
MODEL 5
REMARK VINA RESULT:      -2.5      1.947      2.273
REMARK  2 active torsions:
REMARK  status: ('A' for Active; 'I' for Inactive)
REMARK    1  A    between atoms: C2_2  and  C3_3 
REMARK    2  A    between atoms: C2_2  and  N4_4 
ROOT
HETATM    1  C1  UNL     1     -32.340   8.490   1.450  1.00 20.00     0.157 C 
HETATM    2  N4  UNL     1     -32.317   7.657   2.279  1.00 20.00    -0.267 NA
HETATM    3  S8  UNL     1     -32.350   9.631   0.339  1.00 20.00    -0.055 SA
ENDROOT
BRANCH   2   4
HETATM    4  C2  UNL     1     -33.350   6.630   2.151  1.00 20.00     0.267 C 
BRANCH   4   5
HETATM    5  C3  UNL     1     -34.133   6.549   3.437  1.00 20.00     0.405 C 
HETATM    6  F5  UNL     1     -33.690   7.472   4.319  1.00 20.00    -0.169 F 
HETATM    7  F6  UNL     1     -34.006   5.336   4.015  1.00 20.00    -0.169 F 
HETATM    8  F7  UNL     1     -35.447   6.780   3.228  1.00 20.00    -0.169 F 
ENDBRANCH   4   5
ENDBRANCH   2   4
TORSDOF 2
ENDMDL
MODEL 6
REMARK VINA RESULT:      -2.2      2.812      3.281
REMARK  2 active torsions:
REMARK  status: ('A' for Active; 'I' for Inactive)
REMARK    1  A    between atoms: C2_2  and  C3_3 
REMARK    2  A    between atoms: C2_2  and  N4_4 
ROOT
HETATM    1  C1  UNL     1     -32.769   6.886   1.904  1.00 20.00     0.157 C 
HETATM    2  N4  UNL     1     -33.482   5.958   2.016  1.00 20.00    -0.267 NA
HETATM    3  S8  UNL     1     -31.804   8.140   1.726  1.00 20.00    -0.055 SA
ENDROOT
BRANCH   2   4
HETATM    4  C2  UNL     1     -33.770   5.563   3.395  1.00 20.00     0.267 C 
BRANCH   4   5
HETATM    5  C3  UNL     1     -34.936   6.370   3.909  1.00 20.00     0.405 C 
HETATM    6  F5  UNL     1     -35.648   5.652   4.806  1.00 20.00    -0.169 F 
HETATM    7  F6  UNL     1     -35.772   6.720   2.909  1.00 20.00    -0.169 F 
HETATM    8  F7  UNL     1     -34.521   7.498   4.524  1.00 20.00    -0.169 F 
ENDBRANCH   4   5
ENDBRANCH   2   4
TORSDOF 2
ENDMDL
MODEL 7
REMARK VINA RESULT:      -2.1      2.802      3.319
REMARK  2 active torsions:
REMARK  status: ('A' for Active; 'I' for Inactive)
REMARK    1  A    between atoms: C2_2  and  C3_3 
REMARK    2  A    between atoms: C2_2  and  N4_4 
ROOT
HETATM    1  C1  UNL     1     -32.770   6.887   1.899  1.00 20.00     0.157 C 
HETATM    2  N4  UNL     1     -33.483   5.959   2.012  1.00 20.00    -0.267 NA
HETATM    3  S8  UNL     1     -31.805   8.140   1.718  1.00 20.00    -0.055 SA
ENDROOT
BRANCH   2   4
HETATM    4  C2  UNL     1     -33.770   5.566   3.392  1.00 20.00     0.267 C 
BRANCH   4   5
HETATM    5  C3  UNL     1     -34.928   6.380   3.910  1.00 20.00     0.405 C 
HETATM    6  F5  UNL     1     -35.750   6.731   2.897  1.00 20.00    -0.169 F 
HETATM    7  F6  UNL     1     -34.504   7.515   4.506  1.00 20.00    -0.169 F 
HETATM    8  F7  UNL     1     -35.658   5.682   4.807  1.00 20.00    -0.169 F 
ENDBRANCH   4   5
ENDBRANCH   2   4
TORSDOF 2
ENDMDL
MODEL 8
REMARK VINA RESULT:      -2.1      3.575      4.309
REMARK  2 active torsions:
REMARK  status: ('A' for Active; 'I' for Inactive)
REMARK    1  A    between atoms: C2_2  and  C3_3 
REMARK    2  A    between atoms: C2_2  and  N4_4 
ROOT
HETATM    1  C1  UNL     1     -32.407   7.255   1.771  1.00 20.00     0.157 C 
HETATM    2  N4  UNL     1     -32.130   8.396   1.833  1.00 20.00    -0.267 NA
HETATM    3  S8  UNL     1     -32.789   5.710   1.714  1.00 20.00    -0.055 SA
ENDROOT
BRANCH   2   4
HETATM    4  C2  UNL     1     -31.612   8.973   0.593  1.00 20.00     0.267 C 
BRANCH   4   5
HETATM    5  C3  UNL     1     -32.517  10.096   0.151  1.00 20.00     0.405 C 
HETATM    6  F5  UNL     1     -31.795  11.206  -0.121  1.00 20.00    -0.169 F 
HETATM    7  F6  UNL     1     -33.412  10.413   1.110  1.00 20.00    -0.169 F 
HETATM    8  F7  UNL     1     -33.198   9.766  -0.968  1.00 20.00    -0.169 F 
ENDBRANCH   4   5
ENDBRANCH   2   4
TORSDOF 2
ENDMDL
MODEL 9
REMARK VINA RESULT:      -2.1      3.584      4.284
REMARK  2 active torsions:
REMARK  status: ('A' for Active; 'I' for Inactive)
REMARK    1  A    between atoms: C2_2  and  C3_3 
REMARK    2  A    between atoms: C2_2  and  N4_4 
ROOT
HETATM    1  C1  UNL     1     -32.395   7.261   1.767  1.00 20.00     0.157 C 
HETATM    2  N4  UNL     1     -32.106   8.400   1.818  1.00 20.00    -0.267 NA
HETATM    3  S8  UNL     1     -32.791   5.720   1.724  1.00 20.00    -0.055 SA
ENDROOT
BRANCH   2   4
HETATM    4  C2  UNL     1     -31.616   8.970   0.564  1.00 20.00     0.267 C 
BRANCH   4   5
HETATM    5  C3  UNL     1     -32.508  10.116   0.156  1.00 20.00     0.405 C 
HETATM    6  F5  UNL     1     -33.188   9.807  -0.970  1.00 20.00    -0.169 F 
HETATM    7  F6  UNL     1     -31.792  11.233  -0.090  1.00 20.00    -0.169 F 
HETATM    8  F7  UNL     1     -33.414  10.400   1.117  1.00 20.00    -0.169 F 
ENDBRANCH   4   5
ENDBRANCH   2   4
TORSDOF 2
ENDMDL
