MODEL 1
REMARK VINA RESULT:      -0.9      0.000      0.000
REMARK  0 active torsions:
REMARK  status: ('A' for Active; 'I' for Inactive)
ROOT
HETATM    1  C1  UNL     1     -32.840   5.147   2.127  1.00 20.00     0.061 A 
HETATM    2  C2  UNL     1     -32.662   7.966   2.309  1.00 20.00     0.053 A 
HETATM    3  C3  UNL     1     -33.596   5.875   3.027  1.00 20.00     0.019 A 
HETATM    4  C4  UNL     1     -33.523   7.258   3.133  1.00 20.00    -0.041 A 
HETATM    5  C5  UNL     1     -31.972   5.858   1.298  1.00 20.00     0.155 A 
HETATM    6  C6  UNL     1     -31.884   7.257   1.388  1.00 20.00     0.155 A 
HETATM    7  C7  UNL     1     -34.567   5.396   3.997  1.00 20.00     0.160 A 
HETATM    8  C8  UNL     1     -34.437   7.810   4.180  1.00 20.00     0.047 A 
HETATM    9  C9  UNL     1     -35.136   6.568   4.760  1.00 20.00     0.088 A 
HETATM   10  O10 UNL     1     -34.859   4.224   4.153  1.00 20.00    -0.292 OA
HETATM   11  F11 UNL     1     -31.217   5.202   0.407  1.00 20.00    -0.203 F 
HETATM   12  F12 UNL     1     -31.044   7.920   0.581  1.00 20.00    -0.203 F 
ENDROOT
TORSDOF 0
ENDMDL
MODEL 2
REMARK VINA RESULT:      -0.6      0.989      1.220
REMARK  0 active torsions:
REMARK  status: ('A' for Active; 'I' for Inactive)
ROOT
HETATM    1  C1  UNL     1     -32.478   5.452   2.252  1.00 20.00     0.061 A 
HETATM    2  C2  UNL     1     -33.787   7.900   2.804  1.00 20.00     0.053 A 
HETATM    3  C3  UNL     1     -33.547   5.533   3.124  1.00 20.00     0.019 A 
HETATM    4  C4  UNL     1     -34.203   6.725   3.409  1.00 20.00    -0.041 A 
HETATM    5  C5  UNL     1     -32.057   6.635   1.642  1.00 20.00     0.155 A 
HETATM    6  C6  UNL     1     -32.707   7.850   1.916  1.00 20.00     0.155 A 
HETATM    7  C7  UNL     1     -34.183   4.471   3.886  1.00 20.00     0.160 A 
HETATM    8  C8  UNL     1     -35.325   6.551   4.382  1.00 20.00     0.047 A 
HETATM    9  C9  UNL     1     -35.314   5.047   4.705  1.00 20.00     0.088 A 
HETATM   10  O10 UNL     1     -33.838   3.305   3.855  1.00 20.00    -0.292 OA
HETATM   11  F11 UNL     1     -31.026   6.612   0.788  1.00 20.00    -0.203 F 
HETATM   12  F12 UNL     1     -32.287   8.973   1.319  1.00 20.00    -0.203 F 
ENDROOT
TORSDOF 0
ENDMDL
MODEL 3
REMARK VINA RESULT:      -0.3      2.962      3.995
REMARK  0 active torsions:
REMARK  status: ('A' for Active; 'I' for Inactive)
ROOT
HETATM    1  C1  UNL     1     -33.531   4.938   2.886  1.00 20.00     0.061 A 
HETATM    2  C2  UNL     1     -34.116   7.581   3.714  1.00 20.00     0.053 A 
HETATM    3  C3  UNL     1     -32.909   6.038   2.326  1.00 20.00     0.019 A 
HETATM    4  C4  UNL     1     -33.182   7.344   2.718  1.00 20.00    -0.041 A 
HETATM    5  C5  UNL     1     -34.472   5.176   3.888  1.00 20.00     0.155 A 
HETATM    6  C6  UNL     1     -34.762   6.488   4.300  1.00 20.00     0.155 A 
HETATM    7  C7  UNL     1     -31.902   6.080   1.278  1.00 20.00     0.160 A 
HETATM    8  C8  UNL     1     -32.381   8.356   1.963  1.00 20.00     0.047 A 
HETATM    9  C9  UNL     1     -31.526   7.515   0.999  1.00 20.00     0.088 A 
HETATM   10  O10 UNL     1     -31.450   5.095   0.724  1.00 20.00    -0.292 OA
HETATM   11  F11 UNL     1     -35.104   4.145   4.465  1.00 20.00    -0.203 F 
HETATM   12  F12 UNL     1     -35.668   6.692   5.265  1.00 20.00    -0.203 F 
ENDROOT
TORSDOF 0
ENDMDL
MODEL 4
REMARK VINA RESULT:      -0.3      3.121      4.581
REMARK  0 active torsions:
REMARK  status: ('A' for Active; 'I' for Inactive)
ROOT
HETATM    1  C1  UNL     1     -34.070   7.508   3.471  1.00 20.00     0.061 A 
HETATM    2  C2  UNL     1     -33.408   4.828   2.847  1.00 20.00     0.053 A 
HETATM    3  C3  UNL     1     -33.134   7.188   2.505  1.00 20.00     0.019 A 
HETATM    4  C4  UNL     1     -32.794   5.879   2.185  1.00 20.00    -0.041 A 
HETATM    5  C5  UNL     1     -34.688   6.452   4.139  1.00 20.00     0.155 A 
HETATM    6  C6  UNL     1     -34.360   5.121   3.829  1.00 20.00     0.155 A 
HETATM    7  C7  UNL     1     -32.348   8.079   1.667  1.00 20.00     0.160 A 
HETATM    8  C8  UNL     1     -31.758   5.795   1.110  1.00 20.00     0.047 A 
HETATM    9  C9  UNL     1     -31.456   7.263   0.763  1.00 20.00     0.088 A 
HETATM   10  O10 UNL     1     -32.415   9.294   1.708  1.00 20.00    -0.292 OA
HETATM   11  F11 UNL     1     -35.603   6.706   5.083  1.00 20.00    -0.203 F 
HETATM   12  F12 UNL     1     -34.967   4.121   4.483  1.00 20.00    -0.203 F 
ENDROOT
TORSDOF 0
ENDMDL
MODEL 5
REMARK VINA RESULT:       0.1      2.940      3.955
REMARK  0 active torsions:
REMARK  status: ('A' for Active; 'I' for Inactive)
ROOT
HETATM    1  C1  UNL     1     -33.048   4.981   2.858  1.00 20.00     0.061 A 
HETATM    2  C2  UNL     1     -34.928   6.675   4.128  1.00 20.00     0.053 A 
HETATM    3  C3  UNL     1     -33.065   6.348   2.650  1.00 20.00     0.019 A 
HETATM    4  C4  UNL     1     -33.979   7.196   3.263  1.00 20.00    -0.041 A 
HETATM    5  C5  UNL     1     -34.003   4.455   3.728  1.00 20.00     0.155 A 
HETATM    6  C6  UNL     1     -34.936   5.295   4.359  1.00 20.00     0.155 A 
HETATM    7  C7  UNL     1     -32.195   7.151   1.806  1.00 20.00     0.160 A 
HETATM    8  C8  UNL     1     -33.792   8.629   2.875  1.00 20.00     0.047 A 
HETATM    9  C9  UNL     1     -32.602   8.602   1.901  1.00 20.00     0.088 A 
HETATM   10  O10 UNL     1     -31.287   6.700   1.133  1.00 20.00    -0.292 OA
HETATM   11  F11 UNL     1     -34.031   3.137   3.966  1.00 20.00    -0.203 F 
HETATM   12  F12 UNL     1     -35.844   4.768   5.192  1.00 20.00    -0.203 F 
ENDROOT
TORSDOF 0
ENDMDL
MODEL 6
REMARK VINA RESULT:       0.2      1.293      2.414
REMARK  0 active torsions:
REMARK  status: ('A' for Active; 'I' for Inactive)
ROOT
HETATM    1  C1  UNL     1     -32.540   7.771   2.441  1.00 20.00     0.061 A 
HETATM    2  C2  UNL     1     -32.954   5.027   1.886  1.00 20.00     0.053 A 
HETATM    3  C3  UNL     1     -33.463   7.012   3.136  1.00 20.00     0.019 A 
HETATM    4  C4  UNL     1     -33.682   5.664   2.878  1.00 20.00    -0.041 A 
HETATM    5  C5  UNL     1     -31.807   7.132   1.441  1.00 20.00     0.155 A 
HETATM    6  C6  UNL     1     -32.013   5.770   1.166  1.00 20.00     0.155 A 
HETATM    7  C7  UNL     1     -34.350   7.418   4.214  1.00 20.00     0.160 A 
HETATM    8  C8  UNL     1     -34.730   5.067   3.762  1.00 20.00     0.047 A 
HETATM    9  C9  UNL     1     -35.180   6.236   4.655  1.00 20.00     0.088 A 
HETATM   10  O10 UNL     1     -34.399   8.544   4.673  1.00 20.00    -0.292 OA
HETATM   11  F11 UNL     1     -30.899   7.821   0.738  1.00 20.00    -0.203 F 
HETATM   12  F12 UNL     1     -31.296   5.175   0.201  1.00 20.00    -0.203 F 
ENDROOT
TORSDOF 0
ENDMDL
MODEL 7
REMARK VINA RESULT:       0.4      3.201      4.647
REMARK  0 active torsions:
REMARK  status: ('A' for Active; 'I' for Inactive)
ROOT
HETATM    1  C1  UNL     1     -33.264   8.029   3.557  1.00 20.00     0.061 A 
HETATM    2  C2  UNL     1     -34.205   5.399   3.103  1.00 20.00     0.053 A 
HETATM    3  C3  UNL     1     -32.797   7.251   2.513  1.00 20.00     0.019 A 
HETATM    4  C4  UNL     1     -33.245   5.958   2.274  1.00 20.00    -0.041 A 
HETATM    5  C5  UNL     1     -34.229   7.467   4.392  1.00 20.00     0.155 A 
HETATM    6  C6  UNL     1     -34.696   6.161   4.167  1.00 20.00     0.155 A 
HETATM    7  C7  UNL     1     -31.805   7.583   1.504  1.00 20.00     0.160 A 
HETATM    8  C8  UNL     1     -32.588   5.326   1.088  1.00 20.00     0.047 A 
HETATM    9  C9  UNL     1     -31.624   6.408   0.572  1.00 20.00     0.088 A 
HETATM   10  O10 UNL     1     -31.221   8.649   1.441  1.00 20.00    -0.292 OA
HETATM   11  F11 UNL     1     -34.715   8.178   5.418  1.00 20.00    -0.203 F 
HETATM   12  F12 UNL     1     -35.625   5.642   4.982  1.00 20.00    -0.203 F 
ENDROOT
TORSDOF 0
ENDMDL
MODEL 8
REMARK VINA RESULT:       0.6      1.296      2.516
REMARK  0 active torsions:
REMARK  status: ('A' for Active; 'I' for Inactive)
ROOT
HETATM    1  C1  UNL     1     -33.603   8.042   2.748  1.00 20.00     0.061 A 
HETATM    2  C2  UNL     1     -31.908   6.128   1.534  1.00 20.00     0.053 A 
HETATM    3  C3  UNL     1     -33.698   6.692   3.030  1.00 20.00     0.019 A 
HETATM    4  C4  UNL     1     -32.876   5.736   2.444  1.00 20.00    -0.041 A 
HETATM    5  C5  UNL     1     -32.628   8.438   1.831  1.00 20.00     0.155 A 
HETATM    6  C6  UNL     1     -31.787   7.487   1.228  1.00 20.00     0.155 A 
HETATM    7  C7  UNL     1     -34.611   6.013   3.934  1.00 20.00     0.160 A 
HETATM    8  C8  UNL     1     -33.177   4.348   2.911  1.00 20.00     0.047 A 
HETATM    9  C9  UNL     1     -34.337   4.528   3.905  1.00 20.00     0.088 A 
HETATM   10  O10 UNL     1     -35.460   6.576   4.600  1.00 20.00    -0.292 OA
HETATM   11  F11 UNL     1     -32.493   9.734   1.523  1.00 20.00    -0.203 F 
HETATM   12  F12 UNL     1     -30.857   7.890   0.352  1.00 20.00    -0.203 F 
ENDROOT
TORSDOF 0
ENDMDL
