MODEL 1
REMARK VINA RESULT:       2.4      0.000      0.000
REMARK  0 active torsions:
REMARK  status: ('A' for Active; 'I' for Inactive)
ROOT
HETATM    1  C1  UNL     1     -34.840   5.517   4.513  1.00 20.00     0.012 A 
HETATM    2  C2  UNL     1     -34.579   4.197   4.878  1.00 20.00     0.024 A 
HETATM    3  C3  UNL     1     -33.006   3.989   3.051  1.00 20.00     0.031 A 
HETATM    4  C4  UNL     1     -34.188   6.093   3.416  1.00 20.00    -0.021 A 
HETATM    5  C5  UNL     1     -33.254   5.314   2.671  1.00 20.00    -0.048 A 
HETATM    6  C6  UNL     1     -33.663   3.437   4.151  1.00 20.00     0.034 A 
HETATM    7  C7  UNL     1     -32.567   5.897   1.434  1.00 20.00     0.039 C 
HETATM    8  C8  UNL     1     -31.636   7.123   1.632  1.00 20.00     0.007 C 
HETATM    9  C9  UNL     1     -32.331   8.454   2.024  1.00 20.00     0.035 C 
HETATM   10  C10 UNL     1     -34.395   7.508   2.987  1.00 20.00     0.184 A 
HETATM   11  C11 UNL     1     -33.062   8.223   3.287  1.00 20.00     0.156 A 
HETATM   12  O12 UNL     1     -34.304   8.744   3.693  1.00 20.00    -0.370 OA
HETATM   13 CL13 UNL     1     -33.347   1.807   4.610  1.00 20.00    -0.084 Cl
ENDROOT
TORSDOF 0
ENDMDL
MODEL 2
REMARK VINA RESULT:       3.4      3.191      4.931
REMARK  0 active torsions:
REMARK  status: ('A' for Active; 'I' for Inactive)
ROOT
HETATM    1  C1  UNL     1     -33.208   9.636   2.409  1.00 20.00     0.012 A 
HETATM    2  C2  UNL     1     -32.883  10.295   1.224  1.00 20.00     0.024 A 
HETATM    3  C3  UNL     1     -31.935   8.255   0.333  1.00 20.00     0.031 A 
HETATM    4  C4  UNL     1     -32.906   8.279   2.573  1.00 20.00    -0.021 A 
HETATM    5  C5  UNL     1     -32.257   7.576   1.515  1.00 20.00    -0.048 A 
HETATM    6  C6  UNL     1     -32.251   9.607   0.190  1.00 20.00     0.034 A 
HETATM    7  C7  UNL     1     -31.862   6.107   1.685  1.00 20.00     0.039 C 
HETATM    8  C8  UNL     1     -32.999   5.071   1.897  1.00 20.00     0.007 C 
HETATM    9  C9  UNL     1     -33.756   5.151   3.249  1.00 20.00     0.035 C 
HETATM   10  C10 UNL     1     -33.251   7.502   3.800  1.00 20.00     0.184 A 
HETATM   11  C11 UNL     1     -34.340   6.504   3.356  1.00 20.00     0.156 A 
HETATM   12  O12 UNL     1     -34.481   7.314   4.497  1.00 20.00    -0.370 OA
HETATM   13 CL13 UNL     1     -31.853  10.430  -1.269  1.00 20.00    -0.084 Cl
ENDROOT
TORSDOF 0
ENDMDL
MODEL 3
REMARK VINA RESULT:       3.6      2.967      4.783
REMARK  0 active torsions:
REMARK  status: ('A' for Active; 'I' for Inactive)
ROOT
HETATM    1  C1  UNL     1     -32.045   5.516   1.703  1.00 20.00     0.012 A 
HETATM    2  C2  UNL     1     -31.516   6.735   1.278  1.00 20.00     0.024 A 
HETATM    3  C3  UNL     1     -33.411   7.903   2.224  1.00 20.00     0.031 A 
HETATM    4  C4  UNL     1     -33.261   5.473   2.395  1.00 20.00    -0.021 A 
HETATM    5  C5  UNL     1     -33.957   6.690   2.660  1.00 20.00    -0.048 A 
HETATM    6  C6  UNL     1     -32.195   7.923   1.540  1.00 20.00     0.034 A 
HETATM    7  C7  UNL     1     -35.315   6.670   3.366  1.00 20.00     0.039 C 
HETATM    8  C8  UNL     1     -35.369   6.130   4.820  1.00 20.00     0.007 C 
HETATM    9  C9  UNL     1     -35.118   4.610   4.996  1.00 20.00     0.035 C 
HETATM   10  C10 UNL     1     -33.871   4.210   2.906  1.00 20.00     0.184 A 
HETATM   11  C11 UNL     1     -33.782   4.308   4.443  1.00 20.00     0.156 A 
HETATM   12  O12 UNL     1     -33.359   3.168   3.735  1.00 20.00    -0.370 OA
HETATM   13 CL13 UNL     1     -31.534   9.423   1.011  1.00 20.00    -0.084 Cl
ENDROOT
TORSDOF 0
ENDMDL
MODEL 4
REMARK VINA RESULT:       3.9      2.324      3.712
REMARK  0 active torsions:
REMARK  status: ('A' for Active; 'I' for Inactive)
ROOT
HETATM    1  C1  UNL     1     -32.072   6.084   1.468  1.00 20.00     0.012 A 
HETATM    2  C2  UNL     1     -32.946   5.354   2.274  1.00 20.00     0.024 A 
HETATM    3  C3  UNL     1     -33.795   7.407   3.234  1.00 20.00     0.031 A 
HETATM    4  C4  UNL     1     -32.048   7.482   1.531  1.00 20.00    -0.021 A 
HETATM    5  C5  UNL     1     -32.926   8.156   2.431  1.00 20.00    -0.048 A 
HETATM    6  C6  UNL     1     -33.805   6.014   3.152  1.00 20.00     0.034 A 
HETATM    7  C7  UNL     1     -32.883   9.680   2.563  1.00 20.00     0.039 C 
HETATM    8  C8  UNL     1     -33.249  10.525   1.314  1.00 20.00     0.007 C 
HETATM    9  C9  UNL     1     -32.242  10.477   0.135  1.00 20.00     0.035 C 
HETATM   10  C10 UNL     1     -31.162   8.327   0.677  1.00 20.00     0.184 A 
HETATM   11  C11 UNL     1     -32.112   9.068  -0.287  1.00 20.00     0.156 A 
HETATM   12  O12 UNL     1     -30.967   8.384  -0.735  1.00 20.00    -0.370 OA
HETATM   13 CL13 UNL     1     -34.880   5.105   4.144  1.00 20.00    -0.084 Cl
ENDROOT
TORSDOF 0
ENDMDL
MODEL 5
REMARK VINA RESULT:       5.2      1.920      3.617
REMARK  0 active torsions:
REMARK  status: ('A' for Active; 'I' for Inactive)
ROOT
HETATM    1  C1  UNL     1     -32.312   7.104   1.687  1.00 20.00     0.012 A 
HETATM    2  C2  UNL     1     -31.717   6.303   0.713  1.00 20.00     0.024 A 
HETATM    3  C3  UNL     1     -32.392   4.316   1.916  1.00 20.00     0.031 A 
HETATM    4  C4  UNL     1     -32.957   6.525   2.786  1.00 20.00    -0.021 A 
HETATM    5  C5  UNL     1     -32.997   5.104   2.903  1.00 20.00    -0.048 A 
HETATM    6  C6  UNL     1     -31.759   4.915   0.826  1.00 20.00     0.034 A 
HETATM    7  C7  UNL     1     -33.645   4.442   4.122  1.00 20.00     0.039 C 
HETATM    8  C8  UNL     1     -35.164   4.669   4.346  1.00 20.00     0.007 C 
HETATM    9  C9  UNL     1     -35.591   6.105   4.747  1.00 20.00     0.035 C 
HETATM   10  C10 UNL     1     -33.640   7.319   3.850  1.00 20.00     0.184 A 
HETATM   11  C11 UNL     1     -35.144   7.020   3.677  1.00 20.00     0.156 A 
HETATM   12  O12 UNL     1     -34.645   8.331   3.791  1.00 20.00    -0.370 OA
HETATM   13 CL13 UNL     1     -31.021   3.934  -0.381  1.00 20.00    -0.084 Cl
ENDROOT
TORSDOF 0
ENDMDL
