MODEL 1
REMARK VINA RESULT:       1.2      0.000      0.000
REMARK  0 active torsions:
REMARK  status: ('A' for Active; 'I' for Inactive)
ROOT
HETATM    1  C1  UNL     1     -32.455   5.721   1.512  1.00 20.00     0.009 A 
HETATM    2  C2  UNL     1     -33.360   5.254   2.466  1.00 20.00     0.019 A 
HETATM    3  C3  UNL     1     -33.835   7.529   3.195  1.00 20.00     0.029 A 
HETATM    4  C4  UNL     1     -32.253   7.089   1.416  1.00 20.00    -0.047 A 
HETATM    5  C5  UNL     1     -32.935   8.000   2.249  1.00 20.00    -0.019 A 
HETATM    6  C6  UNL     1     -34.044   6.151   3.302  1.00 20.00     0.011 A 
HETATM    7  C7  UNL     1     -31.331   7.808   0.455  1.00 20.00     0.074 A 
HETATM    8  C8  UNL     1     -32.539   9.401   1.930  1.00 20.00     0.185 A 
HETATM    9  C9  UNL     1     -31.483   9.265   0.844  1.00 20.00     0.160 A 
HETATM   10  O10 UNL     1     -32.753   9.869   0.588  1.00 20.00    -0.370 OA
HETATM   11 BR11 UNL     1     -35.266   5.486   4.584  1.00 20.00    -0.051 Br
ENDROOT
TORSDOF 0
ENDMDL
MODEL 2
REMARK VINA RESULT:       1.4      1.634      2.654
REMARK  0 active torsions:
REMARK  status: ('A' for Active; 'I' for Inactive)
ROOT
HETATM    1  C1  UNL     1     -34.821   6.478   4.000  1.00 20.00     0.009 A 
HETATM    2  C2  UNL     1     -34.683   5.146   4.389  1.00 20.00     0.019 A 
HETATM    3  C3  UNL     1     -32.747   4.875   2.937  1.00 20.00     0.029 A 
HETATM    4  C4  UNL     1     -33.918   6.989   3.080  1.00 20.00    -0.047 A 
HETATM    5  C5  UNL     1     -32.880   6.200   2.545  1.00 20.00    -0.019 A 
HETATM    6  C6  UNL     1     -33.654   4.350   3.861  1.00 20.00     0.011 A 
HETATM    7  C7  UNL     1     -33.879   8.397   2.529  1.00 20.00     0.074 A 
HETATM    8  C8  UNL     1     -32.055   6.996   1.591  1.00 20.00     0.185 A 
HETATM    9  C9  UNL     1     -32.729   8.357   1.541  1.00 20.00     0.160 A 
HETATM   10  O10 UNL     1     -31.420   8.186   2.086  1.00 20.00    -0.370 OA
HETATM   11 BR11 UNL     1     -33.492   2.547   4.412  1.00 20.00    -0.051 Br
ENDROOT
TORSDOF 0
ENDMDL
MODEL 3
REMARK VINA RESULT:       1.5      2.742      4.031
REMARK  0 active torsions:
REMARK  status: ('A' for Active; 'I' for Inactive)
ROOT
HETATM    1  C1  UNL     1     -32.205   7.705   2.004  1.00 20.00     0.009 A 
HETATM    2  C2  UNL     1     -31.608   6.770   1.158  1.00 20.00     0.019 A 
HETATM    3  C3  UNL     1     -32.986   4.987   2.079  1.00 20.00     0.029 A 
HETATM    4  C4  UNL     1     -33.186   7.263   2.879  1.00 20.00    -0.047 A 
HETATM    5  C5  UNL     1     -33.584   5.912   2.924  1.00 20.00    -0.019 A 
HETATM    6  C6  UNL     1     -31.994   5.422   1.195  1.00 20.00     0.011 A 
HETATM    7  C7  UNL     1     -33.964   8.099   3.871  1.00 20.00     0.074 A 
HETATM    8  C8  UNL     1     -34.655   5.714   3.942  1.00 20.00     0.185 A 
HETATM    9  C9  UNL     1     -34.842   7.084   4.575  1.00 20.00     0.160 A 
HETATM   10  O10 UNL     1     -35.868   6.470   3.793  1.00 20.00    -0.370 OA
HETATM   11 BR11 UNL     1     -31.166   4.180   0.033  1.00 20.00    -0.051 Br
ENDROOT
TORSDOF 0
ENDMDL
MODEL 4
REMARK VINA RESULT:       1.7      2.919      4.226
REMARK  0 active torsions:
REMARK  status: ('A' for Active; 'I' for Inactive)
ROOT
HETATM    1  C1  UNL     1     -32.277   5.516   1.986  1.00 20.00     0.009 A 
HETATM    2  C2  UNL     1     -31.831   6.671   1.343  1.00 20.00     0.019 A 
HETATM    3  C3  UNL     1     -33.630   7.974   2.342  1.00 20.00     0.029 A 
HETATM    4  C4  UNL     1     -33.397   5.608   2.798  1.00 20.00    -0.047 A 
HETATM    5  C5  UNL     1     -34.078   6.828   2.983  1.00 20.00    -0.019 A 
HETATM    6  C6  UNL     1     -32.503   7.891   1.519  1.00 20.00     0.011 A 
HETATM    7  C7  UNL     1     -34.042   4.492   3.589  1.00 20.00     0.074 A 
HETATM    8  C8  UNL     1     -35.236   6.647   3.906  1.00 20.00     0.185 A 
HETATM    9  C9  UNL     1     -35.241   5.162   4.231  1.00 20.00     0.160 A 
HETATM   10  O10 UNL     1     -34.967   6.149   5.228  1.00 20.00    -0.370 OA
HETATM   11 BR11 UNL     1     -31.873   9.440   0.635  1.00 20.00    -0.051 Br
ENDROOT
TORSDOF 0
ENDMDL
MODEL 5
REMARK VINA RESULT:       2.7      3.113      4.832
REMARK  0 active torsions:
REMARK  status: ('A' for Active; 'I' for Inactive)
ROOT
HETATM    1  C1  UNL     1     -34.682   7.444   3.716  1.00 20.00     0.009 A 
HETATM    2  C2  UNL     1     -33.960   8.246   2.833  1.00 20.00     0.019 A 
HETATM    3  C3  UNL     1     -32.508   6.380   2.253  1.00 20.00     0.029 A 
HETATM    4  C4  UNL     1     -34.303   6.118   3.855  1.00 20.00    -0.047 A 
HETATM    5  C5  UNL     1     -33.222   5.576   3.131  1.00 20.00    -0.019 A 
HETATM    6  C6  UNL     1     -32.880   7.719   2.107  1.00 20.00     0.011 A 
HETATM    7  C7  UNL     1     -34.946   5.076   4.745  1.00 20.00     0.074 A 
HETATM    8  C8  UNL     1     -33.037   4.135   3.463  1.00 20.00     0.185 A 
HETATM    9  C9  UNL     1     -34.086   3.847   4.525  1.00 20.00     0.160 A 
HETATM   10  O10 UNL     1     -34.143   3.246   3.230  1.00 20.00    -0.370 OA
HETATM   11 BR11 UNL     1     -31.922   8.833   0.915  1.00 20.00    -0.051 Br
ENDROOT
TORSDOF 0
ENDMDL
MODEL 6
REMARK VINA RESULT:       3.5      1.201      2.180
REMARK  0 active torsions:
REMARK  status: ('A' for Active; 'I' for Inactive)
ROOT
HETATM    1  C1  UNL     1     -33.929   8.351   3.291  1.00 20.00     0.009 A 
HETATM    2  C2  UNL     1     -33.989   7.017   3.696  1.00 20.00     0.019 A 
HETATM    3  C3  UNL     1     -32.528   6.348   1.867  1.00 20.00     0.029 A 
HETATM    4  C4  UNL     1     -33.168   8.662   2.174  1.00 20.00    -0.047 A 
HETATM    5  C5  UNL     1     -32.465   7.672   1.457  1.00 20.00    -0.019 A 
HETATM    6  C6  UNL     1     -33.294   6.023   2.989  1.00 20.00     0.011 A 
HETATM    7  C7  UNL     1     -32.959  10.033   1.569  1.00 20.00     0.074 A 
HETATM    8  C8  UNL     1     -31.726   8.279   0.313  1.00 20.00     0.185 A 
HETATM    9  C9  UNL     1     -32.094   9.753   0.355  1.00 20.00     0.160 A 
HETATM   10  O10 UNL     1     -30.762   9.303   0.606  1.00 20.00    -0.370 OA
HETATM   11 BR11 UNL     1     -33.394   4.224   3.566  1.00 20.00    -0.051 Br
ENDROOT
TORSDOF 0
ENDMDL
MODEL 7
REMARK VINA RESULT:       3.7      2.912      4.441
REMARK  0 active torsions:
REMARK  status: ('A' for Active; 'I' for Inactive)
ROOT
HETATM    1  C1  UNL     1     -32.371   8.668   3.774  1.00 20.00     0.009 A 
HETATM    2  C2  UNL     1     -31.665   8.843   2.583  1.00 20.00     0.019 A 
HETATM    3  C3  UNL     1     -32.878   7.007   1.541  1.00 20.00     0.029 A 
HETATM    4  C4  UNL     1     -33.322   7.660   3.829  1.00 20.00    -0.047 A 
HETATM    5  C5  UNL     1     -33.583   6.827   2.722  1.00 20.00    -0.019 A 
HETATM    6  C6  UNL     1     -31.916   8.019   1.475  1.00 20.00     0.011 A 
HETATM    7  C7  UNL     1     -34.200   7.302   5.007  1.00 20.00     0.074 A 
HETATM    8  C8  UNL     1     -34.651   5.839   3.051  1.00 20.00     0.185 A 
HETATM    9  C9  UNL     1     -34.987   6.106   4.509  1.00 20.00     0.160 A 
HETATM   10  O10 UNL     1     -35.930   6.348   3.463  1.00 20.00    -0.370 OA
HETATM   11 BR11 UNL     1     -30.943   8.283  -0.126  1.00 20.00    -0.051 Br
ENDROOT
TORSDOF 0
ENDMDL
