MODEL 1
REMARK VINA RESULT:      -0.8      0.000      0.000
REMARK  0 active torsions:
REMARK  status: ('A' for Active; 'I' for Inactive)
ROOT
HETATM    1  C1  UNL     1     -32.384   5.449   1.689  1.00 20.00     0.009 A 
HETATM    2  C2  UNL     1     -31.842   6.590   1.098  1.00 20.00     0.024 A 
HETATM    3  C3  UNL     1     -33.166   8.027   2.551  1.00 20.00     0.034 A 
HETATM    4  C4  UNL     1     -33.311   5.614   2.705  1.00 20.00    -0.047 A 
HETATM    5  C5  UNL     1     -33.709   6.895   3.144  1.00 20.00    -0.019 A 
HETATM    6  C6  UNL     1     -32.229   7.869   1.526  1.00 20.00     0.034 A 
HETATM    7  C7  UNL     1     -34.025   4.525   3.474  1.00 20.00     0.074 A 
HETATM    8  C8  UNL     1     -34.715   6.785   4.239  1.00 20.00     0.185 A 
HETATM    9  C9  UNL     1     -34.859   5.290   4.481  1.00 20.00     0.160 A 
HETATM   10  O10 UNL     1     -35.934   6.076   3.960  1.00 20.00    -0.370 OA
HETATM   11 CL11 UNL     1     -31.543   9.262   0.778  1.00 20.00    -0.084 Cl
ENDROOT
TORSDOF 0
ENDMDL
MODEL 2
REMARK VINA RESULT:       0.2      1.209      2.191
REMARK  0 active torsions:
REMARK  status: ('A' for Active; 'I' for Inactive)
ROOT
HETATM    1  C1  UNL     1     -33.884   8.027   3.615  1.00 20.00     0.009 A 
HETATM    2  C2  UNL     1     -32.974   8.503   2.671  1.00 20.00     0.024 A 
HETATM    3  C3  UNL     1     -32.549   6.242   1.873  1.00 20.00     0.034 A 
HETATM    4  C4  UNL     1     -34.114   6.662   3.673  1.00 20.00    -0.047 A 
HETATM    5  C5  UNL     1     -33.455   5.762   2.810  1.00 20.00    -0.019 A 
HETATM    6  C6  UNL     1     -32.312   7.618   1.807  1.00 20.00     0.034 A 
HETATM    7  C7  UNL     1     -35.047   5.935   4.615  1.00 20.00     0.074 A 
HETATM    8  C8  UNL     1     -33.881   4.361   3.088  1.00 20.00     0.185 A 
HETATM    9  C9  UNL     1     -34.929   4.487   4.183  1.00 20.00     0.160 A 
HETATM   10  O10 UNL     1     -33.671   3.848   4.414  1.00 20.00    -0.370 OA
HETATM   11 CL11 UNL     1     -31.192   8.235   0.651  1.00 20.00    -0.084 Cl
ENDROOT
TORSDOF 0
ENDMDL
MODEL 3
REMARK VINA RESULT:       1.3      0.976      1.206
REMARK  0 active torsions:
REMARK  status: ('A' for Active; 'I' for Inactive)
ROOT
HETATM    1  C1  UNL     1     -31.952   6.839   1.350  1.00 20.00     0.009 A 
HETATM    2  C2  UNL     1     -31.722   8.115   0.836  1.00 20.00     0.024 A 
HETATM    3  C3  UNL     1     -33.333   9.080   2.386  1.00 20.00     0.034 A 
HETATM    4  C4  UNL     1     -32.871   6.703   2.378  1.00 20.00    -0.047 A 
HETATM    5  C5  UNL     1     -33.566   7.813   2.903  1.00 20.00    -0.019 A 
HETATM    6  C6  UNL     1     -32.407   9.227   1.349  1.00 20.00     0.034 A 
HETATM    7  C7  UNL     1     -33.276   5.422   3.075  1.00 20.00     0.074 A 
HETATM    8  C8  UNL     1     -34.491   7.385   3.991  1.00 20.00     0.185 A 
HETATM    9  C9  UNL     1     -34.255   5.890   4.133  1.00 20.00     0.160 A 
HETATM   10  O10 UNL     1     -35.501   6.414   3.669  1.00 20.00    -0.370 OA
HETATM   11 CL11 UNL     1     -32.103  10.792   0.694  1.00 20.00    -0.084 Cl
ENDROOT
TORSDOF 0
ENDMDL
MODEL 4
REMARK VINA RESULT:       1.3      2.838      4.411
REMARK  0 active torsions:
REMARK  status: ('A' for Active; 'I' for Inactive)
ROOT
HETATM    1  C1  UNL     1     -34.244   7.633   3.802  1.00 20.00     0.009 A 
HETATM    2  C2  UNL     1     -34.443   6.295   4.143  1.00 20.00     0.024 A 
HETATM    3  C3  UNL     1     -32.820   5.581   2.473  1.00 20.00     0.034 A 
HETATM    4  C4  UNL     1     -33.333   7.925   2.799  1.00 20.00    -0.047 A 
HETATM    5  C5  UNL     1     -32.617   6.911   2.130  1.00 20.00    -0.019 A 
HETATM    6  C6  UNL     1     -33.737   5.277   3.484  1.00 20.00     0.034 A 
HETATM    7  C7  UNL     1     -32.969   9.295   2.270  1.00 20.00     0.074 A 
HETATM    8  C8  UNL     1     -31.713   7.499   1.100  1.00 20.00     0.185 A 
HETATM    9  C9  UNL     1     -31.896   9.002   1.240  1.00 20.00     0.160 A 
HETATM   10  O10 UNL     1     -32.309   8.299   0.065  1.00 20.00    -0.370 OA
HETATM   11 CL11 UNL     1     -34.003   3.632   3.926  1.00 20.00    -0.084 Cl
ENDROOT
TORSDOF 0
ENDMDL
MODEL 5
REMARK VINA RESULT:       1.5      2.850      4.000
REMARK  0 active torsions:
REMARK  status: ('A' for Active; 'I' for Inactive)
ROOT
HETATM    1  C1  UNL     1     -32.967   5.059   1.967  1.00 20.00     0.009 A 
HETATM    2  C2  UNL     1     -33.915   4.638   2.900  1.00 20.00     0.024 A 
HETATM    3  C3  UNL     1     -34.146   6.906   3.756  1.00 20.00     0.034 A 
HETATM    4  C4  UNL     1     -32.623   6.401   1.942  1.00 20.00    -0.047 A 
HETATM    5  C5  UNL     1     -33.204   7.332   2.829  1.00 20.00    -0.019 A 
HETATM    6  C6  UNL     1     -34.500   5.554   3.788  1.00 20.00     0.034 A 
HETATM    7  C7  UNL     1     -31.623   7.069   1.024  1.00 20.00     0.074 A 
HETATM    8  C8  UNL     1     -32.655   8.697   2.590  1.00 20.00     0.185 A 
HETATM    9  C9  UNL     1     -31.708   8.531   1.412  1.00 20.00     0.160 A 
HETATM   10  O10 UNL     1     -31.235   8.878   2.716  1.00 20.00    -0.370 OA
HETATM   11 CL11 UNL     1     -35.667   5.006   4.931  1.00 20.00    -0.084 Cl
ENDROOT
TORSDOF 0
ENDMDL
MODEL 6
REMARK VINA RESULT:       1.8      2.899      4.460
REMARK  0 active torsions:
REMARK  status: ('A' for Active; 'I' for Inactive)
ROOT
HETATM    1  C1  UNL     1     -33.342   8.265   4.468  1.00 20.00     0.009 A 
HETATM    2  C2  UNL     1     -34.296   7.317   4.840  1.00 20.00     0.024 A 
HETATM    3  C3  UNL     1     -33.879   6.035   2.812  1.00 20.00     0.034 A 
HETATM    4  C4  UNL     1     -32.670   8.083   3.270  1.00 20.00    -0.047 A 
HETATM    5  C5  UNL     1     -32.928   6.975   2.436  1.00 20.00    -0.019 A 
HETATM    6  C6  UNL     1     -34.562   6.211   4.019  1.00 20.00     0.034 A 
HETATM    7  C7  UNL     1     -31.610   8.983   2.675  1.00 20.00     0.074 A 
HETATM    8  C8  UNL     1     -32.073   7.027   1.216  1.00 20.00     0.185 A 
HETATM    9  C9  UNL     1     -31.203   8.260   1.406  1.00 20.00     0.160 A 
HETATM   10  O10 UNL     1     -32.184   8.182   0.369  1.00 20.00    -0.370 OA
HETATM   11 CL11 UNL     1     -35.745   5.055   4.504  1.00 20.00    -0.084 Cl
ENDROOT
TORSDOF 0
ENDMDL
MODEL 7
REMARK VINA RESULT:       1.9      1.753      2.515
REMARK  0 active torsions:
REMARK  status: ('A' for Active; 'I' for Inactive)
ROOT
HETATM    1  C1  UNL     1     -32.013   7.715   2.187  1.00 20.00     0.009 A 
HETATM    2  C2  UNL     1     -31.417   6.791   1.328  1.00 20.00     0.024 A 
HETATM    3  C3  UNL     1     -33.145   5.149   1.822  1.00 20.00     0.034 A 
HETATM    4  C4  UNL     1     -33.170   7.340   2.852  1.00 20.00    -0.047 A 
HETATM    5  C5  UNL     1     -33.744   6.064   2.678  1.00 20.00    -0.019 A 
HETATM    6  C6  UNL     1     -31.979   5.518   1.147  1.00 20.00     0.034 A 
HETATM    7  C7  UNL     1     -33.972   8.174   3.826  1.00 20.00     0.074 A 
HETATM    8  C8  UNL     1     -34.974   5.924   3.510  1.00 20.00     0.185 A 
HETATM    9  C9  UNL     1     -35.142   7.278   4.179  1.00 20.00     0.160 A 
HETATM   10  O10 UNL     1     -34.844   6.099   4.930  1.00 20.00    -0.370 OA
HETATM   11 CL11 UNL     1     -31.221   4.398   0.079  1.00 20.00    -0.084 Cl
ENDROOT
TORSDOF 0
ENDMDL
