MODEL 1
REMARK VINA RESULT:      -0.7      0.000      0.000
REMARK  1 active torsions:
REMARK  status: ('A' for Active; 'I' for Inactive)
REMARK    1  A    between atoms: C3_3  and  C8_8 
ROOT
HETATM    1  C1  UNL     1     -34.650   6.289   4.411  1.00 20.00     0.058 A 
HETATM    2  C2  UNL     1     -33.192   6.060   2.650  1.00 20.00    -0.037 A 
HETATM    3  C3  UNL     1     -34.011   5.384   3.577  1.00 20.00    -0.031 A 
HETATM    4  C4  UNL     1     -33.240   7.417   2.808  1.00 20.00    -0.011 A 
HETATM    5  C5  UNL     1     -32.290   5.680   1.536  1.00 20.00     0.040 C 
HETATM    6  C6  UNL     1     -32.394   8.166   1.849  1.00 20.00     0.047 C 
HETATM    7  C7  UNL     1     -31.521   7.012   1.265  1.00 20.00     0.010 C 
HETATM    8  S9  UNL     1     -34.242   7.931   4.044  1.00 20.00    -0.105 SA
ENDROOT
BRANCH   3   9
HETATM    9  C8  UNL     1     -34.170   3.915   3.657  1.00 20.00     0.154 C 
HETATM   10 CL10 UNL     1     -33.082   3.220   4.887  1.00 20.00    -0.126 Cl
ENDBRANCH   3   9
TORSDOF 1
ENDMDL
MODEL 2
REMARK VINA RESULT:      -0.5      3.002      4.555
REMARK  1 active torsions:
REMARK  status: ('A' for Active; 'I' for Inactive)
REMARK    1  A    between atoms: C3_3  and  C8_8 
ROOT
HETATM    1  C1  UNL     1     -31.766   6.850   1.090  1.00 20.00     0.058 A 
HETATM    2  C2  UNL     1     -33.331   7.369   2.691  1.00 20.00    -0.037 A 
HETATM    3  C3  UNL     1     -32.375   7.881   1.789  1.00 20.00    -0.031 A 
HETATM    4  C4  UNL     1     -33.411   6.005   2.644  1.00 20.00    -0.011 A 
HETATM    5  C5  UNL     1     -34.281   7.930   3.681  1.00 20.00     0.040 C 
HETATM    6  C6  UNL     1     -34.407   5.427   3.575  1.00 20.00     0.047 C 
HETATM    7  C7  UNL     1     -34.709   6.660   4.483  1.00 20.00     0.010 C 
HETATM    8  S9  UNL     1     -32.371   5.293   1.545  1.00 20.00    -0.105 SA
ENDROOT
BRANCH   3   9
HETATM    9  C8  UNL     1     -32.060   9.315   1.610  1.00 20.00     0.154 C 
HETATM   10 CL10 UNL     1     -32.501   9.866  -0.027  1.00 20.00    -0.126 Cl
ENDBRANCH   3   9
TORSDOF 1
ENDMDL
MODEL 3
REMARK VINA RESULT:      -0.5      1.953      3.339
REMARK  1 active torsions:
REMARK  status: ('A' for Active; 'I' for Inactive)
REMARK    1  A    between atoms: C3_3  and  C8_8 
ROOT
HETATM    1  C1  UNL     1     -31.806   7.167   1.295  1.00 20.00     0.058 A 
HETATM    2  C2  UNL     1     -33.340   6.100   2.634  1.00 20.00    -0.037 A 
HETATM    3  C3  UNL     1     -32.429   5.958   1.567  1.00 20.00    -0.031 A 
HETATM    4  C4  UNL     1     -33.374   7.378   3.120  1.00 20.00    -0.011 A 
HETATM    5  C5  UNL     1     -34.274   5.218   3.373  1.00 20.00     0.040 C 
HETATM    6  C6  UNL     1     -34.318   7.569   4.245  1.00 20.00     0.047 C 
HETATM    7  C7  UNL     1     -35.143   6.247   4.163  1.00 20.00     0.010 C 
HETATM    8  S9  UNL     1     -32.341   8.438   2.342  1.00 20.00    -0.105 SA
ENDROOT
BRANCH   3   9
HETATM    9  C8  UNL     1     -32.169   4.699   0.836  1.00 20.00     0.154 C 
HETATM   10 CL10 UNL     1     -33.554   4.262  -0.197  1.00 20.00    -0.126 Cl
ENDBRANCH   3   9
TORSDOF 1
ENDMDL
MODEL 4
REMARK VINA RESULT:      -0.0      1.510      1.749
REMARK  1 active torsions:
REMARK  status: ('A' for Active; 'I' for Inactive)
REMARK    1  A    between atoms: C3_3  and  C8_8 
ROOT
HETATM    1  C1  UNL     1     -33.825   8.175   4.218  1.00 20.00     0.058 A 
HETATM    2  C2  UNL     1     -33.393   6.614   2.588  1.00 20.00    -0.037 A 
HETATM    3  C3  UNL     1     -34.251   6.987   3.643  1.00 20.00    -0.031 A 
HETATM    4  C4  UNL     1     -32.375   7.508   2.405  1.00 20.00    -0.011 A 
HETATM    5  C5  UNL     1     -33.309   5.498   1.616  1.00 20.00     0.040 C 
HETATM    6  C6  UNL     1     -31.452   7.154   1.303  1.00 20.00     0.047 C 
HETATM    7  C7  UNL     1     -31.870   5.674   1.034  1.00 20.00     0.010 C 
HETATM    8  S9  UNL     1     -32.401   8.804   3.461  1.00 20.00    -0.105 SA
ENDROOT
BRANCH   3   9
HETATM    9  C8  UNL     1     -35.439   6.223   4.080  1.00 20.00     0.154 C 
HETATM   10 CL10 UNL     1     -34.987   4.578   4.599  1.00 20.00    -0.126 Cl
ENDBRANCH   3   9
TORSDOF 1
ENDMDL
MODEL 5
REMARK VINA RESULT:       0.3      2.113      2.995
REMARK  1 active torsions:
REMARK  status: ('A' for Active; 'I' for Inactive)
REMARK    1  A    between atoms: C3_3  and  C8_8 
ROOT
HETATM    1  C1  UNL     1     -33.055   5.731   2.495  1.00 20.00     0.058 A 
HETATM    2  C2  UNL     1     -32.792   7.969   2.040  1.00 20.00    -0.037 A 
HETATM    3  C3  UNL     1     -33.405   7.016   2.880  1.00 20.00    -0.031 A 
HETATM    4  C4  UNL     1     -32.018   7.387   1.074  1.00 20.00    -0.011 A 
HETATM    5  C5  UNL     1     -32.764   9.447   1.933  1.00 20.00     0.040 C 
HETATM    6  C6  UNL     1     -31.354   8.354   0.171  1.00 20.00     0.047 C 
HETATM    7  C7  UNL     1     -32.125   9.664   0.525  1.00 20.00     0.010 C 
HETATM    8  S9  UNL     1     -31.991   5.716   1.129  1.00 20.00    -0.105 SA
ENDROOT
BRANCH   3   9
HETATM    9  C8  UNL     1     -34.299   7.337   4.015  1.00 20.00     0.154 C 
HETATM   10 CL10 UNL     1     -35.500   6.044   4.267  1.00 20.00    -0.126 Cl
ENDBRANCH   3   9
TORSDOF 1
ENDMDL
MODEL 6
REMARK VINA RESULT:       1.1      2.814      3.982
REMARK  1 active torsions:
REMARK  status: ('A' for Active; 'I' for Inactive)
REMARK    1  A    between atoms: C3_3  and  C8_8 
ROOT
HETATM    1  C1  UNL     1     -32.949   8.765   2.986  1.00 20.00     0.058 A 
HETATM    2  C2  UNL     1     -32.656   6.716   1.987  1.00 20.00    -0.037 A 
HETATM    3  C3  UNL     1     -32.370   8.095   1.919  1.00 20.00    -0.031 A 
HETATM    4  C4  UNL     1     -33.419   6.398   3.076  1.00 20.00    -0.011 A 
HETATM    5  C5  UNL     1     -32.337   5.513   1.183  1.00 20.00     0.040 C 
HETATM    6  C6  UNL     1     -33.740   4.956   3.186  1.00 20.00     0.047 C 
HETATM    7  C7  UNL     1     -33.326   4.454   1.767  1.00 20.00     0.010 C 
HETATM    8  S9  UNL     1     -33.819   7.703   4.042  1.00 20.00    -0.105 SA
ENDROOT
BRANCH   3   9
HETATM    9  C8  UNL     1     -31.567   8.744   0.859  1.00 20.00     0.154 C 
HETATM   10 CL10 UNL     1     -32.488  10.049   0.068  1.00 20.00    -0.126 Cl
ENDBRANCH   3   9
TORSDOF 1
ENDMDL
MODEL 7
REMARK VINA RESULT:       1.3      1.630      2.380
REMARK  1 active torsions:
REMARK  status: ('A' for Active; 'I' for Inactive)
REMARK    1  A    between atoms: C3_3  and  C8_8 
ROOT
HETATM    1  C1  UNL     1     -32.884   4.482   2.119  1.00 20.00     0.058 A 
HETATM    2  C2  UNL     1     -33.516   6.387   3.237  1.00 20.00    -0.037 A 
HETATM    3  C3  UNL     1     -33.566   4.978   3.219  1.00 20.00    -0.031 A 
HETATM    4  C4  UNL     1     -32.814   6.895   2.179  1.00 20.00    -0.011 A 
HETATM    5  C5  UNL     1     -34.025   7.469   4.114  1.00 20.00     0.040 C 
HETATM    6  C6  UNL     1     -32.735   8.374   2.163  1.00 20.00     0.047 C 
HETATM    7  C7  UNL     1     -33.817   8.737   3.227  1.00 20.00     0.010 C 
HETATM    8  S9  UNL     1     -32.200   5.737   1.142  1.00 20.00    -0.105 SA
ENDROOT
BRANCH   3   9
HETATM    9  C8  UNL     1     -34.250   4.141   4.228  1.00 20.00     0.154 C 
HETATM   10 CL10 UNL     1     -33.157   2.883   4.863  1.00 20.00    -0.126 Cl
ENDBRANCH   3   9
TORSDOF 1
ENDMDL
MODEL 8
REMARK VINA RESULT:       1.8      2.235      2.887
REMARK  1 active torsions:
REMARK  status: ('A' for Active; 'I' for Inactive)
REMARK    1  A    between atoms: C3_3  and  C8_8 
ROOT
HETATM    1  C1  UNL     1     -34.595   5.863   4.121  1.00 20.00     0.058 A 
HETATM    2  C2  UNL     1     -33.091   7.000   2.807  1.00 20.00    -0.037 A 
HETATM    3  C3  UNL     1     -33.990   7.089   3.890  1.00 20.00    -0.031 A 
HETATM    4  C4  UNL     1     -33.046   5.743   2.271  1.00 20.00    -0.011 A 
HETATM    5  C5  UNL     1     -32.172   7.920   2.096  1.00 20.00     0.040 C 
HETATM    6  C6  UNL     1     -32.111   5.606   1.131  1.00 20.00     0.047 C 
HETATM    7  C7  UNL     1     -31.817   7.105   0.812  1.00 20.00     0.010 C 
HETATM    8  S9  UNL     1     -34.054   4.639   3.022  1.00 20.00    -0.105 SA
ENDROOT
BRANCH   3   9
HETATM    9  C8  UNL     1     -34.256   8.315   4.673  1.00 20.00     0.154 C 
HETATM   10 CL10 UNL     1     -32.873   8.715   5.724  1.00 20.00    -0.126 Cl
ENDBRANCH   3   9
TORSDOF 1
ENDMDL
MODEL 9
REMARK VINA RESULT:       1.9      2.543      4.165
REMARK  1 active torsions:
REMARK  status: ('A' for Active; 'I' for Inactive)
REMARK    1  A    between atoms: C3_3  and  C8_8 
ROOT
HETATM    1  C1  UNL     1     -32.131   5.923   1.274  1.00 20.00     0.058 A 
HETATM    2  C2  UNL     1     -33.520   6.819   2.871  1.00 20.00    -0.037 A 
HETATM    3  C3  UNL     1     -32.494   7.083   1.941  1.00 20.00    -0.031 A 
HETATM    4  C4  UNL     1     -33.891   5.503   2.875  1.00 20.00    -0.011 A 
HETATM    5  C5  UNL     1     -34.311   7.604   3.849  1.00 20.00     0.040 C 
HETATM    6  C6  UNL     1     -34.970   5.184   3.838  1.00 20.00     0.047 C 
HETATM    7  C7  UNL     1     -34.985   6.483   4.702  1.00 20.00     0.010 C 
HETATM    8  S9  UNL     1     -33.047   4.548   1.792  1.00 20.00    -0.105 SA
ENDROOT
BRANCH   3   9
HETATM    9  C8  UNL     1     -31.884   8.410   1.705  1.00 20.00     0.154 C 
HETATM   10 CL10 UNL     1     -31.164   9.058   3.201  1.00 20.00    -0.126 Cl
ENDBRANCH   3   9
TORSDOF 1
ENDMDL
