MODEL 1
REMARK VINA RESULT:       2.6      0.000      0.000
REMARK  0 active torsions:
REMARK  status: ('A' for Active; 'I' for Inactive)
ROOT
HETATM    1  C1  UNL     1     -32.176   5.758   1.559  1.00 20.00     0.012 A 
HETATM    2  C2  UNL     1     -31.895   6.837   0.720  1.00 20.00     0.024 A 
HETATM    3  C3  UNL     1     -32.880   8.340   2.327  1.00 20.00     0.031 A 
HETATM    4  C4  UNL     1     -32.815   5.941   2.796  1.00 20.00    -0.021 A 
HETATM    5  C5  UNL     1     -33.163   7.262   3.177  1.00 20.00    -0.048 A 
HETATM    6  C6  UNL     1     -32.249   8.127   1.103  1.00 20.00     0.034 A 
HETATM    7  C7  UNL     1     -33.839   7.508   4.507  1.00 20.00     0.039 C 
HETATM    8  C8  UNL     1     -35.294   7.022   4.586  1.00 20.00     0.007 C 
HETATM    9  C9  UNL     1     -35.573   5.636   3.996  1.00 20.00     0.035 C 
HETATM   10  C10 UNL     1     -33.128   4.758   3.682  1.00 20.00     0.184 A 
HETATM   11  C11 UNL     1     -34.500   4.645   4.318  1.00 20.00     0.156 A 
HETATM   12  O12 UNL     1     -34.111   3.813   3.222  1.00 20.00    -0.370 OA
HETATM   13 CL13 UNL     1     -31.903   9.458   0.068  1.00 20.00    -0.084 Cl
ENDROOT
TORSDOF 0
ENDMDL
MODEL 2
REMARK VINA RESULT:       3.1      1.074      1.363
REMARK  0 active torsions:
REMARK  status: ('A' for Active; 'I' for Inactive)
ROOT
HETATM    1  C1  UNL     1     -32.077   7.105   0.577  1.00 20.00     0.012 A 
HETATM    2  C2  UNL     1     -32.000   8.362  -0.024  1.00 20.00     0.024 A 
HETATM    3  C3  UNL     1     -32.625   9.395   2.062  1.00 20.00     0.031 A 
HETATM    4  C4  UNL     1     -32.430   6.961   1.928  1.00 20.00    -0.021 A 
HETATM    5  C5  UNL     1     -32.701   8.135   2.675  1.00 20.00    -0.048 A 
HETATM    6  C6  UNL     1     -32.277   9.505   0.718  1.00 20.00     0.034 A 
HETATM    7  C7  UNL     1     -33.070   8.029   4.137  1.00 20.00     0.039 C 
HETATM    8  C8  UNL     1     -34.465   7.446   4.405  1.00 20.00     0.007 C 
HETATM    9  C9  UNL     1     -34.851   6.216   3.578  1.00 20.00     0.035 C 
HETATM   10  C10 UNL     1     -32.524   5.590   2.556  1.00 20.00     0.184 A 
HETATM   11  C11 UNL     1     -33.721   5.248   3.423  1.00 20.00     0.156 A 
HETATM   12  O12 UNL     1     -33.573   4.713   2.105  1.00 20.00    -0.370 OA
HETATM   13 CL13 UNL     1     -32.184  11.056  -0.023  1.00 20.00    -0.084 Cl
ENDROOT
TORSDOF 0
ENDMDL
MODEL 3
REMARK VINA RESULT:       3.4      3.031      4.204
REMARK  0 active torsions:
REMARK  status: ('A' for Active; 'I' for Inactive)
ROOT
HETATM    1  C1  UNL     1     -32.185   4.602   2.188  1.00 20.00     0.012 A 
HETATM    2  C2  UNL     1     -32.329   3.440   2.946  1.00 20.00     0.024 A 
HETATM    3  C3  UNL     1     -34.083   4.492   4.222  1.00 20.00     0.031 A 
HETATM    4  C4  UNL     1     -32.981   5.734   2.427  1.00 20.00    -0.021 A 
HETATM    5  C5  UNL     1     -33.947   5.663   3.461  1.00 20.00    -0.048 A 
HETATM    6  C6  UNL     1     -33.276   3.386   3.964  1.00 20.00     0.034 A 
HETATM    7  C7  UNL     1     -34.836   6.853   3.744  1.00 20.00     0.039 C 
HETATM    8  C8  UNL     1     -34.120   8.048   4.392  1.00 20.00     0.007 C 
HETATM    9  C9  UNL     1     -32.758   8.418   3.798  1.00 20.00     0.035 C 
HETATM   10  C10 UNL     1     -32.797   6.989   1.606  1.00 20.00     0.184 A 
HETATM   11  C11 UNL     1     -32.738   8.334   2.304  1.00 20.00     0.156 A 
HETATM   12  O12 UNL     1     -31.567   7.721   1.760  1.00 20.00    -0.370 OA
HETATM   13 CL13 UNL     1     -33.453   1.953   4.901  1.00 20.00    -0.084 Cl
ENDROOT
TORSDOF 0
ENDMDL
MODEL 4
REMARK VINA RESULT:       4.5      3.015      5.087
REMARK  0 active torsions:
REMARK  status: ('A' for Active; 'I' for Inactive)
ROOT
HETATM    1  C1  UNL     1     -34.004   8.379   3.294  1.00 20.00     0.012 A 
HETATM    2  C2  UNL     1     -34.336   7.077   3.670  1.00 20.00     0.024 A 
HETATM    3  C3  UNL     1     -32.578   6.224   2.258  1.00 20.00     0.031 A 
HETATM    4  C4  UNL     1     -32.957   8.636   2.394  1.00 20.00    -0.021 A 
HETATM    5  C5  UNL     1     -32.236   7.530   1.879  1.00 20.00    -0.048 A 
HETATM    6  C6  UNL     1     -33.625   6.000   3.150  1.00 20.00     0.034 A 
HETATM    7  C7  UNL     1     -31.090   7.759   0.918  1.00 20.00     0.039 C 
HETATM    8  C8  UNL     1     -31.512   8.232  -0.481  1.00 20.00     0.007 C 
HETATM    9  C9  UNL     1     -32.588   9.321  -0.526  1.00 20.00     0.035 C 
HETATM   10  C10 UNL     1     -32.624  10.052   1.986  1.00 20.00     0.184 A 
HETATM   11  C11 UNL     1     -32.392  10.370   0.522  1.00 20.00     0.156 A 
HETATM   12  O12 UNL     1     -33.588  10.769   1.195  1.00 20.00    -0.370 OA
HETATM   13 CL13 UNL     1     -34.036   4.394   3.611  1.00 20.00    -0.084 Cl
ENDROOT
TORSDOF 0
ENDMDL
MODEL 5
REMARK VINA RESULT:       4.5      1.385      2.614
REMARK  0 active torsions:
REMARK  status: ('A' for Active; 'I' for Inactive)
ROOT
HETATM    1  C1  UNL     1     -33.932   8.040   3.239  1.00 20.00     0.012 A 
HETATM    2  C2  UNL     1     -32.827   8.596   2.592  1.00 20.00     0.024 A 
HETATM    3  C3  UNL     1     -32.258   6.428   1.705  1.00 20.00     0.031 A 
HETATM    4  C4  UNL     1     -34.225   6.671   3.137  1.00 20.00    -0.021 A 
HETATM    5  C5  UNL     1     -33.368   5.863   2.349  1.00 20.00    -0.048 A 
HETATM    6  C6  UNL     1     -31.990   7.790   1.828  1.00 20.00     0.034 A 
HETATM    7  C7  UNL     1     -33.654   4.385   2.198  1.00 20.00     0.039 C 
HETATM    8  C8  UNL     1     -33.400   3.552   3.463  1.00 20.00     0.007 C 
HETATM    9  C9  UNL     1     -33.910   4.152   4.777  1.00 20.00     0.035 C 
HETATM   10  C10 UNL     1     -35.416   6.085   3.858  1.00 20.00     0.184 A 
HETATM   11  C11 UNL     1     -35.254   4.792   4.636  1.00 20.00     0.156 A 
HETATM   12  O12 UNL     1     -35.384   6.053   5.297  1.00 20.00    -0.370 OA
HETATM   13 CL13 UNL     1     -30.626   8.475   1.033  1.00 20.00    -0.084 Cl
ENDROOT
TORSDOF 0
ENDMDL
MODEL 6
REMARK VINA RESULT:       5.5      2.934      4.162
REMARK  0 active torsions:
REMARK  status: ('A' for Active; 'I' for Inactive)
ROOT
HETATM    1  C1  UNL     1     -32.756   5.777   1.287  1.00 20.00     0.012 A 
HETATM    2  C2  UNL     1     -32.958   4.501   1.814  1.00 20.00     0.024 A 
HETATM    3  C3  UNL     1     -33.760   5.477   3.867  1.00 20.00     0.031 A 
HETATM    4  C4  UNL     1     -33.048   6.930   2.033  1.00 20.00    -0.021 A 
HETATM    5  C5  UNL     1     -33.564   6.764   3.343  1.00 20.00    -0.048 A 
HETATM    6  C6  UNL     1     -33.457   4.351   3.104  1.00 20.00     0.034 A 
HETATM    7  C7  UNL     1     -33.907   7.977   4.178  1.00 20.00     0.039 C 
HETATM    8  C8  UNL     1     -32.693   8.775   4.676  1.00 20.00     0.007 C 
HETATM    9  C9  UNL     1     -31.582   9.021   3.651  1.00 20.00     0.035 C 
HETATM   10  C10 UNL     1     -32.806   8.303   1.451  1.00 20.00     0.184 A 
HETATM   11  C11 UNL     1     -32.114   9.358   2.294  1.00 20.00     0.156 A 
HETATM   12  O12 UNL     1     -31.444   8.704   1.213  1.00 20.00    -0.370 OA
HETATM   13 CL13 UNL     1     -33.704   2.777   3.754  1.00 20.00    -0.084 Cl
ENDROOT
TORSDOF 0
ENDMDL
