MODEL 1
REMARK VINA RESULT:      -2.3      0.000      0.000
REMARK  5 active torsions:
REMARK  status: ('A' for Active; 'I' for Inactive)
REMARK    1  A    between atoms: C3_3  and  C5_5 
REMARK    2  A    between atoms: C4_4  and  C6_6 
REMARK    3  A    between atoms: C5_5  and  C7_7 
REMARK    4  A    between atoms: C6_6  and  S9_9 
REMARK    5  A    between atoms: C7_7  and  S9_9 
ROOT
HETATM    1  C1  UNL     1     -32.250   9.102   0.778  1.00 20.00     0.059 C 
HETATM    2  C3  UNL     1     -31.929   7.883   1.532  1.00 20.00     0.124 C 
HETATM    3  N8  UNL     1     -32.501  10.065   0.181  1.00 20.00    -0.197 NA
ENDROOT
BRANCH   2   4
HETATM    4  C5  UNL     1     -32.789   7.774   2.793  1.00 20.00     0.024 C 
BRANCH   4   5
HETATM    5  C7  UNL     1     -33.478   6.415   2.866  1.00 20.00     0.075 C 
BRANCH   5   6
HETATM    6  S9  UNL     1     -34.913   6.482   3.978  1.00 20.00    -0.169 SA
BRANCH   6   7
HETATM    7  C6  UNL     1     -34.927   4.749   4.493  1.00 20.00     0.073 C 
BRANCH   7   8
HETATM    8  C4  UNL     1     -33.750   4.000   3.879  1.00 20.00     0.006 C 
HETATM    9  C2  UNL     1     -33.197   2.962   4.846  1.00 20.00     0.006 C 
ENDBRANCH   7   8
ENDBRANCH   6   7
ENDBRANCH   5   6
ENDBRANCH   4   5
ENDBRANCH   2   4
TORSDOF 5
ENDMDL
MODEL 2
REMARK VINA RESULT:      -2.1      2.939      5.620
REMARK  5 active torsions:
REMARK  status: ('A' for Active; 'I' for Inactive)
REMARK    1  A    between atoms: C3_3  and  C5_5 
REMARK    2  A    between atoms: C4_4  and  C6_6 
REMARK    3  A    between atoms: C5_5  and  C7_7 
REMARK    4  A    between atoms: C6_6  and  S9_9 
REMARK    5  A    between atoms: C7_7  and  S9_9 
ROOT
HETATM    1  C1  UNL     1     -34.493   4.525   4.318  1.00 20.00     0.059 C 
HETATM    2  C3  UNL     1     -35.371   5.695   4.446  1.00 20.00     0.124 C 
HETATM    3  N8  UNL     1     -33.801   3.599   4.219  1.00 20.00    -0.197 NA
ENDROOT
BRANCH   2   4
HETATM    4  C5  UNL     1     -35.002   6.774   3.426  1.00 20.00     0.024 C 
BRANCH   4   5
HETATM    5  C7  UNL     1     -33.513   7.100   3.492  1.00 20.00     0.075 C 
BRANCH   5   6
HETATM    6  S9  UNL     1     -32.713   6.781   1.893  1.00 20.00    -0.169 SA
BRANCH   6   7
HETATM    7  C6  UNL     1     -31.828   8.348   1.725  1.00 20.00     0.073 C 
BRANCH   7   8
HETATM    8  C4  UNL     1     -31.956   8.884   0.303  1.00 20.00     0.006 C 
HETATM    9  C2  UNL     1     -32.611  10.258   0.293  1.00 20.00     0.006 C 
ENDBRANCH   7   8
ENDBRANCH   6   7
ENDBRANCH   5   6
ENDBRANCH   4   5
ENDBRANCH   2   4
TORSDOF 5
ENDMDL
MODEL 3
REMARK VINA RESULT:      -1.9      3.165      5.694
REMARK  5 active torsions:
REMARK  status: ('A' for Active; 'I' for Inactive)
REMARK    1  A    between atoms: C3_3  and  C5_5 
REMARK    2  A    between atoms: C4_4  and  C6_6 
REMARK    3  A    between atoms: C5_5  and  C7_7 
REMARK    4  A    between atoms: C6_6  and  S9_9 
REMARK    5  A    between atoms: C7_7  and  S9_9 
ROOT
HETATM    1  C1  UNL     1     -33.509   3.583   4.394  1.00 20.00     0.059 C 
HETATM    2  C3  UNL     1     -34.061   4.514   3.400  1.00 20.00     0.124 C 
HETATM    3  N8  UNL     1     -33.073   2.847   5.177  1.00 20.00    -0.197 NA
ENDROOT
BRANCH   2   4
HETATM    4  C5  UNL     1     -34.675   5.741   4.077  1.00 20.00     0.024 C 
BRANCH   4   5
HETATM    5  C7  UNL     1     -34.063   7.028   3.531  1.00 20.00     0.075 C 
BRANCH   5   6
HETATM    6  S9  UNL     1     -33.081   6.690   2.041  1.00 20.00    -0.169 SA
BRANCH   6   7
HETATM    7  C6  UNL     1     -32.084   8.198   2.037  1.00 20.00     0.073 C 
BRANCH   7   8
HETATM    8  C4  UNL     1     -31.819   8.660   0.609  1.00 20.00     0.006 C 
HETATM    9  C2  UNL     1     -32.527   9.976   0.320  1.00 20.00     0.006 C 
ENDBRANCH   7   8
ENDBRANCH   6   7
ENDBRANCH   5   6
ENDBRANCH   4   5
ENDBRANCH   2   4
TORSDOF 5
ENDMDL
MODEL 4
REMARK VINA RESULT:      -1.8      0.991      1.323
REMARK  5 active torsions:
REMARK  status: ('A' for Active; 'I' for Inactive)
REMARK    1  A    between atoms: C3_3  and  C5_5 
REMARK    2  A    between atoms: C4_4  and  C6_6 
REMARK    3  A    between atoms: C5_5  and  C7_7 
REMARK    4  A    between atoms: C6_6  and  S9_9 
REMARK    5  A    between atoms: C7_7  and  S9_9 
ROOT
HETATM    1  C1  UNL     1     -32.357   9.381   0.604  1.00 20.00     0.059 C 
HETATM    2  C3  UNL     1     -32.010   8.570   1.779  1.00 20.00     0.124 C 
HETATM    3  N8  UNL     1     -32.632  10.024  -0.322  1.00 20.00    -0.197 NA
ENDROOT
BRANCH   2   4
HETATM    4  C5  UNL     1     -31.942   7.084   1.420  1.00 20.00     0.024 C 
BRANCH   4   5
HETATM    5  C7  UNL     1     -33.140   6.330   1.989  1.00 20.00     0.075 C 
BRANCH   5   6
HETATM    6  S9  UNL     1     -33.677   7.069   3.560  1.00 20.00    -0.169 SA
BRANCH   6   7
HETATM    7  C6  UNL     1     -35.261   6.214   3.723  1.00 20.00     0.073 C 
BRANCH   7   8
HETATM    8  C4  UNL     1     -35.132   5.025   4.669  1.00 20.00     0.006 C 
HETATM    9  C2  UNL     1     -34.048   4.066   4.197  1.00 20.00     0.006 C 
ENDBRANCH   7   8
ENDBRANCH   6   7
ENDBRANCH   5   6
ENDBRANCH   4   5
ENDBRANCH   2   4
TORSDOF 5
ENDMDL
MODEL 5
REMARK VINA RESULT:      -1.3      1.795      2.369
REMARK  5 active torsions:
REMARK  status: ('A' for Active; 'I' for Inactive)
REMARK    1  A    between atoms: C3_3  and  C5_5 
REMARK    2  A    between atoms: C4_4  and  C6_6 
REMARK    3  A    between atoms: C5_5  and  C7_7 
REMARK    4  A    between atoms: C6_6  and  S9_9 
REMARK    5  A    between atoms: C7_7  and  S9_9 
ROOT
HETATM    1  C1  UNL     1     -32.211   9.100   0.780  1.00 20.00     0.059 C 
HETATM    2  C3  UNL     1     -31.890   8.189   1.887  1.00 20.00     0.124 C 
HETATM    3  N8  UNL     1     -32.464   9.821  -0.093  1.00 20.00    -0.197 NA
ENDROOT
BRANCH   2   4
HETATM    4  C5  UNL     1     -31.925   6.731   1.428  1.00 20.00     0.024 C 
BRANCH   4   5
HETATM    5  C7  UNL     1     -33.311   6.128   1.631  1.00 20.00     0.075 C 
BRANCH   5   6
HETATM    6  S9  UNL     1     -33.399   5.242   3.215  1.00 20.00    -0.169 SA
BRANCH   6   7
HETATM    7  C6  UNL     1     -34.872   6.049   3.885  1.00 20.00     0.073 C 
BRANCH   7   8
HETATM    8  C4  UNL     1     -34.671   7.559   3.951  1.00 20.00     0.006 C 
HETATM    9  C2  UNL     1     -33.611   7.925   4.980  1.00 20.00     0.006 C 
ENDBRANCH   7   8
ENDBRANCH   6   7
ENDBRANCH   5   6
ENDBRANCH   4   5
ENDBRANCH   2   4
TORSDOF 5
ENDMDL
MODEL 6
REMARK VINA RESULT:      -1.2      1.814      1.960
REMARK  5 active torsions:
REMARK  status: ('A' for Active; 'I' for Inactive)
REMARK    1  A    between atoms: C3_3  and  C5_5 
REMARK    2  A    between atoms: C4_4  and  C6_6 
REMARK    3  A    between atoms: C5_5  and  C7_7 
REMARK    4  A    between atoms: C6_6  and  S9_9 
REMARK    5  A    between atoms: C7_7  and  S9_9 
ROOT
HETATM    1  C1  UNL     1     -32.089   6.317   1.443  1.00 20.00     0.059 C 
HETATM    2  C3  UNL     1     -32.044   7.710   1.906  1.00 20.00     0.124 C 
HETATM    3  N8  UNL     1     -32.122   5.217   1.075  1.00 20.00    -0.197 NA
ENDROOT
BRANCH   2   4
HETATM    4  C5  UNL     1     -33.274   8.049   2.750  1.00 20.00     0.024 C 
BRANCH   4   5
HETATM    5  C7  UNL     1     -33.503   6.993   3.828  1.00 20.00     0.075 C 
BRANCH   5   6
HETATM    6  S9  UNL     1     -35.217   6.392   3.784  1.00 20.00    -0.169 SA
BRANCH   6   7
HETATM    7  C6  UNL     1     -34.954   4.793   4.586  1.00 20.00     0.073 C 
BRANCH   7   8
HETATM    8  C4  UNL     1     -33.837   4.023   3.891  1.00 20.00     0.006 C 
HETATM    9  C2  UNL     1     -33.222   2.989   4.823  1.00 20.00     0.006 C 
ENDBRANCH   7   8
ENDBRANCH   6   7
ENDBRANCH   5   6
ENDBRANCH   4   5
ENDBRANCH   2   4
TORSDOF 5
ENDMDL
MODEL 7
REMARK VINA RESULT:      -1.1      3.081      4.703
REMARK  5 active torsions:
REMARK  status: ('A' for Active; 'I' for Inactive)
REMARK    1  A    between atoms: C3_3  and  C5_5 
REMARK    2  A    between atoms: C4_4  and  C6_6 
REMARK    3  A    between atoms: C5_5  and  C7_7 
REMARK    4  A    between atoms: C6_6  and  S9_9 
REMARK    5  A    between atoms: C7_7  and  S9_9 
ROOT
HETATM    1  C1  UNL     1     -34.465   4.489   4.283  1.00 20.00     0.059 C 
HETATM    2  C3  UNL     1     -35.332   5.674   4.323  1.00 20.00     0.124 C 
HETATM    3  N8  UNL     1     -33.781   3.552   4.254  1.00 20.00    -0.197 NA
ENDROOT
BRANCH   2   4
HETATM    4  C5  UNL     1     -34.702   6.842   3.562  1.00 20.00     0.024 C 
BRANCH   4   5
HETATM    5  C7  UNL     1     -33.850   7.702   4.491  1.00 20.00     0.075 C 
BRANCH   5   6
HETATM    6  S9  UNL     1     -32.409   8.369   3.608  1.00 20.00    -0.169 SA
BRANCH   6   7
HETATM    7  C6  UNL     1     -32.790   7.725   1.962  1.00 20.00     0.073 C 
BRANCH   7   8
HETATM    8  C4  UNL     1     -31.771   6.667   1.553  1.00 20.00     0.006 C 
HETATM    9  C2  UNL     1     -32.460   5.367   1.162  1.00 20.00     0.006 C 
ENDBRANCH   7   8
ENDBRANCH   6   7
ENDBRANCH   5   6
ENDBRANCH   4   5
ENDBRANCH   2   4
TORSDOF 5
ENDMDL
MODEL 8
REMARK VINA RESULT:      -1.0      2.658      5.075
REMARK  5 active torsions:
REMARK  status: ('A' for Active; 'I' for Inactive)
REMARK    1  A    between atoms: C3_3  and  C5_5 
REMARK    2  A    between atoms: C4_4  and  C6_6 
REMARK    3  A    between atoms: C5_5  and  C7_7 
REMARK    4  A    between atoms: C6_6  and  S9_9 
REMARK    5  A    between atoms: C7_7  and  S9_9 
ROOT
HETATM    1  C1  UNL     1     -34.006   7.560   4.479  1.00 20.00     0.059 C 
HETATM    2  C3  UNL     1     -34.720   6.524   3.721  1.00 20.00     0.124 C 
HETATM    3  N8  UNL     1     -33.443   8.379   5.079  1.00 20.00    -0.197 NA
ENDROOT
BRANCH   2   4
HETATM    4  C5  UNL     1     -33.744   5.514   3.115  1.00 20.00     0.024 C 
BRANCH   4   5
HETATM    5  C7  UNL     1     -33.407   5.880   1.672  1.00 20.00     0.075 C 
BRANCH   5   6
HETATM    6  S9  UNL     1     -31.750   6.617   1.567  1.00 20.00    -0.169 SA
BRANCH   6   7
HETATM    7  C6  UNL     1     -32.232   8.358   1.640  1.00 20.00     0.073 C 
BRANCH   7   8
HETATM    8  C4  UNL     1     -31.904   9.059   0.327  1.00 20.00     0.006 C 
HETATM    9  C2  UNL     1     -32.655  10.377   0.208  1.00 20.00     0.006 C 
ENDBRANCH   7   8
ENDBRANCH   6   7
ENDBRANCH   5   6
ENDBRANCH   4   5
ENDBRANCH   2   4
TORSDOF 5
ENDMDL
MODEL 9
REMARK VINA RESULT:      -0.7      1.934      2.135
REMARK  5 active torsions:
REMARK  status: ('A' for Active; 'I' for Inactive)
REMARK    1  A    between atoms: C3_3  and  C5_5 
REMARK    2  A    between atoms: C4_4  and  C6_6 
REMARK    3  A    between atoms: C5_5  and  C7_7 
REMARK    4  A    between atoms: C6_6  and  S9_9 
REMARK    5  A    between atoms: C7_7  and  S9_9 
ROOT
HETATM    1  C1  UNL     1     -32.457   6.658   1.815  1.00 20.00     0.059 C 
HETATM    2  C3  UNL     1     -32.895   7.810   2.615  1.00 20.00     0.124 C 
HETATM    3  N8  UNL     1     -32.110   5.750   1.182  1.00 20.00    -0.197 NA
ENDROOT
BRANCH   2   4
HETATM    4  C5  UNL     1     -33.622   7.355   3.882  1.00 20.00     0.024 C 
BRANCH   4   5
HETATM    5  C7  UNL     1     -34.916   6.625   3.536  1.00 20.00     0.075 C 
BRANCH   5   6
HETATM    6  S9  UNL     1     -35.096   5.124   4.544  1.00 20.00    -0.169 SA
BRANCH   6   7
HETATM    7  C6  UNL     1     -33.783   4.140   3.785  1.00 20.00     0.073 C 
BRANCH   7   8
HETATM    8  C4  UNL     1     -33.530   2.873   4.593  1.00 20.00     0.006 C 
HETATM    9  C2  UNL     1     -32.572   3.141   5.745  1.00 20.00     0.006 C 
ENDBRANCH   7   8
ENDBRANCH   6   7
ENDBRANCH   5   6
ENDBRANCH   4   5
ENDBRANCH   2   4
TORSDOF 5
ENDMDL
