MODEL 1
REMARK VINA RESULT:      -3.2      0.000      0.000
REMARK  3 active torsions:
REMARK  status: ('A' for Active; 'I' for Inactive)
REMARK    1  A    between atoms: C5_5  and  C8_8 
REMARK    2  A    between atoms: C7_7  and  N9_9 
REMARK    3  A    between atoms: C8_8  and  N9_9 
ROOT
HETATM    1  C1  UNL     1     -32.730  10.433  -0.043  1.00 20.00     0.013 C 
HETATM    2  C2  UNL     1     -32.273   9.434   0.441  1.00 20.00    -0.087 C 
HETATM    3  C7  UNL     1     -31.712   8.214   1.027  1.00 20.00     0.362 C 
ENDROOT
BRANCH   3   4
HETATM    4  N9  UNL     1     -32.369   7.899   2.276  1.00 20.00     0.098 N 
HETATM    5  H22 UNL     1     -31.687   7.669   2.986  1.00 20.00     0.317 HD
BRANCH   4   6
HETATM    6  C8  UNL     1     -33.253   6.720   2.101  1.00 20.00     0.221 C 
HETATM    7  C6  UNL     1     -32.453   5.595   1.460  1.00 20.00     0.043 C 
BRANCH   6   8
HETATM    8  C5  UNL     1     -33.815   6.313   3.454  1.00 20.00     0.018 A 
HETATM    9  C3  UNL     1     -34.304   7.359   4.419  1.00 20.00     0.007 A 
HETATM   10  C4  UNL     1     -35.287   6.450   3.735  1.00 20.00     0.007 A 
ENDBRANCH   6   8
ENDBRANCH   4   6
ENDBRANCH   3   4
TORSDOF 3
ENDMDL
MODEL 2
REMARK VINA RESULT:      -2.4      1.942      4.916
REMARK  3 active torsions:
REMARK  status: ('A' for Active; 'I' for Inactive)
REMARK    1  A    between atoms: C5_5  and  C8_8 
REMARK    2  A    between atoms: C7_7  and  N9_9 
REMARK    3  A    between atoms: C8_8  and  N9_9 
ROOT
HETATM    1  C1  UNL     1     -33.280   2.858   4.646  1.00 20.00     0.013 C 
HETATM    2  C2  UNL     1     -33.803   3.889   4.325  1.00 20.00    -0.087 C 
HETATM    3  C7  UNL     1     -34.445   5.148   3.937  1.00 20.00     0.362 C 
ENDROOT
BRANCH   3   4
HETATM    4  N9  UNL     1     -33.755   5.749   2.816  1.00 20.00     0.098 N 
HETATM    5  H22 UNL     1     -32.789   5.450   2.794  1.00 20.00     0.317 HD
BRANCH   4   6
HETATM    6  C8  UNL     1     -33.769   7.226   2.946  1.00 20.00     0.221 C 
HETATM    7  C6  UNL     1     -34.145   7.592   4.374  1.00 20.00     0.043 C 
BRANCH   6   8
HETATM    8  C5  UNL     1     -32.400   7.772   2.564  1.00 20.00     0.018 A 
HETATM    9  C3  UNL     1     -31.678   7.233   1.360  1.00 20.00     0.007 A 
HETATM   10  C4  UNL     1     -32.242   8.626   1.336  1.00 20.00     0.007 A 
ENDBRANCH   6   8
ENDBRANCH   4   6
ENDBRANCH   3   4
TORSDOF 3
ENDMDL
MODEL 3
REMARK VINA RESULT:      -2.0      1.187      1.862
REMARK  3 active torsions:
REMARK  status: ('A' for Active; 'I' for Inactive)
REMARK    1  A    between atoms: C5_5  and  C8_8 
REMARK    2  A    between atoms: C7_7  and  N9_9 
REMARK    3  A    between atoms: C8_8  and  N9_9 
ROOT
HETATM    1  C1  UNL     1     -32.472   9.867   0.053  1.00 20.00     0.013 C 
HETATM    2  C2  UNL     1     -32.235   9.042   0.892  1.00 20.00    -0.087 C 
HETATM    3  C7  UNL     1     -31.942   8.038   1.918  1.00 20.00     0.362 C 
ENDROOT
BRANCH   3   4
HETATM    4  N9  UNL     1     -32.934   6.985   1.900  1.00 20.00     0.098 N 
HETATM    5  H22 UNL     1     -33.772   7.297   1.428  1.00 20.00     0.317 HD
BRANCH   4   6
HETATM    6  C8  UNL     1     -33.307   6.616   3.287  1.00 20.00     0.221 C 
HETATM    7  C6  UNL     1     -33.917   7.830   3.972  1.00 20.00     0.043 C 
BRANCH   6   8
HETATM    8  C5  UNL     1     -34.276   5.444   3.247  1.00 20.00     0.018 A 
HETATM    9  C3  UNL     1     -34.007   4.210   4.064  1.00 20.00     0.007 A 
HETATM   10  C4  UNL     1     -35.133   5.130   4.443  1.00 20.00     0.007 A 
ENDBRANCH   6   8
ENDBRANCH   4   6
ENDBRANCH   3   4
TORSDOF 3
ENDMDL
MODEL 4
REMARK VINA RESULT:      -1.5      1.111      4.226
REMARK  3 active torsions:
REMARK  status: ('A' for Active; 'I' for Inactive)
REMARK    1  A    between atoms: C5_5  and  C8_8 
REMARK    2  A    between atoms: C7_7  and  N9_9 
REMARK    3  A    between atoms: C8_8  and  N9_9 
ROOT
HETATM    1  C1  UNL     1     -34.526   6.506   3.786  1.00 20.00     0.013 C 
HETATM    2  C2  UNL     1     -33.855   6.286   2.816  1.00 20.00    -0.087 C 
HETATM    3  C7  UNL     1     -33.039   6.013   1.630  1.00 20.00     0.362 C 
ENDROOT
BRANCH   3   4
HETATM    4  N9  UNL     1     -31.867   6.863   1.609  1.00 20.00     0.098 N 
HETATM    5  H22 UNL     1     -31.207   6.570   2.317  1.00 20.00     0.317 HD
BRANCH   4   6
HETATM    6  C8  UNL     1     -32.253   8.264   1.904  1.00 20.00     0.221 C 
HETATM    7  C6  UNL     1     -31.615   8.685   3.219  1.00 20.00     0.043 C 
BRANCH   6   8
HETATM    8  C5  UNL     1     -31.811   9.154   0.752  1.00 20.00     0.018 A 
HETATM    9  C3  UNL     1     -32.618   9.210  -0.517  1.00 20.00     0.007 A 
HETATM   10  C4  UNL     1     -32.592  10.394   0.410  1.00 20.00     0.007 A 
ENDBRANCH   6   8
ENDBRANCH   4   6
ENDBRANCH   3   4
TORSDOF 3
ENDMDL
MODEL 5
REMARK VINA RESULT:      -1.5      0.979      4.117
REMARK  3 active torsions:
REMARK  status: ('A' for Active; 'I' for Inactive)
REMARK    1  A    between atoms: C5_5  and  C8_8 
REMARK    2  A    between atoms: C7_7  and  N9_9 
REMARK    3  A    between atoms: C8_8  and  N9_9 
ROOT
HETATM    1  C1  UNL     1     -35.011   5.830   4.120  1.00 20.00     0.013 C 
HETATM    2  C2  UNL     1     -34.482   6.842   3.750  1.00 20.00    -0.087 C 
HETATM    3  C7  UNL     1     -33.842   8.080   3.299  1.00 20.00     0.362 C 
ENDROOT
BRANCH   3   4
HETATM    4  N9  UNL     1     -32.406   7.918   3.231  1.00 20.00     0.098 N 
HETATM    5  H22 UNL     1     -31.942   8.684   3.700  1.00 20.00     0.317 HD
BRANCH   4   6
HETATM    6  C8  UNL     1     -31.963   7.918   1.815  1.00 20.00     0.221 C 
HETATM    7  C6  UNL     1     -32.035   6.497   1.275  1.00 20.00     0.043 C 
BRANCH   6   8
HETATM    8  C5  UNL     1     -32.842   8.870   1.019  1.00 20.00     0.018 A 
HETATM    9  C3  UNL     1     -32.492  10.330   0.928  1.00 20.00     0.007 A 
HETATM   10  C4  UNL     1     -32.350   9.448  -0.280  1.00 20.00     0.007 A 
ENDBRANCH   6   8
ENDBRANCH   4   6
ENDBRANCH   3   4
TORSDOF 3
ENDMDL
MODEL 6
REMARK VINA RESULT:      -1.5      2.007      2.990
REMARK  3 active torsions:
REMARK  status: ('A' for Active; 'I' for Inactive)
REMARK    1  A    between atoms: C5_5  and  C8_8 
REMARK    2  A    between atoms: C7_7  and  N9_9 
REMARK    3  A    between atoms: C8_8  and  N9_9 
ROOT
HETATM    1  C1  UNL     1     -32.046   8.548   1.484  1.00 20.00     0.013 C 
HETATM    2  C2  UNL     1     -32.136   7.359   1.618  1.00 20.00    -0.087 C 
HETATM    3  C7  UNL     1     -32.241   5.906   1.779  1.00 20.00     0.362 C 
ENDROOT
BRANCH   3   4
HETATM    4  N9  UNL     1     -33.597   5.526   2.111  1.00 20.00     0.098 N 
HETATM    5  H22 UNL     1     -34.257   6.150   1.666  1.00 20.00     0.317 HD
BRANCH   4   6
HETATM    6  C8  UNL     1     -33.804   5.618   3.577  1.00 20.00     0.221 C 
HETATM    7  C6  UNL     1     -34.886   6.650   3.858  1.00 20.00     0.043 C 
BRANCH   6   8
HETATM    8  C5  UNL     1     -34.181   4.245   4.113  1.00 20.00     0.018 A 
HETATM    9  C3  UNL     1     -33.309   3.053   3.827  1.00 20.00     0.007 A 
HETATM   10  C4  UNL     1     -33.377   3.617   5.219  1.00 20.00     0.007 A 
ENDBRANCH   6   8
ENDBRANCH   4   6
ENDBRANCH   3   4
TORSDOF 3
ENDMDL
MODEL 7
REMARK VINA RESULT:      -1.4      1.098      3.872
REMARK  3 active torsions:
REMARK  status: ('A' for Active; 'I' for Inactive)
REMARK    1  A    between atoms: C5_5  and  C8_8 
REMARK    2  A    between atoms: C7_7  and  N9_9 
REMARK    3  A    between atoms: C8_8  and  N9_9 
ROOT
HETATM    1  C1  UNL     1     -35.337   5.865   4.075  1.00 20.00     0.013 C 
HETATM    2  C2  UNL     1     -34.635   6.836   4.007  1.00 20.00    -0.087 C 
HETATM    3  C7  UNL     1     -33.782   8.025   3.927  1.00 20.00     0.362 C 
ENDROOT
BRANCH   3   4
HETATM    4  N9  UNL     1     -32.536   7.715   3.259  1.00 20.00     0.098 N 
HETATM    5  H22 UNL     1     -31.836   8.411   3.479  1.00 20.00     0.317 HD
BRANCH   4   6
HETATM    6  C8  UNL     1     -32.735   7.722   1.789  1.00 20.00     0.221 C 
HETATM    7  C6  UNL     1     -32.073   8.963   1.208  1.00 20.00     0.043 C 
BRANCH   6   8
HETATM    8  C5  UNL     1     -32.152   6.445   1.203  1.00 20.00     0.018 A 
HETATM    9  C3  UNL     1     -32.308   5.137   1.929  1.00 20.00     0.007 A 
HETATM   10  C4  UNL     1     -33.063   5.381   0.653  1.00 20.00     0.007 A 
ENDBRANCH   6   8
ENDBRANCH   4   6
ENDBRANCH   3   4
TORSDOF 3
ENDMDL
MODEL 8
REMARK VINA RESULT:      -1.3      1.549      2.390
REMARK  3 active torsions:
REMARK  status: ('A' for Active; 'I' for Inactive)
REMARK    1  A    between atoms: C5_5  and  C8_8 
REMARK    2  A    between atoms: C7_7  and  N9_9 
REMARK    3  A    between atoms: C8_8  and  N9_9 
ROOT
HETATM    1  C1  UNL     1     -31.929   8.270   1.401  1.00 20.00     0.013 C 
HETATM    2  C2  UNL     1     -32.310   7.138   1.522  1.00 20.00    -0.087 C 
HETATM    3  C7  UNL     1     -32.776   5.757   1.664  1.00 20.00     0.362 C 
ENDROOT
BRANCH   3   4
HETATM    4  N9  UNL     1     -32.712   5.336   3.047  1.00 20.00     0.098 N 
HETATM    5  H22 UNL     1     -31.994   4.634   3.169  1.00 20.00     0.317 HD
BRANCH   4   6
HETATM    6  C8  UNL     1     -34.005   4.736   3.454  1.00 20.00     0.221 C 
HETATM    7  C6  UNL     1     -33.732   3.491   4.285  1.00 20.00     0.043 C 
BRANCH   6   8
HETATM    8  C5  UNL     1     -34.810   5.767   4.231  1.00 20.00     0.018 A 
HETATM    9  C3  UNL     1     -34.450   7.226   4.153  1.00 20.00     0.007 A 
HETATM   10  C4  UNL     1     -35.711   6.728   3.504  1.00 20.00     0.007 A 
ENDBRANCH   6   8
ENDBRANCH   4   6
ENDBRANCH   3   4
TORSDOF 3
ENDMDL
MODEL 9
REMARK VINA RESULT:      -1.0      0.772      2.265
REMARK  3 active torsions:
REMARK  status: ('A' for Active; 'I' for Inactive)
REMARK    1  A    between atoms: C5_5  and  C8_8 
REMARK    2  A    between atoms: C7_7  and  N9_9 
REMARK    3  A    between atoms: C8_8  and  N9_9 
ROOT
HETATM    1  C1  UNL     1     -32.716  10.614  -0.075  1.00 20.00     0.013 C 
HETATM    2  C2  UNL     1     -32.341   9.633   0.506  1.00 20.00    -0.087 C 
HETATM    3  C7  UNL     1     -31.880   8.434   1.210  1.00 20.00     0.362 C 
ENDROOT
BRANCH   3   4
HETATM    4  N9  UNL     1     -32.269   8.478   2.603  1.00 20.00     0.098 N 
HETATM    5  H22 UNL     1     -31.464   8.657   3.189  1.00 20.00     0.317 HD
BRANCH   4   6
HETATM    6  C8  UNL     1     -32.843   7.172   3.011  1.00 20.00     0.221 C 
HETATM    7  C6  UNL     1     -34.126   7.419   3.790  1.00 20.00     0.043 C 
BRANCH   6   8
HETATM    8  C5  UNL     1     -33.090   6.328   1.769  1.00 20.00     0.018 A 
HETATM    9  C3  UNL     1     -32.008   5.428   1.236  1.00 20.00     0.007 A 
HETATM   10  C4  UNL     1     -33.227   4.834   1.885  1.00 20.00     0.007 A 
ENDBRANCH   6   8
ENDBRANCH   4   6
ENDBRANCH   3   4
TORSDOF 3
ENDMDL
