MODEL 1
REMARK VINA RESULT:       0.1      0.000      0.000
REMARK  3 active torsions:
REMARK  status: ('A' for Active; 'I' for Inactive)
REMARK    1  A    between atoms: C2_2  and  C6_6 
REMARK    2  A    between atoms: C6_6  and  S9_9 
REMARK    3  A    between atoms: C7_7  and  S9_9 
ROOT
HETATM    1  S9  UNL     1     -33.119   6.284   2.003  1.00 20.00    -0.158 SA
ENDROOT
BRANCH   1   2
HETATM    2  C6  UNL     1     -32.380   7.931   2.037  1.00 20.00     0.108 C 
BRANCH   2   3
HETATM    3  C2  UNL     1     -32.588   8.635   0.709  1.00 20.00     0.154 A 
HETATM    4  C1  UNL     1     -32.505  10.132   0.600  1.00 20.00     0.201 A 
HETATM    5  O8  UNL     1     -31.421   9.282   0.190  1.00 20.00    -0.380 OA
ENDBRANCH   2   3
ENDBRANCH   1   2
BRANCH   1   6
HETATM    6  C7  UNL     1     -34.199   6.468   3.476  1.00 20.00    -0.003 C 
HETATM    7  C3  UNL     1     -34.240   5.134   4.225  1.00 20.00     0.026 C 
HETATM    8  C4  UNL     1     -33.611   7.563   4.370  1.00 20.00     0.026 C 
HETATM    9  C5  UNL     1     -35.604   6.862   3.009  1.00 20.00     0.026 C 
ENDBRANCH   1   6
TORSDOF 3
ENDMDL
MODEL 2
REMARK VINA RESULT:       0.1      0.009      1.452
REMARK  3 active torsions:
REMARK  status: ('A' for Active; 'I' for Inactive)
REMARK    1  A    between atoms: C2_2  and  C6_6 
REMARK    2  A    between atoms: C6_6  and  S9_9 
REMARK    3  A    between atoms: C7_7  and  S9_9 
ROOT
HETATM    1  S9  UNL     1     -33.113   6.287   2.007  1.00 20.00    -0.158 SA
ENDROOT
BRANCH   1   2
HETATM    2  C6  UNL     1     -32.372   7.934   2.037  1.00 20.00     0.108 C 
BRANCH   2   3
HETATM    3  C2  UNL     1     -32.591   8.640   0.712  1.00 20.00     0.154 A 
HETATM    4  C1  UNL     1     -32.509  10.137   0.604  1.00 20.00     0.201 A 
HETATM    5  O8  UNL     1     -31.429   9.288   0.184  1.00 20.00    -0.380 OA
ENDBRANCH   2   3
ENDBRANCH   1   2
BRANCH   1   6
HETATM    6  C7  UNL     1     -34.194   6.477   3.478  1.00 20.00    -0.003 C 
HETATM    7  C3  UNL     1     -35.598   6.868   3.009  1.00 20.00     0.026 C 
HETATM    8  C4  UNL     1     -34.235   5.140   4.222  1.00 20.00     0.026 C 
HETATM    9  C5  UNL     1     -33.609   7.569   4.379  1.00 20.00     0.026 C 
ENDBRANCH   1   6
TORSDOF 3
ENDMDL
MODEL 3
REMARK VINA RESULT:       0.8      1.804      2.271
REMARK  3 active torsions:
REMARK  status: ('A' for Active; 'I' for Inactive)
REMARK    1  A    between atoms: C2_2  and  C6_6 
REMARK    2  A    between atoms: C6_6  and  S9_9 
REMARK    3  A    between atoms: C7_7  and  S9_9 
ROOT
HETATM    1  S9  UNL     1     -32.328   7.711   2.443  1.00 20.00    -0.158 SA
ENDROOT
BRANCH   1   2
HETATM    2  C6  UNL     1     -31.855   8.410   0.846  1.00 20.00     0.108 C 
BRANCH   2   3
HETATM    3  C2  UNL     1     -32.662   9.660   0.553  1.00 20.00     0.154 A 
HETATM    4  C1  UNL     1     -32.092  10.780  -0.272  1.00 20.00     0.201 A 
HETATM    5  O8  UNL     1     -33.017   9.830  -0.823  1.00 20.00    -0.380 OA
ENDBRANCH   2   3
ENDBRANCH   1   2
BRANCH   1   6
HETATM    6  C7  UNL     1     -32.865   6.062   1.841  1.00 20.00    -0.003 C 
HETATM    7  C3  UNL     1     -31.623   5.236   1.499  1.00 20.00     0.026 C 
HETATM    8  C4  UNL     1     -33.667   5.381   2.953  1.00 20.00     0.026 C 
HETATM    9  C5  UNL     1     -33.739   6.254   0.598  1.00 20.00     0.026 C 
ENDBRANCH   1   6
TORSDOF 3
ENDMDL
MODEL 4
REMARK VINA RESULT:       0.8      1.276      2.031
REMARK  3 active torsions:
REMARK  status: ('A' for Active; 'I' for Inactive)
REMARK    1  A    between atoms: C2_2  and  C6_6 
REMARK    2  A    between atoms: C6_6  and  S9_9 
REMARK    3  A    between atoms: C7_7  and  S9_9 
ROOT
HETATM    1  S9  UNL     1     -33.205   5.469   3.014  1.00 20.00    -0.158 SA
ENDROOT
BRANCH   1   2
HETATM    2  C6  UNL     1     -33.157   6.437   1.490  1.00 20.00     0.108 C 
BRANCH   2   3
HETATM    3  C2  UNL     1     -31.925   7.320   1.459  1.00 20.00     0.154 A 
HETATM    4  C1  UNL     1     -32.016   8.773   1.083  1.00 20.00     0.201 A 
HETATM    5  O8  UNL     1     -31.907   8.352   2.452  1.00 20.00    -0.380 OA
ENDBRANCH   2   3
ENDBRANCH   1   2
BRANCH   1   6
HETATM    6  C7  UNL     1     -34.612   6.336   3.812  1.00 20.00    -0.003 C 
HETATM    7  C3  UNL     1     -35.531   6.890   2.720  1.00 20.00     0.026 C 
HETATM    8  C4  UNL     1     -35.368   5.329   4.683  1.00 20.00     0.026 C 
HETATM    9  C5  UNL     1     -34.061   7.476   4.675  1.00 20.00     0.026 C 
ENDBRANCH   1   6
TORSDOF 3
ENDMDL
MODEL 5
REMARK VINA RESULT:       0.9      1.343      1.548
REMARK  3 active torsions:
REMARK  status: ('A' for Active; 'I' for Inactive)
REMARK    1  A    between atoms: C2_2  and  C6_6 
REMARK    2  A    between atoms: C6_6  and  S9_9 
REMARK    3  A    between atoms: C7_7  and  S9_9 
ROOT
HETATM    1  S9  UNL     1     -32.708   7.678   3.181  1.00 20.00    -0.158 SA
ENDROOT
BRANCH   1   2
HETATM    2  C6  UNL     1     -32.024   7.721   1.510  1.00 20.00     0.108 C 
BRANCH   2   3
HETATM    3  C2  UNL     1     -31.791   9.154   1.068  1.00 20.00     0.154 A 
HETATM    4  C1  UNL     1     -32.410   9.691  -0.193  1.00 20.00     0.201 A 
HETATM    5  O8  UNL     1     -32.956   9.984   1.103  1.00 20.00    -0.380 OA
ENDBRANCH   2   3
ENDBRANCH   1   2
BRANCH   1   6
HETATM    6  C7  UNL     1     -33.815   6.231   2.956  1.00 20.00    -0.003 C 
HETATM    7  C3  UNL     1     -33.220   5.036   3.706  1.00 20.00     0.026 C 
HETATM    8  C4  UNL     1     -35.192   6.585   3.525  1.00 20.00     0.026 C 
HETATM    9  C5  UNL     1     -33.922   5.923   1.459  1.00 20.00     0.026 C 
ENDBRANCH   1   6
TORSDOF 3
ENDMDL
MODEL 6
REMARK VINA RESULT:       0.9      1.349      1.697
REMARK  3 active torsions:
REMARK  status: ('A' for Active; 'I' for Inactive)
REMARK    1  A    between atoms: C2_2  and  C6_6 
REMARK    2  A    between atoms: C6_6  and  S9_9 
REMARK    3  A    between atoms: C7_7  and  S9_9 
ROOT
HETATM    1  S9  UNL     1     -32.717   7.701   3.194  1.00 20.00    -0.158 SA
ENDROOT
BRANCH   1   2
HETATM    2  C6  UNL     1     -31.997   7.731   1.538  1.00 20.00     0.108 C 
BRANCH   2   3
HETATM    3  C2  UNL     1     -31.787   9.160   1.075  1.00 20.00     0.154 A 
HETATM    4  C1  UNL     1     -32.411   9.667  -0.195  1.00 20.00     0.201 A 
HETATM    5  O8  UNL     1     -32.967   9.971   1.095  1.00 20.00    -0.380 OA
ENDBRANCH   2   3
ENDBRANCH   1   2
BRANCH   1   6
HETATM    6  C7  UNL     1     -33.814   6.248   2.959  1.00 20.00    -0.003 C 
HETATM    7  C3  UNL     1     -33.920   5.950   1.461  1.00 20.00     0.026 C 
HETATM    8  C4  UNL     1     -33.199   5.055   3.697  1.00 20.00     0.026 C 
HETATM    9  C5  UNL     1     -35.194   6.576   3.538  1.00 20.00     0.026 C 
ENDBRANCH   1   6
TORSDOF 3
ENDMDL
MODEL 7
REMARK VINA RESULT:       1.0      2.715      4.708
REMARK  3 active torsions:
REMARK  status: ('A' for Active; 'I' for Inactive)
REMARK    1  A    between atoms: C2_2  and  C6_6 
REMARK    2  A    between atoms: C6_6  and  S9_9 
REMARK    3  A    between atoms: C7_7  and  S9_9 
ROOT
HETATM    1  S9  UNL     1     -34.067   7.865   2.701  1.00 20.00    -0.158 SA
ENDROOT
BRANCH   1   2
HETATM    2  C6  UNL     1     -33.737   6.604   3.951  1.00 20.00     0.108 C 
BRANCH   2   3
HETATM    3  C2  UNL     1     -34.376   5.285   3.558  1.00 20.00     0.154 A 
HETATM    4  C1  UNL     1     -33.970   3.996   4.217  1.00 20.00     0.201 A 
HETATM    5  O8  UNL     1     -35.177   4.685   4.581  1.00 20.00    -0.380 OA
ENDBRANCH   2   3
ENDBRANCH   1   2
BRANCH   1   6
HETATM    6  C7  UNL     1     -32.372   7.970   2.004  1.00 20.00    -0.003 C 
HETATM    7  C3  UNL     1     -31.972   6.591   1.475  1.00 20.00     0.026 C 
HETATM    8  C4  UNL     1     -32.382   8.995   0.866  1.00 20.00     0.026 C 
HETATM    9  C5  UNL     1     -31.413   8.416   3.112  1.00 20.00     0.026 C 
ENDBRANCH   1   6
TORSDOF 3
ENDMDL
MODEL 8
REMARK VINA RESULT:       1.0      2.709      4.720
REMARK  3 active torsions:
REMARK  status: ('A' for Active; 'I' for Inactive)
REMARK    1  A    between atoms: C2_2  and  C6_6 
REMARK    2  A    between atoms: C6_6  and  S9_9 
REMARK    3  A    between atoms: C7_7  and  S9_9 
ROOT
HETATM    1  S9  UNL     1     -34.053   7.905   2.719  1.00 20.00    -0.158 SA
ENDROOT
BRANCH   1   2
HETATM    2  C6  UNL     1     -33.731   6.630   3.957  1.00 20.00     0.108 C 
BRANCH   2   3
HETATM    3  C2  UNL     1     -34.384   5.321   3.554  1.00 20.00     0.154 A 
HETATM    4  C1  UNL     1     -33.983   4.021   4.194  1.00 20.00     0.201 A 
HETATM    5  O8  UNL     1     -35.181   4.714   4.576  1.00 20.00    -0.380 OA
ENDBRANCH   2   3
ENDBRANCH   1   2
BRANCH   1   6
HETATM    6  C7  UNL     1     -32.368   7.976   1.995  1.00 20.00    -0.003 C 
HETATM    7  C3  UNL     1     -32.368   8.993   0.850  1.00 20.00     0.026 C 
HETATM    8  C4  UNL     1     -31.391   8.409   3.091  1.00 20.00     0.026 C 
HETATM    9  C5  UNL     1     -31.999   6.584   1.474  1.00 20.00     0.026 C 
ENDBRANCH   1   6
TORSDOF 3
ENDMDL
MODEL 9
REMARK VINA RESULT:       1.0      2.712      4.716
REMARK  3 active torsions:
REMARK  status: ('A' for Active; 'I' for Inactive)
REMARK    1  A    between atoms: C2_2  and  C6_6 
REMARK    2  A    between atoms: C6_6  and  S9_9 
REMARK    3  A    between atoms: C7_7  and  S9_9 
ROOT
HETATM    1  S9  UNL     1     -34.059   7.882   2.717  1.00 20.00    -0.158 SA
ENDROOT
BRANCH   1   2
HETATM    2  C6  UNL     1     -33.724   6.609   3.952  1.00 20.00     0.108 C 
BRANCH   2   3
HETATM    3  C2  UNL     1     -34.377   5.298   3.555  1.00 20.00     0.154 A 
HETATM    4  C1  UNL     1     -33.982   4.002   4.207  1.00 20.00     0.201 A 
HETATM    5  O8  UNL     1     -35.181   4.700   4.577  1.00 20.00    -0.380 OA
ENDBRANCH   2   3
ENDBRANCH   1   2
BRANCH   1   6
HETATM    6  C7  UNL     1     -32.375   7.969   1.991  1.00 20.00    -0.003 C 
HETATM    7  C3  UNL     1     -31.392   8.404   3.082  1.00 20.00     0.026 C 
HETATM    8  C4  UNL     1     -32.005   6.580   1.464  1.00 20.00     0.026 C 
HETATM    9  C5  UNL     1     -32.386   8.986   0.846  1.00 20.00     0.026 C 
ENDBRANCH   1   6
TORSDOF 3
ENDMDL
