MODEL 1
REMARK VINA RESULT:      -0.7      0.000      0.000
REMARK  1 active torsions:
REMARK  status: ('A' for Active; 'I' for Inactive)
REMARK    1  A    between atoms: C1_1  and  C8_8 
ROOT
HETATM    1  C1  UNL     1     -33.613   5.870   2.809  1.00 20.00     0.014 C 
HETATM    2  C2  UNL     1     -34.330   6.957   3.548  1.00 20.00     0.057 C 
HETATM    3  C3  UNL     1     -35.358   6.119   4.266  1.00 20.00     0.027 C 
HETATM    4  C4  UNL     1     -34.653   4.785   4.425  1.00 20.00     0.149 C 
HETATM    5  N9  UNL     1     -33.764   4.660   3.252  1.00 20.00    -0.298 NA
ENDROOT
BRANCH   1   6
HETATM    6  C8  UNL     1     -32.736   6.192   1.644  1.00 20.00    -0.011 C 
HETATM    7  C5  UNL     1     -33.574   6.146   0.358  1.00 20.00     0.021 C 
HETATM    8  C6  UNL     1     -31.599   5.165   1.556  1.00 20.00     0.021 C 
HETATM    9  C7  UNL     1     -32.141   7.596   1.820  1.00 20.00     0.021 C 
ENDBRANCH   1   6
TORSDOF 1
ENDMDL
MODEL 2
REMARK VINA RESULT:      -0.7      0.012      1.446
REMARK  1 active torsions:
REMARK  status: ('A' for Active; 'I' for Inactive)
REMARK    1  A    between atoms: C1_1  and  C8_8 
ROOT
HETATM    1  C1  UNL     1     -33.612   5.879   2.807  1.00 20.00     0.014 C 
HETATM    2  C2  UNL     1     -34.325   6.965   3.551  1.00 20.00     0.057 C 
HETATM    3  C3  UNL     1     -35.354   6.127   4.268  1.00 20.00     0.027 C 
HETATM    4  C4  UNL     1     -34.652   4.790   4.420  1.00 20.00     0.149 C 
HETATM    5  N9  UNL     1     -33.765   4.667   3.245  1.00 20.00    -0.298 NA
ENDROOT
BRANCH   1   6
HETATM    6  C8  UNL     1     -32.737   6.204   1.641  1.00 20.00    -0.011 C 
HETATM    7  C5  UNL     1     -31.607   5.169   1.558  1.00 20.00     0.021 C 
HETATM    8  C6  UNL     1     -32.140   7.606   1.821  1.00 20.00     0.021 C 
HETATM    9  C7  UNL     1     -33.566   6.167   0.349  1.00 20.00     0.021 C 
ENDBRANCH   1   6
TORSDOF 1
ENDMDL
MODEL 3
REMARK VINA RESULT:      -0.7      0.010      1.448
REMARK  1 active torsions:
REMARK  status: ('A' for Active; 'I' for Inactive)
REMARK    1  A    between atoms: C1_1  and  C8_8 
ROOT
HETATM    1  C1  UNL     1     -33.614   5.876   2.808  1.00 20.00     0.014 C 
HETATM    2  C2  UNL     1     -34.324   6.965   3.549  1.00 20.00     0.057 C 
HETATM    3  C3  UNL     1     -35.355   6.131   4.269  1.00 20.00     0.027 C 
HETATM    4  C4  UNL     1     -34.656   4.793   4.424  1.00 20.00     0.149 C 
HETATM    5  N9  UNL     1     -33.770   4.666   3.248  1.00 20.00    -0.298 NA
ENDROOT
BRANCH   1   6
HETATM    6  C8  UNL     1     -32.738   6.196   1.641  1.00 20.00    -0.011 C 
HETATM    7  C5  UNL     1     -32.147   7.601   1.827  1.00 20.00     0.021 C 
HETATM    8  C6  UNL     1     -33.566   6.152   0.349  1.00 20.00     0.021 C 
HETATM    9  C7  UNL     1     -31.602   5.168   1.552  1.00 20.00     0.021 C 
ENDBRANCH   1   6
TORSDOF 1
ENDMDL
MODEL 4
REMARK VINA RESULT:      -0.5      1.057      3.541
REMARK  1 active torsions:
REMARK  status: ('A' for Active; 'I' for Inactive)
REMARK    1  A    between atoms: C1_1  and  C8_8 
ROOT
HETATM    1  C1  UNL     1     -33.446   6.577   2.661  1.00 20.00     0.014 C 
HETATM    2  C2  UNL     1     -32.807   7.870   2.262  1.00 20.00     0.057 C 
HETATM    3  C3  UNL     1     -31.591   7.327   1.552  1.00 20.00     0.027 C 
HETATM    4  C4  UNL     1     -32.076   5.985   1.034  1.00 20.00     0.149 C 
HETATM    5  N9  UNL     1     -33.073   5.513   2.017  1.00 20.00    -0.298 NA
ENDROOT
BRANCH   1   6
HETATM    6  C8  UNL     1     -34.493   6.541   3.725  1.00 20.00    -0.011 C 
HETATM    7  C5  UNL     1     -34.135   7.562   4.815  1.00 20.00     0.021 C 
HETATM    8  C6  UNL     1     -34.558   5.135   4.337  1.00 20.00     0.021 C 
HETATM    9  C7  UNL     1     -35.857   6.895   3.117  1.00 20.00     0.021 C 
ENDBRANCH   1   6
TORSDOF 1
ENDMDL
MODEL 5
REMARK VINA RESULT:      -0.5      1.059      3.539
REMARK  1 active torsions:
REMARK  status: ('A' for Active; 'I' for Inactive)
REMARK    1  A    between atoms: C1_1  and  C8_8 
ROOT
HETATM    1  C1  UNL     1     -33.444   6.583   2.661  1.00 20.00     0.014 C 
HETATM    2  C2  UNL     1     -32.802   7.875   2.265  1.00 20.00     0.057 C 
HETATM    3  C3  UNL     1     -31.589   7.331   1.552  1.00 20.00     0.027 C 
HETATM    4  C4  UNL     1     -32.078   5.992   1.031  1.00 20.00     0.149 C 
HETATM    5  N9  UNL     1     -33.075   5.520   2.015  1.00 20.00    -0.298 NA
ENDROOT
BRANCH   1   6
HETATM    6  C8  UNL     1     -34.489   6.548   3.727  1.00 20.00    -0.011 C 
HETATM    7  C5  UNL     1     -35.848   6.907   3.110  1.00 20.00     0.021 C 
HETATM    8  C6  UNL     1     -34.138   7.560   4.826  1.00 20.00     0.021 C 
HETATM    9  C7  UNL     1     -34.557   5.140   4.336  1.00 20.00     0.021 C 
ENDBRANCH   1   6
TORSDOF 1
ENDMDL
MODEL 6
REMARK VINA RESULT:      -0.5      1.068      3.540
REMARK  1 active torsions:
REMARK  status: ('A' for Active; 'I' for Inactive)
REMARK    1  A    between atoms: C1_1  and  C8_8 
ROOT
HETATM    1  C1  UNL     1     -33.435   6.593   2.658  1.00 20.00     0.014 C 
HETATM    2  C2  UNL     1     -32.793   7.888   2.271  1.00 20.00     0.057 C 
HETATM    3  C3  UNL     1     -31.579   7.348   1.555  1.00 20.00     0.027 C 
HETATM    4  C4  UNL     1     -32.068   6.013   1.025  1.00 20.00     0.149 C 
HETATM    5  N9  UNL     1     -33.065   5.534   2.005  1.00 20.00    -0.298 NA
ENDROOT
BRANCH   1   6
HETATM    6  C8  UNL     1     -34.481   6.551   3.723  1.00 20.00    -0.011 C 
HETATM    7  C5  UNL     1     -34.534   5.137   4.320  1.00 20.00     0.021 C 
HETATM    8  C6  UNL     1     -35.846   6.907   3.118  1.00 20.00     0.021 C 
HETATM    9  C7  UNL     1     -34.135   7.562   4.825  1.00 20.00     0.021 C 
ENDBRANCH   1   6
TORSDOF 1
ENDMDL
MODEL 7
REMARK VINA RESULT:      -0.2      1.460      1.967
REMARK  1 active torsions:
REMARK  status: ('A' for Active; 'I' for Inactive)
REMARK    1  A    between atoms: C1_1  and  C8_8 
ROOT
HETATM    1  C1  UNL     1     -33.171   7.142   2.810  1.00 20.00     0.014 C 
HETATM    2  C2  UNL     1     -33.952   7.728   3.944  1.00 20.00     0.057 C 
HETATM    3  C3  UNL     1     -35.071   6.717   4.011  1.00 20.00     0.027 C 
HETATM    4  C4  UNL     1     -34.409   5.450   3.499  1.00 20.00     0.149 C 
HETATM    5  N9  UNL     1     -33.392   5.896   2.525  1.00 20.00    -0.298 NA
ENDROOT
BRANCH   1   6
HETATM    6  C8  UNL     1     -32.160   7.963   2.079  1.00 20.00    -0.011 C 
HETATM    7  C5  UNL     1     -31.307   7.040   1.197  1.00 20.00     0.021 C 
HETATM    8  C6  UNL     1     -31.260   8.689   3.088  1.00 20.00     0.021 C 
HETATM    9  C7  UNL     1     -32.875   8.998   1.200  1.00 20.00     0.021 C 
ENDBRANCH   1   6
TORSDOF 1
ENDMDL
MODEL 8
REMARK VINA RESULT:      -0.2      1.472      2.303
REMARK  1 active torsions:
REMARK  status: ('A' for Active; 'I' for Inactive)
REMARK    1  A    between atoms: C1_1  and  C8_8 
ROOT
HETATM    1  C1  UNL     1     -33.170   7.146   2.810  1.00 20.00     0.014 C 
HETATM    2  C2  UNL     1     -33.957   7.723   3.945  1.00 20.00     0.057 C 
HETATM    3  C3  UNL     1     -35.070   6.706   4.004  1.00 20.00     0.027 C 
HETATM    4  C4  UNL     1     -34.401   5.445   3.489  1.00 20.00     0.149 C 
HETATM    5  N9  UNL     1     -33.383   5.900   2.519  1.00 20.00    -0.298 NA
ENDROOT
BRANCH   1   6
HETATM    6  C8  UNL     1     -32.161   7.975   2.085  1.00 20.00    -0.011 C 
HETATM    7  C5  UNL     1     -31.279   8.703   3.110  1.00 20.00     0.021 C 
HETATM    8  C6  UNL     1     -32.879   9.003   1.200  1.00 20.00     0.021 C 
HETATM    9  C7  UNL     1     -31.287   7.070   1.206  1.00 20.00     0.021 C 
ENDBRANCH   1   6
TORSDOF 1
ENDMDL
MODEL 9
REMARK VINA RESULT:      -0.1      1.468      1.738
REMARK  1 active torsions:
REMARK  status: ('A' for Active; 'I' for Inactive)
REMARK    1  A    between atoms: C1_1  and  C8_8 
ROOT
HETATM    1  C1  UNL     1     -33.167   7.141   2.811  1.00 20.00     0.014 C 
HETATM    2  C2  UNL     1     -33.951   7.721   3.946  1.00 20.00     0.057 C 
HETATM    3  C3  UNL     1     -35.067   6.707   4.007  1.00 20.00     0.027 C 
HETATM    4  C4  UNL     1     -34.401   5.444   3.493  1.00 20.00     0.149 C 
HETATM    5  N9  UNL     1     -33.383   5.895   2.522  1.00 20.00    -0.298 NA
ENDROOT
BRANCH   1   6
HETATM    6  C8  UNL     1     -32.156   7.967   2.085  1.00 20.00    -0.011 C 
HETATM    7  C5  UNL     1     -32.884   8.994   1.207  1.00 20.00     0.021 C 
HETATM    8  C6  UNL     1     -31.286   7.059   1.205  1.00 20.00     0.021 C 
HETATM    9  C7  UNL     1     -31.264   8.697   3.099  1.00 20.00     0.021 C 
ENDBRANCH   1   6
TORSDOF 1
ENDMDL
