MODEL 1
REMARK VINA RESULT:      -0.3      0.000      0.000
REMARK  0 active torsions:
REMARK  status: ('A' for Active; 'I' for Inactive)
ROOT
HETATM    1  C1  UNL     1     -33.415   8.337   2.613  1.00 20.00     0.033 A 
HETATM    2  C2  UNL     1     -32.025   7.072   1.070  1.00 20.00     0.033 A 
HETATM    3  C3  UNL     1     -33.829   7.135   3.158  1.00 20.00    -0.028 A 
HETATM    4  C4  UNL     1     -32.446   5.866   1.639  1.00 20.00    -0.033 A 
HETATM    5  C5  UNL     1     -33.366   5.910   2.671  1.00 20.00     0.040 A 
HETATM    6  C6  UNL     1     -32.509   8.298   1.551  1.00 20.00     0.035 A 
HETATM    7  C7  UNL     1     -34.734   6.894   4.321  1.00 20.00     0.060 C 
HETATM    8  C8  UNL     1     -34.933   5.364   4.243  1.00 20.00     0.124 C 
HETATM    9  C9  UNL     1     -31.906   4.574   1.129  1.00 20.00     0.050 C 
HETATM   10  N10 UNL     1     -33.865   4.835   3.404  1.00 20.00    -0.389 N 
HETATM   11 CL11 UNL     1     -31.967   9.769   0.837  1.00 20.00    -0.084 Cl
HETATM   12  H21 UNL     1     -33.865   3.892   3.041  1.00 20.00     0.159 HD
ENDROOT
TORSDOF 0
ENDMDL
MODEL 2
REMARK VINA RESULT:       0.7      2.097      2.970
REMARK  0 active torsions:
REMARK  status: ('A' for Active; 'I' for Inactive)
ROOT
HETATM    1  C1  UNL     1     -33.095   5.012   2.097  1.00 20.00     0.033 A 
HETATM    2  C2  UNL     1     -31.769   6.714   0.976  1.00 20.00     0.033 A 
HETATM    3  C3  UNL     1     -33.626   6.012   2.893  1.00 20.00    -0.028 A 
HETATM    4  C4  UNL     1     -32.321   7.713   1.781  1.00 20.00    -0.033 A 
HETATM    5  C5  UNL     1     -33.236   7.346   2.753  1.00 20.00     0.040 A 
HETATM    6  C6  UNL     1     -32.150   5.372   1.135  1.00 20.00     0.035 A 
HETATM    7  C7  UNL     1     -34.681   5.914   3.945  1.00 20.00     0.060 C 
HETATM    8  C8  UNL     1     -34.628   7.327   4.566  1.00 20.00     0.124 C 
HETATM    9  C9  UNL     1     -31.920   9.135   1.585  1.00 20.00     0.050 C 
HETATM   10  N10 UNL     1     -33.938   8.188   3.613  1.00 20.00    -0.389 N 
HETATM   11 CL11 UNL     1     -31.458   4.162   0.123  1.00 20.00    -0.084 Cl
HETATM   12  H21 UNL     1     -33.608   9.114   3.846  1.00 20.00     0.159 HD
ENDROOT
TORSDOF 0
ENDMDL
MODEL 3
REMARK VINA RESULT:       1.0      2.546      3.581
REMARK  0 active torsions:
REMARK  status: ('A' for Active; 'I' for Inactive)
ROOT
HETATM    1  C1  UNL     1     -34.045   7.447   3.403  1.00 20.00     0.033 A 
HETATM    2  C2  UNL     1     -33.602   5.177   2.653  1.00 20.00     0.033 A 
HETATM    3  C3  UNL     1     -33.109   7.888   2.484  1.00 20.00    -0.028 A 
HETATM    4  C4  UNL     1     -32.666   5.638   1.723  1.00 20.00    -0.033 A 
HETATM    5  C5  UNL     1     -32.413   6.997   1.663  1.00 20.00     0.040 A 
HETATM    6  C6  UNL     1     -34.284   6.074   3.490  1.00 20.00     0.035 A 
HETATM    7  C7  UNL     1     -32.708   9.286   2.148  1.00 20.00     0.060 C 
HETATM    8  C8  UNL     1     -31.494   9.044   1.225  1.00 20.00     0.124 C 
HETATM    9  C9  UNL     1     -31.967   4.673   0.829  1.00 20.00     0.050 C 
HETATM   10  N10 UNL     1     -31.567   7.659   0.775  1.00 20.00    -0.389 N 
HETATM   11 CL11 UNL     1     -35.438   5.478   4.622  1.00 20.00    -0.084 Cl
HETATM   12  H21 UNL     1     -30.802   7.190   0.311  1.00 20.00     0.159 HD
ENDROOT
TORSDOF 0
ENDMDL
MODEL 4
REMARK VINA RESULT:       1.4      1.149      2.623
REMARK  0 active torsions:
REMARK  status: ('A' for Active; 'I' for Inactive)
ROOT
HETATM    1  C1  UNL     1     -32.433   6.381   1.433  1.00 20.00     0.033 A 
HETATM    2  C2  UNL     1     -32.754   8.376   2.784  1.00 20.00     0.033 A 
HETATM    3  C3  UNL     1     -33.142   5.672   2.387  1.00 20.00    -0.028 A 
HETATM    4  C4  UNL     1     -33.476   7.649   3.734  1.00 20.00    -0.033 A 
HETATM    5  C5  UNL     1     -33.646   6.290   3.534  1.00 20.00     0.040 A 
HETATM    6  C6  UNL     1     -32.232   7.746   1.644  1.00 20.00     0.035 A 
HETATM    7  C7  UNL     1     -33.545   4.235   2.383  1.00 20.00     0.060 C 
HETATM    8  C8  UNL     1     -34.102   4.068   3.813  1.00 20.00     0.124 C 
HETATM    9  C9  UNL     1     -34.040   8.338   4.929  1.00 20.00     0.050 C 
HETATM   10  N10 UNL     1     -34.376   5.405   4.325  1.00 20.00    -0.389 N 
HETATM   11 CL11 UNL     1     -31.353   8.669   0.485  1.00 20.00    -0.084 Cl
HETATM   12  H21 UNL     1     -34.574   5.593   5.298  1.00 20.00     0.159 HD
ENDROOT
TORSDOF 0
ENDMDL
MODEL 5
REMARK VINA RESULT:       1.7      2.722      4.407
REMARK  0 active torsions:
REMARK  status: ('A' for Active; 'I' for Inactive)
ROOT
HETATM    1  C1  UNL     1     -32.753   5.277   2.186  1.00 20.00     0.033 A 
HETATM    2  C2  UNL     1     -34.014   6.063   4.111  1.00 20.00     0.033 A 
HETATM    3  C3  UNL     1     -32.500   6.600   1.866  1.00 20.00    -0.028 A 
HETATM    4  C4  UNL     1     -33.741   7.393   3.780  1.00 20.00    -0.033 A 
HETATM    5  C5  UNL     1     -32.999   7.650   2.640  1.00 20.00     0.040 A 
HETATM    6  C6  UNL     1     -33.527   5.013   3.317  1.00 20.00     0.035 A 
HETATM    7  C7  UNL     1     -31.666   7.155   0.759  1.00 20.00     0.060 C 
HETATM    8  C8  UNL     1     -31.992   8.661   0.855  1.00 20.00     0.124 C 
HETATM    9  C9  UNL     1     -34.249   8.495   4.645  1.00 20.00     0.050 C 
HETATM   10  N10 UNL     1     -32.573   8.892   2.172  1.00 20.00    -0.389 N 
HETATM   11 CL11 UNL     1     -33.872   3.383   3.753  1.00 20.00    -0.084 Cl
HETATM   12  H21 UNL     1     -33.041   9.750   2.425  1.00 20.00     0.159 HD
ENDROOT
TORSDOF 0
ENDMDL
