MODEL 1
REMARK VINA RESULT:       1.1      0.000      0.000
REMARK  0 active torsions:
REMARK  status: ('A' for Active; 'I' for Inactive)
ROOT
HETATM    1  C1  UNL     1     -33.585   8.305   3.460  1.00 20.00     0.010 A 
HETATM    2  C2  UNL     1     -34.409   7.442   4.190  1.00 20.00     0.019 A 
HETATM    3  C3  UNL     1     -33.672   5.541   2.868  1.00 20.00     0.034 A 
HETATM    4  C4  UNL     1     -32.867   6.419   2.165  1.00 20.00     0.018 A 
HETATM    5  C5  UNL     1     -32.811   7.781   2.434  1.00 20.00    -0.040 A 
HETATM    6  C6  UNL     1     -34.452   6.069   3.894  1.00 20.00     0.011 A 
HETATM    7  C7  UNL     1     -31.959   6.131   1.066  1.00 20.00     0.160 A 
HETATM    8  C8  UNL     1     -31.264   7.401   0.640  1.00 20.00     0.093 A 
HETATM    9  C9  UNL     1     -31.864   8.516   1.528  1.00 20.00     0.023 A 
HETATM   10  C10 UNL     1     -32.563   9.589   0.700  1.00 20.00     0.015 C 
HETATM   11  O11 UNL     1     -31.793   5.025   0.587  1.00 20.00    -0.292 OA
HETATM   12 BR12 UNL     1     -35.577   4.931   4.902  1.00 20.00    -0.051 Br
ENDROOT
TORSDOF 0
ENDMDL
MODEL 2
REMARK VINA RESULT:       1.6      2.596      3.941
REMARK  0 active torsions:
REMARK  status: ('A' for Active; 'I' for Inactive)
ROOT
HETATM    1  C1  UNL     1     -32.466   7.558   2.106  1.00 20.00     0.010 A 
HETATM    2  C2  UNL     1     -31.819   6.682   1.228  1.00 20.00     0.019 A 
HETATM    3  C3  UNL     1     -33.016   4.785   2.163  1.00 20.00     0.034 A 
HETATM    4  C4  UNL     1     -33.640   5.677   3.017  1.00 20.00     0.018 A 
HETATM    5  C5  UNL     1     -33.382   7.042   3.011  1.00 20.00    -0.040 A 
HETATM    6  C6  UNL     1     -32.092   5.304   1.258  1.00 20.00     0.011 A 
HETATM    7  C7  UNL     1     -34.639   5.403   4.038  1.00 20.00     0.160 A 
HETATM    8  C8  UNL     1     -35.057   6.696   4.695  1.00 20.00     0.093 A 
HETATM    9  C9  UNL     1     -34.185   7.792   4.036  1.00 20.00     0.023 A 
HETATM   10  C10 UNL     1     -33.307   8.508   5.056  1.00 20.00     0.015 C 
HETATM   11  O11 UNL     1     -35.066   4.293   4.297  1.00 20.00    -0.292 OA
HETATM   12 BR12 UNL     1     -31.201   4.148   0.057  1.00 20.00    -0.051 Br
ENDROOT
TORSDOF 0
ENDMDL
MODEL 3
REMARK VINA RESULT:       3.9      2.925      4.376
REMARK  0 active torsions:
REMARK  status: ('A' for Active; 'I' for Inactive)
ROOT
HETATM    1  C1  UNL     1     -31.441   7.412   0.515  1.00 20.00     0.010 A 
HETATM    2  C2  UNL     1     -31.521   8.799   0.350  1.00 20.00     0.019 A 
HETATM    3  C3  UNL     1     -33.198   8.959   2.102  1.00 20.00     0.034 A 
HETATM    4  C4  UNL     1     -33.095   7.586   2.241  1.00 20.00     0.018 A 
HETATM    5  C5  UNL     1     -32.244   6.805   1.470  1.00 20.00    -0.040 A 
HETATM    6  C6  UNL     1     -32.395   9.567   1.138  1.00 20.00     0.011 A 
HETATM    7  C7  UNL     1     -33.805   6.717   3.165  1.00 20.00     0.160 A 
HETATM    8  C8  UNL     1     -33.339   5.294   2.978  1.00 20.00     0.093 A 
HETATM    9  C9  UNL     1     -32.321   5.345   1.813  1.00 20.00     0.023 A 
HETATM   10  C10 UNL     1     -32.767   4.490   0.631  1.00 20.00     0.015 C 
HETATM   11  O11 UNL     1     -34.635   7.102   3.967  1.00 20.00    -0.292 OA
HETATM   12 BR12 UNL     1     -32.477  11.440   0.890  1.00 20.00    -0.051 Br
ENDROOT
TORSDOF 0
ENDMDL
