MODEL 1
REMARK VINA RESULT:       0.1      0.000      0.000
REMARK  0 active torsions:
REMARK  status: ('A' for Active; 'I' for Inactive)
ROOT
HETATM    1  C1  UNL     1     -32.545   5.057   1.677  1.00 20.00     0.010 A 
HETATM    2  C2  UNL     1     -31.922   6.130   1.032  1.00 20.00     0.019 A 
HETATM    3  C3  UNL     1     -33.043   7.720   2.488  1.00 20.00     0.034 A 
HETATM    4  C4  UNL     1     -33.645   6.639   3.105  1.00 20.00     0.018 A 
HETATM    5  C5  UNL     1     -33.412   5.321   2.727  1.00 20.00    -0.040 A 
HETATM    6  C6  UNL     1     -32.168   7.453   1.436  1.00 20.00     0.011 A 
HETATM    7  C7  UNL     1     -34.593   6.640   4.206  1.00 20.00     0.160 A 
HETATM    8  C8  UNL     1     -35.004   5.221   4.519  1.00 20.00     0.093 A 
HETATM    9  C9  UNL     1     -34.184   4.333   3.555  1.00 20.00     0.023 A 
HETATM   10  C10 UNL     1     -33.275   3.367   4.308  1.00 20.00     0.015 C 
HETATM   11  O11 UNL     1     -34.990   7.645   4.768  1.00 20.00    -0.292 OA
HETATM   12 BR12 UNL     1     -31.310   8.880   0.542  1.00 20.00    -0.051 Br
ENDROOT
TORSDOF 0
ENDMDL
MODEL 2
REMARK VINA RESULT:       3.0      1.940      2.942
REMARK  0 active torsions:
REMARK  status: ('A' for Active; 'I' for Inactive)
ROOT
HETATM    1  C1  UNL     1     -33.547   8.462   3.245  1.00 20.00     0.010 A 
HETATM    2  C2  UNL     1     -33.080   9.378   2.296  1.00 20.00     0.019 A 
HETATM    3  C3  UNL     1     -32.396   7.574   0.818  1.00 20.00     0.034 A 
HETATM    4  C4  UNL     1     -32.865   6.693   1.776  1.00 20.00     0.018 A 
HETATM    5  C5  UNL     1     -33.438   7.106   2.973  1.00 20.00    -0.040 A 
HETATM    6  C6  UNL     1     -32.510   8.936   1.090  1.00 20.00     0.011 A 
HETATM    7  C7  UNL     1     -32.858   5.240   1.748  1.00 20.00     0.160 A 
HETATM    8  C8  UNL     1     -33.443   4.708   3.034  1.00 20.00     0.093 A 
HETATM    9  C9  UNL     1     -33.869   5.956   3.840  1.00 20.00     0.023 A 
HETATM   10  C10 UNL     1     -35.368   5.967   4.121  1.00 20.00     0.015 C 
HETATM   11  O11 UNL     1     -32.430   4.574   0.821  1.00 20.00    -0.292 OA
HETATM   12 BR12 UNL     1     -31.889  10.201  -0.170  1.00 20.00    -0.051 Br
ENDROOT
TORSDOF 0
ENDMDL
