MODEL 1
REMARK VINA RESULT:       0.3      0.000      0.000
REMARK  2 active torsions:
REMARK  status: ('A' for Active; 'I' for Inactive)
REMARK    1  A    between atoms: C2_2  and  C8_8 
REMARK    2  A    between atoms: C8_8  and  N9_9 
ROOT
HETATM    1  C3  UNL     1     -32.026   8.627   2.854  1.00 20.00     0.003 C 
HETATM    2  C4  UNL     1     -31.815   7.566   1.780  1.00 20.00     0.030 C 
HETATM    3  C5  UNL     1     -32.736   8.038   4.069  1.00 20.00     0.030 C 
HETATM    4  C6  UNL     1     -33.122   6.840   1.452  1.00 20.00     0.273 C 
HETATM    5  C7  UNL     1     -34.011   7.297   3.662  1.00 20.00     0.273 C 
HETATM    6  N9  UNL     1     -33.809   6.279   2.622  1.00 20.00     0.093 N 
ENDROOT
BRANCH   6   7
HETATM    7  C8  UNL     1     -33.140   5.087   3.137  1.00 20.00     0.317 C 
BRANCH   7   8
HETATM    8  C2  UNL     1     -33.958   4.363   4.170  1.00 20.00     0.007 C 
HETATM    9  C1  UNL     1     -35.148   4.804   4.603  1.00 20.00     0.029 C 
HETATM   10 BR10 UNL     1     -33.244   2.741   4.778  1.00 20.00    -0.055 Br
ENDBRANCH   7   8
ENDBRANCH   6   7
TORSDOF 2
ENDMDL
MODEL 2
REMARK VINA RESULT:       0.4      3.231      4.756
REMARK  2 active torsions:
REMARK  status: ('A' for Active; 'I' for Inactive)
REMARK    1  A    between atoms: C2_2  and  C8_8 
REMARK    2  A    between atoms: C8_8  and  N9_9 
ROOT
HETATM    1  C3  UNL     1     -33.863   5.680   3.318  1.00 20.00     0.003 C 
HETATM    2  C4  UNL     1     -33.276   5.565   1.915  1.00 20.00     0.030 C 
HETATM    3  C5  UNL     1     -34.112   7.139   3.686  1.00 20.00     0.030 C 
HETATM    4  C6  UNL     1     -32.053   6.471   1.748  1.00 20.00     0.273 C 
HETATM    5  C7  UNL     1     -32.860   7.991   3.459  1.00 20.00     0.273 C 
HETATM    6  N9  UNL     1     -32.291   7.875   2.109  1.00 20.00     0.093 N 
ENDROOT
BRANCH   6   7
HETATM    7  C8  UNL     1     -33.093   8.575   1.109  1.00 20.00     0.317 C 
BRANCH   7   8
HETATM    8  C2  UNL     1     -32.306   9.613   0.359  1.00 20.00     0.007 C 
HETATM    9  C1  UNL     1     -32.545  10.929   0.459  1.00 20.00     0.029 C 
HETATM   10 BR10 UNL     1     -30.897   8.960  -0.688  1.00 20.00    -0.055 Br
ENDBRANCH   7   8
ENDBRANCH   6   7
TORSDOF 2
ENDMDL
MODEL 3
REMARK VINA RESULT:       0.4      3.339      4.829
REMARK  2 active torsions:
REMARK  status: ('A' for Active; 'I' for Inactive)
REMARK    1  A    between atoms: C2_2  and  C8_8 
REMARK    2  A    between atoms: C8_8  and  N9_9 
ROOT
HETATM    1  C3  UNL     1     -34.224   5.870   3.676  1.00 20.00     0.003 C 
HETATM    2  C4  UNL     1     -33.745   5.482   2.282  1.00 20.00     0.030 C 
HETATM    3  C5  UNL     1     -34.154   7.381   3.875  1.00 20.00     0.030 C 
HETATM    4  C6  UNL     1     -32.374   6.091   1.976  1.00 20.00     0.273 C 
HETATM    5  C7  UNL     1     -32.769   7.924   3.515  1.00 20.00     0.273 C 
HETATM    6  N9  UNL     1     -32.304   7.545   2.174  1.00 20.00     0.093 N 
ENDROOT
BRANCH   6   7
HETATM    7  C8  UNL     1     -32.997   8.280   1.119  1.00 20.00     0.317 C 
BRANCH   7   8
HETATM    8  C2  UNL     1     -32.096   9.242   0.395  1.00 20.00     0.007 C 
HETATM    9  C1  UNL     1     -30.916   8.886  -0.131  1.00 20.00     0.029 C 
HETATM   10 BR10 UNL     1     -32.760  10.983   0.202  1.00 20.00    -0.055 Br
ENDBRANCH   7   8
ENDBRANCH   6   7
TORSDOF 2
ENDMDL
MODEL 4
REMARK VINA RESULT:       1.2      2.704      4.475
REMARK  2 active torsions:
REMARK  status: ('A' for Active; 'I' for Inactive)
REMARK    1  A    between atoms: C2_2  and  C8_8 
REMARK    2  A    between atoms: C8_8  and  N9_9 
ROOT
HETATM    1  C3  UNL     1     -34.649   4.659   4.361  1.00 20.00     0.003 C 
HETATM    2  C4  UNL     1     -35.174   6.080   4.526  1.00 20.00     0.030 C 
HETATM    3  C5  UNL     1     -33.370   4.644   3.530  1.00 20.00     0.030 C 
HETATM    4  C6  UNL     1     -35.297   6.789   3.174  1.00 20.00     0.273 C 
HETATM    5  C7  UNL     1     -33.555   5.401   2.213  1.00 20.00     0.273 C 
HETATM    6  N9  UNL     1     -34.067   6.768   2.372  1.00 20.00     0.093 N 
ENDROOT
BRANCH   6   7
HETATM    7  C8  UNL     1     -33.053   7.683   2.891  1.00 20.00     0.317 C 
BRANCH   7   8
HETATM    8  C2  UNL     1     -32.100   8.156   1.828  1.00 20.00     0.007 C 
HETATM    9  C1  UNL     1     -30.957   7.522   1.533  1.00 20.00     0.029 C 
HETATM   10 BR10 UNL     1     -32.646   9.670   0.869  1.00 20.00    -0.055 Br
ENDBRANCH   7   8
ENDBRANCH   6   7
TORSDOF 2
ENDMDL
MODEL 5
REMARK VINA RESULT:       1.5      2.287      3.372
REMARK  2 active torsions:
REMARK  status: ('A' for Active; 'I' for Inactive)
REMARK    1  A    between atoms: C2_2  and  C8_8 
REMARK    2  A    between atoms: C8_8  and  N9_9 
ROOT
HETATM    1  C3  UNL     1     -31.883   9.587  -0.350  1.00 20.00     0.003 C 
HETATM    2  C4  UNL     1     -32.987  10.053   0.592  1.00 20.00     0.030 C 
HETATM    3  C5  UNL     1     -31.463   8.156  -0.032  1.00 20.00     0.030 C 
HETATM    4  C6  UNL     1     -32.602   9.823   2.057  1.00 20.00     0.273 C 
HETATM    5  C7  UNL     1     -31.130   7.992   1.453  1.00 20.00     0.273 C 
HETATM    6  N9  UNL     1     -32.191   8.447   2.361  1.00 20.00     0.093 N 
ENDROOT
BRANCH   6   7
HETATM    7  C8  UNL     1     -33.325   7.526   2.393  1.00 20.00     0.317 C 
BRANCH   7   8
HETATM    8  C2  UNL     1     -33.886   7.345   3.776  1.00 20.00     0.007 C 
HETATM    9  C1  UNL     1     -33.521   8.102   4.820  1.00 20.00     0.029 C 
HETATM   10 BR10 UNL     1     -35.205   6.025   3.948  1.00 20.00    -0.055 Br
ENDBRANCH   7   8
ENDBRANCH   6   7
TORSDOF 2
ENDMDL
MODEL 6
REMARK VINA RESULT:       1.5      1.596      2.604
REMARK  2 active torsions:
REMARK  status: ('A' for Active; 'I' for Inactive)
REMARK    1  A    between atoms: C2_2  and  C8_8 
REMARK    2  A    between atoms: C8_8  and  N9_9 
ROOT
HETATM    1  C3  UNL     1     -32.020   9.611   0.408  1.00 20.00     0.003 C 
HETATM    2  C4  UNL     1     -33.121   9.647   1.462  1.00 20.00     0.030 C 
HETATM    3  C5  UNL     1     -31.580   8.177   0.129  1.00 20.00     0.030 C 
HETATM    4  C6  UNL     1     -32.719   8.859   2.712  1.00 20.00     0.273 C 
HETATM    5  C7  UNL     1     -31.231   7.441   1.424  1.00 20.00     0.273 C 
HETATM    6  N9  UNL     1     -32.289   7.481   2.442  1.00 20.00     0.093 N 
ENDROOT
BRANCH   6   7
HETATM    7  C8  UNL     1     -33.412   6.607   2.109  1.00 20.00     0.317 C 
BRANCH   7   8
HETATM    8  C2  UNL     1     -34.131   6.098   3.328  1.00 20.00     0.007 C 
HETATM    9  C1  UNL     1     -35.007   6.838   4.024  1.00 20.00     0.029 C 
HETATM   10 BR10 UNL     1     -33.786   4.315   3.785  1.00 20.00    -0.055 Br
ENDBRANCH   7   8
ENDBRANCH   6   7
TORSDOF 2
ENDMDL
MODEL 7
REMARK VINA RESULT:       1.7      2.271      3.216
REMARK  2 active torsions:
REMARK  status: ('A' for Active; 'I' for Inactive)
REMARK    1  A    between atoms: C2_2  and  C8_8 
REMARK    2  A    between atoms: C8_8  and  N9_9 
ROOT
HETATM    1  C3  UNL     1     -32.376  10.156   0.344  1.00 20.00     0.003 C 
HETATM    2  C4  UNL     1     -33.059   9.878   1.678  1.00 20.00     0.030 C 
HETATM    3  C5  UNL     1     -32.090   8.857  -0.403  1.00 20.00     0.030 C 
HETATM    4  C6  UNL     1     -32.281   8.843   2.496  1.00 20.00     0.273 C 
HETATM    5  C7  UNL     1     -31.345   7.858   0.486  1.00 20.00     0.273 C 
HETATM    6  N9  UNL     1     -32.000   7.595   1.774  1.00 20.00     0.093 N 
ENDROOT
BRANCH   6   7
HETATM    7  C8  UNL     1     -33.190   6.759   1.631  1.00 20.00     0.317 C 
BRANCH   7   8
HETATM    8  C2  UNL     1     -33.627   6.145   2.932  1.00 20.00     0.007 C 
HETATM    9  C1  UNL     1     -33.366   4.873   3.266  1.00 20.00     0.029 C 
HETATM   10 BR10 UNL     1     -34.509   7.299   4.115  1.00 20.00    -0.055 Br
ENDBRANCH   7   8
ENDBRANCH   6   7
TORSDOF 2
ENDMDL
MODEL 8
REMARK VINA RESULT:       1.8      2.523      4.131
REMARK  2 active torsions:
REMARK  status: ('A' for Active; 'I' for Inactive)
REMARK    1  A    between atoms: C2_2  and  C8_8 
REMARK    2  A    between atoms: C8_8  and  N9_9 
ROOT
HETATM    1  C3  UNL     1     -35.463   4.910   4.719  1.00 20.00     0.003 C 
HETATM    2  C4  UNL     1     -34.302   4.196   4.036  1.00 20.00     0.030 C 
HETATM    3  C5  UNL     1     -35.714   6.273   4.083  1.00 20.00     0.030 C 
HETATM    4  C6  UNL     1     -33.063   5.093   3.965  1.00 20.00     0.273 C 
HETATM    5  C7  UNL     1     -34.427   7.098   4.011  1.00 20.00     0.273 C 
HETATM    6  N9  UNL     1     -33.306   6.408   3.359  1.00 20.00     0.093 N 
ENDROOT
BRANCH   6   7
HETATM    7  C8  UNL     1     -33.474   6.326   1.910  1.00 20.00     0.317 C 
BRANCH   7   8
HETATM    8  C2  UNL     1     -32.172   6.444   1.168  1.00 20.00     0.007 C 
HETATM    9  C1  UNL     1     -31.499   5.384   0.696  1.00 20.00     0.029 C 
HETATM   10 BR10 UNL     1     -31.566   8.190   0.868  1.00 20.00    -0.055 Br
ENDBRANCH   7   8
ENDBRANCH   6   7
TORSDOF 2
ENDMDL
MODEL 9
REMARK VINA RESULT:       2.5      2.087      3.689
REMARK  2 active torsions:
REMARK  status: ('A' for Active; 'I' for Inactive)
REMARK    1  A    between atoms: C2_2  and  C8_8 
REMARK    2  A    between atoms: C8_8  and  N9_9 
ROOT
HETATM    1  C3  UNL     1     -35.283   5.319   4.575  1.00 20.00     0.003 C 
HETATM    2  C4  UNL     1     -34.377   4.406   3.758  1.00 20.00     0.030 C 
HETATM    3  C5  UNL     1     -35.363   6.709   3.950  1.00 20.00     0.030 C 
HETATM    4  C6  UNL     1     -33.015   5.058   3.504  1.00 20.00     0.273 C 
HETATM    5  C7  UNL     1     -33.967   7.281   3.690  1.00 20.00     0.273 C 
HETATM    6  N9  UNL     1     -33.092   6.398   2.908  1.00 20.00     0.093 N 
ENDROOT
BRANCH   6   7
HETATM    7  C8  UNL     1     -33.466   6.355   1.497  1.00 20.00     0.317 C 
BRANCH   7   8
HETATM    8  C2  UNL     1     -32.784   5.242   0.750  1.00 20.00     0.007 C 
HETATM    9  C1  UNL     1     -31.483   4.952   0.895  1.00 20.00     0.029 C 
HETATM   10 BR10 UNL     1     -33.890   4.217  -0.361  1.00 20.00    -0.055 Br
ENDBRANCH   7   8
ENDBRANCH   6   7
TORSDOF 2
ENDMDL
