MODEL 1
REMARK VINA RESULT:      -0.2      0.000      0.000
REMARK  1 active torsions:
REMARK  status: ('A' for Active; 'I' for Inactive)
REMARK    1  A    between atoms: C1_1  and  C6_6 
ROOT
HETATM    1  C2  UNL     1     -31.816   8.132   0.333  1.00 20.00     0.005 C 
HETATM    2  C3  UNL     1     -32.559   9.295   1.009  1.00 20.00     0.006 C 
HETATM    3  C4  UNL     1     -32.897   6.495   1.896  1.00 20.00     0.018 C 
HETATM    4  C5  UNL     1     -31.330   8.114   2.662  1.00 20.00     0.010 C 
HETATM    5  C6  UNL     1     -33.683   7.659   2.524  1.00 20.00     0.076 C 
HETATM    6  C7  UNL     1     -31.565   7.156   1.496  1.00 20.00    -0.013 C 
HETATM    7  C8  UNL     1     -32.674   8.824   2.470  1.00 20.00    -0.002 C 
ENDROOT
BRANCH   5   8
HETATM    8  C1  UNL     1     -34.099   7.348   3.929  1.00 20.00     0.223 C 
HETATM    9  O9  UNL     1     -33.654   7.974   4.887  1.00 20.00    -0.279 OA
HETATM   10 CL10 UNL     1     -35.242   6.043   4.000  1.00 20.00    -0.043 Cl
ENDBRANCH   5   8
TORSDOF 1
ENDMDL
MODEL 2
REMARK VINA RESULT:      -0.0      1.765      2.633
REMARK  1 active torsions:
REMARK  status: ('A' for Active; 'I' for Inactive)
REMARK    1  A    between atoms: C1_1  and  C6_6 
ROOT
HETATM    1  C2  UNL     1     -31.673   7.593   1.571  1.00 20.00     0.005 C 
HETATM    2  C3  UNL     1     -31.542   6.068   1.436  1.00 20.00     0.006 C 
HETATM    3  C4  UNL     1     -33.298   7.317   3.461  1.00 20.00     0.018 C 
HETATM    4  C5  UNL     1     -33.834   6.658   1.237  1.00 20.00     0.010 C 
HETATM    5  C6  UNL     1     -33.113   5.793   3.358  1.00 20.00     0.076 C 
HETATM    6  C7  UNL     1     -33.138   7.781   2.001  1.00 20.00    -0.013 C 
HETATM    7  C8  UNL     1     -32.941   5.569   1.841  1.00 20.00    -0.002 C 
ENDROOT
BRANCH   5   8
HETATM    8  C1  UNL     1     -34.300   5.056   3.898  1.00 20.00     0.223 C 
HETATM    9  O9  UNL     1     -34.262   3.851   4.129  1.00 20.00    -0.279 OA
HETATM   10 CL10 UNL     1     -35.666   6.102   4.136  1.00 20.00    -0.043 Cl
ENDBRANCH   5   8
TORSDOF 1
ENDMDL
MODEL 3
REMARK VINA RESULT:       0.1      1.221      1.221
REMARK  1 active torsions:
REMARK  status: ('A' for Active; 'I' for Inactive)
REMARK    1  A    between atoms: C1_1  and  C6_6 
ROOT
HETATM    1  C2  UNL     1     -31.643   8.440   0.294  1.00 20.00     0.005 C 
HETATM    2  C3  UNL     1     -32.654   9.335   1.030  1.00 20.00     0.006 C 
HETATM    3  C4  UNL     1     -32.478   6.428   1.536  1.00 20.00     0.018 C 
HETATM    4  C5  UNL     1     -31.330   8.197   2.640  1.00 20.00     0.010 C 
HETATM    5  C6  UNL     1     -33.526   7.321   2.221  1.00 20.00     0.076 C 
HETATM    6  C7  UNL     1     -31.283   7.381   1.350  1.00 20.00    -0.013 C 
HETATM    7  C8  UNL     1     -32.773   8.655   2.406  1.00 20.00    -0.002 C 
ENDROOT
BRANCH   5   8
HETATM    8  C1  UNL     1     -33.968   6.746   3.532  1.00 20.00     0.223 C 
HETATM    9  O9  UNL     1     -34.262   5.560   3.650  1.00 20.00    -0.279 OA
HETATM   10 CL10 UNL     1     -34.001   7.941   4.793  1.00 20.00    -0.043 Cl
ENDBRANCH   5   8
TORSDOF 1
ENDMDL
MODEL 4
REMARK VINA RESULT:       0.1      1.580      2.460
REMARK  1 active torsions:
REMARK  status: ('A' for Active; 'I' for Inactive)
REMARK    1  A    between atoms: C1_1  and  C6_6 
ROOT
HETATM    1  C2  UNL     1     -31.582   7.648   1.494  1.00 20.00     0.005 C 
HETATM    2  C3  UNL     1     -31.516   6.112   1.524  1.00 20.00     0.006 C 
HETATM    3  C4  UNL     1     -33.319   7.638   3.303  1.00 20.00     0.018 C 
HETATM    4  C5  UNL     1     -33.764   6.771   1.132  1.00 20.00     0.010 C 
HETATM    5  C6  UNL     1     -33.200   6.105   3.368  1.00 20.00     0.076 C 
HETATM    6  C7  UNL     1     -33.058   7.939   1.816  1.00 20.00    -0.013 C 
HETATM    7  C8  UNL     1     -32.956   5.716   1.895  1.00 20.00    -0.002 C 
ENDROOT
BRANCH   5   8
HETATM    8  C1  UNL     1     -34.448   5.478   3.910  1.00 20.00     0.223 C 
HETATM    9  O9  UNL     1     -35.502   6.102   3.989  1.00 20.00    -0.279 OA
HETATM   10 CL10 UNL     1     -34.197   3.826   4.384  1.00 20.00    -0.043 Cl
ENDBRANCH   5   8
TORSDOF 1
ENDMDL
MODEL 5
REMARK VINA RESULT:       0.7      2.710      3.672
REMARK  1 active torsions:
REMARK  status: ('A' for Active; 'I' for Inactive)
REMARK    1  A    between atoms: C1_1  and  C6_6 
ROOT
HETATM    1  C2  UNL     1     -33.322   5.666   3.283  1.00 20.00     0.005 C 
HETATM    2  C3  UNL     1     -33.860   7.086   3.516  1.00 20.00     0.006 C 
HETATM    3  C4  UNL     1     -31.621   6.545   1.663  1.00 20.00     0.018 C 
HETATM    4  C5  UNL     1     -33.954   6.607   1.192  1.00 20.00     0.010 C 
HETATM    5  C6  UNL     1     -32.128   7.969   1.950  1.00 20.00     0.076 C 
HETATM    6  C7  UNL     1     -32.896   5.693   1.805  1.00 20.00    -0.013 C 
HETATM    7  C8  UNL     1     -33.643   7.762   2.150  1.00 20.00    -0.002 C 
ENDROOT
BRANCH   5   8
HETATM    8  C1  UNL     1     -31.840   8.897   0.809  1.00 20.00     0.223 C 
HETATM    9  O9  UNL     1     -30.978   8.643  -0.027  1.00 20.00    -0.279 OA
HETATM   10 CL10 UNL     1     -32.850  10.309   0.843  1.00 20.00    -0.043 Cl
ENDBRANCH   5   8
TORSDOF 1
ENDMDL
MODEL 6
REMARK VINA RESULT:       0.7      0.952      1.998
REMARK  1 active torsions:
REMARK  status: ('A' for Active; 'I' for Inactive)
REMARK    1  A    between atoms: C1_1  and  C6_6 
ROOT
HETATM    1  C2  UNL     1     -31.198   6.664   1.082  1.00 20.00     0.005 C 
HETATM    2  C3  UNL     1     -32.146   5.506   1.429  1.00 20.00     0.006 C 
HETATM    3  C4  UNL     1     -32.103   8.014   2.992  1.00 20.00     0.018 C 
HETATM    4  C5  UNL     1     -33.435   7.472   1.096  1.00 20.00     0.010 C 
HETATM    5  C6  UNL     1     -33.003   6.825   3.367  1.00 20.00     0.076 C 
HETATM    6  C7  UNL     1     -32.018   7.910   1.458  1.00 20.00    -0.013 C 
HETATM    7  C8  UNL     1     -33.380   6.232   1.994  1.00 20.00    -0.002 C 
ENDROOT
BRANCH   5   8
HETATM    8  C1  UNL     1     -34.213   7.269   4.131  1.00 20.00     0.223 C 
HETATM    9  O9  UNL     1     -34.212   8.300   4.798  1.00 20.00    -0.279 OA
HETATM   10 CL10 UNL     1     -35.545   6.171   3.944  1.00 20.00    -0.043 Cl
ENDBRANCH   5   8
TORSDOF 1
ENDMDL
MODEL 7
REMARK VINA RESULT:       0.8      2.758      4.106
REMARK  1 active torsions:
REMARK  status: ('A' for Active; 'I' for Inactive)
REMARK    1  A    between atoms: C1_1  and  C6_6 
ROOT
HETATM    1  C2  UNL     1     -35.571   6.142   4.249  1.00 20.00     0.005 C 
HETATM    2  C3  UNL     1     -34.719   4.871   4.102  1.00 20.00     0.006 C 
HETATM    3  C4  UNL     1     -34.318   7.232   2.369  1.00 20.00     0.018 C 
HETATM    4  C5  UNL     1     -33.272   6.722   4.446  1.00 20.00     0.010 C 
HETATM    5  C6  UNL     1     -33.514   5.933   2.191  1.00 20.00     0.076 C 
HETATM    6  C7  UNL     1     -34.585   7.265   3.886  1.00 20.00    -0.013 C 
HETATM    7  C8  UNL     1     -33.359   5.422   3.639  1.00 20.00    -0.002 C 
ENDROOT
BRANCH   5   8
HETATM    8  C1  UNL     1     -32.185   6.192   1.548  1.00 20.00     0.223 C 
HETATM    9  O9  UNL     1     -31.490   5.278   1.112  1.00 20.00    -0.279 OA
HETATM   10 CL10 UNL     1     -31.795   7.883   1.511  1.00 20.00    -0.043 Cl
ENDBRANCH   5   8
TORSDOF 1
ENDMDL
MODEL 8
REMARK VINA RESULT:       0.8      2.434      3.814
REMARK  1 active torsions:
REMARK  status: ('A' for Active; 'I' for Inactive)
REMARK    1  A    between atoms: C1_1  and  C6_6 
ROOT
HETATM    1  C2  UNL     1     -35.259   6.398   4.052  1.00 20.00     0.005 C 
HETATM    2  C3  UNL     1     -34.238   5.446   3.410  1.00 20.00     0.006 C 
HETATM    3  C4  UNL     1     -34.320   8.327   2.753  1.00 20.00     0.018 C 
HETATM    4  C5  UNL     1     -33.066   7.229   4.452  1.00 20.00     0.010 C 
HETATM    5  C6  UNL     1     -33.343   7.354   2.071  1.00 20.00     0.076 C 
HETATM    6  C7  UNL     1     -34.481   7.722   4.159  1.00 20.00    -0.013 C 
HETATM    7  C8  UNL     1     -33.013   6.353   3.196  1.00 20.00    -0.002 C 
ENDROOT
BRANCH   5   8
HETATM    8  C1  UNL     1     -32.118   8.060   1.576  1.00 20.00     0.223 C 
HETATM    9  O9  UNL     1     -30.991   7.620   1.785  1.00 20.00    -0.279 OA
HETATM   10 CL10 UNL     1     -32.505   9.514   0.709  1.00 20.00    -0.043 Cl
ENDBRANCH   5   8
TORSDOF 1
ENDMDL
MODEL 9
REMARK VINA RESULT:       1.2      2.715      4.016
REMARK  1 active torsions:
REMARK  status: ('A' for Active; 'I' for Inactive)
REMARK    1  A    between atoms: C1_1  and  C6_6 
ROOT
HETATM    1  C2  UNL     1     -35.024   6.459   5.188  1.00 20.00     0.005 C 
HETATM    2  C3  UNL     1     -34.143   7.675   4.858  1.00 20.00     0.006 C 
HETATM    3  C4  UNL     1     -33.957   5.147   3.336  1.00 20.00     0.018 C 
HETATM    4  C5  UNL     1     -35.331   7.041   2.902  1.00 20.00     0.010 C 
HETATM    5  C6  UNL     1     -33.038   6.349   3.054  1.00 20.00     0.076 C 
HETATM    6  C7  UNL     1     -35.260   5.816   3.810  1.00 20.00    -0.013 C 
HETATM    7  C8  UNL     1     -33.955   7.557   3.335  1.00 20.00    -0.002 C 
ENDROOT
BRANCH   5   8
HETATM    8  C1  UNL     1     -32.541   6.343   1.641  1.00 20.00     0.223 C 
HETATM    9  O9  UNL     1     -32.671   5.362   0.915  1.00 20.00    -0.279 OA
HETATM   10 CL10 UNL     1     -31.796   7.849   1.203  1.00 20.00    -0.043 Cl
ENDBRANCH   5   8
TORSDOF 1
ENDMDL
