MODEL 1
REMARK VINA RESULT:      -2.4      0.000      0.000
REMARK  3 active torsions:
REMARK  status: ('A' for Active; 'I' for Inactive)
REMARK    1  A    between atoms: C5_5  and  N9_9 
REMARK    2  A    between atoms: C6_6  and  C7_7 
REMARK    3  A    between atoms: C7_7  and  N9_9 
ROOT
HETATM    1  C1  UNL     1     -32.219   9.288   0.799  1.00 20.00     0.089 C 
HETATM    2  C5  UNL     1     -31.833   8.056   1.483  1.00 20.00     0.393 C 
HETATM    3  N8  UNL     1     -32.525  10.266   0.254  1.00 20.00    -0.195 NA
ENDROOT
BRANCH   2   4
HETATM    4  N9  UNL     1     -32.813   7.695   2.501  1.00 20.00     0.100 N 
HETATM    5  H23 UNL     1     -33.713   8.113   2.256  1.00 20.00     0.317 HD
BRANCH   4   6
HETATM    6  C7  UNL     1     -32.957   6.258   2.607  1.00 20.00     0.221 C 
HETATM    7  C4  UNL     1     -32.786   5.638   1.222  1.00 20.00     0.043 C 
BRANCH   6   8
HETATM    8  C6  UNL     1     -34.299   5.882   3.277  1.00 20.00     0.010 C 
HETATM    9  C2  UNL     1     -34.256   4.567   4.061  1.00 20.00     0.011 C 
HETATM   10  C3  UNL     1     -34.799   7.011   4.187  1.00 20.00     0.011 C 
ENDBRANCH   6   8
ENDBRANCH   4   6
ENDBRANCH   2   4
TORSDOF 3
ENDMDL
MODEL 2
REMARK VINA RESULT:      -2.4      0.905      1.073
REMARK  3 active torsions:
REMARK  status: ('A' for Active; 'I' for Inactive)
REMARK    1  A    between atoms: C5_5  and  N9_9 
REMARK    2  A    between atoms: C6_6  and  C7_7 
REMARK    3  A    between atoms: C7_7  and  N9_9 
ROOT
HETATM    1  C1  UNL     1     -32.272   9.458   0.559  1.00 20.00     0.089 C 
HETATM    2  C5  UNL     1     -31.904   8.128   1.039  1.00 20.00     0.393 C 
HETATM    3  N8  UNL     1     -32.563  10.514   0.175  1.00 20.00    -0.195 NA
ENDROOT
BRANCH   2   4
HETATM    4  N9  UNL     1     -32.034   8.044   2.490  1.00 20.00     0.100 N 
HETATM    5  H23 UNL     1     -32.475   8.900   2.832  1.00 20.00     0.317 HD
BRANCH   4   6
HETATM    6  C7  UNL     1     -32.828   6.898   2.881  1.00 20.00     0.221 C 
HETATM    7  C4  UNL     1     -33.099   6.037   1.649  1.00 20.00     0.043 C 
BRANCH   6   8
HETATM    8  C6  UNL     1     -34.121   7.340   3.606  1.00 20.00     0.010 C 
HETATM    9  C2  UNL     1     -35.098   6.195   3.890  1.00 20.00     0.011 C 
HETATM   10  C3  UNL     1     -33.799   8.081   4.910  1.00 20.00     0.011 C 
ENDBRANCH   6   8
ENDBRANCH   4   6
ENDBRANCH   2   4
TORSDOF 3
ENDMDL
MODEL 3
REMARK VINA RESULT:      -2.1      2.318      4.756
REMARK  3 active torsions:
REMARK  status: ('A' for Active; 'I' for Inactive)
REMARK    1  A    between atoms: C5_5  and  N9_9 
REMARK    2  A    between atoms: C6_6  and  C7_7 
REMARK    3  A    between atoms: C7_7  and  N9_9 
ROOT
HETATM    1  C1  UNL     1     -34.251   4.157   4.429  1.00 20.00     0.089 C 
HETATM    2  C5  UNL     1     -35.226   5.242   4.523  1.00 20.00     0.393 C 
HETATM    3  N8  UNL     1     -33.478   3.294   4.355  1.00 20.00    -0.195 NA
ENDROOT
BRANCH   2   4
HETATM    4  N9  UNL     1     -35.027   6.215   3.455  1.00 20.00     0.100 N 
HETATM    5  H23 UNL     1     -35.706   6.971   3.567  1.00 20.00     0.317 HD
BRANCH   4   6
HETATM    6  C7  UNL     1     -33.685   6.758   3.482  1.00 20.00     0.221 C 
HETATM    7  C4  UNL     1     -33.687   8.049   4.300  1.00 20.00     0.043 C 
BRANCH   6   8
HETATM    8  C6  UNL     1     -33.136   6.951   2.050  1.00 20.00     0.010 C 
HETATM    9  C2  UNL     1     -32.037   8.012   1.942  1.00 20.00     0.011 C 
HETATM   10  C3  UNL     1     -32.634   5.624   1.466  1.00 20.00     0.011 C 
ENDBRANCH   6   8
ENDBRANCH   4   6
ENDBRANCH   2   4
TORSDOF 3
ENDMDL
MODEL 4
REMARK VINA RESULT:      -1.5      1.293      1.952
REMARK  3 active torsions:
REMARK  status: ('A' for Active; 'I' for Inactive)
REMARK    1  A    between atoms: C5_5  and  N9_9 
REMARK    2  A    between atoms: C6_6  and  C7_7 
REMARK    3  A    between atoms: C7_7  and  N9_9 
ROOT
HETATM    1  C1  UNL     1     -31.935   7.490   1.399  1.00 20.00     0.089 C 
HETATM    2  C5  UNL     1     -31.903   6.029   1.427  1.00 20.00     0.393 C 
HETATM    3  N8  UNL     1     -31.958   8.651   1.376  1.00 20.00    -0.195 NA
ENDROOT
BRANCH   2   4
HETATM    4  N9  UNL     1     -33.208   5.487   1.790  1.00 20.00     0.100 N 
HETATM    5  H23 UNL     1     -33.261   4.516   1.475  1.00 20.00     0.317 HD
BRANCH   4   6
HETATM    6  C7  UNL     1     -33.421   5.546   3.222  1.00 20.00     0.221 C 
HETATM    7  C4  UNL     1     -33.743   4.143   3.734  1.00 20.00     0.043 C 
BRANCH   6   8
HETATM    8  C6  UNL     1     -34.509   6.584   3.578  1.00 20.00     0.010 C 
HETATM    9  C2  UNL     1     -35.701   6.000   4.344  1.00 20.00     0.011 C 
HETATM   10  C3  UNL     1     -33.917   7.761   4.362  1.00 20.00     0.011 C 
ENDBRANCH   6   8
ENDBRANCH   4   6
ENDBRANCH   2   4
TORSDOF 3
ENDMDL
MODEL 5
REMARK VINA RESULT:      -1.4      1.120      1.456
REMARK  3 active torsions:
REMARK  status: ('A' for Active; 'I' for Inactive)
REMARK    1  A    between atoms: C5_5  and  N9_9 
REMARK    2  A    between atoms: C6_6  and  C7_7 
REMARK    3  A    between atoms: C7_7  and  N9_9 
ROOT
HETATM    1  C1  UNL     1     -32.231   9.151   0.768  1.00 20.00     0.089 C 
HETATM    2  C5  UNL     1     -31.711   8.306   1.841  1.00 20.00     0.393 C 
HETATM    3  N8  UNL     1     -32.641   9.825  -0.084  1.00 20.00    -0.195 NA
ENDROOT
BRANCH   2   4
HETATM    4  N9  UNL     1     -32.516   7.099   1.988  1.00 20.00     0.100 N 
HETATM    5  H23 UNL     1     -31.916   6.339   2.315  1.00 20.00     0.317 HD
BRANCH   4   6
HETATM    6  C7  UNL     1     -33.600   7.301   2.928  1.00 20.00     0.221 C 
HETATM    7  C4  UNL     1     -33.037   7.902   4.215  1.00 20.00     0.043 C 
BRANCH   6   8
HETATM    8  C6  UNL     1     -34.382   5.988   3.164  1.00 20.00     0.010 C 
HETATM    9  C2  UNL     1     -33.498   4.798   3.547  1.00 20.00     0.011 C 
HETATM   10  C3  UNL     1     -35.479   6.179   4.219  1.00 20.00     0.011 C 
ENDBRANCH   6   8
ENDBRANCH   4   6
ENDBRANCH   2   4
TORSDOF 3
ENDMDL
MODEL 6
REMARK VINA RESULT:      -1.4      1.720      4.388
REMARK  3 active torsions:
REMARK  status: ('A' for Active; 'I' for Inactive)
REMARK    1  A    between atoms: C5_5  and  N9_9 
REMARK    2  A    between atoms: C6_6  and  C7_7 
REMARK    3  A    between atoms: C7_7  and  N9_9 
ROOT
HETATM    1  C1  UNL     1     -35.090   5.866   4.189  1.00 20.00     0.089 C 
HETATM    2  C5  UNL     1     -34.656   7.170   3.693  1.00 20.00     0.393 C 
HETATM    3  N8  UNL     1     -35.437   4.831   4.584  1.00 20.00    -0.195 NA
ENDROOT
BRANCH   2   4
HETATM    4  N9  UNL     1     -33.234   7.159   3.372  1.00 20.00     0.100 N 
HETATM    5  H23 UNL     1     -32.803   6.339   3.807  1.00 20.00     0.317 HD
BRANCH   4   6
HETATM    6  C7  UNL     1     -33.018   7.120   1.941  1.00 20.00     0.221 C 
HETATM    7  C4  UNL     1     -32.722   5.682   1.521  1.00 20.00     0.043 C 
BRANCH   6   8
HETATM    8  C6  UNL     1     -31.910   8.114   1.520  1.00 20.00     0.010 C 
HETATM    9  C2  UNL     1     -32.410   9.272   0.652  1.00 20.00     0.011 C 
HETATM   10  C3  UNL     1     -31.167   8.666   2.743  1.00 20.00     0.011 C 
ENDBRANCH   6   8
ENDBRANCH   4   6
ENDBRANCH   2   4
TORSDOF 3
ENDMDL
MODEL 7
REMARK VINA RESULT:      -1.3      0.622      1.909
REMARK  3 active torsions:
REMARK  status: ('A' for Active; 'I' for Inactive)
REMARK    1  A    between atoms: C5_5  and  N9_9 
REMARK    2  A    between atoms: C6_6  and  C7_7 
REMARK    3  A    between atoms: C7_7  and  N9_9 
ROOT
HETATM    1  C1  UNL     1     -32.236   9.320   0.690  1.00 20.00     0.089 C 
HETATM    2  C5  UNL     1     -31.739   8.155   1.418  1.00 20.00     0.393 C 
HETATM    3  N8  UNL     1     -32.629  10.246   0.109  1.00 20.00    -0.195 NA
ENDROOT
BRANCH   2   4
HETATM    4  N9  UNL     1     -32.310   8.096   2.759  1.00 20.00     0.100 N 
HETATM    5  H23 UNL     1     -32.566   9.042   3.051  1.00 20.00     0.317 HD
BRANCH   4   6
HETATM    6  C7  UNL     1     -33.480   7.243   2.795  1.00 20.00     0.221 C 
HETATM    7  C4  UNL     1     -34.257   7.518   4.081  1.00 20.00     0.043 C 
BRANCH   6   8
HETATM    8  C6  UNL     1     -33.088   5.756   2.631  1.00 20.00     0.010 C 
HETATM    9  C2  UNL     1     -33.915   4.796   3.491  1.00 20.00     0.011 C 
HETATM   10  C3  UNL     1     -33.155   5.324   1.161  1.00 20.00     0.011 C 
ENDBRANCH   6   8
ENDBRANCH   4   6
ENDBRANCH   2   4
TORSDOF 3
ENDMDL
MODEL 8
REMARK VINA RESULT:      -0.8      2.403      4.678
REMARK  3 active torsions:
REMARK  status: ('A' for Active; 'I' for Inactive)
REMARK    1  A    between atoms: C5_5  and  N9_9 
REMARK    2  A    between atoms: C6_6  and  C7_7 
REMARK    3  A    between atoms: C7_7  and  N9_9 
ROOT
HETATM    1  C1  UNL     1     -33.493   3.443   4.495  1.00 20.00     0.089 C 
HETATM    2  C5  UNL     1     -34.276   4.326   3.632  1.00 20.00     0.393 C 
HETATM    3  N8  UNL     1     -32.872   2.740   5.179  1.00 20.00    -0.195 NA
ENDROOT
BRANCH   2   4
HETATM    4  N9  UNL     1     -33.937   5.724   3.872  1.00 20.00     0.100 N 
HETATM    5  H23 UNL     1     -33.072   5.766   4.415  1.00 20.00     0.317 HD
BRANCH   4   6
HETATM    6  C7  UNL     1     -33.766   6.444   2.627  1.00 20.00     0.221 C 
HETATM    7  C4  UNL     1     -32.884   5.619   1.693  1.00 20.00     0.043 C 
BRANCH   6   8
HETATM    8  C6  UNL     1     -33.215   7.866   2.881  1.00 20.00     0.010 C 
HETATM    9  C2  UNL     1     -32.913   8.164   4.353  1.00 20.00     0.011 C 
HETATM   10  C3  UNL     1     -31.967   8.136   2.032  1.00 20.00     0.011 C 
ENDBRANCH   6   8
ENDBRANCH   4   6
ENDBRANCH   2   4
TORSDOF 3
ENDMDL
MODEL 9
REMARK VINA RESULT:      -0.6      1.333      1.593
REMARK  3 active torsions:
REMARK  status: ('A' for Active; 'I' for Inactive)
REMARK    1  A    between atoms: C5_5  and  N9_9 
REMARK    2  A    between atoms: C6_6  and  C7_7 
REMARK    3  A    between atoms: C7_7  and  N9_9 
ROOT
HETATM    1  C1  UNL     1     -32.212   8.212   2.043  1.00 20.00     0.089 C 
HETATM    2  C5  UNL     1     -32.771   7.834   3.339  1.00 20.00     0.393 C 
HETATM    3  N8  UNL     1     -31.767   8.513   1.014  1.00 20.00    -0.195 NA
ENDROOT
BRANCH   2   4
HETATM    4  N9  UNL     1     -33.841   6.855   3.180  1.00 20.00     0.100 N 
HETATM    5  H23 UNL     1     -34.396   7.102   2.358  1.00 20.00     0.317 HD
BRANCH   4   6
HETATM    6  C7  UNL     1     -33.310   5.517   3.024  1.00 20.00     0.221 C 
HETATM    7  C4  UNL     1     -33.080   5.243   1.539  1.00 20.00     0.043 C 
BRANCH   6   8
HETATM    8  C6  UNL     1     -34.231   4.473   3.697  1.00 20.00     0.010 C 
HETATM    9  C2  UNL     1     -33.485   3.441   4.549  1.00 20.00     0.011 C 
HETATM   10  C3  UNL     1     -35.317   5.153   4.540  1.00 20.00     0.011 C 
ENDBRANCH   6   8
ENDBRANCH   4   6
ENDBRANCH   2   4
TORSDOF 3
ENDMDL
