MODEL 1
REMARK VINA RESULT:      -1.4      0.000      0.000
REMARK  1 active torsions:
REMARK  status: ('A' for Active; 'I' for Inactive)
REMARK    1  A    between atoms: C1_1  and  C5_5 
ROOT
HETATM    1  C2  UNL     1     -32.021   7.636   1.572  1.00 20.00     0.193 C 
HETATM    2  C3  UNL     1     -32.270   8.193   2.963  1.00 20.00     0.195 C 
HETATM    3  C4  UNL     1     -33.461   5.835   2.034  1.00 20.00     0.206 C 
HETATM    4  C5  UNL     1     -33.711   6.397   3.424  1.00 20.00     0.206 C 
HETATM    5  O7  UNL     1     -32.156   6.212   1.591  1.00 20.00    -0.386 OA
HETATM    6  O8  UNL     1     -33.575   7.818   3.407  1.00 20.00    -0.375 OA
ENDROOT
BRANCH   4   7
HETATM    7  C1  UNL     1     -35.115   6.148   3.863  1.00 20.00     0.265 C 
HETATM    8  O6  UNL     1     -35.465   5.138   4.466  1.00 20.00    -0.304 OA
ENDBRANCH   4   7
TORSDOF 1
ENDMDL
MODEL 2
REMARK VINA RESULT:      -1.4      1.089      1.795
REMARK  1 active torsions:
REMARK  status: ('A' for Active; 'I' for Inactive)
REMARK    1  A    between atoms: C1_1  and  C5_5 
ROOT
HETATM    1  C2  UNL     1     -31.913   7.161   1.965  1.00 20.00     0.193 C 
HETATM    2  C3  UNL     1     -32.818   6.040   1.482  1.00 20.00     0.195 C 
HETATM    3  C4  UNL     1     -33.458   7.679   3.661  1.00 20.00     0.206 C 
HETATM    4  C5  UNL     1     -34.359   6.555   3.178  1.00 20.00     0.206 C 
HETATM    5  O7  UNL     1     -32.701   8.193   2.562  1.00 20.00    -0.386 OA
HETATM    6  O8  UNL     1     -33.575   5.523   2.579  1.00 20.00    -0.375 OA
ENDROOT
BRANCH   4   7
HETATM    7  C1  UNL     1     -35.059   5.897   4.319  1.00 20.00     0.265 C 
HETATM    8  O6  UNL     1     -35.147   4.680   4.446  1.00 20.00    -0.304 OA
ENDBRANCH   4   7
TORSDOF 1
ENDMDL
MODEL 3
REMARK VINA RESULT:      -1.1      1.381      3.705
REMARK  1 active torsions:
REMARK  status: ('A' for Active; 'I' for Inactive)
REMARK    1  A    between atoms: C1_1  and  C5_5 
ROOT
HETATM    1  C2  UNL     1     -34.987   6.414   3.914  1.00 20.00     0.193 C 
HETATM    2  C3  UNL     1     -34.018   5.451   3.248  1.00 20.00     0.195 C 
HETATM    3  C4  UNL     1     -33.558   8.210   3.402  1.00 20.00     0.206 C 
HETATM    4  C5  UNL     1     -32.593   7.245   2.732  1.00 20.00     0.206 C 
HETATM    5  O7  UNL     1     -34.269   7.533   4.441  1.00 20.00    -0.386 OA
HETATM    6  O8  UNL     1     -33.307   6.126   2.208  1.00 20.00    -0.375 OA
ENDROOT
BRANCH   4   7
HETATM    7  C1  UNL     1     -31.935   7.874   1.550  1.00 20.00     0.265 C 
HETATM    8  O6  UNL     1     -32.264   8.964   1.094  1.00 20.00    -0.304 OA
ENDBRANCH   4   7
TORSDOF 1
ENDMDL
MODEL 4
REMARK VINA RESULT:      -0.8      1.502      3.361
REMARK  1 active torsions:
REMARK  status: ('A' for Active; 'I' for Inactive)
REMARK    1  A    between atoms: C1_1  and  C5_5 
ROOT
HETATM    1  C2  UNL     1     -33.905   5.265   3.627  1.00 20.00     0.193 C 
HETATM    2  C3  UNL     1     -34.400   6.696   3.755  1.00 20.00     0.195 C 
HETATM    3  C4  UNL     1     -32.549   5.894   1.811  1.00 20.00     0.206 C 
HETATM    4  C5  UNL     1     -33.042   7.325   1.944  1.00 20.00     0.206 C 
HETATM    5  O7  UNL     1     -33.561   4.993   2.266  1.00 20.00    -0.386 OA
HETATM    6  O8  UNL     1     -33.388   7.598   3.302  1.00 20.00    -0.375 OA
ENDROOT
BRANCH   4   7
HETATM    7  C1  UNL     1     -31.963   8.301   1.616  1.00 20.00     0.265 C 
HETATM    8  O6  UNL     1     -32.069   9.157   0.743  1.00 20.00    -0.304 OA
ENDBRANCH   4   7
TORSDOF 1
ENDMDL
MODEL 5
REMARK VINA RESULT:      -0.7      2.193      3.161
REMARK  1 active torsions:
REMARK  status: ('A' for Active; 'I' for Inactive)
REMARK    1  A    between atoms: C1_1  and  C5_5 
ROOT
HETATM    1  C2  UNL     1     -34.392   7.033   3.692  1.00 20.00     0.193 C 
HETATM    2  C3  UNL     1     -33.487   6.292   2.723  1.00 20.00     0.195 C 
HETATM    3  C4  UNL     1     -35.043   4.988   4.653  1.00 20.00     0.206 C 
HETATM    4  C5  UNL     1     -34.134   4.249   3.685  1.00 20.00     0.206 C 
HETATM    5  O7  UNL     1     -35.499   6.202   4.052  1.00 20.00    -0.386 OA
HETATM    6  O8  UNL     1     -33.030   5.078   3.323  1.00 20.00    -0.375 OA
ENDROOT
BRANCH   4   7
HETATM    7  C1  UNL     1     -33.524   3.049   4.327  1.00 20.00     0.265 C 
HETATM    8  O6  UNL     1     -32.792   3.107   5.310  1.00 20.00    -0.304 OA
ENDBRANCH   4   7
TORSDOF 1
ENDMDL
MODEL 6
REMARK VINA RESULT:      -0.2      1.532      2.330
REMARK  1 active torsions:
REMARK  status: ('A' for Active; 'I' for Inactive)
REMARK    1  A    between atoms: C1_1  and  C5_5 
ROOT
HETATM    1  C2  UNL     1     -32.012   6.120   1.271  1.00 20.00     0.193 C 
HETATM    2  C3  UNL     1     -33.363   5.577   1.707  1.00 20.00     0.195 C 
HETATM    3  C4  UNL     1     -32.346   8.028   2.604  1.00 20.00     0.206 C 
HETATM    4  C5  UNL     1     -33.695   7.482   3.041  1.00 20.00     0.206 C 
HETATM    5  O7  UNL     1     -32.035   7.549   1.294  1.00 20.00    -0.386 OA
HETATM    6  O8  UNL     1     -33.674   6.055   3.018  1.00 20.00    -0.375 OA
ENDROOT
BRANCH   4   7
HETATM    7  C1  UNL     1     -33.989   7.842   4.458  1.00 20.00     0.265 C 
HETATM    8  O6  UNL     1     -33.126   7.943   5.324  1.00 20.00    -0.304 OA
ENDBRANCH   4   7
TORSDOF 1
ENDMDL
MODEL 7
REMARK VINA RESULT:       0.1      1.418      2.992
REMARK  1 active torsions:
REMARK  status: ('A' for Active; 'I' for Inactive)
REMARK    1  A    between atoms: C1_1  and  C5_5 
ROOT
HETATM    1  C2  UNL     1     -33.878   7.640   4.177  1.00 20.00     0.193 C 
HETATM    2  C3  UNL     1     -33.197   8.321   3.001  1.00 20.00     0.195 C 
HETATM    3  C4  UNL     1     -33.832   5.593   3.020  1.00 20.00     0.206 C 
HETATM    4  C5  UNL     1     -33.148   6.276   1.847  1.00 20.00     0.206 C 
HETATM    5  O7  UNL     1     -34.656   6.536   3.710  1.00 20.00    -0.386 OA
HETATM    6  O8  UNL     1     -32.372   7.381   2.310  1.00 20.00    -0.375 OA
ENDROOT
BRANCH   4   7
HETATM    7  C1  UNL     1     -32.170   5.364   1.187  1.00 20.00     0.265 C 
HETATM    8  O6  UNL     1     -32.481   4.546   0.328  1.00 20.00    -0.304 OA
ENDBRANCH   4   7
TORSDOF 1
ENDMDL
MODEL 8
REMARK VINA RESULT:       0.9      1.927      2.635
REMARK  1 active torsions:
REMARK  status: ('A' for Active; 'I' for Inactive)
REMARK    1  A    between atoms: C1_1  and  C5_5 
ROOT
HETATM    1  C2  UNL     1     -32.158   9.567  -0.152  1.00 20.00     0.193 C 
HETATM    2  C3  UNL     1     -32.794  10.240   1.053  1.00 20.00     0.195 C 
HETATM    3  C4  UNL     1     -31.763   7.637   1.131  1.00 20.00     0.206 C 
HETATM    4  C5  UNL     1     -32.403   8.310   2.334  1.00 20.00     0.206 C 
HETATM    5  O7  UNL     1     -31.174   8.626   0.284  1.00 20.00    -0.386 OA
HETATM    6  O8  UNL     1     -33.385   9.252   1.901  1.00 20.00    -0.375 OA
ENDROOT
BRANCH   4   7
HETATM    7  C1  UNL     1     -33.152   7.327   3.169  1.00 20.00     0.265 C 
HETATM    8  O6  UNL     1     -34.022   7.646   3.972  1.00 20.00    -0.304 OA
ENDBRANCH   4   7
TORSDOF 1
ENDMDL
MODEL 9
REMARK VINA RESULT:       1.0      1.473      3.666
REMARK  1 active torsions:
REMARK  status: ('A' for Active; 'I' for Inactive)
REMARK    1  A    between atoms: C1_1  and  C5_5 
ROOT
HETATM    1  C2  UNL     1     -34.760   4.162   3.970  1.00 20.00     0.193 C 
HETATM    2  C3  UNL     1     -33.275   4.228   3.653  1.00 20.00     0.195 C 
HETATM    3  C4  UNL     1     -34.934   6.485   3.648  1.00 20.00     0.206 C 
HETATM    4  C5  UNL     1     -33.450   6.548   3.328  1.00 20.00     0.206 C 
HETATM    5  O7  UNL     1     -35.187   5.400   4.544  1.00 20.00    -0.386 OA
HETATM    6  O8  UNL     1     -33.021   5.312   2.756  1.00 20.00    -0.375 OA
ENDROOT
BRANCH   4   7
HETATM    7  C1  UNL     1     -33.166   7.576   2.286  1.00 20.00     0.265 C 
HETATM    8  O6  UNL     1     -32.037   7.981   2.026  1.00 20.00    -0.304 OA
ENDBRANCH   4   7
TORSDOF 1
ENDMDL
