MODEL 1
REMARK VINA RESULT:      -1.5      0.000      0.000
REMARK  1 active torsions:
REMARK  status: ('A' for Active; 'I' for Inactive)
REMARK    1  A    between atoms: C1_1  and  C6_6 
ROOT
HETATM    1  C2  UNL     1     -33.861   7.454   3.558  1.00 20.00     0.027 C 
HETATM    2  C3  UNL     1     -32.542   8.203   3.389  1.00 20.00     0.015 C 
HETATM    3  C4  UNL     1     -33.722   6.009   3.107  1.00 20.00     0.167 C 
HETATM    4  C5  UNL     1     -31.978   6.512   1.582  1.00 20.00     0.179 C 
HETATM    5  C6  UNL     1     -31.914   7.970   2.019  1.00 20.00     0.071 C 
HETATM    6  O8  UNL     1     -33.280   5.953   1.752  1.00 20.00    -0.390 OA
ENDROOT
BRANCH   5   7
HETATM    7  C1  UNL     1     -32.667   8.817   1.006  1.00 20.00     0.237 C 
HETATM    8  O7  UNL     1     -32.122   9.625   0.262  1.00 20.00    -0.306 OA
ENDBRANCH   5   7
TORSDOF 1
ENDMDL
MODEL 2
REMARK VINA RESULT:      -1.2      1.592      3.637
REMARK  1 active torsions:
REMARK  status: ('A' for Active; 'I' for Inactive)
REMARK    1  A    between atoms: C1_1  and  C6_6 
ROOT
HETATM    1  C2  UNL     1     -33.006   7.792   3.777  1.00 20.00     0.027 C 
HETATM    2  C3  UNL     1     -34.311   7.010   3.655  1.00 20.00     0.015 C 
HETATM    3  C4  UNL     1     -32.317   7.906   2.426  1.00 20.00     0.167 C 
HETATM    4  C5  UNL     1     -33.291   5.903   1.612  1.00 20.00     0.179 C 
HETATM    5  C6  UNL     1     -34.142   5.720   2.861  1.00 20.00     0.071 C 
HETATM    6  O8  UNL     1     -32.080   6.610   1.881  1.00 20.00    -0.390 OA
ENDROOT
BRANCH   5   7
HETATM    7  C1  UNL     1     -33.469   4.697   3.764  1.00 20.00     0.237 C 
HETATM    8  O7  UNL     1     -34.061   3.750   4.271  1.00 20.00    -0.306 OA
ENDBRANCH   5   7
TORSDOF 1
ENDMDL
MODEL 3
REMARK VINA RESULT:      -0.2      1.657      3.473
REMARK  1 active torsions:
REMARK  status: ('A' for Active; 'I' for Inactive)
REMARK    1  A    between atoms: C1_1  and  C6_6 
ROOT
HETATM    1  C2  UNL     1     -32.906   5.973   1.454  1.00 20.00     0.027 C 
HETATM    2  C3  UNL     1     -33.148   5.500   2.885  1.00 20.00     0.015 C 
HETATM    3  C4  UNL     1     -32.018   7.207   1.437  1.00 20.00     0.167 C 
HETATM    4  C5  UNL     1     -32.704   7.894   3.600  1.00 20.00     0.179 C 
HETATM    5  C6  UNL     1     -33.544   6.641   3.814  1.00 20.00     0.071 C 
HETATM    6  O8  UNL     1     -32.600   8.247   2.220  1.00 20.00    -0.390 OA
ENDROOT
BRANCH   5   7
HETATM    7  C1  UNL     1     -35.003   6.980   3.547  1.00 20.00     0.237 C 
HETATM    8  O7  UNL     1     -35.928   6.210   3.777  1.00 20.00    -0.306 OA
ENDBRANCH   5   7
TORSDOF 1
ENDMDL
MODEL 4
REMARK VINA RESULT:      -0.1      2.698      3.475
REMARK  1 active torsions:
REMARK  status: ('A' for Active; 'I' for Inactive)
REMARK    1  A    between atoms: C1_1  and  C6_6 
ROOT
HETATM    1  C2  UNL     1     -32.971   4.988   3.313  1.00 20.00     0.027 C 
HETATM    2  C3  UNL     1     -33.486   6.275   2.674  1.00 20.00     0.015 C 
HETATM    3  C4  UNL     1     -34.127   4.104   3.752  1.00 20.00     0.167 C 
HETATM    4  C5  UNL     1     -35.598   5.941   4.042  1.00 20.00     0.179 C 
HETATM    5  C6  UNL     1     -34.579   6.938   3.503  1.00 20.00     0.071 C 
HETATM    6  O8  UNL     1     -34.977   4.810   4.653  1.00 20.00    -0.390 OA
ENDROOT
BRANCH   5   7
HETATM    7  C1  UNL     1     -33.917   7.641   4.678  1.00 20.00     0.237 C 
HETATM    8  O7  UNL     1     -32.819   8.183   4.610  1.00 20.00    -0.306 OA
ENDBRANCH   5   7
TORSDOF 1
ENDMDL
MODEL 5
REMARK VINA RESULT:      -0.0      2.322      2.878
REMARK  1 active torsions:
REMARK  status: ('A' for Active; 'I' for Inactive)
REMARK    1  A    between atoms: C1_1  and  C6_6 
ROOT
HETATM    1  C2  UNL     1     -35.451   6.566   3.824  1.00 20.00     0.027 C 
HETATM    2  C3  UNL     1     -34.044   7.136   3.655  1.00 20.00     0.015 C 
HETATM    3  C4  UNL     1     -35.409   5.239   4.565  1.00 20.00     0.167 C 
HETATM    4  C5  UNL     1     -33.208   4.746   3.832  1.00 20.00     0.179 C 
HETATM    5  C6  UNL     1     -33.055   6.096   3.144  1.00 20.00     0.071 C 
HETATM    6  O8  UNL     1     -34.569   4.314   3.879  1.00 20.00    -0.390 OA
ENDROOT
BRANCH   5   7
HETATM    7  C1  UNL     1     -33.293   5.912   1.653  1.00 20.00     0.237 C 
HETATM    8  O7  UNL     1     -32.571   5.232   0.932  1.00 20.00    -0.306 OA
ENDBRANCH   5   7
TORSDOF 1
ENDMDL
MODEL 6
REMARK VINA RESULT:       0.1      2.047      2.983
REMARK  1 active torsions:
REMARK  status: ('A' for Active; 'I' for Inactive)
REMARK    1  A    between atoms: C1_1  and  C6_6 
ROOT
HETATM    1  C2  UNL     1     -31.986   6.812   1.669  1.00 20.00     0.027 C 
HETATM    2  C3  UNL     1     -32.807   8.052   2.012  1.00 20.00     0.015 C 
HETATM    3  C4  UNL     1     -32.850   5.562   1.719  1.00 20.00     0.167 C 
HETATM    4  C5  UNL     1     -34.351   6.500   3.297  1.00 20.00     0.179 C 
HETATM    5  C6  UNL     1     -33.659   7.857   3.260  1.00 20.00     0.071 C 
HETATM    6  O8  UNL     1     -33.455   5.428   3.003  1.00 20.00    -0.390 OA
ENDROOT
BRANCH   5   7
HETATM    7  C1  UNL     1     -32.749   7.973   4.474  1.00 20.00     0.237 C 
HETATM    8  O7  UNL     1     -33.141   8.325   5.581  1.00 20.00    -0.306 OA
ENDBRANCH   5   7
TORSDOF 1
ENDMDL
MODEL 7
REMARK VINA RESULT:       0.3      1.739      2.802
REMARK  1 active torsions:
REMARK  status: ('A' for Active; 'I' for Inactive)
REMARK    1  A    between atoms: C1_1  and  C6_6 
ROOT
HETATM    1  C2  UNL     1     -34.206   6.451   3.677  1.00 20.00     0.027 C 
HETATM    2  C3  UNL     1     -34.195   6.262   2.162  1.00 20.00     0.015 C 
HETATM    3  C4  UNL     1     -33.702   7.836   4.051  1.00 20.00     0.167 C 
HETATM    4  C5  UNL     1     -32.372   8.027   2.097  1.00 20.00     0.179 C 
HETATM    5  C6  UNL     1     -32.882   6.707   1.531  1.00 20.00     0.071 C 
HETATM    6  O8  UNL     1     -32.394   8.047   3.524  1.00 20.00    -0.390 OA
ENDROOT
BRANCH   5   7
HETATM    7  C1  UNL     1     -31.842   5.629   1.796  1.00 20.00     0.237 C 
HETATM    8  O7  UNL     1     -31.503   4.797   0.962  1.00 20.00    -0.306 OA
ENDBRANCH   5   7
TORSDOF 1
ENDMDL
MODEL 8
REMARK VINA RESULT:       0.5      2.023      2.881
REMARK  1 active torsions:
REMARK  status: ('A' for Active; 'I' for Inactive)
REMARK    1  A    between atoms: C1_1  and  C6_6 
ROOT
HETATM    1  C2  UNL     1     -32.785   8.044   2.232  1.00 20.00     0.027 C 
HETATM    2  C3  UNL     1     -31.839   6.944   1.758  1.00 20.00     0.015 C 
HETATM    3  C4  UNL     1     -33.489   7.633   3.516  1.00 20.00     0.167 C 
HETATM    4  C5  UNL     1     -33.320   5.319   3.026  1.00 20.00     0.179 C 
HETATM    5  C6  UNL     1     -32.496   5.569   1.770  1.00 20.00     0.071 C 
HETATM    6  O8  UNL     1     -34.193   6.409   3.325  1.00 20.00    -0.390 OA
ENDROOT
BRANCH   5   7
HETATM    7  C1  UNL     1     -33.412   5.474   0.559  1.00 20.00     0.237 C 
HETATM    8  O7  UNL     1     -33.499   4.474  -0.145  1.00 20.00    -0.306 OA
ENDBRANCH   5   7
TORSDOF 1
ENDMDL
MODEL 9
REMARK VINA RESULT:       1.0      1.521      3.562
REMARK  1 active torsions:
REMARK  status: ('A' for Active; 'I' for Inactive)
REMARK    1  A    between atoms: C1_1  and  C6_6 
ROOT
HETATM    1  C2  UNL     1     -32.249   9.208  -0.357  1.00 20.00     0.027 C 
HETATM    2  C3  UNL     1     -31.263   8.222   0.265  1.00 20.00     0.015 C 
HETATM    3  C4  UNL     1     -32.662  10.266   0.654  1.00 20.00     0.167 C 
HETATM    4  C5  UNL     1     -32.279   8.837   2.507  1.00 20.00     0.179 C 
HETATM    5  C6  UNL     1     -31.722   7.723   1.630  1.00 20.00     0.071 C 
HETATM    6  O8  UNL     1     -33.223   9.653   1.812  1.00 20.00    -0.390 OA
ENDROOT
BRANCH   5   7
HETATM    7  C1  UNL     1     -32.812   6.685   1.409  1.00 20.00     0.237 C 
HETATM    8  O7  UNL     1     -32.610   5.476   1.440  1.00 20.00    -0.306 OA
ENDBRANCH   5   7
TORSDOF 1
ENDMDL
