MODEL 1
REMARK VINA RESULT:      -0.4      0.000      0.000
REMARK  1 active torsions:
REMARK  status: ('A' for Active; 'I' for Inactive)
REMARK    1  A    between atoms: C4_4  and  S6_6 
ROOT
HETATM    1  C1  UNL     1     -34.051   7.379   3.707  1.00 20.00     0.026 C 
HETATM    2  C2  UNL     1     -35.059   6.333   4.158  1.00 20.00     0.075 C 
HETATM    3  C3  UNL     1     -32.993   5.429   2.693  1.00 20.00     0.088 C 
HETATM    4  C4  UNL     1     -33.450   6.853   2.408  1.00 20.00     0.054 C 
HETATM    5  S5  UNL     1     -34.289   4.738   3.763  1.00 20.00    -0.168 SA
ENDROOT
BRANCH   4   6
HETATM    6  S6  UNL     1     -32.063   7.887   1.852  1.00 20.00    -0.177 SA
HETATM    7  H14 UNL     1     -31.716   7.094   0.830  1.00 20.00     0.102 HD
ENDBRANCH   4   6
TORSDOF 1
ENDMDL
MODEL 2
REMARK VINA RESULT:      -0.1      1.108      3.306
REMARK  1 active torsions:
REMARK  status: ('A' for Active; 'I' for Inactive)
REMARK    1  A    between atoms: C4_4  and  S6_6 
ROOT
HETATM    1  C1  UNL     1     -33.223   5.605   2.279  1.00 20.00     0.026 C 
HETATM    2  C2  UNL     1     -32.323   6.326   1.288  1.00 20.00     0.075 C 
HETATM    3  C3  UNL     1     -33.237   7.801   3.342  1.00 20.00     0.088 C 
HETATM    4  C4  UNL     1     -34.141   6.671   2.868  1.00 20.00     0.054 C 
HETATM    5  S5  UNL     1     -31.948   7.922   2.066  1.00 20.00    -0.168 SA
ENDROOT
BRANCH   4   6
HETATM    6  S6  UNL     1     -35.134   6.009   4.238  1.00 20.00    -0.177 SA
HETATM    7  H14 UNL     1     -36.319   6.266   3.670  1.00 20.00     0.102 HD
ENDBRANCH   4   6
TORSDOF 1
ENDMDL
MODEL 3
REMARK VINA RESULT:       0.0      1.213      1.857
REMARK  1 active torsions:
REMARK  status: ('A' for Active; 'I' for Inactive)
REMARK    1  A    between atoms: C4_4  and  S6_6 
ROOT
HETATM    1  C1  UNL     1     -33.124   5.888   2.054  1.00 20.00     0.026 C 
HETATM    2  C2  UNL     1     -33.865   5.092   3.116  1.00 20.00     0.075 C 
HETATM    3  C3  UNL     1     -33.932   7.767   3.384  1.00 20.00     0.088 C 
HETATM    4  C4  UNL     1     -32.688   7.186   2.727  1.00 20.00     0.054 C 
HETATM    5  S5  UNL     1     -34.813   6.325   4.052  1.00 20.00    -0.168 SA
ENDROOT
BRANCH   4   6
HETATM    6  S6  UNL     1     -31.976   8.350   1.526  1.00 20.00    -0.177 SA
HETATM    7  H14 UNL     1     -31.815   7.445   0.553  1.00 20.00     0.102 HD
ENDBRANCH   4   6
TORSDOF 1
ENDMDL
MODEL 4
REMARK VINA RESULT:       0.1      1.392      2.903
REMARK  1 active torsions:
REMARK  status: ('A' for Active; 'I' for Inactive)
REMARK    1  A    between atoms: C4_4  and  S6_6 
ROOT
HETATM    1  C1  UNL     1     -33.404   7.881   2.965  1.00 20.00     0.026 C 
HETATM    2  C2  UNL     1     -32.083   7.928   2.214  1.00 20.00     0.075 C 
HETATM    3  C3  UNL     1     -33.435   5.607   2.080  1.00 20.00     0.088 C 
HETATM    4  C4  UNL     1     -33.616   6.421   3.354  1.00 20.00     0.054 C 
HETATM    5  S5  UNL     1     -32.055   6.414   1.214  1.00 20.00    -0.168 SA
ENDROOT
BRANCH   4   6
HETATM    6  S6  UNL     1     -35.265   6.157   4.070  1.00 20.00    -0.177 SA
HETATM    7  H14 UNL     1     -35.502   5.010   3.422  1.00 20.00     0.102 HD
ENDBRANCH   4   6
TORSDOF 1
ENDMDL
MODEL 5
REMARK VINA RESULT:       0.6      2.049      2.581
REMARK  1 active torsions:
REMARK  status: ('A' for Active; 'I' for Inactive)
REMARK    1  A    between atoms: C4_4  and  S6_6 
ROOT
HETATM    1  C1  UNL     1     -31.932   7.370   1.917  1.00 20.00     0.026 C 
HETATM    2  C2  UNL     1     -32.694   8.429   2.698  1.00 20.00     0.075 C 
HETATM    3  C3  UNL     1     -33.613   5.912   2.917  1.00 20.00     0.088 C 
HETATM    4  C4  UNL     1     -32.942   6.273   1.599  1.00 20.00     0.054 C 
HETATM    5  S5  UNL     1     -33.820   7.501   3.775  1.00 20.00    -0.168 SA
ENDROOT
BRANCH   4   6
HETATM    6  S6  UNL     1     -32.137   4.824   0.856  1.00 20.00    -0.177 SA
HETATM    7  H14 UNL     1     -32.644   3.939   1.723  1.00 20.00     0.102 HD
ENDBRANCH   4   6
TORSDOF 1
ENDMDL
MODEL 6
REMARK VINA RESULT:       0.8      1.056      1.198
REMARK  1 active torsions:
REMARK  status: ('A' for Active; 'I' for Inactive)
REMARK    1  A    between atoms: C4_4  and  S6_6 
ROOT
HETATM    1  C1  UNL     1     -32.737   7.897   3.398  1.00 20.00     0.026 C 
HETATM    2  C2  UNL     1     -33.943   7.291   4.098  1.00 20.00     0.075 C 
HETATM    3  C3  UNL     1     -33.096   6.015   1.887  1.00 20.00     0.088 C 
HETATM    4  C4  UNL     1     -32.870   7.520   1.926  1.00 20.00     0.054 C 
HETATM    5  S5  UNL     1     -34.191   5.681   3.300  1.00 20.00    -0.168 SA
ENDROOT
BRANCH   4   6
HETATM    6  S6  UNL     1     -31.387   7.983   0.984  1.00 20.00    -0.177 SA
HETATM    7  H14 UNL     1     -32.022   8.142  -0.183  1.00 20.00     0.102 HD
ENDBRANCH   4   6
TORSDOF 1
ENDMDL
MODEL 7
REMARK VINA RESULT:       1.0      2.031      3.297
REMARK  1 active torsions:
REMARK  status: ('A' for Active; 'I' for Inactive)
REMARK    1  A    between atoms: C4_4  and  S6_6 
ROOT
HETATM    1  C1  UNL     1     -33.016   5.246   3.246  1.00 20.00     0.026 C 
HETATM    2  C2  UNL     1     -33.817   6.415   2.696  1.00 20.00     0.075 C 
HETATM    3  C3  UNL     1     -35.009   4.972   4.627  1.00 20.00     0.088 C 
HETATM    4  C4  UNL     1     -34.040   4.221   3.724  1.00 20.00     0.054 C 
HETATM    5  S5  UNL     1     -35.234   6.583   3.816  1.00 20.00    -0.168 SA
ENDROOT
BRANCH   4   6
HETATM    6  S6  UNL     1     -33.243   2.852   4.614  1.00 20.00    -0.177 SA
HETATM    7  H14 UNL     1     -32.082   3.489   4.813  1.00 20.00     0.102 HD
ENDBRANCH   4   6
TORSDOF 1
ENDMDL
MODEL 8
REMARK VINA RESULT:       1.0      1.858      2.118
REMARK  1 active torsions:
REMARK  status: ('A' for Active; 'I' for Inactive)
REMARK    1  A    between atoms: C4_4  and  S6_6 
ROOT
HETATM    1  C1  UNL     1     -34.395   5.797   2.868  1.00 20.00     0.026 C 
HETATM    2  C2  UNL     1     -34.755   6.483   4.176  1.00 20.00     0.075 C 
HETATM    3  C3  UNL     1     -32.777   7.620   2.753  1.00 20.00     0.088 C 
HETATM    4  C4  UNL     1     -32.923   6.111   2.619  1.00 20.00     0.054 C 
HETATM    5  S5  UNL     1     -33.865   8.064   4.139  1.00 20.00    -0.168 SA
ENDROOT
BRANCH   4   6
HETATM    6  S6  UNL     1     -32.391   5.544   0.977  1.00 20.00    -0.177 SA
HETATM    7  H14 UNL     1     -31.650   4.525   1.428  1.00 20.00     0.102 HD
ENDBRANCH   4   6
TORSDOF 1
ENDMDL
MODEL 9
REMARK VINA RESULT:       2.2      2.634      3.973
REMARK  1 active torsions:
REMARK  status: ('A' for Active; 'I' for Inactive)
REMARK    1  A    between atoms: C4_4  and  S6_6 
ROOT
HETATM    1  C1  UNL     1     -33.228   9.416   1.643  1.00 20.00     0.026 C 
HETATM    2  C2  UNL     1     -32.276   9.936   0.578  1.00 20.00     0.075 C 
HETATM    3  C3  UNL     1     -31.865   7.407   1.395  1.00 20.00     0.088 C 
HETATM    4  C4  UNL     1     -32.450   8.363   2.426  1.00 20.00     0.054 C 
HETATM    5  S5  UNL     1     -31.354   8.477   0.018  1.00 20.00    -0.168 SA
ENDROOT
BRANCH   4   6
HETATM    6  S6  UNL     1     -33.520   7.483   3.602  1.00 20.00    -0.177 SA
HETATM    7  H14 UNL     1     -33.900   8.579   4.271  1.00 20.00     0.102 HD
ENDBRANCH   4   6
TORSDOF 1
ENDMDL
