MODEL 1
REMARK VINA RESULT:      -1.3      0.000      0.000
REMARK  4 active torsions:
REMARK  status: ('A' for Active; 'I' for Inactive)
REMARK    1  A    between atoms: C2_2  and  C5_5 
REMARK    2  A    between atoms: C5_5  and  S9_9 
REMARK    3  A    between atoms: C6_6  and  C7_7 
REMARK    4  A    between atoms: C6_6  and  S9_9 
ROOT
HETATM    1  S9  UNL     1     -31.888   6.775   1.674  1.00 20.00    -0.166 SA
ENDROOT
BRANCH   1   2
HETATM    2  C5  UNL     1     -32.568   8.447   1.736  1.00 20.00     0.108 C 
BRANCH   2   3
HETATM    3  C2  UNL     1     -31.951   9.314   0.654  1.00 20.00     0.154 A 
HETATM    4  C1  UNL     1     -32.769   9.813  -0.503  1.00 20.00     0.201 A 
HETATM    5  O8  UNL     1     -32.447  10.656   0.614  1.00 20.00    -0.380 OA
ENDBRANCH   2   3
ENDBRANCH   1   2
BRANCH   1   6
HETATM    6  C6  UNL     1     -33.425   5.858   2.006  1.00 20.00     0.077 C 
BRANCH   6   7
HETATM    7  C7  UNL     1     -33.818   5.745   3.489  1.00 20.00    -0.013 C 
HETATM    8  C3  UNL     1     -35.029   6.609   3.848  1.00 20.00     0.010 C 
HETATM    9  C4  UNL     1     -34.038   4.298   3.935  1.00 20.00     0.010 C 
ENDBRANCH   6   7
ENDBRANCH   1   6
TORSDOF 4
ENDMDL
MODEL 2
REMARK VINA RESULT:      -1.3      1.246      1.618
REMARK  4 active torsions:
REMARK  status: ('A' for Active; 'I' for Inactive)
REMARK    1  A    between atoms: C2_2  and  C5_5 
REMARK    2  A    between atoms: C5_5  and  S9_9 
REMARK    3  A    between atoms: C6_6  and  C7_7 
REMARK    4  A    between atoms: C6_6  and  S9_9 
ROOT
HETATM    1  S9  UNL     1     -32.622   6.332   1.284  1.00 20.00    -0.166 SA
ENDROOT
BRANCH   1   2
HETATM    2  C5  UNL     1     -31.920   7.976   1.546  1.00 20.00     0.108 C 
BRANCH   2   3
HETATM    3  C2  UNL     1     -32.807   9.040   0.927  1.00 20.00     0.154 A 
HETATM    4  C1  UNL     1     -32.238  10.347   0.451  1.00 20.00     0.201 A 
HETATM    5  O8  UNL     1     -32.559   9.286  -0.462  1.00 20.00    -0.380 OA
ENDBRANCH   2   3
ENDBRANCH   1   2
BRANCH   1   6
HETATM    6  C6  UNL     1     -33.137   5.994   2.997  1.00 20.00     0.077 C 
BRANCH   6   7
HETATM    7  C7  UNL     1     -34.303   6.852   3.516  1.00 20.00    -0.013 C 
HETATM    8  C3  UNL     1     -35.443   6.012   4.097  1.00 20.00     0.010 C 
HETATM    9  C4  UNL     1     -33.854   7.916   4.519  1.00 20.00     0.010 C 
ENDBRANCH   6   7
ENDBRANCH   1   6
TORSDOF 4
ENDMDL
MODEL 3
REMARK VINA RESULT:      -1.3      1.208      1.346
REMARK  4 active torsions:
REMARK  status: ('A' for Active; 'I' for Inactive)
REMARK    1  A    between atoms: C2_2  and  C5_5 
REMARK    2  A    between atoms: C5_5  and  S9_9 
REMARK    3  A    between atoms: C6_6  and  C7_7 
REMARK    4  A    between atoms: C6_6  and  S9_9 
ROOT
HETATM    1  S9  UNL     1     -32.053   6.521   1.654  1.00 20.00    -0.166 SA
ENDROOT
BRANCH   1   2
HETATM    2  C5  UNL     1     -31.604   8.267   1.531  1.00 20.00     0.108 C 
BRANCH   2   3
HETATM    3  C2  UNL     1     -32.711   9.057   0.859  1.00 20.00     0.154 A 
HETATM    4  C1  UNL     1     -32.500  10.481   0.429  1.00 20.00     0.201 A 
HETATM    5  O8  UNL     1     -32.455   9.395  -0.509  1.00 20.00    -0.380 OA
ENDBRANCH   2   3
ENDBRANCH   1   2
BRANCH   1   6
HETATM    6  C6  UNL     1     -33.778   6.735   2.193  1.00 20.00     0.077 C 
BRANCH   6   7
HETATM    7  C7  UNL     1     -34.011   6.637   3.711  1.00 20.00    -0.013 C 
HETATM    8  C3  UNL     1     -33.816   7.976   4.427  1.00 20.00     0.010 C 
HETATM    9  C4  UNL     1     -35.370   6.032   4.064  1.00 20.00     0.010 C 
ENDBRANCH   6   7
ENDBRANCH   1   6
TORSDOF 4
ENDMDL
MODEL 4
REMARK VINA RESULT:      -1.1      3.520      5.519
REMARK  4 active torsions:
REMARK  status: ('A' for Active; 'I' for Inactive)
REMARK    1  A    between atoms: C2_2  and  C5_5 
REMARK    2  A    between atoms: C5_5  and  S9_9 
REMARK    3  A    between atoms: C6_6  and  C7_7 
REMARK    4  A    between atoms: C6_6  and  S9_9 
ROOT
HETATM    1  S9  UNL     1     -35.058   6.403   3.805  1.00 20.00    -0.166 SA
ENDROOT
BRANCH   1   2
HETATM    2  C5  UNL     1     -35.002   4.752   4.538  1.00 20.00     0.108 C 
BRANCH   2   3
HETATM    3  C2  UNL     1     -33.715   4.044   4.159  1.00 20.00     0.154 A 
HETATM    4  C1  UNL     1     -32.957   3.220   5.161  1.00 20.00     0.201 A 
HETATM    5  O8  UNL     1     -33.798   2.615   4.167  1.00 20.00    -0.380 OA
ENDBRANCH   2   3
ENDBRANCH   1   2
BRANCH   1   6
HETATM    6  C6  UNL     1     -33.292   6.564   3.394  1.00 20.00     0.077 C 
BRANCH   6   7
HETATM    7  C7  UNL     1     -32.983   6.834   1.911  1.00 20.00    -0.013 C 
HETATM    8  C3  UNL     1     -32.014   8.001   1.712  1.00 20.00     0.010 C 
HETATM    9  C4  UNL     1     -32.485   5.589   1.174  1.00 20.00     0.010 C 
ENDBRANCH   6   7
ENDBRANCH   1   6
TORSDOF 4
ENDMDL
MODEL 5
REMARK VINA RESULT:      -1.0      1.121      1.127
REMARK  4 active torsions:
REMARK  status: ('A' for Active; 'I' for Inactive)
REMARK    1  A    between atoms: C2_2  and  C5_5 
REMARK    2  A    between atoms: C5_5  and  S9_9 
REMARK    3  A    between atoms: C6_6  and  C7_7 
REMARK    4  A    between atoms: C6_6  and  S9_9 
ROOT
HETATM    1  S9  UNL     1     -32.426   6.741   1.737  1.00 20.00    -0.166 SA
ENDROOT
BRANCH   1   2
HETATM    2  C5  UNL     1     -31.706   8.320   1.235  1.00 20.00     0.108 C 
BRANCH   2   3
HETATM    3  C2  UNL     1     -32.788   9.273   0.764  1.00 20.00     0.154 A 
HETATM    4  C1  UNL     1     -32.445  10.630   0.217  1.00 20.00     0.201 A 
HETATM    5  O8  UNL     1     -32.781   9.531  -0.644  1.00 20.00    -0.380 OA
ENDBRANCH   2   3
ENDBRANCH   1   2
BRANCH   1   6
HETATM    6  C6  UNL     1     -33.366   7.330   3.180  1.00 20.00     0.077 C 
BRANCH   6   7
HETATM    7  C7  UNL     1     -34.209   6.262   3.898  1.00 20.00    -0.013 C 
HETATM    8  C3  UNL     1     -35.714   6.487   3.732  1.00 20.00     0.010 C 
HETATM    9  C4  UNL     1     -33.831   4.837   3.492  1.00 20.00     0.010 C 
ENDBRANCH   6   7
ENDBRANCH   1   6
TORSDOF 4
ENDMDL
MODEL 6
REMARK VINA RESULT:      -1.0      0.766      1.412
REMARK  4 active torsions:
REMARK  status: ('A' for Active; 'I' for Inactive)
REMARK    1  A    between atoms: C2_2  and  C5_5 
REMARK    2  A    between atoms: C5_5  and  S9_9 
REMARK    3  A    between atoms: C6_6  and  C7_7 
REMARK    4  A    between atoms: C6_6  and  S9_9 
ROOT
HETATM    1  S9  UNL     1     -32.797   7.736   2.564  1.00 20.00    -0.166 SA
ENDROOT
BRANCH   1   2
HETATM    2  C5  UNL     1     -31.871   7.944   1.027  1.00 20.00     0.108 C 
BRANCH   2   3
HETATM    3  C2  UNL     1     -31.797   9.409   0.642  1.00 20.00     0.154 A 
HETATM    4  C1  UNL     1     -32.670   9.972  -0.444  1.00 20.00     0.201 A 
HETATM    5  O8  UNL     1     -32.976  10.163   0.946  1.00 20.00    -0.380 OA
ENDBRANCH   2   3
ENDBRANCH   1   2
BRANCH   1   6
HETATM    6  C6  UNL     1     -33.124   5.951   2.431  1.00 20.00     0.077 C 
BRANCH   6   7
HETATM    7  C7  UNL     1     -34.316   5.436   3.257  1.00 20.00    -0.013 C 
HETATM    8  C3  UNL     1     -33.943   4.264   4.168  1.00 20.00     0.010 C 
HETATM    9  C4  UNL     1     -35.003   6.543   4.059  1.00 20.00     0.010 C 
ENDBRANCH   6   7
ENDBRANCH   1   6
TORSDOF 4
ENDMDL
MODEL 7
REMARK VINA RESULT:      -0.6      3.533      5.620
REMARK  4 active torsions:
REMARK  status: ('A' for Active; 'I' for Inactive)
REMARK    1  A    between atoms: C2_2  and  C5_5 
REMARK    2  A    between atoms: C5_5  and  S9_9 
REMARK    3  A    between atoms: C6_6  and  C7_7 
REMARK    4  A    between atoms: C6_6  and  S9_9 
ROOT
HETATM    1  S9  UNL     1     -34.562   6.529   4.015  1.00 20.00    -0.166 SA
ENDROOT
BRANCH   1   2
HETATM    2  C5  UNL     1     -34.852   4.790   4.409  1.00 20.00     0.108 C 
BRANCH   2   3
HETATM    3  C2  UNL     1     -33.619   3.961   4.102  1.00 20.00     0.154 A 
HETATM    4  C1  UNL     1     -32.918   3.181   5.178  1.00 20.00     0.201 A 
HETATM    5  O8  UNL     1     -33.803   2.548   4.241  1.00 20.00    -0.380 OA
ENDBRANCH   2   3
ENDBRANCH   1   2
BRANCH   1   6
HETATM    6  C6  UNL     1     -33.992   6.315   2.300  1.00 20.00     0.077 C 
BRANCH   6   7
HETATM    7  C7  UNL     1     -32.478   6.480   2.083  1.00 20.00    -0.013 C 
HETATM    8  C3  UNL     1     -31.915   5.489   1.062  1.00 20.00     0.010 C 
HETATM    9  C4  UNL     1     -32.085   7.913   1.716  1.00 20.00     0.010 C 
ENDBRANCH   6   7
ENDBRANCH   1   6
TORSDOF 4
ENDMDL
MODEL 8
REMARK VINA RESULT:      -0.4      2.749      5.432
REMARK  4 active torsions:
REMARK  status: ('A' for Active; 'I' for Inactive)
REMARK    1  A    between atoms: C2_2  and  C5_5 
REMARK    2  A    between atoms: C5_5  and  S9_9 
REMARK    3  A    between atoms: C6_6  and  C7_7 
REMARK    4  A    between atoms: C6_6  and  S9_9 
ROOT
HETATM    1  S9  UNL     1     -32.642   6.381   1.817  1.00 20.00    -0.166 SA
ENDROOT
BRANCH   1   2
HETATM    2  C5  UNL     1     -33.646   6.197   3.307  1.00 20.00     0.108 C 
BRANCH   2   3
HETATM    3  C2  UNL     1     -34.231   4.800   3.387  1.00 20.00     0.154 A 
HETATM    4  C1  UNL     1     -33.758   3.816   4.419  1.00 20.00     0.201 A 
HETATM    5  O8  UNL     1     -34.988   4.539   4.574  1.00 20.00    -0.380 OA
ENDBRANCH   2   3
ENDBRANCH   1   2
BRANCH   1   6
HETATM    6  C6  UNL     1     -32.306   8.165   1.948  1.00 20.00     0.077 C 
BRANCH   6   7
HETATM    7  C7  UNL     1     -32.363   8.945   0.623  1.00 20.00    -0.013 C 
HETATM    8  C3  UNL     1     -32.687  10.427   0.823  1.00 20.00     0.010 C 
HETATM    9  C4  UNL     1     -31.095   8.780  -0.216  1.00 20.00     0.010 C 
ENDBRANCH   6   7
ENDBRANCH   1   6
TORSDOF 4
ENDMDL
MODEL 9
REMARK VINA RESULT:      -0.3      2.375      5.039
REMARK  4 active torsions:
REMARK  status: ('A' for Active; 'I' for Inactive)
REMARK    1  A    between atoms: C2_2  and  C5_5 
REMARK    2  A    between atoms: C5_5  and  S9_9 
REMARK    3  A    between atoms: C6_6  and  C7_7 
REMARK    4  A    between atoms: C6_6  and  S9_9 
ROOT
HETATM    1  S9  UNL     1     -31.889   6.813   1.399  1.00 20.00    -0.166 SA
ENDROOT
BRANCH   1   2
HETATM    2  C5  UNL     1     -33.424   6.001   1.899  1.00 20.00     0.108 C 
BRANCH   2   3
HETATM    3  C2  UNL     1     -33.752   6.326   3.344  1.00 20.00     0.154 A 
HETATM    4  C1  UNL     1     -35.176   6.442   3.811  1.00 20.00     0.201 A 
HETATM    5  O8  UNL     1     -34.392   5.265   4.061  1.00 20.00    -0.380 OA
ENDBRANCH   2   3
ENDBRANCH   1   2
BRANCH   1   6
HETATM    6  C6  UNL     1     -32.379   8.531   1.747  1.00 20.00     0.077 C 
BRANCH   6   7
HETATM    7  C7  UNL     1     -32.112   9.535   0.612  1.00 20.00    -0.013 C 
HETATM    8  C3  UNL     1     -32.475   8.979  -0.767  1.00 20.00     0.010 C 
HETATM    9  C4  UNL     1     -32.793  10.885   0.843  1.00 20.00     0.010 C 
ENDBRANCH   6   7
ENDBRANCH   1   6
TORSDOF 4
ENDMDL
