MODEL 1
REMARK VINA RESULT:      -1.2      0.000      0.000
REMARK  3 active torsions:
REMARK  status: ('A' for Active; 'I' for Inactive)
REMARK    1  A    between atoms: C5_5  and  O9_9 
REMARK    2  A    between atoms: C6_6  and  C7_7 
REMARK    3  A    between atoms: C7_7  and  O9_9 
ROOT
HETATM    1  C1  UNL     1     -34.599   6.767   3.926  1.00 20.00     0.085 C 
HETATM    2  C5  UNL     1     -33.500   7.701   3.685  1.00 20.00     0.292 C 
HETATM    3  N8  UNL     1     -35.472   6.026   4.117  1.00 20.00    -0.195 NA
ENDROOT
BRANCH   2   4
HETATM    4  O9  UNL     1     -33.480   8.103   2.324  1.00 20.00    -0.367 OA
BRANCH   4   5
HETATM    5  C7  UNL     1     -32.176   7.947   1.758  1.00 20.00     0.054 C 
HETATM    6  C3  UNL     1     -31.163   8.405   2.807  1.00 20.00     0.045 C 
HETATM    7  C4  UNL     1     -31.970   6.459   1.455  1.00 20.00     0.045 C 
BRANCH   5   8
HETATM    8  C6  UNL     1     -32.083   8.766   0.455  1.00 20.00     0.033 C 
HETATM    9  C2  UNL     1     -32.607  10.192   0.567  1.00 20.00     0.008 C 
ENDBRANCH   5   8
ENDBRANCH   4   5
ENDBRANCH   2   4
TORSDOF 3
ENDMDL
MODEL 2
REMARK VINA RESULT:      -1.0      2.438      4.032
REMARK  3 active torsions:
REMARK  status: ('A' for Active; 'I' for Inactive)
REMARK    1  A    between atoms: C5_5  and  O9_9 
REMARK    2  A    between atoms: C6_6  and  C7_7 
REMARK    3  A    between atoms: C7_7  and  O9_9 
ROOT
HETATM    1  C1  UNL     1     -32.187   9.248   0.700  1.00 20.00     0.085 C 
HETATM    2  C5  UNL     1     -31.778   8.056   1.443  1.00 20.00     0.292 C 
HETATM    3  N8  UNL     1     -32.511  10.193   0.111  1.00 20.00    -0.195 NA
ENDROOT
BRANCH   2   4
HETATM    4  O9  UNL     1     -32.855   7.565   2.224  1.00 20.00    -0.367 OA
BRANCH   4   5
HETATM    5  C7  UNL     1     -33.094   6.180   1.963  1.00 20.00     0.054 C 
HETATM    6  C3  UNL     1     -33.923   6.091   0.682  1.00 20.00     0.045 C 
HETATM    7  C4  UNL     1     -31.737   5.500   1.749  1.00 20.00     0.045 C 
BRANCH   5   8
HETATM    8  C6  UNL     1     -33.813   5.547   3.172  1.00 20.00     0.033 C 
HETATM    9  C2  UNL     1     -34.830   6.458   3.849  1.00 20.00     0.008 C 
ENDBRANCH   5   8
ENDBRANCH   4   5
ENDBRANCH   2   4
TORSDOF 3
ENDMDL
MODEL 3
REMARK VINA RESULT:      -0.9      2.299      3.446
REMARK  3 active torsions:
REMARK  status: ('A' for Active; 'I' for Inactive)
REMARK    1  A    between atoms: C5_5  and  O9_9 
REMARK    2  A    between atoms: C6_6  and  C7_7 
REMARK    3  A    between atoms: C7_7  and  O9_9 
ROOT
HETATM    1  C1  UNL     1     -33.626   3.477   4.494  1.00 20.00     0.085 C 
HETATM    2  C5  UNL     1     -34.331   4.664   4.011  1.00 20.00     0.292 C 
HETATM    3  N8  UNL     1     -33.067   2.535   4.876  1.00 20.00    -0.195 NA
ENDROOT
BRANCH   2   4
HETATM    4  O9  UNL     1     -33.408   5.626   3.526  1.00 20.00    -0.367 OA
BRANCH   4   5
HETATM    5  C7  UNL     1     -34.002   6.924   3.454  1.00 20.00     0.054 C 
HETATM    6  C3  UNL     1     -35.519   6.737   3.511  1.00 20.00     0.045 C 
HETATM    7  C4  UNL     1     -33.534   7.724   4.675  1.00 20.00     0.045 C 
BRANCH   5   8
HETATM    8  C6  UNL     1     -33.545   7.626   2.160  1.00 20.00     0.033 C 
HETATM    9  C2  UNL     1     -32.034   7.746   2.006  1.00 20.00     0.008 C 
ENDBRANCH   5   8
ENDBRANCH   4   5
ENDBRANCH   2   4
TORSDOF 3
ENDMDL
MODEL 4
REMARK VINA RESULT:      -0.9      2.442      4.309
REMARK  3 active torsions:
REMARK  status: ('A' for Active; 'I' for Inactive)
REMARK    1  A    between atoms: C5_5  and  O9_9 
REMARK    2  A    between atoms: C6_6  and  C7_7 
REMARK    3  A    between atoms: C7_7  and  O9_9 
ROOT
HETATM    1  C1  UNL     1     -32.288   8.854   1.047  1.00 20.00     0.085 C 
HETATM    2  C5  UNL     1     -32.271   7.753   2.009  1.00 20.00     0.292 C 
HETATM    3  N8  UNL     1     -32.302   9.728   0.283  1.00 20.00    -0.195 NA
ENDROOT
BRANCH   2   4
HETATM    4  O9  UNL     1     -33.529   7.097   2.035  1.00 20.00    -0.367 OA
BRANCH   4   5
HETATM    5  C7  UNL     1     -33.827   6.601   3.342  1.00 20.00     0.054 C 
HETATM    6  C3  UNL     1     -33.209   7.568   4.351  1.00 20.00     0.045 C 
HETATM    7  C4  UNL     1     -35.351   6.588   3.504  1.00 20.00     0.045 C 
BRANCH   5   8
HETATM    8  C6  UNL     1     -33.271   5.170   3.485  1.00 20.00     0.033 C 
HETATM    9  C2  UNL     1     -34.183   4.210   4.240  1.00 20.00     0.008 C 
ENDBRANCH   5   8
ENDBRANCH   4   5
ENDBRANCH   2   4
TORSDOF 3
ENDMDL
MODEL 5
REMARK VINA RESULT:      -0.8      0.555      2.126
REMARK  3 active torsions:
REMARK  status: ('A' for Active; 'I' for Inactive)
REMARK    1  A    between atoms: C5_5  and  O9_9 
REMARK    2  A    between atoms: C6_6  and  C7_7 
REMARK    3  A    between atoms: C7_7  and  O9_9 
ROOT
HETATM    1  C1  UNL     1     -34.737   6.559   4.053  1.00 20.00     0.085 C 
HETATM    2  C5  UNL     1     -33.783   7.626   3.749  1.00 20.00     0.292 C 
HETATM    3  N8  UNL     1     -35.494   5.714   4.294  1.00 20.00    -0.195 NA
ENDROOT
BRANCH   2   4
HETATM    4  O9  UNL     1     -33.642   7.780   2.346  1.00 20.00    -0.367 OA
BRANCH   4   5
HETATM    5  C7  UNL     1     -32.274   7.989   1.984  1.00 20.00     0.054 C 
HETATM    6  C3  UNL     1     -32.248   9.058   0.891  1.00 20.00     0.045 C 
HETATM    7  C4  UNL     1     -31.532   8.499   3.224  1.00 20.00     0.045 C 
BRANCH   5   8
HETATM    8  C6  UNL     1     -31.660   6.655   1.515  1.00 20.00     0.033 C 
HETATM    9  C2  UNL     1     -32.679   5.575   1.172  1.00 20.00     0.008 C 
ENDBRANCH   5   8
ENDBRANCH   4   5
ENDBRANCH   2   4
TORSDOF 3
ENDMDL
MODEL 6
REMARK VINA RESULT:      -0.2      2.529      3.429
REMARK  3 active torsions:
REMARK  status: ('A' for Active; 'I' for Inactive)
REMARK    1  A    between atoms: C5_5  and  O9_9 
REMARK    2  A    between atoms: C6_6  and  C7_7 
REMARK    3  A    between atoms: C7_7  and  O9_9 
ROOT
HETATM    1  C1  UNL     1     -33.552   3.161   4.479  1.00 20.00     0.085 C 
HETATM    2  C5  UNL     1     -34.146   4.426   4.049  1.00 20.00     0.292 C 
HETATM    3  N8  UNL     1     -33.081   2.157   4.820  1.00 20.00    -0.195 NA
ENDROOT
BRANCH   2   4
HETATM    4  O9  UNL     1     -33.134   5.342   3.661  1.00 20.00    -0.367 OA
BRANCH   4   5
HETATM    5  C7  UNL     1     -33.681   6.429   2.909  1.00 20.00     0.054 C 
HETATM    6  C3  UNL     1     -33.747   5.986   1.447  1.00 20.00     0.045 C 
HETATM    7  C4  UNL     1     -35.096   6.699   3.433  1.00 20.00     0.045 C 
BRANCH   5   8
HETATM    8  C6  UNL     1     -32.801   7.680   3.105  1.00 20.00     0.033 C 
HETATM    9  C2  UNL     1     -31.967   8.062   1.888  1.00 20.00     0.008 C 
ENDBRANCH   5   8
ENDBRANCH   4   5
ENDBRANCH   2   4
TORSDOF 3
ENDMDL
MODEL 7
REMARK VINA RESULT:      -0.1      2.348      3.942
REMARK  3 active torsions:
REMARK  status: ('A' for Active; 'I' for Inactive)
REMARK    1  A    between atoms: C5_5  and  O9_9 
REMARK    2  A    between atoms: C6_6  and  C7_7 
REMARK    3  A    between atoms: C7_7  and  O9_9 
ROOT
HETATM    1  C1  UNL     1     -32.277   8.780   0.981  1.00 20.00     0.085 C 
HETATM    2  C5  UNL     1     -32.152   7.610   1.849  1.00 20.00     0.292 C 
HETATM    3  N8  UNL     1     -32.375   9.709   0.293  1.00 20.00    -0.195 NA
ENDROOT
BRANCH   2   4
HETATM    4  O9  UNL     1     -33.364   6.874   1.867  1.00 20.00    -0.367 OA
BRANCH   4   5
HETATM    5  C7  UNL     1     -33.760   6.561   3.205  1.00 20.00     0.054 C 
HETATM    6  C3  UNL     1     -35.271   6.772   3.297  1.00 20.00     0.045 C 
HETATM    7  C4  UNL     1     -33.428   5.086   3.461  1.00 20.00     0.045 C 
BRANCH   5   8
HETATM    8  C6  UNL     1     -32.982   7.454   4.191  1.00 20.00     0.033 C 
HETATM    9  C2  UNL     1     -33.859   8.262   5.139  1.00 20.00     0.008 C 
ENDBRANCH   5   8
ENDBRANCH   4   5
ENDBRANCH   2   4
TORSDOF 3
ENDMDL
MODEL 8
REMARK VINA RESULT:       0.0      1.642      2.137
REMARK  3 active torsions:
REMARK  status: ('A' for Active; 'I' for Inactive)
REMARK    1  A    between atoms: C5_5  and  O9_9 
REMARK    2  A    between atoms: C6_6  and  C7_7 
REMARK    3  A    between atoms: C7_7  and  O9_9 
ROOT
HETATM    1  C1  UNL     1     -34.102   4.554   3.902  1.00 20.00     0.085 C 
HETATM    2  C5  UNL     1     -34.326   5.845   3.252  1.00 20.00     0.292 C 
HETATM    3  N8  UNL     1     -33.923   3.530   4.416  1.00 20.00    -0.195 NA
ENDROOT
BRANCH   2   4
HETATM    4  O9  UNL     1     -33.127   6.602   3.223  1.00 20.00    -0.367 OA
BRANCH   4   5
HETATM    5  C7  UNL     1     -32.621   6.718   1.891  1.00 20.00     0.054 C 
HETATM    6  C3  UNL     1     -31.777   5.474   1.611  1.00 20.00     0.045 C 
HETATM    7  C4  UNL     1     -33.818   6.757   0.935  1.00 20.00     0.045 C 
BRANCH   5   8
HETATM    8  C6  UNL     1     -31.805   8.021   1.765  1.00 20.00     0.033 C 
HETATM    9  C2  UNL     1     -32.344   9.006   0.735  1.00 20.00     0.008 C 
ENDBRANCH   5   8
ENDBRANCH   4   5
ENDBRANCH   2   4
TORSDOF 3
ENDMDL
MODEL 9
REMARK VINA RESULT:       0.1      2.395      3.905
REMARK  3 active torsions:
REMARK  status: ('A' for Active; 'I' for Inactive)
REMARK    1  A    between atoms: C5_5  and  O9_9 
REMARK    2  A    between atoms: C6_6  and  C7_7 
REMARK    3  A    between atoms: C7_7  and  O9_9 
ROOT
HETATM    1  C1  UNL     1     -32.357   9.242   0.888  1.00 20.00     0.085 C 
HETATM    2  C5  UNL     1     -32.389   8.380   2.069  1.00 20.00     0.292 C 
HETATM    3  N8  UNL     1     -32.331   9.925  -0.050  1.00 20.00    -0.195 NA
ENDROOT
BRANCH   2   4
HETATM    4  O9  UNL     1     -33.686   7.834   2.250  1.00 20.00    -0.367 OA
BRANCH   4   5
HETATM    5  C7  UNL     1     -33.725   6.956   3.377  1.00 20.00     0.054 C 
HETATM    6  C3  UNL     1     -33.033   7.670   4.538  1.00 20.00     0.045 C 
HETATM    7  C4  UNL     1     -35.196   6.706   3.728  1.00 20.00     0.045 C 
BRANCH   5   8
HETATM    8  C6  UNL     1     -33.039   5.624   3.013  1.00 20.00     0.033 C 
HETATM    9  C2  UNL     1     -32.868   5.390   1.517  1.00 20.00     0.008 C 
ENDBRANCH   5   8
ENDBRANCH   4   5
ENDBRANCH   2   4
TORSDOF 3
ENDMDL
