MODEL 1
REMARK VINA RESULT:       0.2      0.000      0.000
REMARK  4 active torsions:
REMARK  status: ('A' for Active; 'I' for Inactive)
REMARK    1  A    between atoms: C5_5  and  C6_6 
REMARK    2  A    between atoms: C5_5  and  C7_7 
REMARK    3  A    between atoms: C6_6  and  S9_9 
REMARK    4  A    between atoms: C7_7  and  O8_8 
ROOT
HETATM    1  C5  UNL     1     -33.244   5.881   3.095  1.00 20.00     0.051 C 
ENDROOT
BRANCH   1   2
HETATM    2  C6  UNL     1     -32.977   6.357   1.653  1.00 20.00     0.043 C 
HETATM    3  C1  UNL     1     -32.233   5.351   0.781  1.00 20.00     0.021 C 
BRANCH   2   4
HETATM    4  S9  UNL     1     -31.985   7.899   1.729  1.00 20.00    -0.178 SA
HETATM    5  H25 UNL     1     -31.080   7.505   0.826  1.00 20.00     0.102 HD
ENDBRANCH   2   4
ENDBRANCH   1   2
BRANCH   1   6
HETATM    6  C7  UNL     1     -34.512   6.429   3.792  1.00 20.00     0.054 C 
HETATM    7  C2  UNL     1     -34.209   7.589   4.741  1.00 20.00     0.045 C 
HETATM    8  C3  UNL     1     -35.521   6.877   2.727  1.00 20.00     0.045 C 
BRANCH   6   9
HETATM    9  O8  UNL     1     -35.124   5.375   4.536  1.00 20.00    -0.386 OA
HETATM   10  C4  UNL     1     -34.345   4.189   4.485  1.00 20.00     0.202 C 
ENDBRANCH   6   9
ENDBRANCH   1   6
TORSDOF 4
ENDMDL
MODEL 2
REMARK VINA RESULT:       0.3      1.436      1.593
REMARK  4 active torsions:
REMARK  status: ('A' for Active; 'I' for Inactive)
REMARK    1  A    between atoms: C5_5  and  C6_6 
REMARK    2  A    between atoms: C5_5  and  C7_7 
REMARK    3  A    between atoms: C6_6  and  S9_9 
REMARK    4  A    between atoms: C7_7  and  O8_8 
ROOT
HETATM    1  C5  UNL     1     -33.805   6.957   2.290  1.00 20.00     0.051 C 
ENDROOT
BRANCH   1   2
HETATM    2  C6  UNL     1     -32.305   6.941   1.931  1.00 20.00     0.043 C 
HETATM    3  C1  UNL     1     -31.827   8.168   1.161  1.00 20.00     0.021 C 
BRANCH   2   4
HETATM    4  S9  UNL     1     -31.972   5.454   0.909  1.00 20.00    -0.178 SA
HETATM    5  H25 UNL     1     -31.939   6.112  -0.256  1.00 20.00     0.102 HD
ENDBRANCH   2   4
ENDBRANCH   1   2
BRANCH   1   6
HETATM    6  C7  UNL     1     -34.179   6.625   3.755  1.00 20.00     0.054 C 
HETATM    7  C2  UNL     1     -33.853   7.765   4.720  1.00 20.00     0.045 C 
HETATM    8  C3  UNL     1     -35.673   6.287   3.832  1.00 20.00     0.045 C 
BRANCH   6   9
HETATM    9  O8  UNL     1     -33.462   5.458   4.162  1.00 20.00    -0.386 OA
HETATM   10  C4  UNL     1     -34.285   4.303   4.102  1.00 20.00     0.202 C 
ENDBRANCH   6   9
ENDBRANCH   1   6
TORSDOF 4
ENDMDL
MODEL 3
REMARK VINA RESULT:       0.4      2.947      4.340
REMARK  4 active torsions:
REMARK  status: ('A' for Active; 'I' for Inactive)
REMARK    1  A    between atoms: C5_5  and  C6_6 
REMARK    2  A    between atoms: C5_5  and  C7_7 
REMARK    3  A    between atoms: C6_6  and  S9_9 
REMARK    4  A    between atoms: C7_7  and  O8_8 
ROOT
HETATM    1  C5  UNL     1     -33.630   7.904   2.428  1.00 20.00     0.051 C 
ENDROOT
BRANCH   1   2
HETATM    2  C6  UNL     1     -33.801   7.063   3.709  1.00 20.00     0.043 C 
HETATM    3  C1  UNL     1     -35.165   6.395   3.850  1.00 20.00     0.021 C 
BRANCH   2   4
HETATM    4  S9  UNL     1     -33.544   8.159   5.157  1.00 20.00    -0.178 SA
HETATM    5  H25 UNL     1     -33.052   9.182   4.450  1.00 20.00     0.102 HD
ENDBRANCH   2   4
ENDBRANCH   1   2
BRANCH   1   6
HETATM    6  C7  UNL     1     -32.282   7.773   1.678  1.00 20.00     0.054 C 
HETATM    7  C2  UNL     1     -31.116   8.396   2.446  1.00 20.00     0.045 C 
HETATM    8  C3  UNL     1     -31.996   6.291   1.406  1.00 20.00     0.045 C 
BRANCH   6   9
HETATM    9  O8  UNL     1     -32.395   8.419   0.409  1.00 20.00    -0.386 OA
HETATM   10  C4  UNL     1     -32.409   9.832   0.550  1.00 20.00     0.202 C 
ENDBRANCH   6   9
ENDBRANCH   1   6
TORSDOF 4
ENDMDL
MODEL 4
REMARK VINA RESULT:       0.4      2.633      4.087
REMARK  4 active torsions:
REMARK  status: ('A' for Active; 'I' for Inactive)
REMARK    1  A    between atoms: C5_5  and  C6_6 
REMARK    2  A    between atoms: C5_5  and  C7_7 
REMARK    3  A    between atoms: C6_6  and  S9_9 
REMARK    4  A    between atoms: C7_7  and  O8_8 
ROOT
HETATM    1  C5  UNL     1     -33.106   6.278   2.936  1.00 20.00     0.051 C 
ENDROOT
BRANCH   1   2
HETATM    2  C6  UNL     1     -34.371   5.480   3.312  1.00 20.00     0.043 C 
HETATM    3  C1  UNL     1     -35.387   6.260   4.141  1.00 20.00     0.021 C 
BRANCH   2   4
HETATM    4  S9  UNL     1     -33.857   4.003   4.271  1.00 20.00    -0.178 SA
HETATM    5  H25 UNL     1     -34.422   4.400   5.418  1.00 20.00     0.102 HD
ENDBRANCH   2   4
ENDBRANCH   1   2
BRANCH   1   6
HETATM    6  C7  UNL     1     -32.555   6.083   1.503  1.00 20.00     0.054 C 
HETATM    7  C2  UNL     1     -31.534   4.949   1.412  1.00 20.00     0.045 C 
HETATM    8  C3  UNL     1     -33.722   5.812   0.544  1.00 20.00     0.045 C 
BRANCH   6   9
HETATM    9  O8  UNL     1     -31.934   7.297   1.077  1.00 20.00    -0.386 OA
HETATM   10  C4  UNL     1     -32.025   8.300   2.077  1.00 20.00     0.202 C 
ENDBRANCH   6   9
ENDBRANCH   1   6
TORSDOF 4
ENDMDL
MODEL 5
REMARK VINA RESULT:       0.5      2.761      4.161
REMARK  4 active torsions:
REMARK  status: ('A' for Active; 'I' for Inactive)
REMARK    1  A    between atoms: C5_5  and  C6_6 
REMARK    2  A    between atoms: C5_5  and  C7_7 
REMARK    3  A    between atoms: C6_6  and  S9_9 
REMARK    4  A    between atoms: C7_7  and  O8_8 
ROOT
HETATM    1  C5  UNL     1     -33.149   7.238   3.414  1.00 20.00     0.051 C 
ENDROOT
BRANCH   1   2
HETATM    2  C6  UNL     1     -34.253   6.180   3.215  1.00 20.00     0.043 C 
HETATM    3  C1  UNL     1     -35.575   6.509   3.901  1.00 20.00     0.021 C 
BRANCH   2   4
HETATM    4  S9  UNL     1     -33.644   4.580   3.874  1.00 20.00    -0.178 SA
HETATM    5  H25 UNL     1     -34.168   4.744   5.094  1.00 20.00     0.102 HD
ENDBRANCH   2   4
ENDBRANCH   1   2
BRANCH   1   6
HETATM    6  C7  UNL     1     -32.349   7.661   2.158  1.00 20.00     0.054 C 
HETATM    7  C2  UNL     1     -31.023   8.339   2.504  1.00 20.00     0.045 C 
HETATM    8  C3  UNL     1     -32.092   6.429   1.282  1.00 20.00     0.045 C 
BRANCH   6   9
HETATM    9  O8  UNL     1     -33.141   8.567   1.388  1.00 20.00    -0.386 OA
HETATM   10  C4  UNL     1     -32.326   9.420   0.599  1.00 20.00     0.202 C 
ENDBRANCH   6   9
ENDBRANCH   1   6
TORSDOF 4
ENDMDL
MODEL 6
REMARK VINA RESULT:       0.7      0.943      1.951
REMARK  4 active torsions:
REMARK  status: ('A' for Active; 'I' for Inactive)
REMARK    1  A    between atoms: C5_5  and  C6_6 
REMARK    2  A    between atoms: C5_5  and  C7_7 
REMARK    3  A    between atoms: C6_6  and  S9_9 
REMARK    4  A    between atoms: C7_7  and  O8_8 
ROOT
HETATM    1  C5  UNL     1     -33.237   6.275   3.283  1.00 20.00     0.051 C 
ENDROOT
BRANCH   1   2
HETATM    2  C6  UNL     1     -33.050   6.496   1.769  1.00 20.00     0.043 C 
HETATM    3  C1  UNL     1     -32.423   5.318   1.030  1.00 20.00     0.021 C 
BRANCH   2   4
HETATM    4  S9  UNL     1     -31.976   7.964   1.529  1.00 20.00    -0.178 SA
HETATM    5  H25 UNL     1     -32.304   8.546   2.688  1.00 20.00     0.102 HD
ENDBRANCH   2   4
ENDBRANCH   1   2
BRANCH   1   6
HETATM    6  C7  UNL     1     -34.659   6.491   3.854  1.00 20.00     0.054 C 
HETATM    7  C2  UNL     1     -35.660   6.939   2.788  1.00 20.00     0.045 C 
HETATM    8  C3  UNL     1     -35.144   5.193   4.512  1.00 20.00     0.045 C 
BRANCH   6   9
HETATM    9  O8  UNL     1     -34.601   7.486   4.877  1.00 20.00    -0.386 OA
HETATM   10  C4  UNL     1     -33.321   8.097   4.928  1.00 20.00     0.202 C 
ENDBRANCH   6   9
ENDBRANCH   1   6
TORSDOF 4
ENDMDL
MODEL 7
REMARK VINA RESULT:       0.7      2.518      3.906
REMARK  4 active torsions:
REMARK  status: ('A' for Active; 'I' for Inactive)
REMARK    1  A    between atoms: C5_5  and  C6_6 
REMARK    2  A    between atoms: C5_5  and  C7_7 
REMARK    3  A    between atoms: C6_6  and  S9_9 
REMARK    4  A    between atoms: C7_7  and  O8_8 
ROOT
HETATM    1  C5  UNL     1     -33.187   6.549   3.176  1.00 20.00     0.051 C 
ENDROOT
BRANCH   1   2
HETATM    2  C6  UNL     1     -34.400   5.618   3.374  1.00 20.00     0.043 C 
HETATM    3  C1  UNL     1     -35.515   6.205   4.233  1.00 20.00     0.021 C 
BRANCH   2   4
HETATM    4  S9  UNL     1     -33.816   4.070   4.167  1.00 20.00    -0.178 SA
HETATM    5  H25 UNL     1     -33.623   3.411   3.019  1.00 20.00     0.102 HD
ENDBRANCH   2   4
ENDBRANCH   1   2
BRANCH   1   6
HETATM    6  C7  UNL     1     -32.582   6.620   1.753  1.00 20.00     0.054 C 
HETATM    7  C2  UNL     1     -33.627   6.411   0.656  1.00 20.00     0.045 C 
HETATM    8  C3  UNL     1     -31.891   7.976   1.564  1.00 20.00     0.045 C 
BRANCH   6   9
HETATM    9  O8  UNL     1     -31.576   5.614   1.627  1.00 20.00    -0.386 OA
HETATM   10  C4  UNL     1     -31.931   4.651   0.647  1.00 20.00     0.202 C 
ENDBRANCH   6   9
ENDBRANCH   1   6
TORSDOF 4
ENDMDL
MODEL 8
REMARK VINA RESULT:       0.8      2.870      4.058
REMARK  4 active torsions:
REMARK  status: ('A' for Active; 'I' for Inactive)
REMARK    1  A    between atoms: C5_5  and  C6_6 
REMARK    2  A    between atoms: C5_5  and  C7_7 
REMARK    3  A    between atoms: C6_6  and  S9_9 
REMARK    4  A    between atoms: C7_7  and  O8_8 
ROOT
HETATM    1  C5  UNL     1     -33.364   6.641   2.065  1.00 20.00     0.051 C 
ENDROOT
BRANCH   1   2
HETATM    2  C6  UNL     1     -33.691   6.023   3.439  1.00 20.00     0.043 C 
HETATM    3  C1  UNL     1     -33.623   4.500   3.480  1.00 20.00     0.021 C 
BRANCH   2   4
HETATM    4  S9  UNL     1     -35.387   6.536   3.913  1.00 20.00    -0.178 SA
HETATM    5  H25 UNL     1     -35.791   5.311   4.268  1.00 20.00     0.102 HD
ENDBRANCH   2   4
ENDBRANCH   1   2
BRANCH   1   6
HETATM    6  C7  UNL     1     -32.435   7.878   2.056  1.00 20.00     0.054 C 
HETATM    7  C2  UNL     1     -32.100   8.376   3.462  1.00 20.00     0.045 C 
HETATM    8  C3  UNL     1     -31.142   7.536   1.303  1.00 20.00     0.045 C 
BRANCH   6   9
HETATM    9  O8  UNL     1     -33.074   8.932   1.335  1.00 20.00    -0.386 OA
HETATM   10  C4  UNL     1     -32.201   9.499   0.369  1.00 20.00     0.202 C 
ENDBRANCH   6   9
ENDBRANCH   1   6
TORSDOF 4
ENDMDL
MODEL 9
REMARK VINA RESULT:       0.9      1.799      3.164
REMARK  4 active torsions:
REMARK  status: ('A' for Active; 'I' for Inactive)
REMARK    1  A    between atoms: C5_5  and  C6_6 
REMARK    2  A    between atoms: C5_5  and  C7_7 
REMARK    3  A    between atoms: C6_6  and  S9_9 
REMARK    4  A    between atoms: C7_7  and  O8_8 
ROOT
HETATM    1  C5  UNL     1     -33.170   7.300   1.786  1.00 20.00     0.051 C 
ENDROOT
BRANCH   1   2
HETATM    2  C6  UNL     1     -31.889   8.145   1.628  1.00 20.00     0.043 C 
HETATM    3  C1  UNL     1     -31.359   8.738   2.929  1.00 20.00     0.021 C 
BRANCH   2   4
HETATM    4  S9  UNL     1     -32.246   9.522   0.470  1.00 20.00    -0.178 SA
HETATM    5  H25 UNL     1     -33.567   9.522   0.684  1.00 20.00     0.102 HD
ENDBRANCH   2   4
ENDBRANCH   1   2
BRANCH   1   6
HETATM    6  C7  UNL     1     -33.018   5.765   1.657  1.00 20.00     0.054 C 
HETATM    7  C2  UNL     1     -33.743   5.201   0.434  1.00 20.00     0.045 C 
HETATM    8  C3  UNL     1     -31.528   5.408   1.591  1.00 20.00     0.045 C 
BRANCH   6   9
HETATM    9  O8  UNL     1     -33.548   5.148   2.831  1.00 20.00    -0.386 OA
HETATM   10  C4  UNL     1     -34.333   6.060   3.583  1.00 20.00     0.202 C 
ENDBRANCH   6   9
ENDBRANCH   1   6
TORSDOF 4
ENDMDL
