MODEL 1
REMARK VINA RESULT:      -0.6      0.000      0.000
REMARK  3 active torsions:
REMARK  status: ('A' for Active; 'I' for Inactive)
REMARK    1  A    between atoms: C5_5  and  C6_6 
REMARK    2  A    between atoms: C5_5  and  C7_7 
REMARK    3  A    between atoms: C7_7  and  O8_8 
ROOT
HETATM    1  C2  UNL     1     -31.218   8.396   2.509  1.00 20.00     0.045 C 
HETATM    2  C3  UNL     1     -31.924   6.239   1.445  1.00 20.00     0.045 C 
HETATM    3  C7  UNL     1     -32.319   7.695   1.702  1.00 20.00     0.054 C 
ENDROOT
BRANCH   3   4
HETATM    4  C5  UNL     1     -33.664   7.825   2.455  1.00 20.00     0.057 C 
BRANCH   4   5
HETATM    5  C6  UNL     1     -33.810   7.060   3.785  1.00 20.00     0.081 C 
HETATM    6  C1  UNL     1     -35.189   6.414   3.885  1.00 20.00     0.026 C 
HETATM    7 CL9  UNL     1     -33.580   8.126   5.201  1.00 20.00    -0.125 Cl
ENDBRANCH   4   5
ENDBRANCH   3   4
BRANCH   3   8
HETATM    8  O8  UNL     1     -32.415   8.367   0.446  1.00 20.00    -0.386 OA
HETATM    9  C4  UNL     1     -32.396   9.776   0.612  1.00 20.00     0.202 C 
ENDBRANCH   3   8
TORSDOF 3
ENDMDL
MODEL 2
REMARK VINA RESULT:      -0.6      2.589      4.288
REMARK  3 active torsions:
REMARK  status: ('A' for Active; 'I' for Inactive)
REMARK    1  A    between atoms: C5_5  and  C6_6 
REMARK    2  A    between atoms: C5_5  and  C7_7 
REMARK    3  A    between atoms: C7_7  and  O8_8 
ROOT
HETATM    1  C2  UNL     1     -33.848   7.707   4.684  1.00 20.00     0.045 C 
HETATM    2  C3  UNL     1     -35.674   6.237   3.794  1.00 20.00     0.045 C 
HETATM    3  C7  UNL     1     -34.184   6.576   3.703  1.00 20.00     0.054 C 
ENDROOT
BRANCH   3   4
HETATM    4  C5  UNL     1     -33.753   6.994   2.277  1.00 20.00     0.057 C 
BRANCH   4   5
HETATM    5  C6  UNL     1     -32.250   6.944   1.946  1.00 20.00     0.081 C 
HETATM    6  C1  UNL     1     -31.836   8.171   1.138  1.00 20.00     0.026 C 
HETATM    7 CL9  UNL     1     -31.814   5.482   1.015  1.00 20.00    -0.125 Cl
ENDBRANCH   4   5
ENDBRANCH   3   4
BRANCH   3   8
HETATM    8  O8  UNL     1     -33.433   5.430   4.106  1.00 20.00    -0.386 OA
HETATM    9  C4  UNL     1     -34.232   4.258   4.091  1.00 20.00     0.202 C 
ENDBRANCH   3   8
TORSDOF 3
ENDMDL
MODEL 3
REMARK VINA RESULT:      -0.5      1.693      2.247
REMARK  3 active torsions:
REMARK  status: ('A' for Active; 'I' for Inactive)
REMARK    1  A    between atoms: C5_5  and  C6_6 
REMARK    2  A    between atoms: C5_5  and  C7_7 
REMARK    3  A    between atoms: C7_7  and  O8_8 
ROOT
HETATM    1  C2  UNL     1     -31.699   5.041   1.088  1.00 20.00     0.045 C 
HETATM    2  C3  UNL     1     -33.611   6.583   0.586  1.00 20.00     0.045 C 
HETATM    3  C7  UNL     1     -32.567   6.183   1.632  1.00 20.00     0.054 C 
ENDROOT
BRANCH   3   4
HETATM    4  C5  UNL     1     -33.203   5.745   2.973  1.00 20.00     0.057 C 
BRANCH   4   5
HETATM    5  C6  UNL     1     -34.440   6.523   3.460  1.00 20.00     0.081 C 
HETATM    6  C1  UNL     1     -34.021   7.729   4.297  1.00 20.00     0.026 C 
HETATM    7 CL9  UNL     1     -35.531   5.504   4.443  1.00 20.00    -0.125 Cl
ENDBRANCH   4   5
ENDBRANCH   3   4
BRANCH   3   8
HETATM    8  O8  UNL     1     -31.704   7.298   1.860  1.00 20.00    -0.386 OA
HETATM    9  C4  UNL     1     -32.171   8.458   1.189  1.00 20.00     0.202 C 
ENDBRANCH   3   8
TORSDOF 3
ENDMDL
MODEL 4
REMARK VINA RESULT:      -0.5      1.413      1.434
REMARK  3 active torsions:
REMARK  status: ('A' for Active; 'I' for Inactive)
REMARK    1  A    between atoms: C5_5  and  C6_6 
REMARK    2  A    between atoms: C5_5  and  C7_7 
REMARK    3  A    between atoms: C7_7  and  O8_8 
ROOT
HETATM    1  C2  UNL     1     -31.113   8.313   2.461  1.00 20.00     0.045 C 
HETATM    2  C3  UNL     1     -32.011   6.301   1.266  1.00 20.00     0.045 C 
HETATM    3  C7  UNL     1     -32.386   7.570   2.033  1.00 20.00     0.054 C 
ENDROOT
BRANCH   3   4
HETATM    4  C5  UNL     1     -33.249   7.278   3.284  1.00 20.00     0.057 C 
BRANCH   4   5
HETATM    5  C6  UNL     1     -34.255   6.114   3.197  1.00 20.00     0.081 C 
HETATM    6  C1  UNL     1     -35.515   6.431   3.997  1.00 20.00     0.026 C 
HETATM    7 CL9  UNL     1     -33.567   4.583   3.809  1.00 20.00    -0.125 Cl
ENDBRANCH   4   5
ENDBRANCH   3   4
BRANCH   3   8
HETATM    8  O8  UNL     1     -33.105   8.436   1.155  1.00 20.00    -0.386 OA
HETATM    9  C4  UNL     1     -32.259   9.438   0.612  1.00 20.00     0.202 C 
ENDBRANCH   3   8
TORSDOF 3
ENDMDL
MODEL 5
REMARK VINA RESULT:      -0.4      0.880      1.947
REMARK  3 active torsions:
REMARK  status: ('A' for Active; 'I' for Inactive)
REMARK    1  A    between atoms: C5_5  and  C6_6 
REMARK    2  A    between atoms: C5_5  and  C7_7 
REMARK    3  A    between atoms: C7_7  and  O8_8 
ROOT
HETATM    1  C2  UNL     1     -32.257   8.845   0.755  1.00 20.00     0.045 C 
HETATM    2  C3  UNL     1     -31.332   8.510   3.061  1.00 20.00     0.045 C 
HETATM    3  C7  UNL     1     -32.222   7.909   1.971  1.00 20.00     0.054 C 
ENDROOT
BRANCH   3   4
HETATM    4  C5  UNL     1     -33.669   7.651   2.457  1.00 20.00     0.057 C 
BRANCH   4   5
HETATM    5  C6  UNL     1     -33.848   7.027   3.854  1.00 20.00     0.081 C 
HETATM    6  C1  UNL     1     -35.175   6.278   3.941  1.00 20.00     0.026 C 
HETATM    7 CL9  UNL     1     -33.806   8.256   5.150  1.00 20.00    -0.125 Cl
ENDBRANCH   4   5
ENDBRANCH   3   4
BRANCH   3   8
HETATM    8  O8  UNL     1     -31.642   6.678   1.540  1.00 20.00    -0.386 OA
HETATM    9  C4  UNL     1     -32.640   5.733   1.186  1.00 20.00     0.202 C 
ENDBRANCH   3   8
TORSDOF 3
ENDMDL
MODEL 6
REMARK VINA RESULT:      -0.3      2.902      4.332
REMARK  3 active torsions:
REMARK  status: ('A' for Active; 'I' for Inactive)
REMARK    1  A    between atoms: C5_5  and  C6_6 
REMARK    2  A    between atoms: C5_5  and  C7_7 
REMARK    3  A    between atoms: C7_7  and  O8_8 
ROOT
HETATM    1  C2  UNL     1     -34.189   7.517   4.774  1.00 20.00     0.045 C 
HETATM    2  C3  UNL     1     -35.633   6.896   2.821  1.00 20.00     0.045 C 
HETATM    3  C7  UNL     1     -34.565   6.395   3.796  1.00 20.00     0.054 C 
ENDROOT
BRANCH   3   4
HETATM    4  C5  UNL     1     -33.289   5.894   3.080  1.00 20.00     0.057 C 
BRANCH   4   5
HETATM    5  C6  UNL     1     -32.997   6.455   1.675  1.00 20.00     0.081 C 
HETATM    6  C1  UNL     1     -32.274   5.417   0.821  1.00 20.00     0.026 C 
HETATM    7 CL9  UNL     1     -31.996   7.934   1.736  1.00 20.00    -0.125 Cl
ENDBRANCH   4   5
ENDBRANCH   3   4
BRANCH   3   8
HETATM    8  O8  UNL     1     -35.121   5.332   4.570  1.00 20.00    -0.386 OA
HETATM    9  C4  UNL     1     -34.318   4.164   4.494  1.00 20.00     0.202 C 
ENDBRANCH   3   8
TORSDOF 3
ENDMDL
MODEL 7
REMARK VINA RESULT:      -0.1      2.060      2.925
REMARK  3 active torsions:
REMARK  status: ('A' for Active; 'I' for Inactive)
REMARK    1  A    between atoms: C5_5  and  C6_6 
REMARK    2  A    between atoms: C5_5  and  C7_7 
REMARK    3  A    between atoms: C7_7  and  O8_8 
ROOT
HETATM    1  C2  UNL     1     -33.631   6.339   0.706  1.00 20.00     0.045 C 
HETATM    2  C3  UNL     1     -31.915   7.983   1.504  1.00 20.00     0.045 C 
HETATM    3  C7  UNL     1     -32.572   6.628   1.778  1.00 20.00     0.054 C 
ENDROOT
BRANCH   3   4
HETATM    4  C5  UNL     1     -33.229   6.555   3.177  1.00 20.00     0.057 C 
BRANCH   4   5
HETATM    5  C6  UNL     1     -34.394   5.564   3.363  1.00 20.00     0.081 C 
HETATM    6  C1  UNL     1     -35.488   6.178   4.232  1.00 20.00     0.026 C 
HETATM    7 CL9  UNL     1     -33.862   4.035   4.119  1.00 20.00    -0.125 Cl
ENDBRANCH   4   5
ENDBRANCH   3   4
BRANCH   3   8
HETATM    8  O8  UNL     1     -31.575   5.612   1.671  1.00 20.00    -0.386 OA
HETATM    9  C4  UNL     1     -31.907   4.668   0.666  1.00 20.00     0.202 C 
ENDBRANCH   3   8
TORSDOF 3
ENDMDL
MODEL 8
REMARK VINA RESULT:      -0.1      1.574      1.601
REMARK  3 active torsions:
REMARK  status: ('A' for Active; 'I' for Inactive)
REMARK    1  A    between atoms: C5_5  and  C6_6 
REMARK    2  A    between atoms: C5_5  and  C7_7 
REMARK    3  A    between atoms: C7_7  and  O8_8 
ROOT
HETATM    1  C2  UNL     1     -32.298   8.338   3.506  1.00 20.00     0.045 C 
HETATM    2  C3  UNL     1     -31.084   7.541   1.463  1.00 20.00     0.045 C 
HETATM    3  C7  UNL     1     -32.461   7.795   2.080  1.00 20.00     0.054 C 
ENDROOT
BRANCH   3   4
HETATM    4  C5  UNL     1     -33.342   6.524   2.117  1.00 20.00     0.057 C 
BRANCH   4   5
HETATM    5  C6  UNL     1     -33.851   6.052   3.493  1.00 20.00     0.081 C 
HETATM    6  C1  UNL     1     -33.792   4.530   3.595  1.00 20.00     0.026 C 
HETATM    7 CL9  UNL     1     -35.531   6.575   3.804  1.00 20.00    -0.125 Cl
ENDBRANCH   4   5
ENDBRANCH   3   4
BRANCH   3   8
HETATM    8  O8  UNL     1     -33.121   8.805   1.316  1.00 20.00    -0.386 OA
HETATM    9  C4  UNL     1     -32.209   9.494   0.475  1.00 20.00     0.202 C 
ENDBRANCH   3   8
TORSDOF 3
ENDMDL
MODEL 9
REMARK VINA RESULT:       0.0      2.703      4.105
REMARK  3 active torsions:
REMARK  status: ('A' for Active; 'I' for Inactive)
REMARK    1  A    between atoms: C5_5  and  C6_6 
REMARK    2  A    between atoms: C5_5  and  C7_7 
REMARK    3  A    between atoms: C7_7  and  O8_8 
ROOT
HETATM    1  C2  UNL     1     -35.664   6.463   3.682  1.00 20.00     0.045 C 
HETATM    2  C3  UNL     1     -34.118   4.529   4.073  1.00 20.00     0.045 C 
HETATM    3  C7  UNL     1     -34.214   5.971   3.572  1.00 20.00     0.054 C 
ENDROOT
BRANCH   3   4
HETATM    4  C5  UNL     1     -33.732   6.129   2.110  1.00 20.00     0.057 C 
BRANCH   4   5
HETATM    5  C6  UNL     1     -32.216   6.258   1.872  1.00 20.00     0.081 C 
HETATM    6  C1  UNL     1     -31.862   7.670   1.412  1.00 20.00     0.026 C 
HETATM    7 CL9  UNL     1     -31.627   5.100   0.645  1.00 20.00    -0.125 Cl
ENDBRANCH   4   5
ENDBRANCH   3   4
BRANCH   3   8
HETATM    8  O8  UNL     1     -33.421   6.800   4.423  1.00 20.00    -0.386 OA
HETATM    9  C4  UNL     1     -33.962   8.109   4.517  1.00 20.00     0.202 C 
ENDBRANCH   3   8
TORSDOF 3
ENDMDL
