MODEL 1
REMARK VINA RESULT:       3.7      0.000      0.000
REMARK  1 active torsions:
REMARK  status: ('A' for Active; 'I' for Inactive)
REMARK    1  A    between atoms: C9_9  and  O10_10 
ROOT
HETATM    1  C1  UNL     1     -33.068   6.096   1.701  1.00 20.00     0.001 C 
HETATM    2  C2  UNL     1     -33.778   6.332   3.032  1.00 20.00     0.005 C 
HETATM    3  C3  UNL     1     -31.691   6.739   1.571  1.00 20.00     0.007 C 
HETATM    4  C4  UNL     1     -32.714   8.228   4.342  1.00 20.00     0.005 C 
HETATM    5  C5  UNL     1     -31.394   8.271   3.576  1.00 20.00     0.007 C 
HETATM    6  C6  UNL     1     -34.062   8.770   2.293  1.00 20.00     0.036 C 
HETATM    7  C7  UNL     1     -33.903   7.801   3.475  1.00 20.00    -0.012 C 
HETATM    8  C8  UNL     1     -31.568   8.198   2.052  1.00 20.00     0.014 C 
HETATM    9  C9  UNL     1     -32.727   9.105   1.609  1.00 20.00     0.122 C 
ENDROOT
BRANCH   9  10
HETATM   10  O10 UNL     1     -32.873   9.047   0.193  1.00 20.00    -0.395 OA
HETATM   11  H26 UNL     1     -32.711   8.126  -0.066  1.00 20.00     0.210 HD
ENDBRANCH   9  10
TORSDOF 1
ENDMDL
MODEL 2
REMARK VINA RESULT:       4.2      1.751      3.015
REMARK  1 active torsions:
REMARK  status: ('A' for Active; 'I' for Inactive)
REMARK    1  A    between atoms: C9_9  and  O10_10 
ROOT
HETATM    1  C1  UNL     1     -33.348   5.992   2.756  1.00 20.00     0.001 C 
HETATM    2  C2  UNL     1     -32.464   6.327   1.557  1.00 20.00     0.005 C 
HETATM    3  C3  UNL     1     -34.335   7.080   3.166  1.00 20.00     0.007 C 
HETATM    4  C4  UNL     1     -32.488   8.811   1.037  1.00 20.00     0.005 C 
HETATM    5  C5  UNL     1     -33.744   9.160   1.832  1.00 20.00     0.007 C 
HETATM    6  C6  UNL     1     -31.269   8.006   3.081  1.00 20.00     0.036 C 
HETATM    7  C7  UNL     1     -31.689   7.654   1.645  1.00 20.00    -0.012 C 
HETATM    8  C8  UNL     1     -33.783   8.518   3.227  1.00 20.00     0.014 C 
HETATM    9  C9  UNL     1     -32.408   8.634   3.901  1.00 20.00     0.122 C 
ENDROOT
BRANCH   9  10
HETATM   10  O10 UNL     1     -32.454   8.052   5.201  1.00 20.00    -0.395 OA
HETATM   11  H26 UNL     1     -33.375   8.114   5.500  1.00 20.00     0.210 HD
ENDBRANCH   9  10
TORSDOF 1
ENDMDL
MODEL 3
REMARK VINA RESULT:       4.2      2.055      2.564
REMARK  1 active torsions:
REMARK  status: ('A' for Active; 'I' for Inactive)
REMARK    1  A    between atoms: C9_9  and  O10_10 
ROOT
HETATM    1  C1  UNL     1     -34.146   4.300   3.816  1.00 20.00     0.001 C 
HETATM    2  C2  UNL     1     -35.131   5.272   4.461  1.00 20.00     0.005 C 
HETATM    3  C3  UNL     1     -32.759   4.868   3.529  1.00 20.00     0.007 C 
HETATM    4  C4  UNL     1     -34.342   7.676   4.267  1.00 20.00     0.005 C 
HETATM    5  C5  UNL     1     -32.883   7.372   3.936  1.00 20.00     0.007 C 
HETATM    6  C6  UNL     1     -35.182   6.500   2.212  1.00 20.00     0.036 C 
HETATM    7  C7  UNL     1     -35.316   6.618   3.738  1.00 20.00    -0.012 C 
HETATM    8  C8  UNL     1     -32.712   6.266   2.884  1.00 20.00     0.014 C 
HETATM    9  C9  UNL     1     -33.718   6.464   1.741  1.00 20.00     0.122 C 
ENDROOT
BRANCH   9  10
HETATM   10  O10 UNL     1     -33.544   5.446   0.759  1.00 20.00    -0.395 OA
HETATM   11  H26 UNL     1     -32.632   5.128   0.849  1.00 20.00     0.210 HD
ENDBRANCH   9  10
TORSDOF 1
ENDMDL
MODEL 4
REMARK VINA RESULT:       4.4      2.218      3.627
REMARK  1 active torsions:
REMARK  status: ('A' for Active; 'I' for Inactive)
REMARK    1  A    between atoms: C9_9  and  O10_10 
ROOT
HETATM    1  C1  UNL     1     -33.567   4.680   4.097  1.00 20.00     0.001 C 
HETATM    2  C2  UNL     1     -33.090   4.746   2.648  1.00 20.00     0.005 C 
HETATM    3  C3  UNL     1     -34.904   5.360   4.377  1.00 20.00     0.007 C 
HETATM    4  C4  UNL     1     -34.358   6.498   1.319  1.00 20.00     0.005 C 
HETATM    5  C5  UNL     1     -35.532   6.655   2.283  1.00 20.00     0.007 C 
HETATM    6  C6  UNL     1     -32.687   7.247   3.039  1.00 20.00     0.036 C 
HETATM    7  C7  UNL     1     -33.041   6.152   2.021  1.00 20.00    -0.012 C 
HETATM    8  C8  UNL     1     -35.106   6.756   3.755  1.00 20.00     0.014 C 
HETATM    9  C9  UNL     1     -33.890   7.685   3.891  1.00 20.00     0.122 C 
ENDROOT
BRANCH   9  10
HETATM   10  O10 UNL     1     -33.509   7.789   5.260  1.00 20.00    -0.395 OA
HETATM   11  H26 UNL     1     -32.629   8.197   5.272  1.00 20.00     0.210 HD
ENDBRANCH   9  10
TORSDOF 1
ENDMDL
MODEL 5
REMARK VINA RESULT:       4.6      1.713      3.010
REMARK  1 active torsions:
REMARK  status: ('A' for Active; 'I' for Inactive)
REMARK    1  A    between atoms: C9_9  and  O10_10 
ROOT
HETATM    1  C1  UNL     1     -33.005   7.800  -0.044  1.00 20.00     0.001 C 
HETATM    2  C2  UNL     1     -32.647   8.811   1.044  1.00 20.00     0.005 C 
HETATM    3  C3  UNL     1     -33.827   6.603   0.421  1.00 20.00     0.007 C 
HETATM    4  C4  UNL     1     -32.995   7.852   3.368  1.00 20.00     0.005 C 
HETATM    5  C5  UNL     1     -33.884   6.680   2.960  1.00 20.00     0.007 C 
HETATM    6  C6  UNL     1     -31.065   7.029   1.988  1.00 20.00     0.036 C 
HETATM    7  C7  UNL     1     -31.967   8.233   2.299  1.00 20.00    -0.012 C 
HETATM    8  C8  UNL     1     -33.370   5.923   1.727  1.00 20.00     0.014 C 
HETATM    9  C9  UNL     1     -31.851   5.717   1.828  1.00 20.00     0.122 C 
ENDROOT
BRANCH   9  10
HETATM   10  O10 UNL     1     -31.382   4.999   0.690  1.00 20.00    -0.395 OA
HETATM   11  H26 UNL     1     -31.584   5.546  -0.085  1.00 20.00     0.210 HD
ENDBRANCH   9  10
TORSDOF 1
ENDMDL
MODEL 6
REMARK VINA RESULT:       4.7      1.603      2.741
REMARK  1 active torsions:
REMARK  status: ('A' for Active; 'I' for Inactive)
REMARK    1  A    between atoms: C9_9  and  O10_10 
ROOT
HETATM    1  C1  UNL     1     -34.164   6.612   3.263  1.00 20.00     0.001 C 
HETATM    2  C2  UNL     1     -33.159   7.761   3.284  1.00 20.00     0.005 C 
HETATM    3  C3  UNL     1     -33.623   5.279   2.753  1.00 20.00     0.007 C 
HETATM    4  C4  UNL     1     -31.108   7.243   1.881  1.00 20.00     0.005 C 
HETATM    5  C5  UNL     1     -31.316   5.733   1.790  1.00 20.00     0.007 C 
HETATM    6  C6  UNL     1     -33.283   7.735   0.724  1.00 20.00     0.036 C 
HETATM    7  C7  UNL     1     -32.420   8.030   1.960  1.00 20.00    -0.012 C 
HETATM    8  C8  UNL     1     -32.765   5.332   1.474  1.00 20.00     0.014 C 
HETATM    9  C9  UNL     1     -33.336   6.239   0.373  1.00 20.00     0.122 C 
ENDROOT
BRANCH   9  10
HETATM   10  O10 UNL     1     -34.674   5.853   0.072  1.00 20.00    -0.395 OA
HETATM   11  H26 UNL     1     -35.232   6.211   0.780  1.00 20.00     0.210 HD
ENDBRANCH   9  10
TORSDOF 1
ENDMDL
MODEL 7
REMARK VINA RESULT:       4.8      1.733      3.110
REMARK  1 active torsions:
REMARK  status: ('A' for Active; 'I' for Inactive)
REMARK    1  A    between atoms: C9_9  and  O10_10 
ROOT
HETATM    1  C1  UNL     1     -32.220   8.072   3.231  1.00 20.00     0.001 C 
HETATM    2  C2  UNL     1     -33.161   7.735   4.385  1.00 20.00     0.005 C 
HETATM    3  C3  UNL     1     -32.840   8.004   1.839  1.00 20.00     0.007 C 
HETATM    4  C4  UNL     1     -35.262   6.565   3.572  1.00 20.00     0.005 C 
HETATM    5  C5  UNL     1     -35.136   6.949   2.100  1.00 20.00     0.007 C 
HETATM    6  C6  UNL     1     -33.085   5.310   3.557  1.00 20.00     0.036 C 
HETATM    7  C7  UNL     1     -33.909   6.394   4.270  1.00 20.00    -0.012 C 
HETATM    8  C8  UNL     1     -33.717   6.773   1.540  1.00 20.00     0.014 C 
HETATM    9  C9  UNL     1     -33.119   5.443   2.025  1.00 20.00     0.122 C 
ENDROOT
BRANCH   9  10
HETATM   10  O10 UNL     1     -31.810   5.276   1.490  1.00 20.00    -0.395 OA
HETATM   11  H26 UNL     1     -31.408   6.159   1.458  1.00 20.00     0.210 HD
ENDBRANCH   9  10
TORSDOF 1
ENDMDL
MODEL 8
REMARK VINA RESULT:       4.9      1.659      3.187
REMARK  1 active torsions:
REMARK  status: ('A' for Active; 'I' for Inactive)
REMARK    1  A    between atoms: C9_9  and  O10_10 
ROOT
HETATM    1  C1  UNL     1     -33.732   6.207   3.741  1.00 20.00     0.001 C 
HETATM    2  C2  UNL     1     -33.489   4.896   2.998  1.00 20.00     0.005 C 
HETATM    3  C3  UNL     1     -34.184   7.377   2.873  1.00 20.00     0.007 C 
HETATM    4  C4  UNL     1     -33.305   5.256   0.492  1.00 20.00     0.005 C 
HETATM    5  C5  UNL     1     -33.937   6.645   0.453  1.00 20.00     0.007 C 
HETATM    6  C6  UNL     1     -31.425   6.018   1.973  1.00 20.00     0.036 C 
HETATM    7  C7  UNL     1     -32.539   4.977   1.789  1.00 20.00    -0.012 C 
HETATM    8  C8  UNL     1     -33.419   7.585   1.551  1.00 20.00     0.014 C 
HETATM    9  C9  UNL     1     -31.894   7.454   1.682  1.00 20.00     0.122 C 
ENDROOT
BRANCH   9  10
HETATM   10  O10 UNL     1     -31.415   8.340   2.690  1.00 20.00    -0.395 OA
HETATM   11  H26 UNL     1     -30.596   7.951   3.035  1.00 20.00     0.210 HD
ENDBRANCH   9  10
TORSDOF 1
ENDMDL
MODEL 9
REMARK VINA RESULT:       4.9      0.909      1.896
REMARK  1 active torsions:
REMARK  status: ('A' for Active; 'I' for Inactive)
REMARK    1  A    between atoms: C9_9  and  O10_10 
ROOT
HETATM    1  C1  UNL     1     -30.914   6.491   1.457  1.00 20.00     0.001 C 
HETATM    2  C2  UNL     1     -32.049   5.493   1.669  1.00 20.00     0.005 C 
HETATM    3  C3  UNL     1     -30.944   7.719   2.363  1.00 20.00     0.007 C 
HETATM    4  C4  UNL     1     -33.951   6.504   3.012  1.00 20.00     0.005 C 
HETATM    5  C5  UNL     1     -33.175   7.691   3.578  1.00 20.00     0.007 C 
HETATM    6  C6  UNL     1     -33.604   7.251   0.639  1.00 20.00     0.036 C 
HETATM    7  C7  UNL     1     -33.473   6.076   1.621  1.00 20.00    -0.012 C 
HETATM    8  C8  UNL     1     -32.311   8.411   2.533  1.00 20.00     0.014 C 
HETATM    9  C9  UNL     1     -33.096   8.579   1.223  1.00 20.00     0.122 C 
ENDROOT
BRANCH   9  10
HETATM   10  O10 UNL     1     -32.296   9.263   0.262  1.00 20.00    -0.395 OA
HETATM   11  H26 UNL     1     -32.411   8.793  -0.579  1.00 20.00     0.210 HD
ENDBRANCH   9  10
TORSDOF 1
ENDMDL
