MODEL 1
REMARK VINA RESULT:      -2.3      0.000      0.000
REMARK  3 active torsions:
REMARK  status: ('A' for Active; 'I' for Inactive)
REMARK    1  A    between atoms: C1_1  and  C7_7 
REMARK    2  A    between atoms: C1_1  and  C9_9 
REMARK    3  A    between atoms: C8_8  and  C9_9 
ROOT
HETATM    1  C1  UNL     1     -32.841   6.646   2.207  1.00 20.00     0.131 C 
HETATM    2  O10 UNL     1     -32.949   5.768   1.351  1.00 20.00    -0.298 OA
ENDROOT
BRANCH   1   3
HETATM    3  C7  UNL     1     -33.487   6.496   3.559  1.00 20.00     0.055 A 
HETATM    4  C3  UNL     1     -34.168   7.679   4.145  1.00 20.00     0.013 A 
HETATM    5  C4  UNL     1     -34.970   6.522   3.631  1.00 20.00     0.013 A 
ENDBRANCH   1   3
BRANCH   1   6
HETATM    6  C9  UNL     1     -32.062   7.928   1.974  1.00 20.00     0.083 C 
BRANCH   6   7
HETATM    7  C8  UNL     1     -32.669   8.794   0.890  1.00 20.00    -0.008 C 
HETATM    8  C5  UNL     1     -31.737   9.198  -0.282  1.00 20.00     0.005 C 
HETATM    9  C2  UNL     1     -32.454  10.565  -0.284  1.00 20.00     0.001 C 
HETATM   10  C6  UNL     1     -32.794  10.309   1.198  1.00 20.00     0.005 C 
ENDBRANCH   6   7
ENDBRANCH   1   6
TORSDOF 3
ENDMDL
MODEL 2
REMARK VINA RESULT:      -2.2      1.022      4.356
REMARK  3 active torsions:
REMARK  status: ('A' for Active; 'I' for Inactive)
REMARK    1  A    between atoms: C1_1  and  C7_7 
REMARK    2  A    between atoms: C1_1  and  C9_9 
REMARK    3  A    between atoms: C8_8  and  C9_9 
ROOT
HETATM    1  C1  UNL     1     -31.905   7.916   1.534  1.00 20.00     0.131 C 
HETATM    2  O10 UNL     1     -31.622   6.811   1.072  1.00 20.00    -0.298 OA
ENDROOT
BRANCH   1   3
HETATM    3  C7  UNL     1     -31.685   9.172   0.732  1.00 20.00     0.055 A 
HETATM    4  C3  UNL     1     -32.618   9.458  -0.388  1.00 20.00     0.013 A 
HETATM    5  C4  UNL     1     -32.674  10.271   0.871  1.00 20.00     0.013 A 
ENDBRANCH   1   3
BRANCH   1   6
HETATM    6  C9  UNL     1     -32.488   8.101   2.924  1.00 20.00     0.083 C 
BRANCH   6   7
HETATM    7  C8  UNL     1     -33.872   7.501   3.063  1.00 20.00    -0.008 C 
HETATM    8  C5  UNL     1     -34.492   7.504   4.485  1.00 20.00     0.005 C 
HETATM    9  C2  UNL     1     -35.102   6.129   4.141  1.00 20.00     0.001 C 
HETATM   10  C6  UNL     1     -33.956   5.953   3.123  1.00 20.00     0.005 C 
ENDBRANCH   6   7
ENDBRANCH   1   6
TORSDOF 3
ENDMDL
MODEL 3
REMARK VINA RESULT:      -2.1      1.298      4.478
REMARK  3 active torsions:
REMARK  status: ('A' for Active; 'I' for Inactive)
REMARK    1  A    between atoms: C1_1  and  C7_7 
REMARK    2  A    between atoms: C1_1  and  C9_9 
REMARK    3  A    between atoms: C8_8  and  C9_9 
ROOT
HETATM    1  C1  UNL     1     -32.048   8.027   1.799  1.00 20.00     0.131 C 
HETATM    2  O10 UNL     1     -31.199   8.539   2.529  1.00 20.00    -0.298 OA
ENDROOT
BRANCH   1   3
HETATM    3  C7  UNL     1     -32.708   8.820   0.702  1.00 20.00     0.055 A 
HETATM    4  C3  UNL     1     -32.657  10.302   0.782  1.00 20.00     0.013 A 
HETATM    5  C4  UNL     1     -31.836   9.572  -0.238  1.00 20.00     0.013 A 
ENDBRANCH   1   3
BRANCH   1   6
HETATM    6  C9  UNL     1     -32.490   6.581   1.942  1.00 20.00     0.083 C 
BRANCH   6   7
HETATM    7  C8  UNL     1     -33.887   6.449   2.512  1.00 20.00    -0.008 C 
HETATM    8  C5  UNL     1     -34.227   7.344   3.733  1.00 20.00     0.005 C 
HETATM    9  C2  UNL     1     -35.053   6.159   4.277  1.00 20.00     0.001 C 
HETATM   10  C6  UNL     1     -34.146   5.234   3.441  1.00 20.00     0.005 C 
ENDBRANCH   6   7
ENDBRANCH   1   6
TORSDOF 3
ENDMDL
MODEL 4
REMARK VINA RESULT:      -1.9      1.260      4.608
REMARK  3 active torsions:
REMARK  status: ('A' for Active; 'I' for Inactive)
REMARK    1  A    between atoms: C1_1  and  C7_7 
REMARK    2  A    between atoms: C1_1  and  C9_9 
REMARK    3  A    between atoms: C8_8  and  C9_9 
ROOT
HETATM    1  C1  UNL     1     -32.287   7.939   1.804  1.00 20.00     0.131 C 
HETATM    2  O10 UNL     1     -31.494   8.368   2.641  1.00 20.00    -0.298 OA
ENDROOT
BRANCH   1   3
HETATM    3  C7  UNL     1     -32.653   8.756   0.592  1.00 20.00     0.055 A 
HETATM    4  C3  UNL     1     -32.619  10.236   0.710  1.00 20.00     0.013 A 
HETATM    5  C4  UNL     1     -31.574   9.517  -0.089  1.00 20.00     0.013 A 
ENDBRANCH   1   3
BRANCH   1   6
HETATM    6  C9  UNL     1     -32.948   6.577   1.920  1.00 20.00     0.083 C 
BRANCH   6   7
HETATM    7  C8  UNL     1     -33.533   6.324   3.294  1.00 20.00    -0.008 C 
HETATM    8  C5  UNL     1     -34.133   4.917   3.546  1.00 20.00     0.005 C 
HETATM    9  C2  UNL     1     -35.220   5.613   4.391  1.00 20.00     0.001 C 
HETATM   10  C6  UNL     1     -34.955   6.883   3.557  1.00 20.00     0.005 C 
ENDBRANCH   6   7
ENDBRANCH   1   6
TORSDOF 3
ENDMDL
MODEL 5
REMARK VINA RESULT:      -1.8      0.691      1.312
REMARK  3 active torsions:
REMARK  status: ('A' for Active; 'I' for Inactive)
REMARK    1  A    between atoms: C1_1  and  C7_7 
REMARK    2  A    between atoms: C1_1  and  C9_9 
REMARK    3  A    between atoms: C8_8  and  C9_9 
ROOT
HETATM    1  C1  UNL     1     -32.881   7.089   2.107  1.00 20.00     0.131 C 
HETATM    2  O10 UNL     1     -32.861   6.033   1.476  1.00 20.00    -0.298 OA
ENDROOT
BRANCH   1   3
HETATM    3  C7  UNL     1     -34.094   7.495   2.902  1.00 20.00     0.055 A 
HETATM    4  C3  UNL     1     -34.704   6.490   3.810  1.00 20.00     0.013 A 
HETATM    5  C4  UNL     1     -33.945   7.654   4.371  1.00 20.00     0.013 A 
ENDBRANCH   1   3
BRANCH   1   6
HETATM    6  C9  UNL     1     -31.706   8.050   2.137  1.00 20.00     0.083 C 
BRANCH   6   7
HETATM    7  C8  UNL     1     -31.696   9.001   0.958  1.00 20.00    -0.008 C 
HETATM    8  C5  UNL     1     -32.601  10.256   1.068  1.00 20.00     0.005 C 
HETATM    9  C2  UNL     1     -32.885  10.093  -0.440  1.00 20.00     0.001 C 
HETATM   10  C6  UNL     1     -32.556   8.596  -0.268  1.00 20.00     0.005 C 
ENDBRANCH   6   7
ENDBRANCH   1   6
TORSDOF 3
ENDMDL
MODEL 6
REMARK VINA RESULT:      -1.7      1.536      1.687
REMARK  3 active torsions:
REMARK  status: ('A' for Active; 'I' for Inactive)
REMARK    1  A    between atoms: C1_1  and  C7_7 
REMARK    2  A    between atoms: C1_1  and  C9_9 
REMARK    3  A    between atoms: C8_8  and  C9_9 
ROOT
HETATM    1  C1  UNL     1     -33.195   7.704   3.586  1.00 20.00     0.131 C 
HETATM    2  O10 UNL     1     -33.278   8.179   4.718  1.00 20.00    -0.298 OA
ENDROOT
BRANCH   1   3
HETATM    3  C7  UNL     1     -34.206   6.705   3.088  1.00 20.00     0.055 A 
HETATM    4  C3  UNL     1     -34.211   5.351   3.701  1.00 20.00     0.013 A 
HETATM    5  C4  UNL     1     -35.315   6.321   3.998  1.00 20.00     0.013 A 
ENDBRANCH   1   3
BRANCH   1   6
HETATM    6  C9  UNL     1     -32.090   8.082   2.616  1.00 20.00     0.083 C 
BRANCH   6   7
HETATM    7  C8  UNL     1     -32.620   8.597   1.294  1.00 20.00    -0.008 C 
HETATM    8  C5  UNL     1     -31.588   8.772   0.150  1.00 20.00     0.005 C 
HETATM    9  C2  UNL     1     -32.376  10.031  -0.269  1.00 20.00     0.001 C 
HETATM   10  C6  UNL     1     -32.864  10.125   1.191  1.00 20.00     0.005 C 
ENDBRANCH   6   7
ENDBRANCH   1   6
TORSDOF 3
ENDMDL
MODEL 7
REMARK VINA RESULT:      -1.7      2.506      3.719
REMARK  3 active torsions:
REMARK  status: ('A' for Active; 'I' for Inactive)
REMARK    1  A    between atoms: C1_1  and  C7_7 
REMARK    2  A    between atoms: C1_1  and  C9_9 
REMARK    3  A    between atoms: C8_8  and  C9_9 
ROOT
HETATM    1  C1  UNL     1     -34.562   4.875   4.192  1.00 20.00     0.131 C 
HETATM    2  O10 UNL     1     -35.546   4.536   4.848  1.00 20.00    -0.298 OA
ENDROOT
BRANCH   1   3
HETATM    3  C7  UNL     1     -33.366   3.969   4.062  1.00 20.00     0.055 A 
HETATM    4  C3  UNL     1     -32.783   3.397   5.303  1.00 20.00     0.013 A 
HETATM    5  C4  UNL     1     -33.550   2.524   4.355  1.00 20.00     0.013 A 
ENDBRANCH   1   3
BRANCH   1   6
HETATM    6  C9  UNL     1     -34.474   6.210   3.473  1.00 20.00     0.083 C 
BRANCH   6   7
HETATM    7  C8  UNL     1     -33.074   6.524   2.989  1.00 20.00    -0.008 C 
HETATM    8  C5  UNL     1     -32.734   8.020   2.765  1.00 20.00     0.005 C 
HETATM    9  C2  UNL     1     -31.897   7.572   1.549  1.00 20.00     0.001 C 
HETATM   10  C6  UNL     1     -32.801   6.325   1.475  1.00 20.00     0.005 C 
ENDBRANCH   6   7
ENDBRANCH   1   6
TORSDOF 3
ENDMDL
MODEL 8
REMARK VINA RESULT:      -1.3      1.360      4.489
REMARK  3 active torsions:
REMARK  status: ('A' for Active; 'I' for Inactive)
REMARK    1  A    between atoms: C1_1  and  C7_7 
REMARK    2  A    between atoms: C1_1  and  C9_9 
REMARK    3  A    between atoms: C8_8  and  C9_9 
ROOT
HETATM    1  C1  UNL     1     -32.225   6.225   1.540  1.00 20.00     0.131 C 
HETATM    2  O10 UNL     1     -31.652   5.177   1.243  1.00 20.00    -0.298 OA
ENDROOT
BRANCH   1   3
HETATM    3  C7  UNL     1     -31.485   7.537   1.554  1.00 20.00     0.055 A 
HETATM    4  C3  UNL     1     -32.195   8.745   1.061  1.00 20.00     0.013 A 
HETATM    5  C4  UNL     1     -31.921   8.573   2.525  1.00 20.00     0.013 A 
ENDBRANCH   1   3
BRANCH   1   6
HETATM    6  C9  UNL     1     -33.697   6.280   1.908  1.00 20.00     0.083 C 
BRANCH   6   7
HETATM    7  C8  UNL     1     -33.947   5.983   3.371  1.00 20.00    -0.008 C 
HETATM    8  C5  UNL     1     -34.185   4.497   3.749  1.00 20.00     0.005 C 
HETATM    9  C2  UNL     1     -35.213   5.001   4.783  1.00 20.00     0.001 C 
HETATM   10  C6  UNL     1     -35.379   6.257   3.902  1.00 20.00     0.005 C 
ENDBRANCH   6   7
ENDBRANCH   1   6
TORSDOF 3
ENDMDL
MODEL 9
REMARK VINA RESULT:      -1.1      1.396      2.126
REMARK  3 active torsions:
REMARK  status: ('A' for Active; 'I' for Inactive)
REMARK    1  A    between atoms: C1_1  and  C7_7 
REMARK    2  A    between atoms: C1_1  and  C9_9 
REMARK    3  A    between atoms: C8_8  and  C9_9 
ROOT
HETATM    1  C1  UNL     1     -33.022   7.151   2.757  1.00 20.00     0.131 C 
HETATM    2  O10 UNL     1     -33.777   7.476   3.673  1.00 20.00    -0.298 OA
ENDROOT
BRANCH   1   3
HETATM    3  C7  UNL     1     -33.008   5.742   2.226  1.00 20.00     0.055 A 
HETATM    4  C3  UNL     1     -33.267   5.538   0.777  1.00 20.00     0.013 A 
HETATM    5  C4  UNL     1     -31.889   5.343   1.334  1.00 20.00     0.013 A 
ENDBRANCH   1   3
BRANCH   1   6
HETATM    6  C9  UNL     1     -32.061   8.126   2.098  1.00 20.00     0.083 C 
BRANCH   6   7
HETATM    7  C8  UNL     1     -32.697   8.898   0.961  1.00 20.00    -0.008 C 
HETATM    8  C5  UNL     1     -31.818   9.138  -0.294  1.00 20.00     0.005 C 
HETATM    9  C2  UNL     1     -32.486  10.525  -0.405  1.00 20.00     0.001 C 
HETATM   10  C6  UNL     1     -32.751  10.441   1.113  1.00 20.00     0.005 C 
ENDBRANCH   6   7
ENDBRANCH   1   6
TORSDOF 3
ENDMDL
