MODEL 1
REMARK VINA RESULT:      -1.4      0.000      0.000
REMARK  2 active torsions:
REMARK  status: ('A' for Active; 'I' for Inactive)
REMARK    1  A    between atoms: C1_1  and  C2_2 
REMARK    2  A    between atoms: C2_2  and  O3_3 
ROOT
HETATM    1  C2  UNL     1     -34.699   6.321   3.718  1.00 20.00     0.226 C 
HETATM    2 CL5  UNL     1     -33.997   7.636   4.694  1.00 20.00    -0.070 Cl
HETATM    3 CL6  UNL     1     -33.577   5.935   2.382  1.00 20.00    -0.070 Cl
ENDROOT
BRANCH   1   4
HETATM    4  C1  UNL     1     -34.947   5.061   4.545  1.00 20.00     0.187 C 
HETATM    5 CL4  UNL     1     -33.795   3.750   4.159  1.00 20.00    -0.125 Cl
ENDBRANCH   1   4
BRANCH   1   6
HETATM    6  O3  UNL     1     -35.917   6.772   3.144  1.00 20.00    -0.361 OA
HETATM    7  H9  UNL     1     -35.709   7.047   2.236  1.00 20.00     0.213 HD
ENDBRANCH   1   6
TORSDOF 2
ENDMDL
MODEL 2
REMARK VINA RESULT:      -1.3      1.280      2.817
REMARK  2 active torsions:
REMARK  status: ('A' for Active; 'I' for Inactive)
REMARK    1  A    between atoms: C1_1  and  C2_2 
REMARK    2  A    between atoms: C2_2  and  O3_3 
ROOT
HETATM    1  C2  UNL     1     -34.374   6.362   3.567  1.00 20.00     0.226 C 
HETATM    2 CL5  UNL     1     -34.300   4.776   4.375  1.00 20.00    -0.070 Cl
HETATM    3 CL6  UNL     1     -33.790   7.614   4.701  1.00 20.00    -0.070 Cl
ENDROOT
BRANCH   1   4
HETATM    4  C1  UNL     1     -33.527   6.401   2.298  1.00 20.00     0.187 C 
HETATM    5 CL4  UNL     1     -32.416   7.801   2.257  1.00 20.00    -0.125 Cl
ENDBRANCH   1   4
BRANCH   1   6
HETATM    6  O3  UNL     1     -35.728   6.658   3.255  1.00 20.00    -0.361 OA
HETATM    7  H9  UNL     1     -35.833   6.496   2.303  1.00 20.00     0.213 HD
ENDBRANCH   1   6
TORSDOF 2
ENDMDL
MODEL 3
REMARK VINA RESULT:      -1.1      3.154      3.843
REMARK  2 active torsions:
REMARK  status: ('A' for Active; 'I' for Inactive)
REMARK    1  A    between atoms: C1_1  and  C2_2 
REMARK    2  A    between atoms: C2_2  and  O3_3 
ROOT
HETATM    1  C2  UNL     1     -32.326   7.712   1.996  1.00 20.00     0.226 C 
HETATM    2 CL5  UNL     1     -32.782   6.131   1.312  1.00 20.00    -0.070 Cl
HETATM    3 CL6  UNL     1     -32.695   8.986   0.797  1.00 20.00    -0.070 Cl
ENDROOT
BRANCH   1   4
HETATM    4  C1  UNL     1     -33.070   8.013   3.294  1.00 20.00     0.187 C 
HETATM    5 CL4  UNL     1     -34.326   6.795   3.663  1.00 20.00    -0.125 Cl
ENDBRANCH   1   4
BRANCH   1   6
HETATM    6  O3  UNL     1     -30.924   7.727   2.226  1.00 20.00    -0.361 OA
HETATM    7  H9  UNL     1     -30.729   6.961   2.790  1.00 20.00     0.213 HD
ENDBRANCH   1   6
TORSDOF 2
ENDMDL
MODEL 4
REMARK VINA RESULT:      -1.1      2.490      3.027
REMARK  2 active torsions:
REMARK  status: ('A' for Active; 'I' for Inactive)
REMARK    1  A    between atoms: C1_1  and  C2_2 
REMARK    2  A    between atoms: C2_2  and  O3_3 
ROOT
HETATM    1  C2  UNL     1     -32.851   6.291   1.719  1.00 20.00     0.226 C 
HETATM    2 CL5  UNL     1     -32.048   7.879   1.825  1.00 20.00    -0.070 Cl
HETATM    3 CL6  UNL     1     -31.611   5.039   1.420  1.00 20.00    -0.070 Cl
ENDROOT
BRANCH   1   4
HETATM    4  C1  UNL     1     -33.613   5.946   2.996  1.00 20.00     0.187 C 
HETATM    5 CL4  UNL     1     -34.159   7.400   3.882  1.00 20.00    -0.125 Cl
ENDBRANCH   1   4
BRANCH   1   6
HETATM    6  O3  UNL     1     -33.738   6.296   0.611  1.00 20.00    -0.361 OA
HETATM    7  H9  UNL     1     -34.187   7.157   0.621  1.00 20.00     0.213 HD
ENDBRANCH   1   6
TORSDOF 2
ENDMDL
MODEL 5
REMARK VINA RESULT:      -1.0      2.274      2.834
REMARK  2 active torsions:
REMARK  status: ('A' for Active; 'I' for Inactive)
REMARK    1  A    between atoms: C1_1  and  C2_2 
REMARK    2  A    between atoms: C2_2  and  O3_3 
ROOT
HETATM    1  C2  UNL     1     -34.160   6.472   3.494  1.00 20.00     0.226 C 
HETATM    2 CL5  UNL     1     -33.600   7.735   4.618  1.00 20.00    -0.070 Cl
HETATM    3 CL6  UNL     1     -35.911   6.691   3.209  1.00 20.00    -0.070 Cl
ENDROOT
BRANCH   1   4
HETATM    4  C1  UNL     1     -33.424   6.525   2.157  1.00 20.00     0.187 C 
HETATM    5 CL4  UNL     1     -32.237   7.860   2.081  1.00 20.00    -0.125 Cl
ENDBRANCH   1   4
BRANCH   1   6
HETATM    6  O3  UNL     1     -33.975   5.200   4.099  1.00 20.00    -0.361 OA
HETATM    7  H9  UNL     1     -33.257   5.305   4.745  1.00 20.00     0.213 HD
ENDBRANCH   1   6
TORSDOF 2
ENDMDL
MODEL 6
REMARK VINA RESULT:      -1.0      2.826      3.581
REMARK  2 active torsions:
REMARK  status: ('A' for Active; 'I' for Inactive)
REMARK    1  A    between atoms: C1_1  and  C2_2 
REMARK    2  A    between atoms: C2_2  and  O3_3 
ROOT
HETATM    1  C2  UNL     1     -32.828   6.179   1.692  1.00 20.00     0.226 C 
HETATM    2 CL5  UNL     1     -33.837   6.001   0.234  1.00 20.00    -0.070 Cl
HETATM    3 CL6  UNL     1     -32.179   7.844   1.742  1.00 20.00    -0.070 Cl
ENDROOT
BRANCH   1   4
HETATM    4  C1  UNL     1     -33.614   5.909   2.972  1.00 20.00     0.187 C 
HETATM    5 CL4  UNL     1     -34.065   7.411   3.830  1.00 20.00    -0.125 Cl
ENDBRANCH   1   4
BRANCH   1   6
HETATM    6  O3  UNL     1     -31.725   5.288   1.602  1.00 20.00    -0.361 OA
HETATM    7  H9  UNL     1     -31.548   5.164   0.655  1.00 20.00     0.213 HD
ENDBRANCH   1   6
TORSDOF 2
ENDMDL
MODEL 7
REMARK VINA RESULT:      -1.0      2.051      2.971
REMARK  2 active torsions:
REMARK  status: ('A' for Active; 'I' for Inactive)
REMARK    1  A    between atoms: C1_1  and  C2_2 
REMARK    2  A    between atoms: C2_2  and  O3_3 
ROOT
HETATM    1  C2  UNL     1     -34.069   6.362   3.390  1.00 20.00     0.226 C 
HETATM    2 CL5  UNL     1     -35.807   6.733   3.266  1.00 20.00    -0.070 Cl
HETATM    3 CL6  UNL     1     -33.877   4.726   4.084  1.00 20.00    -0.070 Cl
ENDROOT
BRANCH   1   4
HETATM    4  C1  UNL     1     -33.371   6.417   2.034  1.00 20.00     0.187 C 
HETATM    5 CL4  UNL     1     -32.196   7.760   1.920  1.00 20.00    -0.125 Cl
ENDBRANCH   1   4
BRANCH   1   6
HETATM    6  O3  UNL     1     -33.463   7.285   4.284  1.00 20.00    -0.361 OA
HETATM    7  H9  UNL     1     -32.649   7.593   3.853  1.00 20.00     0.213 HD
ENDBRANCH   1   6
TORSDOF 2
ENDMDL
MODEL 8
REMARK VINA RESULT:      -1.0      3.534      3.960
REMARK  2 active torsions:
REMARK  status: ('A' for Active; 'I' for Inactive)
REMARK    1  A    between atoms: C1_1  and  C2_2 
REMARK    2  A    between atoms: C2_2  and  O3_3 
ROOT
HETATM    1  C2  UNL     1     -32.184   8.053   2.107  1.00 20.00     0.226 C 
HETATM    2 CL5  UNL     1     -32.602   9.311   0.917  1.00 20.00    -0.070 Cl
HETATM    3 CL6  UNL     1     -33.615   7.728   3.127  1.00 20.00    -0.070 Cl
ENDROOT
BRANCH   1   4
HETATM    4  C1  UNL     1     -31.740   6.754   1.438  1.00 20.00     0.187 C 
HETATM    5 CL4  UNL     1     -32.997   5.485   1.503  1.00 20.00    -0.125 Cl
ENDBRANCH   1   4
BRANCH   1   6
HETATM    6  O3  UNL     1     -31.152   8.541   2.951  1.00 20.00    -0.361 OA
HETATM    7  H9  UNL     1     -30.312   8.271   2.544  1.00 20.00     0.213 HD
ENDBRANCH   1   6
TORSDOF 2
ENDMDL
MODEL 9
REMARK VINA RESULT:      -0.9      1.506      1.927
REMARK  2 active torsions:
REMARK  status: ('A' for Active; 'I' for Inactive)
REMARK    1  A    between atoms: C1_1  and  C2_2 
REMARK    2  A    between atoms: C2_2  and  O3_3 
ROOT
HETATM    1  C2  UNL     1     -34.688   6.303   3.688  1.00 20.00     0.226 C 
HETATM    2 CL5  UNL     1     -36.203   6.883   2.951  1.00 20.00    -0.070 Cl
HETATM    3 CL6  UNL     1     -33.998   7.614   4.690  1.00 20.00    -0.070 Cl
ENDROOT
BRANCH   1   4
HETATM    4  C1  UNL     1     -34.908   5.069   4.559  1.00 20.00     0.187 C 
HETATM    5 CL4  UNL     1     -33.788   3.736   4.154  1.00 20.00    -0.125 Cl
ENDBRANCH   1   4
BRANCH   1   6
HETATM    6  O3  UNL     1     -33.756   6.010   2.657  1.00 20.00    -0.361 OA
HETATM    7  H9  UNL     1     -33.743   5.043   2.565  1.00 20.00     0.213 HD
ENDBRANCH   1   6
TORSDOF 2
ENDMDL
