MODEL 1
REMARK VINA RESULT:      -2.3      0.000      0.000
REMARK  5 active torsions:
REMARK  status: ('A' for Active; 'I' for Inactive)
REMARK    1  A    between atoms: C3_3  and  C8_8 
REMARK    2  A    between atoms: C6_6  and  C7_7 
REMARK    3  A    between atoms: C7_7  and  C9_9 
REMARK    4  A    between atoms: C8_8  and  C9_9 
REMARK    5  A    between atoms: C8_8  and  O10_10 
ROOT
HETATM    1  C8  UNL     1     -32.363   8.231   1.771  1.00 20.00     0.126 C 
ENDROOT
BRANCH   1   2
HETATM    2  C3  UNL     1     -32.844   9.087   0.634  1.00 20.00     0.015 A 
HETATM    3  C1  UNL     1     -32.635  10.575   0.665  1.00 20.00     0.007 A 
HETATM    4  C2  UNL     1     -31.857   9.726  -0.302  1.00 20.00     0.007 A 
ENDBRANCH   1   2
BRANCH   1   5
HETATM    5  C9  UNL     1     -33.289   7.043   2.124  1.00 20.00     0.011 C 
HETATM    6  C5  UNL     1     -32.693   5.687   1.721  1.00 20.00     0.012 C 
BRANCH   5   7
HETATM    7  C7  UNL     1     -33.691   7.080   3.614  1.00 20.00     0.006 C 
BRANCH   7   8
HETATM    8  C6  UNL     1     -35.097   6.531   3.876  1.00 20.00    -0.004 C 
HETATM    9  C4  UNL     1     -35.047   5.100   4.390  1.00 20.00     0.005 C 
ENDBRANCH   7   8
ENDBRANCH   5   7
ENDBRANCH   1   5
BRANCH   1  10
HETATM   10  O10 UNL     1     -31.066   7.719   1.454  1.00 20.00    -0.395 OA
HETATM   11  H28 UNL     1     -31.051   6.802   1.767  1.00 20.00     0.210 HD
ENDBRANCH   1  10
TORSDOF 5
ENDMDL
MODEL 2
REMARK VINA RESULT:      -2.1      1.431      4.811
REMARK  5 active torsions:
REMARK  status: ('A' for Active; 'I' for Inactive)
REMARK    1  A    between atoms: C3_3  and  C8_8 
REMARK    2  A    between atoms: C6_6  and  C7_7 
REMARK    3  A    between atoms: C7_7  and  C9_9 
REMARK    4  A    between atoms: C8_8  and  C9_9 
REMARK    5  A    between atoms: C8_8  and  O10_10 
ROOT
HETATM    1  C8  UNL     1     -33.390   6.860   3.573  1.00 20.00     0.126 C 
ENDROOT
BRANCH   1   2
HETATM    2  C3  UNL     1     -34.395   5.763   3.367  1.00 20.00     0.015 A 
HETATM    3  C1  UNL     1     -34.295   4.487   4.154  1.00 20.00     0.007 A 
HETATM    4  C2  UNL     1     -35.409   5.457   4.433  1.00 20.00     0.007 A 
ENDBRANCH   1   2
BRANCH   1   5
HETATM    5  C9  UNL     1     -32.397   7.058   2.403  1.00 20.00     0.011 C 
HETATM    6  C5  UNL     1     -32.691   6.132   1.214  1.00 20.00     0.012 C 
BRANCH   5   7
HETATM    7  C7  UNL     1     -32.330   8.540   1.980  1.00 20.00     0.006 C 
BRANCH   7   8
HETATM    8  C6  UNL     1     -31.947   8.735   0.510  1.00 20.00    -0.004 C 
HETATM    9  C4  UNL     1     -32.531  10.024  -0.050  1.00 20.00     0.005 C 
ENDBRANCH   7   8
ENDBRANCH   5   7
ENDBRANCH   1   5
BRANCH   1  10
HETATM   10  O10 UNL     1     -34.081   8.092   3.797  1.00 20.00    -0.395 OA
HETATM   11  H28 UNL     1     -34.876   8.062   3.245  1.00 20.00     0.210 HD
ENDBRANCH   1  10
TORSDOF 5
ENDMDL
MODEL 3
REMARK VINA RESULT:      -2.1      1.067      4.434
REMARK  5 active torsions:
REMARK  status: ('A' for Active; 'I' for Inactive)
REMARK    1  A    between atoms: C3_3  and  C8_8 
REMARK    2  A    between atoms: C6_6  and  C7_7 
REMARK    3  A    between atoms: C7_7  and  C9_9 
REMARK    4  A    between atoms: C8_8  and  C9_9 
REMARK    5  A    between atoms: C8_8  and  O10_10 
ROOT
HETATM    1  C8  UNL     1     -33.164   6.890   1.979  1.00 20.00     0.126 C 
ENDROOT
BRANCH   1   2
HETATM    2  C3  UNL     1     -33.601   6.554   3.377  1.00 20.00     0.015 A 
HETATM    3  C1  UNL     1     -34.321   7.576   4.211  1.00 20.00     0.007 A 
HETATM    4  C2  UNL     1     -35.059   6.374   3.690  1.00 20.00     0.007 A 
ENDBRANCH   1   2
BRANCH   1   5
HETATM    5  C9  UNL     1     -32.354   8.202   1.851  1.00 20.00     0.011 C 
HETATM    6  C5  UNL     1     -31.215   8.297   2.876  1.00 20.00     0.012 C 
BRANCH   5   7
HETATM    7  C7  UNL     1     -31.851   8.403   0.406  1.00 20.00     0.006 C 
BRANCH   7   8
HETATM    8  C6  UNL     1     -32.503   9.593  -0.303  1.00 20.00    -0.004 C 
HETATM    9  C4  UNL     1     -32.768  10.738   0.665  1.00 20.00     0.005 C 
ENDBRANCH   7   8
ENDBRANCH   5   7
ENDBRANCH   1   5
BRANCH   1  10
HETATM   10  O10 UNL     1     -32.374   5.815   1.465  1.00 20.00    -0.395 OA
HETATM   11  H28 UNL     1     -31.943   5.404   2.229  1.00 20.00     0.210 HD
ENDBRANCH   1  10
TORSDOF 5
ENDMDL
MODEL 4
REMARK VINA RESULT:      -2.0      2.575      5.443
REMARK  5 active torsions:
REMARK  status: ('A' for Active; 'I' for Inactive)
REMARK    1  A    between atoms: C3_3  and  C8_8 
REMARK    2  A    between atoms: C6_6  and  C7_7 
REMARK    3  A    between atoms: C7_7  and  C9_9 
REMARK    4  A    between atoms: C8_8  and  C9_9 
REMARK    5  A    between atoms: C8_8  and  O10_10 
ROOT
HETATM    1  C8  UNL     1     -34.347   5.160   4.359  1.00 20.00     0.126 C 
ENDROOT
BRANCH   1   2
HETATM    2  C3  UNL     1     -33.602   3.964   3.839  1.00 20.00     0.015 A 
HETATM    3  C1  UNL     1     -32.321   3.527   4.492  1.00 20.00     0.007 A 
HETATM    4  C2  UNL     1     -33.562   2.692   4.638  1.00 20.00     0.007 A 
ENDBRANCH   1   2
BRANCH   1   5
HETATM    5  C9  UNL     1     -34.340   6.387   3.417  1.00 20.00     0.011 C 
HETATM    6  C5  UNL     1     -34.251   7.717   4.177  1.00 20.00     0.012 C 
BRANCH   5   7
HETATM    7  C7  UNL     1     -33.236   6.256   2.347  1.00 20.00     0.006 C 
BRANCH   7   8
HETATM    8  C6  UNL     1     -32.202   7.385   2.400  1.00 20.00    -0.004 C 
HETATM    9  C4  UNL     1     -32.237   8.230   1.135  1.00 20.00     0.005 C 
ENDBRANCH   7   8
ENDBRANCH   5   7
ENDBRANCH   1   5
BRANCH   1  10
HETATM   10  O10 UNL     1     -35.704   4.790   4.615  1.00 20.00    -0.395 OA
HETATM   11  H28 UNL     1     -35.877   4.000   4.082  1.00 20.00     0.210 HD
ENDBRANCH   1  10
TORSDOF 5
ENDMDL
MODEL 5
REMARK VINA RESULT:      -1.8      1.685      2.681
REMARK  5 active torsions:
REMARK  status: ('A' for Active; 'I' for Inactive)
REMARK    1  A    between atoms: C3_3  and  C8_8 
REMARK    2  A    between atoms: C6_6  and  C7_7 
REMARK    3  A    between atoms: C7_7  and  C9_9 
REMARK    4  A    between atoms: C8_8  and  C9_9 
REMARK    5  A    between atoms: C8_8  and  O10_10 
ROOT
HETATM    1  C8  UNL     1     -33.469   7.648   3.399  1.00 20.00     0.126 C 
ENDROOT
BRANCH   1   2
HETATM    2  C3  UNL     1     -32.839   7.434   2.052  1.00 20.00     0.015 A 
HETATM    3  C1  UNL     1     -32.395   8.610   1.229  1.00 20.00     0.007 A 
HETATM    4  C2  UNL     1     -31.374   7.698   1.852  1.00 20.00     0.007 A 
ENDBRANCH   1   2
BRANCH   1   5
HETATM    5  C9  UNL     1     -34.174   6.404   3.990  1.00 20.00     0.011 C 
HETATM    6  C5  UNL     1     -35.693   6.426   3.775  1.00 20.00     0.012 C 
BRANCH   5   7
HETATM    7  C7  UNL     1     -33.533   5.103   3.461  1.00 20.00     0.006 C 
BRANCH   7   8
HETATM    8  C6  UNL     1     -34.079   3.841   4.135  1.00 20.00    -0.004 C 
HETATM    9  C4  UNL     1     -32.973   3.061   4.832  1.00 20.00     0.005 C 
ENDBRANCH   7   8
ENDBRANCH   5   7
ENDBRANCH   1   5
BRANCH   1  10
HETATM   10  O10 UNL     1     -32.465   8.082   4.320  1.00 20.00    -0.395 OA
HETATM   11  H28 UNL     1     -32.176   8.955   4.016  1.00 20.00     0.210 HD
ENDBRANCH   1  10
TORSDOF 5
ENDMDL
MODEL 6
REMARK VINA RESULT:      -1.5      1.629      4.374
REMARK  5 active torsions:
REMARK  status: ('A' for Active; 'I' for Inactive)
REMARK    1  A    between atoms: C3_3  and  C8_8 
REMARK    2  A    between atoms: C6_6  and  C7_7 
REMARK    3  A    between atoms: C7_7  and  C9_9 
REMARK    4  A    between atoms: C8_8  and  C9_9 
REMARK    5  A    between atoms: C8_8  and  O10_10 
ROOT
HETATM    1  C8  UNL     1     -33.619   5.883   2.436  1.00 20.00     0.126 C 
ENDROOT
BRANCH   1   2
HETATM    2  C3  UNL     1     -34.479   6.917   3.105  1.00 20.00     0.015 A 
HETATM    3  C1  UNL     1     -35.406   6.524   4.221  1.00 20.00     0.007 A 
HETATM    4  C2  UNL     1     -34.184   7.350   4.513  1.00 20.00     0.007 A 
ENDBRANCH   1   2
BRANCH   1   5
HETATM    5  C9  UNL     1     -32.219   6.384   2.009  1.00 20.00     0.011 C 
HETATM    6  C5  UNL     1     -31.717   5.714   0.723  1.00 20.00     0.012 C 
BRANCH   5   7
HETATM    7  C7  UNL     1     -32.190   7.924   1.909  1.00 20.00     0.006 C 
BRANCH   7   8
HETATM    8  C6  UNL     1     -31.804   8.435   0.518  1.00 20.00    -0.004 C 
HETATM    9  C4  UNL     1     -32.411   9.803   0.241  1.00 20.00     0.005 C 
ENDBRANCH   7   8
ENDBRANCH   5   7
ENDBRANCH   1   5
BRANCH   1  10
HETATM   10  O10 UNL     1     -33.455   4.770   3.318  1.00 20.00    -0.395 OA
HETATM   11  H28 UNL     1     -32.502   4.607   3.377  1.00 20.00     0.210 HD
ENDBRANCH   1  10
TORSDOF 5
ENDMDL
MODEL 7
REMARK VINA RESULT:      -1.4      1.814      2.868
REMARK  5 active torsions:
REMARK  status: ('A' for Active; 'I' for Inactive)
REMARK    1  A    between atoms: C3_3  and  C8_8 
REMARK    2  A    between atoms: C6_6  and  C7_7 
REMARK    3  A    between atoms: C7_7  and  C9_9 
REMARK    4  A    between atoms: C8_8  and  C9_9 
REMARK    5  A    between atoms: C8_8  and  O10_10 
ROOT
HETATM    1  C8  UNL     1     -32.951   7.655   2.212  1.00 20.00     0.126 C 
ENDROOT
BRANCH   1   2
HETATM    2  C3  UNL     1     -32.316   6.650   1.294  1.00 20.00     0.015 A 
HETATM    3  C1  UNL     1     -31.950   5.285   1.803  1.00 20.00     0.007 A 
HETATM    4  C2  UNL     1     -33.092   5.446   0.838  1.00 20.00     0.007 A 
ENDBRANCH   1   2
BRANCH   1   5
HETATM    5  C9  UNL     1     -33.445   7.080   3.561  1.00 20.00     0.011 C 
HETATM    6  C5  UNL     1     -33.141   8.006   4.746  1.00 20.00     0.012 C 
BRANCH   5   7
HETATM    7  C7  UNL     1     -34.940   6.705   3.487  1.00 20.00     0.006 C 
BRANCH   7   8
HETATM    8  C6  UNL     1     -35.313   5.521   4.385  1.00 20.00    -0.004 C 
HETATM    9  C4  UNL     1     -34.309   4.385   4.251  1.00 20.00     0.005 C 
ENDBRANCH   7   8
ENDBRANCH   5   7
ENDBRANCH   1   5
BRANCH   1  10
HETATM   10  O10 UNL     1     -32.014   8.702   2.479  1.00 20.00    -0.395 OA
HETATM   11  H28 UNL     1     -32.041   9.294   1.713  1.00 20.00     0.210 HD
ENDBRANCH   1  10
TORSDOF 5
ENDMDL
MODEL 8
REMARK VINA RESULT:      -1.4      2.646      4.279
REMARK  5 active torsions:
REMARK  status: ('A' for Active; 'I' for Inactive)
REMARK    1  A    between atoms: C3_3  and  C8_8 
REMARK    2  A    between atoms: C6_6  and  C7_7 
REMARK    3  A    between atoms: C7_7  and  C9_9 
REMARK    4  A    between atoms: C8_8  and  C9_9 
REMARK    5  A    between atoms: C8_8  and  O10_10 
ROOT
HETATM    1  C8  UNL     1     -34.939   5.988   3.750  1.00 20.00     0.126 C 
ENDROOT
BRANCH   1   2
HETATM    2  C3  UNL     1     -34.743   7.313   4.431  1.00 20.00     0.015 A 
HETATM    3  C1  UNL     1     -33.367   7.756   4.843  1.00 20.00     0.007 A 
HETATM    4  C2  UNL     1     -34.069   8.444   3.705  1.00 20.00     0.007 A 
ENDBRANCH   1   2
BRANCH   1   5
HETATM    5  C9  UNL     1     -33.631   5.252   3.377  1.00 20.00     0.011 C 
HETATM    6  C5  UNL     1     -33.609   3.798   3.869  1.00 20.00     0.012 C 
BRANCH   5   7
HETATM    7  C7  UNL     1     -33.351   5.355   1.863  1.00 20.00     0.006 C 
BRANCH   7   8
HETATM    8  C6  UNL     1     -31.941   5.860   1.540  1.00 20.00    -0.004 C 
HETATM    9  C4  UNL     1     -31.903   7.379   1.450  1.00 20.00     0.005 C 
ENDBRANCH   7   8
ENDBRANCH   5   7
ENDBRANCH   1   5
BRANCH   1  10
HETATM   10  O10 UNL     1     -35.715   5.138   4.597  1.00 20.00    -0.395 OA
HETATM   11  H28 UNL     1     -35.271   5.131   5.458  1.00 20.00     0.210 HD
ENDBRANCH   1  10
TORSDOF 5
ENDMDL
MODEL 9
REMARK VINA RESULT:      -1.0      2.233      3.225
REMARK  5 active torsions:
REMARK  status: ('A' for Active; 'I' for Inactive)
REMARK    1  A    between atoms: C3_3  and  C8_8 
REMARK    2  A    between atoms: C6_6  and  C7_7 
REMARK    3  A    between atoms: C7_7  and  C9_9 
REMARK    4  A    between atoms: C8_8  and  C9_9 
REMARK    5  A    between atoms: C8_8  and  O10_10 
ROOT
HETATM    1  C8  UNL     1     -32.709   7.014   2.640  1.00 20.00     0.126 C 
ENDROOT
BRANCH   1   2
HETATM    2  C3  UNL     1     -33.774   7.810   3.338  1.00 20.00     0.015 A 
HETATM    3  C1  UNL     1     -34.892   7.112   4.059  1.00 20.00     0.007 A 
HETATM    4  C2  UNL     1     -33.833   7.840   4.840  1.00 20.00     0.007 A 
ENDBRANCH   1   2
BRANCH   1   5
HETATM    5  C9  UNL     1     -33.183   5.652   2.078  1.00 20.00     0.011 C 
HETATM    6  C5  UNL     1     -32.794   5.450   0.607  1.00 20.00     0.012 C 
BRANCH   5   7
HETATM    7  C7  UNL     1     -32.700   4.489   2.970  1.00 20.00     0.006 C 
BRANCH   7   8
HETATM    8  C6  UNL     1     -33.781   3.962   3.918  1.00 20.00    -0.004 C 
HETATM    9  C4  UNL     1     -33.236   2.875   4.833  1.00 20.00     0.005 C 
ENDBRANCH   7   8
ENDBRANCH   5   7
ENDBRANCH   1   5
BRANCH   1  10
HETATM   10  O10 UNL     1     -32.176   7.789   1.563  1.00 20.00    -0.395 OA
HETATM   11  H28 UNL     1     -32.235   8.716   1.839  1.00 20.00     0.210 HD
ENDBRANCH   1  10
TORSDOF 5
ENDMDL
