MODEL 1
REMARK VINA RESULT:      -1.8      0.000      0.000
REMARK  3 active torsions:
REMARK  status: ('A' for Active; 'I' for Inactive)
REMARK    1  A    between atoms: C2_2  and  C5_5 
REMARK    2  A    between atoms: C2_2  and  C8_8 
REMARK    3  A    between atoms: C7_7  and  C8_8 
ROOT
HETATM    1  C1  UNL     1     -32.791   6.079   1.690  1.00 20.00     0.071 C 
HETATM    2  C8  UNL     1     -33.168   7.423   2.168  1.00 20.00     0.162 C 
HETATM    3  N9  UNL     1     -32.498   5.022   1.312  1.00 20.00    -0.196 NA
ENDROOT
BRANCH   2   4
HETATM    4  C2  UNL     1     -31.992   8.384   2.094  1.00 20.00     0.148 C 
HETATM    5  O10 UNL     1     -31.253   8.646   3.036  1.00 20.00    -0.296 OA
BRANCH   4   6
HETATM    6  C5  UNL     1     -31.761   9.036   0.771  1.00 20.00     0.057 A 
HETATM    7  C3  UNL     1     -32.889   9.092  -0.204  1.00 20.00     0.013 A 
HETATM    8  C4  UNL     1     -32.434  10.339   0.494  1.00 20.00     0.013 A 
ENDBRANCH   4   6
ENDBRANCH   2   4
BRANCH   2   9
HETATM    9  C7  UNL     1     -33.767   7.375   3.582  1.00 20.00     0.022 C 
HETATM   10  C6  UNL     1     -34.941   6.414   3.744  1.00 20.00     0.007 C 
ENDBRANCH   2   9
TORSDOF 3
ENDMDL
MODEL 2
REMARK VINA RESULT:      -1.7      3.309      5.397
REMARK  3 active torsions:
REMARK  status: ('A' for Active; 'I' for Inactive)
REMARK    1  A    between atoms: C2_2  and  C5_5 
REMARK    2  A    between atoms: C2_2  and  C8_8 
REMARK    3  A    between atoms: C7_7  and  C8_8 
ROOT
HETATM    1  C1  UNL     1     -33.978   7.259   4.006  1.00 20.00     0.071 C 
HETATM    2  C8  UNL     1     -34.181   6.068   3.159  1.00 20.00     0.162 C 
HETATM    3  N9  UNL     1     -33.821   8.197   4.669  1.00 20.00    -0.196 NA
ENDROOT
BRANCH   2   4
HETATM    4  C2  UNL     1     -34.365   4.817   4.003  1.00 20.00     0.148 C 
HETATM    5  O10 UNL     1     -35.366   4.571   4.667  1.00 20.00    -0.296 OA
BRANCH   4   6
HETATM    6  C5  UNL     1     -33.225   3.852   4.004  1.00 20.00     0.057 A 
HETATM    7  C3  UNL     1     -32.729   3.336   5.313  1.00 20.00     0.013 A 
HETATM    8  C4  UNL     1     -33.494   2.436   4.389  1.00 20.00     0.013 A 
ENDBRANCH   4   6
ENDBRANCH   2   4
BRANCH   2   9
HETATM    9  C7  UNL     1     -33.046   5.896   2.139  1.00 20.00     0.022 C 
HETATM   10  C6  UNL     1     -32.318   7.186   1.772  1.00 20.00     0.007 C 
ENDBRANCH   2   9
TORSDOF 3
ENDMDL
MODEL 3
REMARK VINA RESULT:      -1.5      1.910      2.529
REMARK  3 active torsions:
REMARK  status: ('A' for Active; 'I' for Inactive)
REMARK    1  A    between atoms: C2_2  and  C5_5 
REMARK    2  A    between atoms: C2_2  and  C8_8 
REMARK    3  A    between atoms: C7_7  and  C8_8 
ROOT
HETATM    1  C1  UNL     1     -34.286   5.089   3.836  1.00 20.00     0.071 C 
HETATM    2  C8  UNL     1     -34.334   6.347   3.067  1.00 20.00     0.162 C 
HETATM    3  N9  UNL     1     -34.253   4.099   4.440  1.00 20.00    -0.196 NA
ENDROOT
BRANCH   2   4
HETATM    4  C2  UNL     1     -33.109   6.496   2.179  1.00 20.00     0.148 C 
HETATM    5  O10 UNL     1     -32.674   5.615   1.447  1.00 20.00    -0.296 OA
BRANCH   4   6
HETATM    6  C5  UNL     1     -32.412   7.816   2.238  1.00 20.00     0.057 A 
HETATM    7  C3  UNL     1     -31.159   7.997   1.448  1.00 20.00     0.013 A 
HETATM    8  C4  UNL     1     -32.424   8.680   1.021  1.00 20.00     0.013 A 
ENDBRANCH   4   6
ENDBRANCH   2   4
BRANCH   2   9
HETATM    9  C7  UNL     1     -34.515   7.566   3.983  1.00 20.00     0.022 C 
HETATM   10  C6  UNL     1     -33.410   7.755   5.019  1.00 20.00     0.007 C 
ENDBRANCH   2   9
TORSDOF 3
ENDMDL
MODEL 4
REMARK VINA RESULT:      -1.4      1.205      3.846
REMARK  3 active torsions:
REMARK  status: ('A' for Active; 'I' for Inactive)
REMARK    1  A    between atoms: C2_2  and  C5_5 
REMARK    2  A    between atoms: C2_2  and  C8_8 
REMARK    3  A    between atoms: C7_7  and  C8_8 
ROOT
HETATM    1  C1  UNL     1     -32.132   6.369   1.614  1.00 20.00     0.071 C 
HETATM    2  C8  UNL     1     -32.354   7.606   2.387  1.00 20.00     0.162 C 
HETATM    3  N9  UNL     1     -31.954   5.398   1.006  1.00 20.00    -0.196 NA
ENDROOT
BRANCH   2   4
HETATM    4  C2  UNL     1     -33.382   7.390   3.487  1.00 20.00     0.148 C 
HETATM    5  O10 UNL     1     -33.401   8.006   4.546  1.00 20.00    -0.296 OA
BRANCH   4   6
HETATM    6  C5  UNL     1     -34.415   6.344   3.223  1.00 20.00     0.057 A 
HETATM    7  C3  UNL     1     -34.411   5.110   4.063  1.00 20.00     0.013 A 
HETATM    8  C4  UNL     1     -35.490   6.136   4.238  1.00 20.00     0.013 A 
ENDBRANCH   4   6
ENDBRANCH   2   4
BRANCH   2   9
HETATM    9  C7  UNL     1     -32.741   8.782   1.479  1.00 20.00     0.022 C 
HETATM   10  C6  UNL     1     -31.729   9.100   0.382  1.00 20.00     0.007 C 
ENDBRANCH   2   9
TORSDOF 3
ENDMDL
MODEL 5
REMARK VINA RESULT:      -1.4      1.521      2.368
REMARK  3 active torsions:
REMARK  status: ('A' for Active; 'I' for Inactive)
REMARK    1  A    between atoms: C2_2  and  C5_5 
REMARK    2  A    between atoms: C2_2  and  C8_8 
REMARK    3  A    between atoms: C7_7  and  C8_8 
ROOT
HETATM    1  C1  UNL     1     -33.999   6.772   3.352  1.00 20.00     0.071 C 
HETATM    2  C8  UNL     1     -32.765   6.664   2.551  1.00 20.00     0.162 C 
HETATM    3  N9  UNL     1     -34.968   6.853   3.984  1.00 20.00    -0.196 NA
ENDROOT
BRANCH   2   4
HETATM    4  C2  UNL     1     -32.214   8.038   2.202  1.00 20.00     0.148 C 
HETATM    5  O10 UNL     1     -31.469   8.689   2.926  1.00 20.00    -0.296 OA
BRANCH   4   6
HETATM    6  C5  UNL     1     -32.638   8.599   0.884  1.00 20.00     0.057 A 
HETATM    7  C3  UNL     1     -32.612  10.079   0.698  1.00 20.00     0.013 A 
HETATM    8  C4  UNL     1     -31.599   9.216   0.008  1.00 20.00     0.013 A 
ENDBRANCH   4   6
ENDBRANCH   2   4
BRANCH   2   9
HETATM    9  C7  UNL     1     -32.976   5.807   1.295  1.00 20.00     0.022 C 
HETATM   10  C6  UNL     1     -31.771   4.963   0.889  1.00 20.00     0.007 C 
ENDBRANCH   2   9
TORSDOF 3
ENDMDL
MODEL 6
REMARK VINA RESULT:      -1.3      1.839      3.697
REMARK  3 active torsions:
REMARK  status: ('A' for Active; 'I' for Inactive)
REMARK    1  A    between atoms: C2_2  and  C5_5 
REMARK    2  A    between atoms: C2_2  and  C8_8 
REMARK    3  A    between atoms: C7_7  and  C8_8 
ROOT
HETATM    1  C1  UNL     1     -32.541   8.793   1.109  1.00 20.00     0.071 C 
HETATM    2  C8  UNL     1     -32.847   7.577   1.887  1.00 20.00     0.162 C 
HETATM    3  N9  UNL     1     -32.303   9.747   0.495  1.00 20.00    -0.196 NA
ENDROOT
BRANCH   2   4
HETATM    4  C2  UNL     1     -32.936   7.883   3.374  1.00 20.00     0.148 C 
HETATM    5  O10 UNL     1     -32.072   8.474   4.012  1.00 20.00    -0.296 OA
BRANCH   4   6
HETATM    6  C5  UNL     1     -34.170   7.408   4.068  1.00 20.00     0.057 A 
HETATM    7  C3  UNL     1     -35.300   6.893   3.241  1.00 20.00     0.013 A 
HETATM    8  C4  UNL     1     -34.472   5.947   4.058  1.00 20.00     0.013 A 
ENDBRANCH   4   6
ENDBRANCH   2   4
BRANCH   2   9
HETATM    9  C7  UNL     1     -31.839   6.454   1.604  1.00 20.00     0.022 C 
HETATM   10  C6  UNL     1     -32.458   5.157   1.089  1.00 20.00     0.007 C 
ENDBRANCH   2   9
TORSDOF 3
ENDMDL
MODEL 7
REMARK VINA RESULT:      -1.3      2.986      3.931
REMARK  3 active torsions:
REMARK  status: ('A' for Active; 'I' for Inactive)
REMARK    1  A    between atoms: C2_2  and  C5_5 
REMARK    2  A    between atoms: C2_2  and  C8_8 
REMARK    3  A    between atoms: C7_7  and  C8_8 
ROOT
HETATM    1  C1  UNL     1     -33.611   4.129   3.981  1.00 20.00     0.071 C 
HETATM    2  C8  UNL     1     -33.468   5.454   3.348  1.00 20.00     0.162 C 
HETATM    3  N9  UNL     1     -33.720   3.087   4.479  1.00 20.00    -0.196 NA
ENDROOT
BRANCH   2   4
HETATM    4  C2  UNL     1     -34.563   6.404   3.808  1.00 20.00     0.148 C 
HETATM    5  O10 UNL     1     -35.721   6.070   4.028  1.00 20.00    -0.296 OA
BRANCH   4   6
HETATM    6  C5  UNL     1     -34.161   7.832   3.983  1.00 20.00     0.057 A 
HETATM    7  C3  UNL     1     -33.171   8.169   5.047  1.00 20.00     0.013 A 
HETATM    8  C4  UNL     1     -32.774   8.231   3.603  1.00 20.00     0.013 A 
ENDBRANCH   4   6
ENDBRANCH   2   4
BRANCH   2   9
HETATM    9  C7  UNL     1     -33.421   5.350   1.817  1.00 20.00     0.022 C 
HETATM   10  C6  UNL     1     -32.044   5.587   1.205  1.00 20.00     0.007 C 
ENDBRANCH   2   9
TORSDOF 3
ENDMDL
MODEL 8
REMARK VINA RESULT:      -1.2      2.580      3.309
REMARK  3 active torsions:
REMARK  status: ('A' for Active; 'I' for Inactive)
REMARK    1  A    between atoms: C2_2  and  C5_5 
REMARK    2  A    between atoms: C2_2  and  C8_8 
REMARK    3  A    between atoms: C7_7  and  C8_8 
ROOT
HETATM    1  C1  UNL     1     -34.740   5.996   3.747  1.00 20.00     0.071 C 
HETATM    2  C8  UNL     1     -33.468   5.311   3.449  1.00 20.00     0.162 C 
HETATM    3  N9  UNL     1     -35.738   6.535   3.985  1.00 20.00    -0.196 NA
ENDROOT
BRANCH   2   4
HETATM    4  C2  UNL     1     -32.888   5.779   2.123  1.00 20.00     0.148 C 
HETATM    5  O10 UNL     1     -32.382   5.037   1.289  1.00 20.00    -0.296 OA
BRANCH   4   6
HETATM    6  C5  UNL     1     -32.951   7.248   1.861  1.00 20.00     0.057 A 
HETATM    7  C3  UNL     1     -32.077   8.153   2.664  1.00 20.00     0.013 A 
HETATM    8  C4  UNL     1     -31.777   7.905   1.216  1.00 20.00     0.013 A 
ENDBRANCH   4   6
ENDBRANCH   2   4
BRANCH   2   9
HETATM    9  C7  UNL     1     -33.623   3.784   3.487  1.00 20.00     0.022 C 
HETATM   10  C6  UNL     1     -33.180   3.130   4.793  1.00 20.00     0.007 C 
ENDBRANCH   2   9
TORSDOF 3
ENDMDL
MODEL 9
REMARK VINA RESULT:      -0.9      3.209      5.013
REMARK  3 active torsions:
REMARK  status: ('A' for Active; 'I' for Inactive)
REMARK    1  A    between atoms: C2_2  and  C5_5 
REMARK    2  A    between atoms: C2_2  and  C8_8 
REMARK    3  A    between atoms: C7_7  and  C8_8 
ROOT
HETATM    1  C1  UNL     1     -33.227   5.764   2.062  1.00 20.00     0.071 C 
HETATM    2  C8  UNL     1     -33.550   5.936   3.491  1.00 20.00     0.162 C 
HETATM    3  N9  UNL     1     -32.969   5.630   0.939  1.00 20.00    -0.196 NA
ENDROOT
BRANCH   2   4
HETATM    4  C2  UNL     1     -34.288   4.724   4.038  1.00 20.00     0.148 C 
HETATM    5  O10 UNL     1     -35.401   4.765   4.550  1.00 20.00    -0.296 OA
BRANCH   4   6
HETATM    6  C5  UNL     1     -33.572   3.418   3.934  1.00 20.00     0.057 A 
HETATM    7  C3  UNL     1     -32.196   3.311   4.503  1.00 20.00     0.013 A 
HETATM    8  C4  UNL     1     -33.347   2.630   5.182  1.00 20.00     0.013 A 
ENDBRANCH   4   6
ENDBRANCH   2   4
BRANCH   2   9
HETATM    9  C7  UNL     1     -34.334   7.232   3.744  1.00 20.00     0.022 C 
HETATM   10  C6  UNL     1     -33.759   8.120   4.844  1.00 20.00     0.007 C 
ENDBRANCH   2   9
TORSDOF 3
ENDMDL
