MODEL 1
REMARK VINA RESULT:      -1.4      0.000      0.000
REMARK  2 active torsions:
REMARK  status: ('A' for Active; 'I' for Inactive)
REMARK    1  A    between atoms: C1_1  and  C3_3 
REMARK    2  A    between atoms: C2_2  and  C7_7 
ROOT
HETATM    1  C1  UNL     1     -33.957   6.366   3.269  1.00 20.00     0.038 C 
HETATM    2  C2  UNL     1     -33.547   7.580   2.878  1.00 20.00    -0.015 C 
ENDROOT
BRANCH   2   3
HETATM    3  C7  UNL     1     -32.324   7.906   2.031  1.00 20.00    -0.034 C 
HETATM    4  C4  UNL     1     -31.845   6.608   1.357  1.00 20.00     0.018 C 
HETATM    5  C5  UNL     1     -32.576   8.960   0.937  1.00 20.00     0.018 C 
HETATM    6  C6  UNL     1     -31.217   8.426   2.965  1.00 20.00     0.018 C 
ENDBRANCH   2   3
BRANCH   1   7
HETATM    7  C3  UNL     1     -35.174   6.252   4.096  1.00 20.00     0.258 C 
HETATM    8  O8  UNL     1     -35.567   5.173   4.524  1.00 20.00    -0.302 OA
ENDBRANCH   1   7
TORSDOF 2
ENDMDL
MODEL 2
REMARK VINA RESULT:      -1.3      0.063      1.534
REMARK  2 active torsions:
REMARK  status: ('A' for Active; 'I' for Inactive)
REMARK    1  A    between atoms: C1_1  and  C3_3 
REMARK    2  A    between atoms: C2_2  and  C7_7 
ROOT
HETATM    1  C1  UNL     1     -33.943   6.363   3.285  1.00 20.00     0.038 C 
HETATM    2  C2  UNL     1     -33.544   7.566   2.849  1.00 20.00    -0.015 C 
ENDROOT
BRANCH   2   3
HETATM    3  C7  UNL     1     -32.288   7.879   2.045  1.00 20.00    -0.034 C 
HETATM    4  C4  UNL     1     -32.646   8.933   0.983  1.00 20.00     0.018 C 
HETATM    5  C5  UNL     1     -31.116   8.412   2.889  1.00 20.00     0.018 C 
HETATM    6  C6  UNL     1     -31.835   6.588   1.340  1.00 20.00     0.018 C 
ENDBRANCH   2   3
BRANCH   1   7
HETATM    7  C3  UNL     1     -35.197   6.260   4.056  1.00 20.00     0.258 C 
HETATM    8  O8  UNL     1     -35.587   5.194   4.520  1.00 20.00    -0.302 OA
ENDBRANCH   1   7
TORSDOF 2
ENDMDL
MODEL 3
REMARK VINA RESULT:      -1.2      2.591      4.177
REMARK  2 active torsions:
REMARK  status: ('A' for Active; 'I' for Inactive)
REMARK    1  A    between atoms: C1_1  and  C3_3 
REMARK    2  A    between atoms: C2_2  and  C7_7 
ROOT
HETATM    1  C1  UNL     1     -32.322   7.957   2.254  1.00 20.00     0.038 C 
HETATM    2  C2  UNL     1     -33.457   7.246   2.283  1.00 20.00    -0.015 C 
ENDROOT
BRANCH   2   3
HETATM    3  C7  UNL     1     -34.158   6.690   3.516  1.00 20.00    -0.034 C 
HETATM    4  C4  UNL     1     -33.758   7.550   4.727  1.00 20.00     0.018 C 
HETATM    5  C5  UNL     1     -35.694   6.672   3.415  1.00 20.00     0.018 C 
HETATM    6  C6  UNL     1     -33.667   5.248   3.738  1.00 20.00     0.018 C 
ENDBRANCH   2   3
BRANCH   1   7
HETATM    7  C3  UNL     1     -31.793   8.410   0.952  1.00 20.00     0.258 C 
HETATM    8  O8  UNL     1     -32.234   9.402   0.384  1.00 20.00    -0.302 OA
ENDBRANCH   1   7
TORSDOF 2
ENDMDL
MODEL 4
REMARK VINA RESULT:      -1.2      2.313      3.474
REMARK  2 active torsions:
REMARK  status: ('A' for Active; 'I' for Inactive)
REMARK    1  A    between atoms: C1_1  and  C3_3 
REMARK    2  A    between atoms: C2_2  and  C7_7 
ROOT
HETATM    1  C1  UNL     1     -33.814   3.962   3.775  1.00 20.00     0.038 C 
HETATM    2  C2  UNL     1     -33.861   5.187   4.316  1.00 20.00    -0.015 C 
ENDROOT
BRANCH   2   3
HETATM    3  C7  UNL     1     -34.255   6.482   3.617  1.00 20.00    -0.034 C 
HETATM    4  C4  UNL     1     -35.781   6.479   3.418  1.00 20.00     0.018 C 
HETATM    5  C5  UNL     1     -33.865   7.759   4.385  1.00 20.00     0.018 C 
HETATM    6  C6  UNL     1     -33.569   6.513   2.240  1.00 20.00     0.018 C 
ENDBRANCH   2   3
BRANCH   1   7
HETATM    7  C3  UNL     1     -33.403   2.822   4.618  1.00 20.00     0.258 C 
HETATM    8  O8  UNL     1     -32.607   2.952   5.540  1.00 20.00    -0.302 OA
ENDBRANCH   1   7
TORSDOF 2
ENDMDL
MODEL 5
REMARK VINA RESULT:      -1.1      0.075      1.535
REMARK  2 active torsions:
REMARK  status: ('A' for Active; 'I' for Inactive)
REMARK    1  A    between atoms: C1_1  and  C3_3 
REMARK    2  A    between atoms: C2_2  and  C7_7 
ROOT
HETATM    1  C1  UNL     1     -33.955   6.372   3.274  1.00 20.00     0.038 C 
HETATM    2  C2  UNL     1     -33.542   7.577   2.856  1.00 20.00    -0.015 C 
ENDROOT
BRANCH   2   3
HETATM    3  C7  UNL     1     -32.291   7.884   2.042  1.00 20.00    -0.034 C 
HETATM    4  C4  UNL     1     -31.223   8.450   2.995  1.00 20.00     0.018 C 
HETATM    5  C5  UNL     1     -31.697   6.665   1.311  1.00 20.00     0.018 C 
HETATM    6  C6  UNL     1     -32.649   8.954   0.996  1.00 20.00     0.018 C 
ENDBRANCH   2   3
BRANCH   1   7
HETATM    7  C3  UNL     1     -35.201   6.275   4.059  1.00 20.00     0.258 C 
HETATM    8  O8  UNL     1     -35.593   5.210   4.522  1.00 20.00    -0.302 OA
ENDBRANCH   1   7
TORSDOF 2
ENDMDL
MODEL 6
REMARK VINA RESULT:      -1.0      2.305      3.512
REMARK  2 active torsions:
REMARK  status: ('A' for Active; 'I' for Inactive)
REMARK    1  A    between atoms: C1_1  and  C3_3 
REMARK    2  A    between atoms: C2_2  and  C7_7 
ROOT
HETATM    1  C1  UNL     1     -33.825   3.982   3.780  1.00 20.00     0.038 C 
HETATM    2  C2  UNL     1     -33.848   5.214   4.305  1.00 20.00    -0.015 C 
ENDROOT
BRANCH   2   3
HETATM    3  C7  UNL     1     -34.238   6.505   3.596  1.00 20.00    -0.034 C 
HETATM    4  C4  UNL     1     -33.855   7.688   4.503  1.00 20.00     0.018 C 
HETATM    5  C5  UNL     1     -33.563   6.701   2.226  1.00 20.00     0.018 C 
HETATM    6  C6  UNL     1     -35.763   6.500   3.393  1.00 20.00     0.018 C 
ENDBRANCH   2   3
BRANCH   1   7
HETATM    7  C3  UNL     1     -33.414   2.848   4.630  1.00 20.00     0.258 C 
HETATM    8  O8  UNL     1     -32.613   2.983   5.548  1.00 20.00    -0.302 OA
ENDBRANCH   1   7
TORSDOF 2
ENDMDL
MODEL 7
REMARK VINA RESULT:      -1.0      2.620      4.166
REMARK  2 active torsions:
REMARK  status: ('A' for Active; 'I' for Inactive)
REMARK    1  A    between atoms: C1_1  and  C3_3 
REMARK    2  A    between atoms: C2_2  and  C7_7 
ROOT
HETATM    1  C1  UNL     1     -32.335   8.000   2.231  1.00 20.00     0.038 C 
HETATM    2  C2  UNL     1     -33.445   7.253   2.292  1.00 20.00    -0.015 C 
ENDROOT
BRANCH   2   3
HETATM    3  C7  UNL     1     -34.134   6.738   3.550  1.00 20.00    -0.034 C 
HETATM    4  C4  UNL     1     -33.704   5.277   3.772  1.00 20.00     0.018 C 
HETATM    5  C5  UNL     1     -33.810   7.542   4.822  1.00 20.00     0.018 C 
HETATM    6  C6  UNL     1     -35.655   6.784   3.317  1.00 20.00     0.018 C 
ENDBRANCH   2   3
BRANCH   1   7
HETATM    7  C3  UNL     1     -31.813   8.403   0.910  1.00 20.00     0.258 C 
HETATM    8  O8  UNL     1     -32.205   9.414   0.340  1.00 20.00    -0.302 OA
ENDBRANCH   1   7
TORSDOF 2
ENDMDL
MODEL 8
REMARK VINA RESULT:      -0.9      1.092      1.832
REMARK  2 active torsions:
REMARK  status: ('A' for Active; 'I' for Inactive)
REMARK    1  A    between atoms: C1_1  and  C3_3 
REMARK    2  A    between atoms: C2_2  and  C7_7 
ROOT
HETATM    1  C1  UNL     1     -34.489   6.584   3.393  1.00 20.00     0.038 C 
HETATM    2  C2  UNL     1     -33.630   5.817   2.708  1.00 20.00    -0.015 C 
ENDROOT
BRANCH   2   3
HETATM    3  C7  UNL     1     -32.704   6.260   1.582  1.00 20.00    -0.034 C 
HETATM    4  C4  UNL     1     -33.526   6.334   0.283  1.00 20.00     0.018 C 
HETATM    5  C5  UNL     1     -32.034   7.627   1.816  1.00 20.00     0.018 C 
HETATM    6  C6  UNL     1     -31.602   5.198   1.420  1.00 20.00     0.018 C 
ENDBRANCH   2   3
BRANCH   1   7
HETATM    7  C3  UNL     1     -35.310   5.969   4.455  1.00 20.00     0.258 C 
HETATM    8  O8  UNL     1     -35.357   4.755   4.615  1.00 20.00    -0.302 OA
ENDBRANCH   1   7
TORSDOF 2
ENDMDL
MODEL 9
REMARK VINA RESULT:      -0.9      1.120      2.308
REMARK  2 active torsions:
REMARK  status: ('A' for Active; 'I' for Inactive)
REMARK    1  A    between atoms: C1_1  and  C3_3 
REMARK    2  A    between atoms: C2_2  and  C7_7 
ROOT
HETATM    1  C1  UNL     1     -34.462   6.576   3.365  1.00 20.00     0.038 C 
HETATM    2  C2  UNL     1     -33.630   5.751   2.716  1.00 20.00    -0.015 C 
ENDROOT
BRANCH   2   3
HETATM    3  C7  UNL     1     -32.703   6.108   1.561  1.00 20.00    -0.034 C 
HETATM    4  C4  UNL     1     -32.135   7.515   1.815  1.00 20.00     0.018 C 
HETATM    5  C5  UNL     1     -31.527   5.132   1.371  1.00 20.00     0.018 C 
HETATM    6  C6  UNL     1     -33.535   6.127   0.266  1.00 20.00     0.018 C 
ENDBRANCH   2   3
BRANCH   1   7
HETATM    7  C3  UNL     1     -35.289   6.041   4.465  1.00 20.00     0.258 C 
HETATM    8  O8  UNL     1     -35.454   4.838   4.625  1.00 20.00    -0.302 OA
ENDBRANCH   1   7
TORSDOF 2
ENDMDL
