MODEL 1
REMARK VINA RESULT:      -1.6      0.000      0.000
REMARK  3 active torsions:
REMARK  status: ('A' for Active; 'I' for Inactive)
REMARK    1  A    between atoms: C4_4  and  C8_8 
REMARK    2  A    between atoms: C7_7  and  N10_10 
REMARK    3  A    between atoms: C8_8  and  N10_10 
ROOT
HETATM    1  C1  UNL     1     -34.222   4.436   4.092  1.00 20.00     0.089 C 
HETATM    2  C7  UNL     1     -34.677   5.743   3.621  1.00 20.00     0.395 C 
HETATM    3  N9  UNL     1     -33.864   3.397   4.466  1.00 20.00    -0.195 NA
ENDROOT
BRANCH   2   4
HETATM    4  N10 UNL     1     -33.565   6.677   3.530  1.00 20.00     0.101 N 
HETATM    5  C6  UNL     1     -33.870   7.928   4.208  1.00 20.00     0.311 C 
BRANCH   4   6
HETATM    6  C8  UNL     1     -33.251   6.945   2.106  1.00 20.00     0.223 C 
HETATM    7  C5  UNL     1     -32.621   5.700   1.499  1.00 20.00     0.043 C 
BRANCH   6   8
HETATM    8  C4  UNL     1     -32.322   8.147   2.017  1.00 20.00     0.018 A 
HETATM    9  C2  UNL     1     -31.268   8.213   0.947  1.00 20.00     0.007 A 
HETATM   10  C3  UNL     1     -32.459   9.128   0.886  1.00 20.00     0.007 A 
ENDBRANCH   6   8
ENDBRANCH   4   6
ENDBRANCH   2   4
TORSDOF 3
ENDMDL
MODEL 2
REMARK VINA RESULT:      -1.5      1.543      2.527
REMARK  3 active torsions:
REMARK  status: ('A' for Active; 'I' for Inactive)
REMARK    1  A    between atoms: C4_4  and  C8_8 
REMARK    2  A    between atoms: C7_7  and  N10_10 
REMARK    3  A    between atoms: C8_8  and  N10_10 
ROOT
HETATM    1  C1  UNL     1     -34.490   6.608   3.746  1.00 20.00     0.089 C 
HETATM    2  C7  UNL     1     -33.234   7.222   3.316  1.00 20.00     0.395 C 
HETATM    3  N9  UNL     1     -35.486   6.122   4.090  1.00 20.00    -0.195 NA
ENDROOT
BRANCH   2   4
HETATM    4  N10 UNL     1     -33.023   7.026   1.890  1.00 20.00     0.101 N 
HETATM    5  C6  UNL     1     -32.540   5.682   1.609  1.00 20.00     0.311 C 
BRANCH   4   6
HETATM    6  C8  UNL     1     -32.046   8.022   1.387  1.00 20.00     0.223 C 
HETATM    7  C5  UNL     1     -31.334   8.654   2.574  1.00 20.00     0.043 C 
BRANCH   6   8
HETATM    8  C4  UNL     1     -32.779   9.060   0.551  1.00 20.00     0.018 A 
HETATM    9  C2  UNL     1     -32.713  10.516   0.922  1.00 20.00     0.007 A 
HETATM   10  C3  UNL     1     -32.006  10.021  -0.310  1.00 20.00     0.007 A 
ENDBRANCH   6   8
ENDBRANCH   4   6
ENDBRANCH   2   4
TORSDOF 3
ENDMDL
MODEL 3
REMARK VINA RESULT:      -1.4      1.945      4.484
REMARK  3 active torsions:
REMARK  status: ('A' for Active; 'I' for Inactive)
REMARK    1  A    between atoms: C4_4  and  C8_8 
REMARK    2  A    between atoms: C7_7  and  N10_10 
REMARK    3  A    between atoms: C8_8  and  N10_10 
ROOT
HETATM    1  C1  UNL     1     -32.274   9.403   0.500  1.00 20.00     0.089 C 
HETATM    2  C7  UNL     1     -31.907   8.131   1.122  1.00 20.00     0.395 C 
HETATM    3  N9  UNL     1     -32.562  10.411   0.005  1.00 20.00    -0.195 NA
ENDROOT
BRANCH   2   4
HETATM    4  N10 UNL     1     -32.640   7.930   2.363  1.00 20.00     0.101 N 
HETATM    5  C6  UNL     1     -31.914   8.478   3.499  1.00 20.00     0.311 C 
BRANCH   4   6
HETATM    6  C8  UNL     1     -32.878   6.482   2.574  1.00 20.00     0.223 C 
HETATM    7  C5  UNL     1     -32.497   5.731   1.307  1.00 20.00     0.043 C 
BRANCH   6   8
HETATM    8  C4  UNL     1     -34.339   6.264   2.941  1.00 20.00     0.018 A 
HETATM    9  C2  UNL     1     -34.706   5.384   4.103  1.00 20.00     0.007 A 
HETATM   10  C3  UNL     1     -34.903   6.872   4.195  1.00 20.00     0.007 A 
ENDBRANCH   6   8
ENDBRANCH   4   6
ENDBRANCH   2   4
TORSDOF 3
ENDMDL
MODEL 4
REMARK VINA RESULT:      -1.1      1.647      4.588
REMARK  3 active torsions:
REMARK  status: ('A' for Active; 'I' for Inactive)
REMARK    1  A    between atoms: C4_4  and  C8_8 
REMARK    2  A    between atoms: C7_7  and  N10_10 
REMARK    3  A    between atoms: C8_8  and  N10_10 
ROOT
HETATM    1  C1  UNL     1     -32.145   8.883   1.105  1.00 20.00     0.089 C 
HETATM    2  C7  UNL     1     -31.630   8.114   2.238  1.00 20.00     0.395 C 
HETATM    3  N9  UNL     1     -32.550   9.496   0.207  1.00 20.00    -0.195 NA
ENDROOT
BRANCH   2   4
HETATM    4  N10 UNL     1     -32.461   6.947   2.491  1.00 20.00     0.101 N 
HETATM    5  C6  UNL     1     -32.716   6.205   1.265  1.00 20.00     0.311 C 
BRANCH   4   6
HETATM    6  C8  UNL     1     -33.748   7.370   3.094  1.00 20.00     0.223 C 
HETATM    7  C5  UNL     1     -33.476   7.959   4.470  1.00 20.00     0.043 C 
BRANCH   6   8
HETATM    8  C4  UNL     1     -34.683   6.171   3.169  1.00 20.00     0.018 A 
HETATM    9  C2  UNL     1     -34.345   5.001   4.051  1.00 20.00     0.007 A 
HETATM   10  C3  UNL     1     -35.484   5.913   4.415  1.00 20.00     0.007 A 
ENDBRANCH   6   8
ENDBRANCH   4   6
ENDBRANCH   2   4
TORSDOF 3
ENDMDL
MODEL 5
REMARK VINA RESULT:      -1.0      1.003      2.066
REMARK  3 active torsions:
REMARK  status: ('A' for Active; 'I' for Inactive)
REMARK    1  A    between atoms: C4_4  and  C8_8 
REMARK    2  A    between atoms: C7_7  and  N10_10 
REMARK    3  A    between atoms: C8_8  and  N10_10 
ROOT
HETATM    1  C1  UNL     1     -33.530   3.599   4.326  1.00 20.00     0.089 C 
HETATM    2  C7  UNL     1     -34.137   4.566   3.412  1.00 20.00     0.395 C 
HETATM    3  N9  UNL     1     -33.049   2.828   5.048  1.00 20.00    -0.195 NA
ENDROOT
BRANCH   2   4
HETATM    4  N10 UNL     1     -34.388   5.830   4.089  1.00 20.00     0.101 N 
HETATM    5  C6  UNL     1     -35.689   6.373   3.727  1.00 20.00     0.311 C 
BRANCH   4   6
HETATM    6  C8  UNL     1     -33.326   6.804   3.739  1.00 20.00     0.223 C 
HETATM    7  C5  UNL     1     -33.683   8.156   4.339  1.00 20.00     0.043 C 
BRANCH   6   8
HETATM    8  C4  UNL     1     -33.195   6.877   2.224  1.00 20.00     0.018 A 
HETATM    9  C2  UNL     1     -32.131   7.733   1.596  1.00 20.00     0.007 A 
HETATM   10  C3  UNL     1     -32.023   6.235   1.535  1.00 20.00     0.007 A 
ENDBRANCH   6   8
ENDBRANCH   4   6
ENDBRANCH   2   4
TORSDOF 3
ENDMDL
MODEL 6
REMARK VINA RESULT:      -0.7      2.195      4.567
REMARK  3 active torsions:
REMARK  status: ('A' for Active; 'I' for Inactive)
REMARK    1  A    between atoms: C4_4  and  C8_8 
REMARK    2  A    between atoms: C7_7  and  N10_10 
REMARK    3  A    between atoms: C8_8  and  N10_10 
ROOT
HETATM    1  C1  UNL     1     -32.727   9.637   0.384  1.00 20.00     0.089 C 
HETATM    2  C7  UNL     1     -32.735   9.198   1.779  1.00 20.00     0.395 C 
HETATM    3  N9  UNL     1     -32.723   9.987  -0.723  1.00 20.00    -0.195 NA
ENDROOT
BRANCH   2   4
HETATM    4  N10 UNL     1     -31.869   8.044   1.964  1.00 20.00     0.101 N 
HETATM    5  C6  UNL     1     -31.283   7.616   0.702  1.00 20.00     0.311 C 
BRANCH   4   6
HETATM    6  C8  UNL     1     -32.642   6.928   2.559  1.00 20.00     0.223 C 
HETATM    7  C5  UNL     1     -32.905   5.884   1.483  1.00 20.00     0.043 C 
BRANCH   6   8
HETATM    8  C4  UNL     1     -33.937   7.474   3.143  1.00 20.00     0.018 A 
HETATM    9  C2  UNL     1     -34.891   6.559   3.859  1.00 20.00     0.007 A 
HETATM   10  C3  UNL     1     -34.109   7.584   4.633  1.00 20.00     0.007 A 
ENDBRANCH   6   8
ENDBRANCH   4   6
ENDBRANCH   2   4
TORSDOF 3
ENDMDL
MODEL 7
REMARK VINA RESULT:      -0.4      1.530      4.655
REMARK  3 active torsions:
REMARK  status: ('A' for Active; 'I' for Inactive)
REMARK    1  A    between atoms: C4_4  and  C8_8 
REMARK    2  A    between atoms: C7_7  and  N10_10 
REMARK    3  A    between atoms: C8_8  and  N10_10 
ROOT
HETATM    1  C1  UNL     1     -32.394   7.833   2.217  1.00 20.00     0.089 C 
HETATM    2  C7  UNL     1     -33.282   7.125   3.138  1.00 20.00     0.395 C 
HETATM    3  N9  UNL     1     -31.691   8.398   1.487  1.00 20.00    -0.195 NA
ENDROOT
BRANCH   2   4
HETATM    4  N10 UNL     1     -33.148   5.684   2.981  1.00 20.00     0.101 N 
HETATM    5  C6  UNL     1     -32.982   5.319   1.582  1.00 20.00     0.311 C 
BRANCH   4   6
HETATM    6  C8  UNL     1     -34.347   5.008   3.534  1.00 20.00     0.223 C 
HETATM    7  C5  UNL     1     -35.312   6.064   4.051  1.00 20.00     0.043 C 
BRANCH   6   8
HETATM    8  C4  UNL     1     -33.916   4.050   4.635  1.00 20.00     0.018 A 
HETATM    9  C2  UNL     1     -33.517   2.640   4.300  1.00 20.00     0.007 A 
HETATM   10  C3  UNL     1     -32.477   3.628   4.750  1.00 20.00     0.007 A 
ENDBRANCH   6   8
ENDBRANCH   4   6
ENDBRANCH   2   4
TORSDOF 3
ENDMDL
MODEL 8
REMARK VINA RESULT:      -0.4      1.550      4.551
REMARK  3 active torsions:
REMARK  status: ('A' for Active; 'I' for Inactive)
REMARK    1  A    between atoms: C4_4  and  C8_8 
REMARK    2  A    between atoms: C7_7  and  N10_10 
REMARK    3  A    between atoms: C8_8  and  N10_10 
ROOT
HETATM    1  C1  UNL     1     -32.327   7.337   1.817  1.00 20.00     0.089 C 
HETATM    2  C7  UNL     1     -32.839   6.043   2.267  1.00 20.00     0.395 C 
HETATM    3  N9  UNL     1     -31.918   8.362   1.460  1.00 20.00    -0.195 NA
ENDROOT
BRANCH   2   4
HETATM    4  N10 UNL     1     -34.105   6.202   2.966  1.00 20.00     0.101 N 
HETATM    5  C6  UNL     1     -34.013   7.223   3.999  1.00 20.00     0.311 C 
BRANCH   4   6
HETATM    6  C8  UNL     1     -34.505   4.910   3.577  1.00 20.00     0.223 C 
HETATM    7  C5  UNL     1     -35.428   5.188   4.754  1.00 20.00     0.043 C 
BRANCH   6   8
HETATM    8  C4  UNL     1     -33.256   4.154   4.005  1.00 20.00     0.018 A 
HETATM    9  C2  UNL     1     -33.189   3.509   5.362  1.00 20.00     0.007 A 
HETATM   10  C3  UNL     1     -33.283   2.656   4.127  1.00 20.00     0.007 A 
ENDBRANCH   6   8
ENDBRANCH   4   6
ENDBRANCH   2   4
TORSDOF 3
ENDMDL
MODEL 9
REMARK VINA RESULT:      -0.4      1.544      4.371
REMARK  3 active torsions:
REMARK  status: ('A' for Active; 'I' for Inactive)
REMARK    1  A    between atoms: C4_4  and  C8_8 
REMARK    2  A    between atoms: C7_7  and  N10_10 
REMARK    3  A    between atoms: C8_8  and  N10_10 
ROOT
HETATM    1  C1  UNL     1     -32.661   7.933   2.495  1.00 20.00     0.089 C 
HETATM    2  C7  UNL     1     -33.537   7.533   3.595  1.00 20.00     0.395 C 
HETATM    3  N9  UNL     1     -31.966   8.254   1.623  1.00 20.00    -0.195 NA
ENDROOT
BRANCH   2   4
HETATM    4  N10 UNL     1     -34.217   6.283   3.288  1.00 20.00     0.101 N 
HETATM    5  C6  UNL     1     -35.320   6.044   4.207  1.00 20.00     0.311 C 
BRANCH   4   6
HETATM    6  C8  UNL     1     -33.253   5.158   3.362  1.00 20.00     0.223 C 
HETATM    7  C5  UNL     1     -32.895   4.725   1.948  1.00 20.00     0.043 C 
BRANCH   6   8
HETATM    8  C4  UNL     1     -33.875   4.021   4.160  1.00 20.00     0.018 A 
HETATM    9  C2  UNL     1     -33.310   2.631   4.063  1.00 20.00     0.007 A 
HETATM   10  C3  UNL     1     -33.138   3.425   5.328  1.00 20.00     0.007 A 
ENDBRANCH   6   8
ENDBRANCH   4   6
ENDBRANCH   2   4
TORSDOF 3
ENDMDL
