MODEL 1
REMARK VINA RESULT:      -2.6      0.000      0.000
REMARK  3 active torsions:
REMARK  status: ('A' for Active; 'I' for Inactive)
REMARK    1  A    between atoms: C5_5  and  C9_9 
REMARK    2  A    between atoms: C8_8  and  N10_10 
REMARK    3  A    between atoms: C9_9  and  N10_10 
ROOT
HETATM    1  C1  UNL     1     -32.419   9.834   0.111  1.00 20.00     0.013 C 
HETATM    2  C2  UNL     1     -32.209   8.999   0.948  1.00 20.00    -0.087 C 
HETATM    3  C8  UNL     1     -31.949   7.983   1.971  1.00 20.00     0.364 C 
ENDROOT
BRANCH   3   4
HETATM    4  N10 UNL     1     -32.991   6.968   1.964  1.00 20.00     0.099 N 
HETATM    5  C7  UNL     1     -32.556   5.769   1.265  1.00 20.00     0.311 C 
BRANCH   4   6
HETATM    6  C9  UNL     1     -33.365   6.626   3.358  1.00 20.00     0.223 C 
HETATM    7  C6  UNL     1     -33.964   7.856   4.024  1.00 20.00     0.043 C 
BRANCH   6   8
HETATM    8  C5  UNL     1     -34.346   5.462   3.339  1.00 20.00     0.018 A 
HETATM    9  C3  UNL     1     -34.178   4.315   4.297  1.00 20.00     0.007 A 
HETATM   10  C4  UNL     1     -35.322   5.277   4.468  1.00 20.00     0.007 A 
ENDBRANCH   6   8
ENDBRANCH   4   6
ENDBRANCH   3   4
TORSDOF 3
ENDMDL
MODEL 2
REMARK VINA RESULT:      -1.6      1.002      2.048
REMARK  3 active torsions:
REMARK  status: ('A' for Active; 'I' for Inactive)
REMARK    1  A    between atoms: C5_5  and  C9_9 
REMARK    2  A    between atoms: C8_8  and  N10_10 
REMARK    3  A    between atoms: C9_9  and  N10_10 
ROOT
HETATM    1  C1  UNL     1     -32.748  10.514   0.377  1.00 20.00     0.013 C 
HETATM    2  C2  UNL     1     -32.252   9.430   0.523  1.00 20.00    -0.087 C 
HETATM    3  C8  UNL     1     -31.646   8.108   0.697  1.00 20.00     0.364 C 
ENDROOT
BRANCH   3   4
HETATM    4  N10 UNL     1     -31.913   7.591   2.030  1.00 20.00     0.099 N 
HETATM    5  C7  UNL     1     -32.034   8.667   3.001  1.00 20.00     0.311 C 
BRANCH   4   6
HETATM    6  C9  UNL     1     -33.161   6.789   2.015  1.00 20.00     0.223 C 
HETATM    7  C6  UNL     1     -32.876   5.444   1.363  1.00 20.00     0.043 C 
BRANCH   6   8
HETATM    8  C5  UNL     1     -33.667   6.627   3.441  1.00 20.00     0.018 A 
HETATM    9  C3  UNL     1     -35.140   6.703   3.736  1.00 20.00     0.007 A 
HETATM   10  C4  UNL     1     -34.418   5.388   3.841  1.00 20.00     0.007 A 
ENDBRANCH   6   8
ENDBRANCH   4   6
ENDBRANCH   3   4
TORSDOF 3
ENDMDL
MODEL 3
REMARK VINA RESULT:      -1.3      0.991      4.481
REMARK  3 active torsions:
REMARK  status: ('A' for Active; 'I' for Inactive)
REMARK    1  A    between atoms: C5_5  and  C9_9 
REMARK    2  A    between atoms: C8_8  and  N10_10 
REMARK    3  A    between atoms: C9_9  and  N10_10 
ROOT
HETATM    1  C1  UNL     1     -33.187   2.859   4.751  1.00 20.00     0.013 C 
HETATM    2  C2  UNL     1     -33.678   3.829   4.241  1.00 20.00    -0.087 C 
HETATM    3  C8  UNL     1     -34.280   5.011   3.620  1.00 20.00     0.364 C 
ENDROOT
BRANCH   3   4
HETATM    4  N10 UNL     1     -33.292   5.746   2.845  1.00 20.00     0.099 N 
HETATM    5  C7  UNL     1     -33.224   5.258   1.476  1.00 20.00     0.311 C 
BRANCH   4   6
HETATM    6  C9  UNL     1     -33.629   7.190   2.845  1.00 20.00     0.223 C 
HETATM    7  C6  UNL     1     -34.247   7.553   4.187  1.00 20.00     0.043 C 
BRANCH   6   8
HETATM    8  C5  UNL     1     -32.367   7.996   2.570  1.00 20.00     0.018 A 
HETATM    9  C3  UNL     1     -31.463   7.621   1.428  1.00 20.00     0.007 A 
HETATM   10  C4  UNL     1     -32.284   8.880   1.356  1.00 20.00     0.007 A 
ENDBRANCH   6   8
ENDBRANCH   4   6
ENDBRANCH   3   4
TORSDOF 3
ENDMDL
MODEL 4
REMARK VINA RESULT:      -0.9      1.086      4.872
REMARK  3 active torsions:
REMARK  status: ('A' for Active; 'I' for Inactive)
REMARK    1  A    between atoms: C5_5  and  C9_9 
REMARK    2  A    between atoms: C8_8  and  N10_10 
REMARK    3  A    between atoms: C9_9  and  N10_10 
ROOT
HETATM    1  C1  UNL     1     -35.458   5.718   4.388  1.00 20.00     0.013 C 
HETATM    2  C2  UNL     1     -34.591   6.059   3.630  1.00 20.00    -0.087 C 
HETATM    3  C8  UNL     1     -33.533   6.470   2.704  1.00 20.00     0.364 C 
ENDROOT
BRANCH   3   4
HETATM    4  N10 UNL     1     -33.217   7.879   2.876  1.00 20.00     0.099 N 
HETATM    5  C7  UNL     1     -32.764   8.158   4.230  1.00 20.00     0.311 C 
BRANCH   4   6
HETATM    6  C9  UNL     1     -32.168   8.279   1.906  1.00 20.00     0.223 C 
HETATM    7  C6  UNL     1     -31.472   7.028   1.388  1.00 20.00     0.043 C 
BRANCH   6   8
HETATM    8  C5  UNL     1     -32.811   9.073   0.777  1.00 20.00     0.018 A 
HETATM    9  C3  UNL     1     -32.659  10.568   0.722  1.00 20.00     0.007 A 
HETATM   10  C4  UNL     1     -31.955   9.702  -0.287  1.00 20.00     0.007 A 
ENDBRANCH   6   8
ENDBRANCH   4   6
ENDBRANCH   3   4
TORSDOF 3
ENDMDL
MODEL 5
REMARK VINA RESULT:      -0.8      0.997      4.645
REMARK  3 active torsions:
REMARK  status: ('A' for Active; 'I' for Inactive)
REMARK    1  A    between atoms: C5_5  and  C9_9 
REMARK    2  A    between atoms: C8_8  and  N10_10 
REMARK    3  A    between atoms: C9_9  and  N10_10 
ROOT
HETATM    1  C1  UNL     1     -35.377   5.835   4.220  1.00 20.00     0.013 C 
HETATM    2  C2  UNL     1     -34.645   6.692   3.805  1.00 20.00    -0.087 C 
HETATM    3  C8  UNL     1     -33.756   7.741   3.302  1.00 20.00     0.364 C 
ENDROOT
BRANCH   3   4
HETATM    4  N10 UNL     1     -32.650   7.164   2.554  1.00 20.00     0.099 N 
HETATM    5  C7  UNL     1     -33.118   6.164   1.607  1.00 20.00     0.311 C 
BRANCH   4   6
HETATM    6  C9  UNL     1     -31.921   8.235   1.832  1.00 20.00     0.223 C 
HETATM    7  C6  UNL     1     -30.916   7.596   0.885  1.00 20.00     0.043 C 
BRANCH   6   8
HETATM    8  C5  UNL     1     -32.923   9.104   1.087  1.00 20.00     0.018 A 
HETATM    9  C3  UNL     1     -32.620  10.554   0.823  1.00 20.00     0.007 A 
HETATM   10  C4  UNL     1     -32.628   9.568  -0.313  1.00 20.00     0.007 A 
ENDBRANCH   6   8
ENDBRANCH   4   6
ENDBRANCH   3   4
TORSDOF 3
ENDMDL
MODEL 6
REMARK VINA RESULT:      -0.7      1.104      4.596
REMARK  3 active torsions:
REMARK  status: ('A' for Active; 'I' for Inactive)
REMARK    1  A    between atoms: C5_5  and  C9_9 
REMARK    2  A    between atoms: C8_8  and  N10_10 
REMARK    3  A    between atoms: C9_9  and  N10_10 
ROOT
HETATM    1  C1  UNL     1     -33.567   3.628   4.456  1.00 20.00     0.013 C 
HETATM    2  C2  UNL     1     -34.295   4.541   4.176  1.00 20.00    -0.087 C 
HETATM    3  C8  UNL     1     -35.187   5.652   3.836  1.00 20.00     0.364 C 
ENDROOT
BRANCH   3   4
HETATM    4  N10 UNL     1     -34.421   6.827   3.448  1.00 20.00     0.099 N 
HETATM    5  C7  UNL     1     -34.055   7.625   4.607  1.00 20.00     0.311 C 
BRANCH   4   6
HETATM    6  C9  UNL     1     -33.197   6.408   2.722  1.00 20.00     0.223 C 
HETATM    7  C6  UNL     1     -33.599   5.802   1.385  1.00 20.00     0.043 C 
BRANCH   6   8
HETATM    8  C5  UNL     1     -32.288   7.615   2.542  1.00 20.00     0.018 A 
HETATM    9  C3  UNL     1     -31.277   7.643   1.429  1.00 20.00     0.007 A 
HETATM   10  C4  UNL     1     -32.482   8.541   1.373  1.00 20.00     0.007 A 
ENDBRANCH   6   8
ENDBRANCH   4   6
ENDBRANCH   3   4
TORSDOF 3
ENDMDL
MODEL 7
REMARK VINA RESULT:      -0.6      1.011      1.703
REMARK  3 active torsions:
REMARK  status: ('A' for Active; 'I' for Inactive)
REMARK    1  A    between atoms: C5_5  and  C9_9 
REMARK    2  A    between atoms: C8_8  and  N10_10 
REMARK    3  A    between atoms: C9_9  and  N10_10 
ROOT
HETATM    1  C1  UNL     1     -32.351   9.659   0.342  1.00 20.00     0.013 C 
HETATM    2  C2  UNL     1     -32.239   8.721   1.084  1.00 20.00    -0.087 C 
HETATM    3  C8  UNL     1     -32.101   7.580   1.991  1.00 20.00     0.364 C 
ENDROOT
BRANCH   3   4
HETATM    4  N10 UNL     1     -32.681   6.382   1.404  1.00 20.00     0.099 N 
HETATM    5  C7  UNL     1     -31.660   5.386   1.118  1.00 20.00     0.311 C 
BRANCH   4   6
HETATM    6  C9  UNL     1     -33.691   5.811   2.328  1.00 20.00     0.223 C 
HETATM    7  C6  UNL     1     -32.991   4.894   3.320  1.00 20.00     0.043 C 
BRANCH   6   8
HETATM    8  C5  UNL     1     -34.422   6.946   3.029  1.00 20.00     0.018 A 
HETATM    9  C3  UNL     1     -35.412   6.648   4.122  1.00 20.00     0.007 A 
HETATM   10  C4  UNL     1     -34.093   7.291   4.456  1.00 20.00     0.007 A 
ENDBRANCH   6   8
ENDBRANCH   4   6
ENDBRANCH   3   4
TORSDOF 3
ENDMDL
MODEL 8
REMARK VINA RESULT:      -0.4      1.347      4.713
REMARK  3 active torsions:
REMARK  status: ('A' for Active; 'I' for Inactive)
REMARK    1  A    between atoms: C5_5  and  C9_9 
REMARK    2  A    between atoms: C8_8  and  N10_10 
REMARK    3  A    between atoms: C9_9  and  N10_10 
ROOT
HETATM    1  C1  UNL     1     -33.197   2.720   4.330  1.00 20.00     0.013 C 
HETATM    2  C2  UNL     1     -33.786   3.763   4.421  1.00 20.00    -0.087 C 
HETATM    3  C8  UNL     1     -34.505   5.033   4.536  1.00 20.00     0.364 C 
ENDROOT
BRANCH   3   4
HETATM    4  N10 UNL     1     -34.546   5.720   3.254  1.00 20.00     0.099 N 
HETATM    5  C7  UNL     1     -35.372   6.915   3.321  1.00 20.00     0.311 C 
BRANCH   4   6
HETATM    6  C9  UNL     1     -33.170   6.086   2.839  1.00 20.00     0.223 C 
HETATM    7  C6  UNL     1     -32.852   5.395   1.521  1.00 20.00     0.043 C 
BRANCH   6   8
HETATM    8  C5  UNL     1     -33.071   7.600   2.719  1.00 20.00     0.018 A 
HETATM    9  C3  UNL     1     -31.777   8.301   3.026  1.00 20.00     0.007 A 
HETATM   10  C4  UNL     1     -32.271   8.220   1.607  1.00 20.00     0.007 A 
ENDBRANCH   6   8
ENDBRANCH   4   6
ENDBRANCH   3   4
TORSDOF 3
ENDMDL
MODEL 9
REMARK VINA RESULT:      -0.3      1.013      1.495
REMARK  3 active torsions:
REMARK  status: ('A' for Active; 'I' for Inactive)
REMARK    1  A    between atoms: C5_5  and  C9_9 
REMARK    2  A    between atoms: C8_8  and  N10_10 
REMARK    3  A    between atoms: C9_9  and  N10_10 
ROOT
HETATM    1  C1  UNL     1     -31.563   8.662   0.644  1.00 20.00     0.013 C 
HETATM    2  C2  UNL     1     -32.160   8.272   1.611  1.00 20.00    -0.087 C 
HETATM    3  C8  UNL     1     -32.885   7.801   2.793  1.00 20.00     0.364 C 
ENDROOT
BRANCH   3   4
HETATM    4  N10 UNL     1     -33.650   6.602   2.483  1.00 20.00     0.099 N 
HETATM    5  C7  UNL     1     -32.933   5.744   1.553  1.00 20.00     0.311 C 
BRANCH   4   6
HETATM    6  C9  UNL     1     -33.938   5.856   3.732  1.00 20.00     0.223 C 
HETATM    7  C6  UNL     1     -35.380   6.116   4.141  1.00 20.00     0.043 C 
BRANCH   6   8
HETATM    8  C5  UNL     1     -33.678   4.375   3.498  1.00 20.00     0.018 A 
HETATM    9  C3  UNL     1     -32.539   3.686   4.199  1.00 20.00     0.007 A 
HETATM   10  C4  UNL     1     -33.959   3.377   4.587  1.00 20.00     0.007 A 
ENDBRANCH   6   8
ENDBRANCH   4   6
ENDBRANCH   3   4
TORSDOF 3
ENDMDL
