MODEL 1
REMARK VINA RESULT:      -2.6      0.000      0.000
REMARK  3 active torsions:
REMARK  status: ('A' for Active; 'I' for Inactive)
REMARK    1  A    between atoms: C4_4  and  C6_6 
REMARK    2  A    between atoms: C5_5  and  C7_7 
REMARK    3  A    between atoms: C6_6  and  C7_7 
ROOT
HETATM    1  C1  UNL     1     -32.583   6.067   1.539  1.00 20.00     0.064 C 
HETATM    2  C7  UNL     1     -32.918   7.424   2.018  1.00 20.00     0.092 C 
HETATM    3  N8  UNL     1     -32.322   5.002   1.162  1.00 20.00    -0.197 NA
ENDROOT
BRANCH   2   4
HETATM    4  C5  UNL     1     -31.867   8.443   1.534  1.00 20.00     0.014 C 
HETATM    5  C3  UNL     1     -32.373   9.468   0.526  1.00 20.00     0.006 C 
ENDBRANCH   2   4
BRANCH   2   6
HETATM    6  C6  UNL     1     -33.094   7.449   3.547  1.00 20.00     0.019 C 
BRANCH   6   7
HETATM    7  C4  UNL     1     -34.567   7.505   3.973  1.00 20.00    -0.003 C 
HETATM    8  C2  UNL     1     -35.175   6.112   4.046  1.00 20.00     0.005 C 
ENDBRANCH   6   7
ENDBRANCH   2   6
TORSDOF 3
ENDMDL
MODEL 2
REMARK VINA RESULT:      -2.4      0.660      3.476
REMARK  3 active torsions:
REMARK  status: ('A' for Active; 'I' for Inactive)
REMARK    1  A    between atoms: C4_4  and  C6_6 
REMARK    2  A    between atoms: C5_5  and  C7_7 
REMARK    3  A    between atoms: C6_6  and  C7_7 
ROOT
HETATM    1  C1  UNL     1     -32.935   6.225   1.905  1.00 20.00     0.064 C 
HETATM    2  C7  UNL     1     -32.788   7.244   2.964  1.00 20.00     0.092 C 
HETATM    3  N8  UNL     1     -33.049   5.423   1.074  1.00 20.00    -0.197 NA
ENDROOT
BRANCH   2   4
HETATM    4  C5  UNL     1     -34.145   7.520   3.641  1.00 20.00     0.014 C 
HETATM    5  C3  UNL     1     -34.999   6.287   3.909  1.00 20.00     0.006 C 
ENDBRANCH   2   4
BRANCH   2   6
HETATM    6  C6  UNL     1     -32.137   8.527   2.417  1.00 20.00     0.019 C 
BRANCH   6   7
HETATM    7  C4  UNL     1     -32.054   8.543   0.885  1.00 20.00    -0.003 C 
HETATM    8  C2  UNL     1     -32.471   9.894   0.322  1.00 20.00     0.005 C 
ENDBRANCH   6   7
ENDBRANCH   2   6
TORSDOF 3
ENDMDL
MODEL 3
REMARK VINA RESULT:      -2.3      1.827      3.665
REMARK  3 active torsions:
REMARK  status: ('A' for Active; 'I' for Inactive)
REMARK    1  A    between atoms: C4_4  and  C6_6 
REMARK    2  A    between atoms: C5_5  and  C7_7 
REMARK    3  A    between atoms: C6_6  and  C7_7 
ROOT
HETATM    1  C1  UNL     1     -33.721   4.357   3.890  1.00 20.00     0.064 C 
HETATM    2  C7  UNL     1     -33.515   5.709   3.331  1.00 20.00     0.092 C 
HETATM    3  N8  UNL     1     -33.882   3.296   4.331  1.00 20.00    -0.197 NA
ENDROOT
BRANCH   2   4
HETATM    4  C5  UNL     1     -34.666   6.647   3.745  1.00 20.00     0.014 C 
HETATM    5  C3  UNL     1     -34.234   7.942   4.423  1.00 20.00     0.006 C 
ENDBRANCH   2   4
BRANCH   2   6
HETATM    6  C6  UNL     1     -33.324   5.657   1.804  1.00 20.00     0.019 C 
BRANCH   6   7
HETATM    7  C4  UNL     1     -31.989   6.264   1.353  1.00 20.00    -0.003 C 
HETATM    8  C2  UNL     1     -31.937   7.759   1.633  1.00 20.00     0.005 C 
ENDBRANCH   6   7
ENDBRANCH   2   6
TORSDOF 3
ENDMDL
MODEL 4
REMARK VINA RESULT:      -2.3      2.142      3.208
REMARK  3 active torsions:
REMARK  status: ('A' for Active; 'I' for Inactive)
REMARK    1  A    between atoms: C4_4  and  C6_6 
REMARK    2  A    between atoms: C5_5  and  C7_7 
REMARK    3  A    between atoms: C6_6  and  C7_7 
ROOT
HETATM    1  C1  UNL     1     -32.773   7.201   2.212  1.00 20.00     0.064 C 
HETATM    2  C7  UNL     1     -33.804   6.276   2.726  1.00 20.00     0.092 C 
HETATM    3  N8  UNL     1     -31.965   7.928   1.806  1.00 20.00    -0.197 NA
ENDROOT
BRANCH   2   4
HETATM    4  C5  UNL     1     -34.555   6.910   3.913  1.00 20.00     0.014 C 
HETATM    5  C3  UNL     1     -33.781   7.980   4.674  1.00 20.00     0.006 C 
ENDBRANCH   2   4
BRANCH   2   6
HETATM    6  C6  UNL     1     -33.197   4.907   3.083  1.00 20.00     0.019 C 
BRANCH   6   7
HETATM    7  C4  UNL     1     -34.019   4.151   4.135  1.00 20.00    -0.003 C 
HETATM    8  C2  UNL     1     -33.220   3.007   4.744  1.00 20.00     0.005 C 
ENDBRANCH   6   7
ENDBRANCH   2   6
TORSDOF 3
ENDMDL
MODEL 5
REMARK VINA RESULT:      -2.2      1.800      2.673
REMARK  3 active torsions:
REMARK  status: ('A' for Active; 'I' for Inactive)
REMARK    1  A    between atoms: C4_4  and  C6_6 
REMARK    2  A    between atoms: C5_5  and  C7_7 
REMARK    3  A    between atoms: C6_6  and  C7_7 
ROOT
HETATM    1  C1  UNL     1     -32.308   8.586   1.194  1.00 20.00     0.064 C 
HETATM    2  C7  UNL     1     -32.352   7.362   2.020  1.00 20.00     0.092 C 
HETATM    3  N8  UNL     1     -32.272   9.548   0.546  1.00 20.00    -0.197 NA
ENDROOT
BRANCH   2   4
HETATM    4  C5  UNL     1     -32.699   6.137   1.152  1.00 20.00     0.014 C 
HETATM    5  C3  UNL     1     -31.652   5.030   1.145  1.00 20.00     0.006 C 
ENDBRANCH   2   4
BRANCH   2   6
HETATM    6  C6  UNL     1     -33.315   7.526   3.210  1.00 20.00     0.019 C 
BRANCH   6   7
HETATM    7  C4  UNL     1     -34.004   6.212   3.600  1.00 20.00    -0.003 C 
HETATM    8  C2  UNL     1     -35.466   6.439   3.957  1.00 20.00     0.005 C 
ENDBRANCH   6   7
ENDBRANCH   2   6
TORSDOF 3
ENDMDL
MODEL 6
REMARK VINA RESULT:      -2.1      1.779      3.829
REMARK  3 active torsions:
REMARK  status: ('A' for Active; 'I' for Inactive)
REMARK    1  A    between atoms: C4_4  and  C6_6 
REMARK    2  A    between atoms: C5_5  and  C7_7 
REMARK    3  A    between atoms: C6_6  and  C7_7 
ROOT
HETATM    1  C1  UNL     1     -33.634   7.248   3.112  1.00 20.00     0.064 C 
HETATM    2  C7  UNL     1     -32.876   7.162   1.847  1.00 20.00     0.092 C 
HETATM    3  N8  UNL     1     -34.230   7.315   4.105  1.00 20.00    -0.197 NA
ENDROOT
BRANCH   2   4
HETATM    4  C5  UNL     1     -32.160   5.801   1.737  1.00 20.00     0.014 C 
HETATM    5  C3  UNL     1     -32.632   4.911   0.593  1.00 20.00     0.006 C 
ENDBRANCH   2   4
BRANCH   2   6
HETATM    6  C6  UNL     1     -31.905   8.346   1.697  1.00 20.00     0.019 C 
BRANCH   6   7
HETATM    7  C4  UNL     1     -31.943   8.969   0.295  1.00 20.00    -0.003 C 
HETATM    8  C2  UNL     1     -32.601  10.341   0.316  1.00 20.00     0.005 C 
ENDBRANCH   6   7
ENDBRANCH   2   6
TORSDOF 3
ENDMDL
MODEL 7
REMARK VINA RESULT:      -1.9      2.184      3.781
REMARK  3 active torsions:
REMARK  status: ('A' for Active; 'I' for Inactive)
REMARK    1  A    between atoms: C4_4  and  C6_6 
REMARK    2  A    between atoms: C5_5  and  C7_7 
REMARK    3  A    between atoms: C6_6  and  C7_7 
ROOT
HETATM    1  C1  UNL     1     -33.144   5.514   2.346  1.00 20.00     0.064 C 
HETATM    2  C7  UNL     1     -33.681   5.302   3.706  1.00 20.00     0.092 C 
HETATM    3  N8  UNL     1     -32.721   5.680   1.278  1.00 20.00    -0.197 NA
ENDROOT
BRANCH   2   4
HETATM    4  C5  UNL     1     -34.017   3.815   3.929  1.00 20.00     0.014 C 
HETATM    5  C3  UNL     1     -33.071   3.068   4.861  1.00 20.00     0.006 C 
ENDBRANCH   2   4
BRANCH   2   6
HETATM    6  C6  UNL     1     -34.885   6.221   3.979  1.00 20.00     0.019 C 
BRANCH   6   7
HETATM    7  C4  UNL     1     -34.522   7.710   3.911  1.00 20.00    -0.003 C 
HETATM    8  C2  UNL     1     -33.432   8.060   4.914  1.00 20.00     0.005 C 
ENDBRANCH   6   7
ENDBRANCH   2   6
TORSDOF 3
ENDMDL
MODEL 8
REMARK VINA RESULT:      -1.9      2.243      4.408
REMARK  3 active torsions:
REMARK  status: ('A' for Active; 'I' for Inactive)
REMARK    1  A    between atoms: C4_4  and  C6_6 
REMARK    2  A    between atoms: C5_5  and  C7_7 
REMARK    3  A    between atoms: C6_6  and  C7_7 
ROOT
HETATM    1  C1  UNL     1     -34.179   7.172   4.069  1.00 20.00     0.064 C 
HETATM    2  C7  UNL     1     -34.300   5.895   3.337  1.00 20.00     0.092 C 
HETATM    3  N8  UNL     1     -34.085   8.176   4.643  1.00 20.00    -0.197 NA
ENDROOT
BRANCH   2   4
HETATM    4  C5  UNL     1     -34.646   4.747   4.306  1.00 20.00     0.014 C 
HETATM    5  C3  UNL     1     -33.685   3.565   4.280  1.00 20.00     0.006 C 
ENDBRANCH   2   4
BRANCH   2   6
HETATM    6  C6  UNL     1     -33.033   5.602   2.513  1.00 20.00     0.019 C 
BRANCH   6   7
HETATM    7  C4  UNL     1     -32.840   6.586   1.352  1.00 20.00    -0.003 C 
HETATM    8  C2  UNL     1     -31.836   7.672   1.708  1.00 20.00     0.005 C 
ENDBRANCH   6   7
ENDBRANCH   2   6
TORSDOF 3
ENDMDL
MODEL 9
REMARK VINA RESULT:      -1.8      2.350      3.000
REMARK  3 active torsions:
REMARK  status: ('A' for Active; 'I' for Inactive)
REMARK    1  A    between atoms: C4_4  and  C6_6 
REMARK    2  A    between atoms: C5_5  and  C7_7 
REMARK    3  A    between atoms: C6_6  and  C7_7 
ROOT
HETATM    1  C1  UNL     1     -33.936   4.283   3.877  1.00 20.00     0.064 C 
HETATM    2  C7  UNL     1     -34.240   5.515   3.121  1.00 20.00     0.092 C 
HETATM    3  N8  UNL     1     -33.697   3.315   4.470  1.00 20.00    -0.197 NA
ENDROOT
BRANCH   2   4
HETATM    4  C5  UNL     1     -32.979   6.037   2.406  1.00 20.00     0.014 C 
HETATM    5  C3  UNL     1     -32.602   5.292   1.131  1.00 20.00     0.006 C 
ENDBRANCH   2   4
BRANCH   2   6
HETATM    6  C6  UNL     1     -34.880   6.582   4.028  1.00 20.00     0.019 C 
BRANCH   6   7
HETATM    7  C4  UNL     1     -34.143   7.927   3.972  1.00 20.00    -0.003 C 
HETATM    8  C2  UNL     1     -33.261   8.125   5.196  1.00 20.00     0.005 C 
ENDBRANCH   6   7
ENDBRANCH   2   6
TORSDOF 3
ENDMDL
