MODEL 1
REMARK VINA RESULT:      -1.5      0.000      0.000
REMARK  1 active torsions:
REMARK  status: ('A' for Active; 'I' for Inactive)
REMARK    1  A    between atoms: C4_4  and  C8_8 
ROOT
HETATM    1  C1  UNL     1     -34.210   7.056   3.701  1.00 20.00    -0.057 C 
HETATM    2  C2  UNL     1     -34.027   8.138   4.474  1.00 20.00     0.017 C 
HETATM    3  C5  UNL     1     -35.121   5.938   4.131  1.00 20.00     0.038 C 
HETATM    4  C6  UNL     1     -34.369   4.609   4.143  1.00 20.00     0.030 C 
HETATM    5  C7  UNL     1     -33.219   4.570   3.140  1.00 20.00     0.169 C 
HETATM    6  C8  UNL     1     -33.539   6.820   2.358  1.00 20.00     0.171 C 
HETATM    7  O9  UNL     1     -33.490   5.418   2.025  1.00 20.00    -0.378 OA
ENDROOT
BRANCH   6   8
HETATM    8  C4  UNL     1     -32.162   7.395   2.220  1.00 20.00    -0.001 C 
HETATM    9  C3  UNL     1     -31.851   8.403   1.398  1.00 20.00     0.010 C 
ENDBRANCH   6   8
TORSDOF 1
ENDMDL
MODEL 2
REMARK VINA RESULT:      -1.2      1.495      2.687
REMARK  1 active torsions:
REMARK  status: ('A' for Active; 'I' for Inactive)
REMARK    1  A    between atoms: C4_4  and  C8_8 
ROOT
HETATM    1  C1  UNL     1     -32.826   5.990   1.825  1.00 20.00    -0.057 C 
HETATM    2  C2  UNL     1     -32.902   5.331   0.658  1.00 20.00     0.017 C 
HETATM    3  C5  UNL     1     -33.414   5.411   3.084  1.00 20.00     0.038 C 
HETATM    4  C6  UNL     1     -34.414   6.385   3.704  1.00 20.00     0.030 C 
HETATM    5  C7  UNL     1     -34.099   7.843   3.381  1.00 20.00     0.169 C 
HETATM    6  C8  UNL     1     -32.182   7.353   2.017  1.00 20.00     0.171 C 
HETATM    7  O9  UNL     1     -32.699   8.027   3.182  1.00 20.00    -0.378 OA
ENDROOT
BRANCH   6   8
HETATM    8  C4  UNL     1     -32.280   8.279   0.843  1.00 20.00    -0.001 C 
HETATM    9  C3  UNL     1     -32.237   9.612   0.935  1.00 20.00     0.010 C 
ENDBRANCH   6   8
TORSDOF 1
ENDMDL
MODEL 3
REMARK VINA RESULT:      -1.1      1.484      3.816
REMARK  1 active torsions:
REMARK  status: ('A' for Active; 'I' for Inactive)
REMARK    1  A    between atoms: C4_4  and  C8_8 
ROOT
HETATM    1  C1  UNL     1     -32.886   6.512   1.952  1.00 20.00    -0.057 C 
HETATM    2  C2  UNL     1     -32.373   5.428   1.351  1.00 20.00     0.017 C 
HETATM    3  C5  UNL     1     -32.283   7.876   1.744  1.00 20.00     0.038 C 
HETATM    4  C6  UNL     1     -31.903   8.503   3.083  1.00 20.00     0.030 C 
HETATM    5  C7  UNL     1     -32.773   8.012   4.237  1.00 20.00     0.169 C 
HETATM    6  C8  UNL     1     -34.079   6.505   2.894  1.00 20.00     0.171 C 
HETATM    7  O9  UNL     1     -34.072   7.648   3.772  1.00 20.00    -0.378 OA
ENDROOT
BRANCH   6   8
HETATM    8  C4  UNL     1     -34.234   5.265   3.721  1.00 20.00    -0.001 C 
HETATM    9  C3  UNL     1     -35.257   5.044   4.554  1.00 20.00     0.010 C 
ENDBRANCH   6   8
TORSDOF 1
ENDMDL
MODEL 4
REMARK VINA RESULT:      -0.4      1.310      3.140
REMARK  1 active torsions:
REMARK  status: ('A' for Active; 'I' for Inactive)
REMARK    1  A    between atoms: C4_4  and  C8_8 
ROOT
HETATM    1  C1  UNL     1     -33.751   5.717   2.890  1.00 20.00    -0.057 C 
HETATM    2  C2  UNL     1     -33.921   4.684   3.730  1.00 20.00     0.017 C 
HETATM    3  C5  UNL     1     -33.101   5.527   1.546  1.00 20.00     0.038 C 
HETATM    4  C6  UNL     1     -31.898   6.457   1.397  1.00 20.00     0.030 C 
HETATM    5  C7  UNL     1     -32.031   7.736   2.220  1.00 20.00     0.169 C 
HETATM    6  C8  UNL     1     -34.157   7.152   3.180  1.00 20.00     0.171 C 
HETATM    7  O9  UNL     1     -33.403   8.090   2.385  1.00 20.00    -0.378 OA
ENDROOT
BRANCH   6   8
HETATM    8  C4  UNL     1     -34.072   7.564   4.618  1.00 20.00    -0.001 C 
HETATM    9  C3  UNL     1     -33.099   8.332   5.120  1.00 20.00     0.010 C 
ENDBRANCH   6   8
TORSDOF 1
ENDMDL
MODEL 5
REMARK VINA RESULT:      -0.0      1.281      3.337
REMARK  1 active torsions:
REMARK  status: ('A' for Active; 'I' for Inactive)
REMARK    1  A    between atoms: C4_4  and  C8_8 
ROOT
HETATM    1  C1  UNL     1     -34.084   6.341   3.543  1.00 20.00    -0.057 C 
HETATM    2  C2  UNL     1     -35.316   6.443   4.066  1.00 20.00     0.017 C 
HETATM    3  C5  UNL     1     -33.505   7.444   2.698  1.00 20.00     0.038 C 
HETATM    4  C6  UNL     1     -33.081   6.906   1.333  1.00 20.00     0.030 C 
HETATM    5  C7  UNL     1     -32.693   5.430   1.371  1.00 20.00     0.169 C 
HETATM    6  C8  UNL     1     -33.161   5.146   3.712  1.00 20.00     0.171 C 
HETATM    7  O9  UNL     1     -32.183   5.074   2.655  1.00 20.00    -0.378 OA
ENDROOT
BRANCH   6   8
HETATM    8  C4  UNL     1     -33.846   3.818   3.825  1.00 20.00    -0.001 C 
HETATM    9  C3  UNL     1     -33.411   2.814   4.593  1.00 20.00     0.010 C 
ENDBRANCH   6   8
TORSDOF 1
ENDMDL
MODEL 6
REMARK VINA RESULT:       0.2      1.512      2.505
REMARK  1 active torsions:
REMARK  status: ('A' for Active; 'I' for Inactive)
REMARK    1  A    between atoms: C4_4  and  C8_8 
ROOT
HETATM    1  C1  UNL     1     -32.683   7.616   2.258  1.00 20.00    -0.057 C 
HETATM    2  C2  UNL     1     -31.507   8.249   2.122  1.00 20.00     0.017 C 
HETATM    3  C5  UNL     1     -33.791   8.204   3.090  1.00 20.00     0.038 C 
HETATM    4  C6  UNL     1     -34.233   7.217   4.168  1.00 20.00     0.030 C 
HETATM    5  C7  UNL     1     -34.013   5.761   3.765  1.00 20.00     0.169 C 
HETATM    6  C8  UNL     1     -33.030   6.275   1.632  1.00 20.00     0.171 C 
HETATM    7  O9  UNL     1     -34.091   5.611   2.348  1.00 20.00    -0.378 OA
ENDROOT
BRANCH   6   8
HETATM    8  C4  UNL     1     -31.882   5.323   1.482  1.00 20.00    -0.001 C 
HETATM    9  C3  UNL     1     -31.716   4.512   0.432  1.00 20.00     0.010 C 
ENDBRANCH   6   8
TORSDOF 1
ENDMDL
MODEL 7
REMARK VINA RESULT:       0.2      1.034      3.291
REMARK  1 active torsions:
REMARK  status: ('A' for Active; 'I' for Inactive)
REMARK    1  A    between atoms: C4_4  and  C8_8 
ROOT
HETATM    1  C1  UNL     1     -33.071   7.603   3.719  1.00 20.00    -0.057 C 
HETATM    2  C2  UNL     1     -33.668   8.421   4.600  1.00 20.00     0.017 C 
HETATM    3  C5  UNL     1     -31.897   8.068   2.899  1.00 20.00     0.038 C 
HETATM    4  C6  UNL     1     -32.181   7.889   1.409  1.00 20.00     0.030 C 
HETATM    5  C7  UNL     1     -33.151   6.745   1.123  1.00 20.00     0.169 C 
HETATM    6  C8  UNL     1     -33.493   6.172   3.433  1.00 20.00     0.171 C 
HETATM    7  O9  UNL     1     -33.056   5.738   2.129  1.00 20.00    -0.378 OA
ENDROOT
BRANCH   6   8
HETATM    8  C4  UNL     1     -34.961   5.898   3.563  1.00 20.00    -0.001 C 
HETATM    9  C3  UNL     1     -35.505   5.191   4.559  1.00 20.00     0.010 C 
ENDBRANCH   6   8
TORSDOF 1
ENDMDL
MODEL 8
REMARK VINA RESULT:       0.4      1.220      3.165
REMARK  1 active torsions:
REMARK  status: ('A' for Active; 'I' for Inactive)
REMARK    1  A    between atoms: C4_4  and  C8_8 
ROOT
HETATM    1  C1  UNL     1     -32.473   7.769   2.200  1.00 20.00    -0.057 C 
HETATM    2  C2  UNL     1     -32.747   9.050   1.910  1.00 20.00     0.017 C 
HETATM    3  C5  UNL     1     -31.475   6.985   1.390  1.00 20.00     0.038 C 
HETATM    4  C6  UNL     1     -32.117   5.714   0.835  1.00 20.00     0.030 C 
HETATM    5  C7  UNL     1     -33.255   5.195   1.710  1.00 20.00     0.169 C 
HETATM    6  C8  UNL     1     -33.116   6.971   3.323  1.00 20.00     0.171 C 
HETATM    7  O9  UNL     1     -33.049   5.552   3.075  1.00 20.00    -0.378 OA
ENDROOT
BRANCH   6   8
HETATM    8  C4  UNL     1     -34.535   7.338   3.637  1.00 20.00    -0.001 C 
HETATM    9  C3  UNL     1     -35.471   6.457   4.006  1.00 20.00     0.010 C 
ENDBRANCH   6   8
TORSDOF 1
ENDMDL
MODEL 9
REMARK VINA RESULT:       0.5      1.627      3.038
REMARK  1 active torsions:
REMARK  status: ('A' for Active; 'I' for Inactive)
REMARK    1  A    between atoms: C4_4  and  C8_8 
ROOT
HETATM    1  C1  UNL     1     -33.705   6.667   3.284  1.00 20.00    -0.057 C 
HETATM    2  C2  UNL     1     -34.988   6.396   3.568  1.00 20.00     0.017 C 
HETATM    3  C5  UNL     1     -32.990   7.817   3.942  1.00 20.00     0.038 C 
HETATM    4  C6  UNL     1     -32.417   8.763   2.888  1.00 20.00     0.030 C 
HETATM    5  C7  UNL     1     -32.085   8.058   1.576  1.00 20.00     0.169 C 
HETATM    6  C8  UNL     1     -32.848   5.895   2.295  1.00 20.00     0.171 C 
HETATM    7  O9  UNL     1     -31.749   6.691   1.807  1.00 20.00    -0.378 OA
ENDROOT
BRANCH   6   8
HETATM    8  C4  UNL     1     -33.584   5.321   1.122  1.00 20.00    -0.001 C 
HETATM    9  C3  UNL     1     -33.011   4.575   0.172  1.00 20.00     0.010 C 
ENDBRANCH   6   8
TORSDOF 1
ENDMDL
