MODEL 1
REMARK VINA RESULT:       0.5      0.000      0.000
REMARK  1 active torsions:
REMARK  status: ('A' for Active; 'I' for Inactive)
REMARK    1  A    between atoms: C7_7  and  O11_11 
ROOT
HETATM    1  C1  UNL     1     -34.534   4.813   3.893  1.00 20.00    -0.027 C 
HETATM    2  C2  UNL     1     -34.948   6.034   4.276  1.00 20.00     0.001 C 
HETATM    3  C3  UNL     1     -33.436   4.579   2.879  1.00 20.00     0.036 C 
HETATM    4  C4  UNL     1     -31.421   7.404   1.295  1.00 20.00     0.001 C 
HETATM    5  C5  UNL     1     -32.373   8.143   2.250  1.00 20.00     0.008 C 
HETATM    6  C6  UNL     1     -31.732   5.901   1.430  1.00 20.00     0.010 C 
HETATM    7  C7  UNL     1     -34.339   7.319   3.762  1.00 20.00     0.145 C 
HETATM    8  C8  UNL     1     -33.016   7.025   3.061  1.00 20.00     0.026 C 
HETATM    9  C9  UNL     1     -33.125   5.853   2.070  1.00 20.00    -0.035 C 
HETATM   10  C10 UNL     1     -34.200   6.047   0.973  1.00 20.00     0.016 C 
ENDROOT
BRANCH   7  11
HETATM   11  O11 UNL     1     -34.109   8.186   4.868  1.00 20.00    -0.391 OA
HETATM   12  H27 UNL     1     -34.839   8.042   5.490  1.00 20.00     0.210 HD
ENDBRANCH   7  11
TORSDOF 1
ENDMDL
MODEL 2
REMARK VINA RESULT:       1.2      1.770      2.711
REMARK  1 active torsions:
REMARK  status: ('A' for Active; 'I' for Inactive)
REMARK    1  A    between atoms: C7_7  and  O11_11 
ROOT
HETATM    1  C1  UNL     1     -35.635   6.184   4.272  1.00 20.00    -0.027 C 
HETATM    2  C2  UNL     1     -34.962   5.034   4.459  1.00 20.00     0.001 C 
HETATM    3  C3  UNL     1     -35.138   7.315   3.399  1.00 20.00     0.036 C 
HETATM    4  C4  UNL     1     -31.931   7.111   1.343  1.00 20.00     0.001 C 
HETATM    5  C5  UNL     1     -32.004   5.732   2.020  1.00 20.00     0.008 C 
HETATM    6  C6  UNL     1     -33.167   7.904   1.812  1.00 20.00     0.010 C 
HETATM    7  C7  UNL     1     -33.642   4.724   3.790  1.00 20.00     0.145 C 
HETATM    8  C8  UNL     1     -33.391   5.708   2.651  1.00 20.00     0.026 C 
HETATM    9  C9  UNL     1     -33.640   7.168   3.072  1.00 20.00    -0.035 C 
HETATM   10  C10 UNL     1     -32.795   7.632   4.284  1.00 20.00     0.016 C 
ENDROOT
BRANCH   7  11
HETATM   11  O11 UNL     1     -33.698   3.399   3.269  1.00 20.00    -0.391 OA
HETATM   12  H27 UNL     1     -32.842   3.233   2.845  1.00 20.00     0.210 HD
ENDBRANCH   7  11
TORSDOF 1
ENDMDL
MODEL 3
REMARK VINA RESULT:       1.4      1.811      3.858
REMARK  1 active torsions:
REMARK  status: ('A' for Active; 'I' for Inactive)
REMARK    1  A    between atoms: C7_7  and  O11_11 
ROOT
HETATM    1  C1  UNL     1     -32.681   8.364   2.624  1.00 20.00    -0.027 C 
HETATM    2  C2  UNL     1     -32.345   7.469   1.677  1.00 20.00     0.001 C 
HETATM    3  C3  UNL     1     -33.554   8.037   3.816  1.00 20.00     0.036 C 
HETATM    4  C4  UNL     1     -34.864   4.528   4.544  1.00 20.00     0.001 C 
HETATM    5  C5  UNL     1     -34.029   4.335   3.267  1.00 20.00     0.008 C 
HETATM    6  C6  UNL     1     -34.775   6.022   4.912  1.00 20.00     0.010 C 
HETATM    7  C7  UNL     1     -32.774   6.019   1.712  1.00 20.00     0.145 C 
HETATM    8  C8  UNL     1     -33.308   5.666   3.097  1.00 20.00     0.026 C 
HETATM    9  C9  UNL     1     -34.311   6.709   3.621  1.00 20.00    -0.035 C 
HETATM   10  C10 UNL     1     -35.531   6.938   2.696  1.00 20.00     0.016 C 
ENDROOT
BRANCH   7  11
HETATM   11  O11 UNL     1     -31.643   5.205   1.417  1.00 20.00    -0.391 OA
HETATM   12  H27 UNL     1     -31.850   4.315   1.744  1.00 20.00     0.210 HD
ENDBRANCH   7  11
TORSDOF 1
ENDMDL
MODEL 4
REMARK VINA RESULT:       1.8      2.009      3.142
REMARK  1 active torsions:
REMARK  status: ('A' for Active; 'I' for Inactive)
REMARK    1  A    between atoms: C7_7  and  O11_11 
ROOT
HETATM    1  C1  UNL     1     -34.200   6.423   3.619  1.00 20.00    -0.027 C 
HETATM    2  C2  UNL     1     -33.435   5.520   2.979  1.00 20.00     0.001 C 
HETATM    3  C3  UNL     1     -34.157   7.909   3.339  1.00 20.00     0.036 C 
HETATM    4  C4  UNL     1     -32.001   9.455   0.598  1.00 20.00     0.001 C 
HETATM    5  C5  UNL     1     -31.715   7.949   0.464  1.00 20.00     0.008 C 
HETATM    6  C6  UNL     1     -33.003   9.617   1.757  1.00 20.00     0.010 C 
HETATM    7  C7  UNL     1     -32.464   5.883   1.878  1.00 20.00     0.145 C 
HETATM    8  C8  UNL     1     -32.741   7.300   1.385  1.00 20.00     0.026 C 
HETATM    9  C9  UNL     1     -32.899   8.303   2.542  1.00 20.00    -0.035 C 
HETATM   10  C10 UNL     1     -31.680   8.370   3.494  1.00 20.00     0.016 C 
ENDROOT
BRANCH   7  11
HETATM   11  O11 UNL     1     -32.633   4.964   0.803  1.00 20.00    -0.391 OA
HETATM   12  H27 UNL     1     -32.433   5.451  -0.011  1.00 20.00     0.210 HD
ENDBRANCH   7  11
TORSDOF 1
ENDMDL
MODEL 5
REMARK VINA RESULT:       2.4      1.514      3.284
REMARK  1 active torsions:
REMARK  status: ('A' for Active; 'I' for Inactive)
REMARK    1  A    between atoms: C7_7  and  O11_11 
ROOT
HETATM    1  C1  UNL     1     -32.646   5.408   0.693  1.00 20.00    -0.027 C 
HETATM    2  C2  UNL     1     -31.788   6.399   1.000  1.00 20.00     0.001 C 
HETATM    3  C3  UNL     1     -33.881   5.086   1.504  1.00 20.00     0.036 C 
HETATM    4  C4  UNL     1     -34.989   7.137   4.524  1.00 20.00     0.001 C 
HETATM    5  C5  UNL     1     -33.722   7.867   4.047  1.00 20.00     0.008 C 
HETATM    6  C6  UNL     1     -35.201   5.944   3.571  1.00 20.00     0.010 C 
HETATM    7  C7  UNL     1     -31.979   7.330   2.176  1.00 20.00     0.145 C 
HETATM    8  C8  UNL     1     -33.403   7.210   2.710  1.00 20.00     0.026 C 
HETATM    9  C9  UNL     1     -33.838   5.745   2.896  1.00 20.00    -0.035 C 
HETATM   10  C10 UNL     1     -32.918   4.924   3.832  1.00 20.00     0.016 C 
ENDROOT
BRANCH   7  11
HETATM   11  O11 UNL     1     -31.746   8.666   1.739  1.00 20.00    -0.391 OA
HETATM   12  H27 UNL     1     -31.404   8.605   0.833  1.00 20.00     0.210 HD
ENDBRANCH   7  11
TORSDOF 1
ENDMDL
MODEL 6
REMARK VINA RESULT:       2.4      1.733      2.836
REMARK  1 active torsions:
REMARK  status: ('A' for Active; 'I' for Inactive)
REMARK    1  A    between atoms: C7_7  and  O11_11 
ROOT
HETATM    1  C1  UNL     1     -35.335   6.214   4.220  1.00 20.00    -0.027 C 
HETATM    2  C2  UNL     1     -34.552   5.172   3.887  1.00 20.00     0.001 C 
HETATM    3  C3  UNL     1     -35.032   7.646   3.842  1.00 20.00     0.036 C 
HETATM    4  C4  UNL     1     -32.062   8.647   1.667  1.00 20.00     0.001 C 
HETATM    5  C5  UNL     1     -31.945   7.115   1.739  1.00 20.00     0.008 C 
HETATM    6  C6  UNL     1     -33.301   9.040   2.495  1.00 20.00     0.010 C 
HETATM    7  C7  UNL     1     -33.291   5.308   3.063  1.00 20.00     0.145 C 
HETATM    8  C8  UNL     1     -33.248   6.681   2.399  1.00 20.00     0.026 C 
HETATM    9  C9  UNL     1     -33.571   7.819   3.384  1.00 20.00    -0.035 C 
HETATM   10  C10 UNL     1     -32.641   7.870   4.621  1.00 20.00     0.016 C 
ENDROOT
BRANCH   7  11
HETATM   11  O11 UNL     1     -33.292   4.295   2.061  1.00 20.00    -0.391 OA
HETATM   12  H27 UNL     1     -34.207   3.980   1.987  1.00 20.00     0.210 HD
ENDBRANCH   7  11
TORSDOF 1
ENDMDL
MODEL 7
REMARK VINA RESULT:       3.3      1.590      3.156
REMARK  1 active torsions:
REMARK  status: ('A' for Active; 'I' for Inactive)
REMARK    1  A    between atoms: C7_7  and  O11_11 
ROOT
HETATM    1  C1  UNL     1     -31.964   5.922   1.085  1.00 20.00    -0.027 C 
HETATM    2  C2  UNL     1     -33.103   5.316   1.470  1.00 20.00     0.001 C 
HETATM    3  C3  UNL     1     -31.400   7.154   1.757  1.00 20.00     0.036 C 
HETATM    4  C4  UNL     1     -32.964   8.746   4.851  1.00 20.00     0.001 C 
HETATM    5  C5  UNL     1     -33.876   7.537   4.577  1.00 20.00     0.008 C 
HETATM    6  C6  UNL     1     -31.874   8.738   3.762  1.00 20.00     0.010 C 
HETATM    7  C7  UNL     1     -33.935   5.779   2.644  1.00 20.00     0.145 C 
HETATM    8  C8  UNL     1     -33.135   6.758   3.498  1.00 20.00     0.026 C 
HETATM    9  C9  UNL     1     -32.446   7.845   2.652  1.00 20.00    -0.035 C 
HETATM   10  C10 UNL     1     -33.414   8.675   1.775  1.00 20.00     0.016 C 
ENDROOT
BRANCH   7  11
HETATM   11  O11 UNL     1     -34.285   4.642   3.428  1.00 20.00    -0.391 OA
HETATM   12  H27 UNL     1     -34.806   4.060   2.853  1.00 20.00     0.210 HD
ENDBRANCH   7  11
TORSDOF 1
ENDMDL
