MODEL 1
REMARK VINA RESULT:       1.3      0.000      0.000
REMARK  0 active torsions:
REMARK  status: ('A' for Active; 'I' for Inactive)
ROOT
HETATM    1  C1  UNL     1     -33.789   3.794   4.157  1.00 20.00    -0.071 C 
HETATM    2  C2  UNL     1     -32.332   5.997   1.702  1.00 20.00     0.220 C 
HETATM    3  C3  UNL     1     -33.214   2.735   4.746  1.00 20.00     0.016 C 
HETATM    4  C4  UNL     1     -34.657   4.743   4.944  1.00 20.00     0.037 C 
HETATM    5  C5  UNL     1     -33.587   4.100   2.699  1.00 20.00     0.159 C 
HETATM    6  C6  UNL     1     -32.213   7.505   1.687  1.00 20.00     0.103 C 
HETATM    7  C7  UNL     1     -35.336   5.770   4.036  1.00 20.00     0.030 C 
HETATM    8  C8  UNL     1     -32.287   8.029   3.114  1.00 20.00     0.015 C 
HETATM    9  C9  UNL     1     -33.620   7.671   3.799  1.00 20.00     0.005 C 
HETATM   10  C10 UNL     1     -34.331   6.479   3.106  1.00 20.00     0.091 C 
HETATM   11  C11 UNL     1     -34.535   8.903   3.837  1.00 20.00     0.012 C 
HETATM   12  N12 UNL     1     -33.353   5.534   2.536  1.00 20.00    -0.343 N 
HETATM   13  O13 UNL     1     -31.586   5.292   1.026  1.00 20.00    -0.273 OA
ENDROOT
TORSDOF 0
ENDMDL
MODEL 2
REMARK VINA RESULT:       1.7      1.644      4.349
REMARK  0 active torsions:
REMARK  status: ('A' for Active; 'I' for Inactive)
ROOT
HETATM    1  C1  UNL     1     -32.317   9.224   0.475  1.00 20.00    -0.071 C 
HETATM    2  C2  UNL     1     -32.939   5.890   1.700  1.00 20.00     0.220 C 
HETATM    3  C3  UNL     1     -32.638   9.723  -0.729  1.00 20.00     0.016 C 
HETATM    4  C4  UNL     1     -32.486  10.047   1.726  1.00 20.00     0.037 C 
HETATM    5  C5  UNL     1     -31.796   7.824   0.640  1.00 20.00     0.159 C 
HETATM    6  C6  UNL     1     -33.622   5.423   2.967  1.00 20.00     0.103 C 
HETATM    7  C7  UNL     1     -31.902   9.338   2.950  1.00 20.00     0.030 C 
HETATM    8  C8  UNL     1     -34.554   6.517   3.467  1.00 20.00     0.015 C 
HETATM    9  C9  UNL     1     -33.800   7.821   3.794  1.00 20.00     0.005 C 
HETATM   10  C10 UNL     1     -32.421   7.892   3.086  1.00 20.00     0.091 C 
HETATM   11  C11 UNL     1     -33.640   7.964   5.314  1.00 20.00     0.012 C 
HETATM   12  N12 UNL     1     -32.454   7.197   1.786  1.00 20.00    -0.343 N 
HETATM   13  O13 UNL     1     -32.838   5.153   0.721  1.00 20.00    -0.273 OA
ENDROOT
TORSDOF 0
ENDMDL
