MODEL 1
REMARK VINA RESULT:      -2.5      0.000      0.000
REMARK  1 active torsions:
REMARK  status: ('A' for Active; 'I' for Inactive)
REMARK    1  A    between atoms: C1_1  and  C3_3 
ROOT
HETATM    1  C2  UNL     1     -34.410   6.168   3.863  1.00 20.00     0.054 A 
HETATM    2  C3  UNL     1     -34.070   7.135   2.757  1.00 20.00     0.109 A 
HETATM    3  C4  UNL     1     -34.192   7.614   4.171  1.00 20.00     0.183 A 
HETATM    4  F6  UNL     1     -33.036   7.953   4.851  1.00 20.00    -0.249 F 
ENDROOT
BRANCH   2   5
HETATM    5  C1  UNL     1     -32.747   7.067   2.126  1.00 20.00     0.225 C 
HETATM    6  O5  UNL     1     -31.974   8.020   2.147  1.00 20.00    -0.279 OA
HETATM    7 CL7  UNL     1     -32.454   5.524   1.384  1.00 20.00    -0.043 Cl
ENDBRANCH   2   5
TORSDOF 1
ENDMDL
MODEL 2
REMARK VINA RESULT:      -2.2      2.420      2.996
REMARK  1 active torsions:
REMARK  status: ('A' for Active; 'I' for Inactive)
REMARK    1  A    between atoms: C1_1  and  C3_3 
ROOT
HETATM    1  C2  UNL     1     -31.979   7.518   2.068  1.00 20.00     0.054 A 
HETATM    2  C3  UNL     1     -33.446   7.603   2.407  1.00 20.00     0.109 A 
HETATM    3  C4  UNL     1     -32.914   6.439   1.628  1.00 20.00     0.183 A 
HETATM    4  F6  UNL     1     -32.817   5.213   2.263  1.00 20.00    -0.249 F 
ENDROOT
BRANCH   2   5
HETATM    5  C1  UNL     1     -33.875   7.410   3.796  1.00 20.00     0.225 C 
HETATM    6  O5  UNL     1     -33.312   7.975   4.729  1.00 20.00    -0.279 OA
HETATM    7 CL7  UNL     1     -35.225   6.323   3.920  1.00 20.00    -0.043 Cl
ENDBRANCH   2   5
TORSDOF 1
ENDMDL
MODEL 3
REMARK VINA RESULT:      -2.1      2.062      2.198
REMARK  1 active torsions:
REMARK  status: ('A' for Active; 'I' for Inactive)
REMARK    1  A    between atoms: C1_1  and  C3_3 
ROOT
HETATM    1  C2  UNL     1     -34.058   7.771   4.209  1.00 20.00     0.054 A 
HETATM    2  C3  UNL     1     -33.429   6.556   3.574  1.00 20.00     0.109 A 
HETATM    3  C4  UNL     1     -34.882   6.553   3.939  1.00 20.00     0.183 A 
HETATM    4  F6  UNL     1     -35.815   6.628   2.921  1.00 20.00    -0.249 F 
ENDROOT
BRANCH   2   5
HETATM    5  C1  UNL     1     -33.036   6.607   2.162  1.00 20.00     0.225 C 
HETATM    6  O5  UNL     1     -33.321   5.703   1.381  1.00 20.00    -0.279 OA
HETATM    7 CL7  UNL     1     -32.156   8.055   1.778  1.00 20.00    -0.043 Cl
ENDBRANCH   2   5
TORSDOF 1
ENDMDL
MODEL 4
REMARK VINA RESULT:      -2.0      2.747      3.295
REMARK  1 active torsions:
REMARK  status: ('A' for Active; 'I' for Inactive)
REMARK    1  A    between atoms: C1_1  and  C3_3 
ROOT
HETATM    1  C2  UNL     1     -31.888   7.639   2.141  1.00 20.00     0.054 A 
HETATM    2  C3  UNL     1     -33.380   7.629   2.362  1.00 20.00     0.109 A 
HETATM    3  C4  UNL     1     -32.740   6.614   1.464  1.00 20.00     0.183 A 
HETATM    4  F6  UNL     1     -32.644   5.309   1.911  1.00 20.00    -0.249 F 
ENDROOT
BRANCH   2   5
HETATM    5  C1  UNL     1     -33.911   7.212   3.664  1.00 20.00     0.225 C 
HETATM    6  O5  UNL     1     -34.710   6.285   3.768  1.00 20.00    -0.279 OA
HETATM    7 CL7  UNL     1     -33.277   8.171   4.966  1.00 20.00    -0.043 Cl
ENDBRANCH   2   5
TORSDOF 1
ENDMDL
MODEL 5
REMARK VINA RESULT:      -1.9      2.313      2.833
REMARK  1 active torsions:
REMARK  status: ('A' for Active; 'I' for Inactive)
REMARK    1  A    between atoms: C1_1  and  C3_3 
ROOT
HETATM    1  C2  UNL     1     -33.313   6.130   1.343  1.00 20.00     0.054 A 
HETATM    2  C3  UNL     1     -33.098   6.221   2.833  1.00 20.00     0.109 A 
HETATM    3  C4  UNL     1     -32.226   6.996   1.893  1.00 20.00     0.183 A 
HETATM    4  F6  UNL     1     -32.401   8.366   1.814  1.00 20.00    -0.249 F 
ENDROOT
BRANCH   2   5
HETATM    5  C1  UNL     1     -34.082   6.928   3.659  1.00 20.00     0.225 C 
HETATM    6  O5  UNL     1     -33.894   8.080   4.041  1.00 20.00    -0.279 OA
HETATM    7 CL7  UNL     1     -35.475   5.949   4.001  1.00 20.00    -0.043 Cl
ENDBRANCH   2   5
TORSDOF 1
ENDMDL
MODEL 6
REMARK VINA RESULT:      -1.9      2.092      2.196
REMARK  1 active torsions:
REMARK  status: ('A' for Active; 'I' for Inactive)
REMARK    1  A    between atoms: C1_1  and  C3_3 
ROOT
HETATM    1  C2  UNL     1     -35.367   6.552   3.469  1.00 20.00     0.054 A 
HETATM    2  C3  UNL     1     -33.911   6.944   3.507  1.00 20.00     0.109 A 
HETATM    3  C4  UNL     1     -34.400   5.765   4.293  1.00 20.00     0.183 A 
HETATM    4  F6  UNL     1     -34.069   4.497   3.849  1.00 20.00    -0.249 F 
ENDROOT
BRANCH   2   5
HETATM    5  C1  UNL     1     -33.078   6.728   2.319  1.00 20.00     0.225 C 
HETATM    6  O5  UNL     1     -33.103   5.669   1.698  1.00 20.00    -0.279 OA
HETATM    7 CL7  UNL     1     -32.104   8.116   1.942  1.00 20.00    -0.043 Cl
ENDBRANCH   2   5
TORSDOF 1
ENDMDL
MODEL 7
REMARK VINA RESULT:      -1.6      2.096      2.244
REMARK  1 active torsions:
REMARK  status: ('A' for Active; 'I' for Inactive)
REMARK    1  A    between atoms: C1_1  and  C3_3 
ROOT
HETATM    1  C2  UNL     1     -33.868   7.469   4.658  1.00 20.00     0.054 A 
HETATM    2  C3  UNL     1     -34.441   6.648   3.530  1.00 20.00     0.109 A 
HETATM    3  C4  UNL     1     -33.808   7.978   3.254  1.00 20.00     0.183 A 
HETATM    4  F6  UNL     1     -32.570   8.000   2.637  1.00 20.00    -0.249 F 
ENDROOT
BRANCH   2   5
HETATM    5  C1  UNL     1     -33.755   5.419   3.116  1.00 20.00     0.225 C 
HETATM    6  O5  UNL     1     -33.055   5.380   2.109  1.00 20.00    -0.279 OA
HETATM    7 CL7  UNL     1     -34.065   4.099   4.202  1.00 20.00    -0.043 Cl
ENDBRANCH   2   5
TORSDOF 1
ENDMDL
MODEL 8
REMARK VINA RESULT:      -1.5      2.443      2.698
REMARK  1 active torsions:
REMARK  status: ('A' for Active; 'I' for Inactive)
REMARK    1  A    between atoms: C1_1  and  C3_3 
ROOT
HETATM    1  C2  UNL     1     -31.902   5.582   1.702  1.00 20.00     0.054 A 
HETATM    2  C3  UNL     1     -32.448   6.843   1.081  1.00 20.00     0.109 A 
HETATM    3  C4  UNL     1     -33.354   5.911   1.825  1.00 20.00     0.183 A 
HETATM    4  F6  UNL     1     -33.817   6.300   3.070  1.00 20.00    -0.249 F 
ENDROOT
BRANCH   2   5
HETATM    5  C1  UNL     1     -32.102   8.142   1.669  1.00 20.00     0.225 C 
HETATM    6  O5  UNL     1     -31.725   8.242   2.833  1.00 20.00    -0.279 OA
HETATM    7 CL7  UNL     1     -32.294   9.445   0.537  1.00 20.00    -0.043 Cl
ENDBRANCH   2   5
TORSDOF 1
ENDMDL
MODEL 9
REMARK VINA RESULT:      -1.5      2.781      3.635
REMARK  1 active torsions:
REMARK  status: ('A' for Active; 'I' for Inactive)
REMARK    1  A    between atoms: C1_1  and  C3_3 
ROOT
HETATM    1  C2  UNL     1     -32.577   9.016  -0.584  1.00 20.00     0.054 A 
HETATM    2  C3  UNL     1     -31.676   8.849   0.614  1.00 20.00     0.109 A 
HETATM    3  C4  UNL     1     -32.345  10.163   0.347  1.00 20.00     0.183 A 
HETATM    4  F6  UNL     1     -33.396  10.542   1.163  1.00 20.00    -0.249 F 
ENDROOT
BRANCH   2   5
HETATM    5  C1  UNL     1     -32.124   8.023   1.740  1.00 20.00     0.225 C 
HETATM    6  O5  UNL     1     -32.226   8.480   2.875  1.00 20.00    -0.279 OA
HETATM    7 CL7  UNL     1     -32.471   6.390   1.257  1.00 20.00    -0.043 Cl
ENDBRANCH   2   5
TORSDOF 1
ENDMDL
