MODEL 1
REMARK VINA RESULT:      -1.5      0.000      0.000
REMARK  0 active torsions:
REMARK  status: ('A' for Active; 'I' for Inactive)
ROOT
HETATM    1  C1  UNL     1     -33.964   4.244   3.583  1.00 20.00    -0.030 C 
HETATM    2  C2  UNL     1     -33.312   4.706   2.505  1.00 20.00    -0.020 C 
HETATM    3  C3  UNL     1     -34.382   7.358   3.849  1.00 20.00    -0.021 C 
HETATM    4  C4  UNL     1     -33.418   7.248   2.927  1.00 20.00    -0.050 C 
HETATM    5  C5  UNL     1     -34.826   4.986   4.563  1.00 20.00     0.030 C 
HETATM    6  C6  UNL     1     -35.419   6.310   4.084  1.00 20.00     0.031 C 
HETATM    7  C7  UNL     1     -32.382   8.296   2.685  1.00 20.00     0.202 C 
HETATM    8  C8  UNL     1     -31.750   6.405   1.550  1.00 20.00     0.180 C 
HETATM    9  C9  UNL     1     -33.186   6.107   1.980  1.00 20.00     0.062 C 
HETATM   10  O10 UNL     1     -31.632   7.833   1.552  1.00 20.00    -0.386 OA
ENDROOT
TORSDOF 0
ENDMDL
MODEL 2
REMARK VINA RESULT:      -1.2      1.947      4.030
REMARK  0 active torsions:
REMARK  status: ('A' for Active; 'I' for Inactive)
ROOT
HETATM    1  C1  UNL     1     -32.758   8.313   2.912  1.00 20.00    -0.030 C 
HETATM    2  C2  UNL     1     -33.895   7.835   3.440  1.00 20.00    -0.020 C 
HETATM    3  C3  UNL     1     -32.687   5.297   1.998  1.00 20.00    -0.021 C 
HETATM    4  C4  UNL     1     -33.645   5.320   2.933  1.00 20.00    -0.050 C 
HETATM    5  C5  UNL     1     -31.791   7.649   1.976  1.00 20.00     0.030 C 
HETATM    6  C6  UNL     1     -32.331   6.478   1.157  1.00 20.00     0.031 C 
HETATM    7  C7  UNL     1     -34.008   4.139   3.772  1.00 20.00     0.202 C 
HETATM    8  C8  UNL     1     -35.039   5.983   4.666  1.00 20.00     0.180 C 
HETATM    9  C9  UNL     1     -34.521   6.476   3.315  1.00 20.00     0.062 C 
HETATM   10  O10 UNL     1     -35.141   4.559   4.547  1.00 20.00    -0.386 OA
ENDROOT
TORSDOF 0
ENDMDL
MODEL 3
REMARK VINA RESULT:      -0.9      0.600      2.256
REMARK  0 active torsions:
REMARK  status: ('A' for Active; 'I' for Inactive)
ROOT
HETATM    1  C1  UNL     1     -35.191   6.859   4.260  1.00 20.00    -0.030 C 
HETATM    2  C2  UNL     1     -34.127   7.578   3.869  1.00 20.00    -0.020 C 
HETATM    3  C3  UNL     1     -33.431   4.686   2.806  1.00 20.00    -0.021 C 
HETATM    4  C4  UNL     1     -32.872   5.844   2.432  1.00 20.00    -0.050 C 
HETATM    5  C5  UNL     1     -35.413   5.376   4.194  1.00 20.00     0.030 C 
HETATM    6  C6  UNL     1     -34.163   4.504   4.094  1.00 20.00     0.031 C 
HETATM    7  C7  UNL     1     -32.134   6.028   1.147  1.00 20.00     0.202 C 
HETATM    8  C8  UNL     1     -32.481   8.101   2.065  1.00 20.00     0.180 C 
HETATM    9  C9  UNL     1     -32.863   7.139   3.189  1.00 20.00     0.062 C 
HETATM   10  O10 UNL     1     -31.610   7.363   1.199  1.00 20.00    -0.386 OA
ENDROOT
TORSDOF 0
ENDMDL
MODEL 4
REMARK VINA RESULT:      -0.9      1.920      3.454
REMARK  0 active torsions:
REMARK  status: ('A' for Active; 'I' for Inactive)
ROOT
HETATM    1  C1  UNL     1     -32.113   6.376   1.260  1.00 20.00    -0.030 C 
HETATM    2  C2  UNL     1     -32.469   5.368   2.071  1.00 20.00    -0.020 C 
HETATM    3  C3  UNL     1     -33.741   7.882   3.500  1.00 20.00    -0.021 C 
HETATM    4  C4  UNL     1     -34.041   6.593   3.706  1.00 20.00    -0.050 C 
HETATM    5  C5  UNL     1     -32.279   7.855   1.452  1.00 20.00     0.030 C 
HETATM    6  C6  UNL     1     -32.458   8.340   2.890  1.00 20.00     0.031 C 
HETATM    7  C7  UNL     1     -35.321   6.131   4.321  1.00 20.00     0.202 C 
HETATM    8  C8  UNL     1     -34.256   4.297   3.449  1.00 20.00     0.180 C 
HETATM    9  C9  UNL     1     -33.197   5.396   3.384  1.00 20.00     0.062 C 
HETATM   10  O10 UNL     1     -35.184   4.709   4.460  1.00 20.00    -0.386 OA
ENDROOT
TORSDOF 0
ENDMDL
