MODEL 1
REMARK VINA RESULT:      -1.5      0.000      0.000
REMARK  2 active torsions:
REMARK  status: ('A' for Active; 'I' for Inactive)
REMARK    1  A    between atoms: C1_1  and  C3_3 
REMARK    2  A    between atoms: C1_1  and  C8_8 
ROOT
HETATM    1  C2  UNL     1     -33.081   5.817   2.831  1.00 20.00     0.022 A 
HETATM    2  C3  UNL     1     -33.395   7.040   2.010  1.00 20.00     0.064 A 
HETATM    3  C4  UNL     1     -33.916   6.921   3.432  1.00 20.00    -0.037 A 
HETATM    4  C5  UNL     1     -35.391   6.673   3.611  1.00 20.00     0.015 C 
HETATM    5  C6  UNL     1     -33.298   7.750   4.528  1.00 20.00     0.015 C 
ENDROOT
BRANCH   2   6
HETATM    6  C1  UNL     1     -32.319   7.981   1.675  1.00 20.00     0.131 C 
HETATM    7  O9  UNL     1     -31.141   7.630   1.696  1.00 20.00    -0.298 OA
BRANCH   6   8
HETATM    8  C8  UNL     1     -32.753   9.389   1.310  1.00 20.00     0.074 C 
HETATM    9  C7  UNL     1     -32.405   9.755  -0.121  1.00 20.00     0.013 C 
ENDBRANCH   6   8
ENDBRANCH   2   6
TORSDOF 2
ENDMDL
MODEL 2
REMARK VINA RESULT:      -0.8      1.190      1.980
REMARK  2 active torsions:
REMARK  status: ('A' for Active; 'I' for Inactive)
REMARK    1  A    between atoms: C1_1  and  C3_3 
REMARK    2  A    between atoms: C1_1  and  C8_8 
ROOT
HETATM    1  C2  UNL     1     -33.929   7.502   4.343  1.00 20.00     0.022 A 
HETATM    2  C3  UNL     1     -33.369   6.435   3.439  1.00 20.00     0.064 A 
HETATM    3  C4  UNL     1     -34.855   6.467   3.753  1.00 20.00    -0.037 A 
HETATM    4  C5  UNL     1     -35.393   5.398   4.667  1.00 20.00     0.015 C 
HETATM    5  C6  UNL     1     -35.834   6.922   2.702  1.00 20.00     0.015 C 
ENDROOT
BRANCH   2   6
HETATM    6  C1  UNL     1     -32.870   6.805   2.108  1.00 20.00     0.131 C 
HETATM    7  O9  UNL     1     -33.101   6.100   1.127  1.00 20.00    -0.298 OA
BRANCH   6   8
HETATM    8  C8  UNL     1     -32.068   8.090   2.029  1.00 20.00     0.074 C 
HETATM    9  C7  UNL     1     -32.465   8.955   0.847  1.00 20.00     0.013 C 
ENDBRANCH   6   8
ENDBRANCH   2   6
TORSDOF 2
ENDMDL
MODEL 3
REMARK VINA RESULT:      -0.7      2.664      4.608
REMARK  2 active torsions:
REMARK  status: ('A' for Active; 'I' for Inactive)
REMARK    1  A    between atoms: C1_1  and  C3_3 
REMARK    2  A    between atoms: C1_1  and  C8_8 
ROOT
HETATM    1  C2  UNL     1     -35.146   7.016   3.042  1.00 20.00     0.022 A 
HETATM    2  C3  UNL     1     -34.222   5.827   3.073  1.00 20.00     0.064 A 
HETATM    3  C4  UNL     1     -33.727   7.190   3.525  1.00 20.00    -0.037 A 
HETATM    4  C5  UNL     1     -32.757   7.908   2.624  1.00 20.00     0.015 C 
HETATM    5  C6  UNL     1     -33.515   7.461   4.992  1.00 20.00     0.015 C 
ENDROOT
BRANCH   2   6
HETATM    6  C1  UNL     1     -34.463   4.751   4.042  1.00 20.00     0.131 C 
HETATM    7  O9  UNL     1     -35.384   4.824   4.854  1.00 20.00    -0.298 OA
BRANCH   6   8
HETATM    8  C8  UNL     1     -33.517   3.566   3.974  1.00 20.00     0.074 C 
HETATM    9  C7  UNL     1     -33.022   3.133   5.342  1.00 20.00     0.013 C 
ENDBRANCH   6   8
ENDBRANCH   2   6
TORSDOF 2
ENDMDL
MODEL 4
REMARK VINA RESULT:      -0.5      1.747      3.886
REMARK  2 active torsions:
REMARK  status: ('A' for Active; 'I' for Inactive)
REMARK    1  A    between atoms: C1_1  and  C3_3 
REMARK    2  A    between atoms: C1_1  and  C8_8 
ROOT
HETATM    1  C2  UNL     1     -31.433   8.461   2.940  1.00 20.00     0.022 A 
HETATM    2  C3  UNL     1     -32.938   8.520   2.945  1.00 20.00     0.064 A 
HETATM    3  C4  UNL     1     -32.204   7.859   1.791  1.00 20.00    -0.037 A 
HETATM    4  C5  UNL     1     -32.189   8.587   0.473  1.00 20.00     0.015 C 
HETATM    5  C6  UNL     1     -32.210   6.358   1.661  1.00 20.00     0.015 C 
ENDROOT
BRANCH   2   6
HETATM    6  C1  UNL     1     -33.689   7.720   3.920  1.00 20.00     0.131 C 
HETATM    7  O9  UNL     1     -33.369   7.706   5.107  1.00 20.00    -0.298 OA
BRANCH   6   8
HETATM    8  C8  UNL     1     -34.863   6.929   3.373  1.00 20.00     0.074 C 
HETATM    9  C7  UNL     1     -35.191   5.711   4.217  1.00 20.00     0.013 C 
ENDBRANCH   6   8
ENDBRANCH   2   6
TORSDOF 2
ENDMDL
MODEL 5
REMARK VINA RESULT:      -0.4      1.708      2.662
REMARK  2 active torsions:
REMARK  status: ('A' for Active; 'I' for Inactive)
REMARK    1  A    between atoms: C1_1  and  C3_3 
REMARK    2  A    between atoms: C1_1  and  C8_8 
ROOT
HETATM    1  C2  UNL     1     -34.029   7.522   4.463  1.00 20.00     0.022 A 
HETATM    2  C3  UNL     1     -33.420   6.544   3.494  1.00 20.00     0.064 A 
HETATM    3  C4  UNL     1     -34.902   6.472   3.821  1.00 20.00    -0.037 A 
HETATM    4  C5  UNL     1     -35.366   5.322   4.676  1.00 20.00     0.015 C 
HETATM    5  C6  UNL     1     -35.917   6.930   2.807  1.00 20.00     0.015 C 
ENDROOT
BRANCH   2   6
HETATM    6  C1  UNL     1     -32.958   7.019   2.183  1.00 20.00     0.131 C 
HETATM    7  O9  UNL     1     -32.595   8.182   2.023  1.00 20.00    -0.298 OA
BRANCH   6   8
HETATM    8  C8  UNL     1     -32.960   5.994   1.063  1.00 20.00     0.074 C 
HETATM    9  C7  UNL     1     -31.793   5.028   1.154  1.00 20.00     0.013 C 
ENDBRANCH   6   8
ENDBRANCH   2   6
TORSDOF 2
ENDMDL
MODEL 6
REMARK VINA RESULT:      -0.4      1.636      3.930
REMARK  2 active torsions:
REMARK  status: ('A' for Active; 'I' for Inactive)
REMARK    1  A    between atoms: C1_1  and  C3_3 
REMARK    2  A    between atoms: C1_1  and  C8_8 
ROOT
HETATM    1  C2  UNL     1     -33.097   6.470   1.603  1.00 20.00     0.022 A 
HETATM    2  C3  UNL     1     -32.830   6.899   3.022  1.00 20.00     0.064 A 
HETATM    3  C4  UNL     1     -32.374   7.769   1.863  1.00 20.00    -0.037 A 
HETATM    4  C5  UNL     1     -30.896   7.823   1.577  1.00 20.00     0.015 C 
HETATM    5  C6  UNL     1     -33.104   9.050   1.556  1.00 20.00     0.015 C 
ENDROOT
BRANCH   2   6
HETATM    6  C1  UNL     1     -33.951   7.306   3.877  1.00 20.00     0.131 C 
HETATM    7  O9  UNL     1     -33.833   8.230   4.679  1.00 20.00    -0.298 OA
BRANCH   6   8
HETATM    8  C8  UNL     1     -35.241   6.524   3.705  1.00 20.00     0.074 C 
HETATM    9  C7  UNL     1     -35.206   5.179   4.407  1.00 20.00     0.013 C 
ENDBRANCH   6   8
ENDBRANCH   2   6
TORSDOF 2
ENDMDL
MODEL 7
REMARK VINA RESULT:      -0.3      1.872      3.821
REMARK  2 active torsions:
REMARK  status: ('A' for Active; 'I' for Inactive)
REMARK    1  A    between atoms: C1_1  and  C3_3 
REMARK    2  A    between atoms: C1_1  and  C8_8 
ROOT
HETATM    1  C2  UNL     1     -32.144   7.248   1.845  1.00 20.00     0.022 A 
HETATM    2  C3  UNL     1     -33.594   7.092   2.221  1.00 20.00     0.064 A 
HETATM    3  C4  UNL     1     -32.806   5.899   1.706  1.00 20.00    -0.037 A 
HETATM    4  C5  UNL     1     -33.123   5.409   0.317  1.00 20.00     0.015 C 
HETATM    5  C6  UNL     1     -32.386   4.811   2.658  1.00 20.00     0.015 C 
ENDROOT
BRANCH   2   6
HETATM    6  C1  UNL     1     -33.988   7.184   3.632  1.00 20.00     0.131 C 
HETATM    7  O9  UNL     1     -33.269   7.748   4.455  1.00 20.00    -0.298 OA
BRANCH   6   8
HETATM    8  C8  UNL     1     -35.317   6.548   3.998  1.00 20.00     0.074 C 
HETATM    9  C7  UNL     1     -35.166   5.119   4.487  1.00 20.00     0.013 C 
ENDBRANCH   6   8
ENDBRANCH   2   6
TORSDOF 2
ENDMDL
MODEL 8
REMARK VINA RESULT:      -0.3      1.153      3.793
REMARK  2 active torsions:
REMARK  status: ('A' for Active; 'I' for Inactive)
REMARK    1  A    between atoms: C1_1  and  C3_3 
REMARK    2  A    between atoms: C1_1  and  C8_8 
ROOT
HETATM    1  C2  UNL     1     -31.035   8.531   1.460  1.00 20.00     0.022 A 
HETATM    2  C3  UNL     1     -32.354   8.194   2.105  1.00 20.00     0.064 A 
HETATM    3  C4  UNL     1     -32.315   9.042   0.844  1.00 20.00    -0.037 A 
HETATM    4  C5  UNL     1     -32.630  10.507   0.986  1.00 20.00     0.015 C 
HETATM    5  C6  UNL     1     -32.744   8.448  -0.472  1.00 20.00     0.015 C 
ENDROOT
BRANCH   2   6
HETATM    6  C1  UNL     1     -32.843   6.810   2.069  1.00 20.00     0.131 C 
HETATM    7  O9  UNL     1     -32.299   5.965   1.360  1.00 20.00    -0.298 OA
BRANCH   6   8
HETATM    8  C8  UNL     1     -34.040   6.501   2.949  1.00 20.00     0.074 C 
HETATM    9  C7  UNL     1     -34.185   7.477   4.102  1.00 20.00     0.013 C 
ENDBRANCH   6   8
ENDBRANCH   2   6
TORSDOF 2
ENDMDL
MODEL 9
REMARK VINA RESULT:      -0.3      1.493      4.001
REMARK  2 active torsions:
REMARK  status: ('A' for Active; 'I' for Inactive)
REMARK    1  A    between atoms: C1_1  and  C3_3 
REMARK    2  A    between atoms: C1_1  and  C8_8 
ROOT
HETATM    1  C2  UNL     1     -31.954   8.338   3.178  1.00 20.00     0.022 A 
HETATM    2  C3  UNL     1     -33.325   7.927   2.708  1.00 20.00     0.064 A 
HETATM    3  C4  UNL     1     -32.190   8.083   1.710  1.00 20.00    -0.037 A 
HETATM    4  C5  UNL     1     -32.241   9.272   0.786  1.00 20.00     0.015 C 
HETATM    5  C6  UNL     1     -31.555   6.862   1.099  1.00 20.00     0.015 C 
ENDROOT
BRANCH   2   6
HETATM    6  C1  UNL     1     -33.841   6.599   3.063  1.00 20.00     0.131 C 
HETATM    7  O9  UNL     1     -33.342   5.579   2.590  1.00 20.00    -0.298 OA
BRANCH   6   8
HETATM    8  C8  UNL     1     -35.007   6.572   4.033  1.00 20.00     0.074 C 
HETATM    9  C7  UNL     1     -35.330   5.172   4.521  1.00 20.00     0.013 C 
ENDBRANCH   6   8
ENDBRANCH   2   6
TORSDOF 2
ENDMDL
