MODEL 1
REMARK VINA RESULT:      -1.0      0.000      0.000
REMARK  1 active torsions:
REMARK  status: ('A' for Active; 'I' for Inactive)
REMARK    1  A    between atoms: C6_6  and  N7_7 
ROOT
HETATM    1  C1  UNL     1     -33.731   6.053   3.174  1.00 20.00     0.003 C 
HETATM    2  C2  UNL     1     -33.155   5.739   1.798  1.00 20.00     0.030 C 
HETATM    3  C3  UNL     1     -33.860   7.559   3.379  1.00 20.00     0.030 C 
HETATM    4  C4  UNL     1     -31.862   6.519   1.545  1.00 20.00     0.274 C 
HETATM    5  C5  UNL     1     -32.543   8.276   3.072  1.00 20.00     0.274 C 
HETATM    6  N7  UNL     1     -31.985   7.968   1.749  1.00 20.00     0.101 N 
ENDROOT
BRANCH   6   7
HETATM    7  C6  UNL     1     -32.726   8.618   0.672  1.00 20.00     0.386 C 
HETATM    8 CL8  UNL     1     -32.430  10.353   0.763  1.00 20.00    -0.098 Cl
ENDBRANCH   6   7
TORSDOF 1
ENDMDL
MODEL 2
REMARK VINA RESULT:      -0.6      3.124      3.770
REMARK  1 active torsions:
REMARK  status: ('A' for Active; 'I' for Inactive)
REMARK    1  A    between atoms: C6_6  and  N7_7 
ROOT
HETATM    1  C1  UNL     1     -32.650   8.260   2.632  1.00 20.00     0.003 C 
HETATM    2  C2  UNL     1     -32.026   7.128   1.823  1.00 20.00     0.030 C 
HETATM    3  C3  UNL     1     -33.371   7.717   3.861  1.00 20.00     0.030 C 
HETATM    4  C4  UNL     1     -33.051   6.034   1.516  1.00 20.00     0.274 C 
HETATM    5  C5  UNL     1     -34.350   6.602   3.484  1.00 20.00     0.274 C 
HETATM    6  N7  UNL     1     -33.751   5.516   2.700  1.00 20.00     0.101 N 
ENDROOT
BRANCH   6   7
HETATM    7  C6  UNL     1     -32.898   4.652   3.511  1.00 20.00     0.386 C 
HETATM    8 CL8  UNL     1     -33.931   3.551   4.422  1.00 20.00    -0.098 Cl
ENDBRANCH   6   7
TORSDOF 1
ENDMDL
MODEL 3
REMARK VINA RESULT:      -0.2      2.461      3.400
REMARK  1 active torsions:
REMARK  status: ('A' for Active; 'I' for Inactive)
REMARK    1  A    between atoms: C6_6  and  N7_7 
ROOT
HETATM    1  C1  UNL     1     -32.047   6.807   1.042  1.00 20.00     0.003 C 
HETATM    2  C2  UNL     1     -32.291   8.173   1.673  1.00 20.00     0.030 C 
HETATM    3  C3  UNL     1     -33.017   5.770   1.599  1.00 20.00     0.030 C 
HETATM    4  C4  UNL     1     -32.305   8.086   3.201  1.00 20.00     0.274 C 
HETATM    5  C5  UNL     1     -33.007   5.765   3.129  1.00 20.00     0.274 C 
HETATM    6  N7  UNL     1     -33.235   7.082   3.736  1.00 20.00     0.101 N 
ENDROOT
BRANCH   6   7
HETATM    7  C6  UNL     1     -34.628   7.506   3.631  1.00 20.00     0.386 C 
HETATM    8 CL8  UNL     1     -35.658   6.135   4.039  1.00 20.00    -0.098 Cl
ENDBRANCH   6   7
TORSDOF 1
ENDMDL
MODEL 4
REMARK VINA RESULT:       0.3      2.429      2.892
REMARK  1 active torsions:
REMARK  status: ('A' for Active; 'I' for Inactive)
REMARK    1  A    between atoms: C6_6  and  N7_7 
ROOT
HETATM    1  C1  UNL     1     -35.316   5.180   4.523  1.00 20.00     0.003 C 
HETATM    2  C2  UNL     1     -34.266   4.316   3.834  1.00 20.00     0.030 C 
HETATM    3  C3  UNL     1     -35.431   6.541   3.845  1.00 20.00     0.030 C 
HETATM    4  C4  UNL     1     -32.936   5.061   3.695  1.00 20.00     0.274 C 
HETATM    5  C5  UNL     1     -34.061   7.210   3.706  1.00 20.00     0.274 C 
HETATM    6  N7  UNL     1     -33.049   6.375   3.048  1.00 20.00     0.101 N 
ENDROOT
BRANCH   6   7
HETATM    7  C6  UNL     1     -33.272   6.266   1.609  1.00 20.00     0.386 C 
HETATM    8 CL8  UNL     1     -32.053   5.183   0.939  1.00 20.00    -0.098 Cl
ENDBRANCH   6   7
TORSDOF 1
ENDMDL
MODEL 5
REMARK VINA RESULT:       0.3      2.104      3.166
REMARK  1 active torsions:
REMARK  status: ('A' for Active; 'I' for Inactive)
REMARK    1  A    between atoms: C6_6  and  N7_7 
ROOT
HETATM    1  C1  UNL     1     -34.126   4.011   4.028  1.00 20.00     0.003 C 
HETATM    2  C2  UNL     1     -34.928   5.090   4.749  1.00 20.00     0.030 C 
HETATM    3  C3  UNL     1     -32.987   4.627   3.223  1.00 20.00     0.030 C 
HETATM    4  C4  UNL     1     -35.367   6.194   3.784  1.00 20.00     0.274 C 
HETATM    5  C5  UNL     1     -33.494   5.747   2.310  1.00 20.00     0.274 C 
HETATM    6  N7  UNL     1     -34.271   6.782   3.003  1.00 20.00     0.101 N 
ENDROOT
BRANCH   6   7
HETATM    7  C6  UNL     1     -33.427   7.660   3.809  1.00 20.00     0.386 C 
HETATM    8 CL8  UNL     1     -32.102   8.236   2.800  1.00 20.00    -0.098 Cl
ENDBRANCH   6   7
TORSDOF 1
ENDMDL
MODEL 6
REMARK VINA RESULT:       0.4      2.318      3.029
REMARK  1 active torsions:
REMARK  status: ('A' for Active; 'I' for Inactive)
REMARK    1  A    between atoms: C6_6  and  N7_7 
ROOT
HETATM    1  C1  UNL     1     -33.849   7.704   4.042  1.00 20.00     0.003 C 
HETATM    2  C2  UNL     1     -32.491   8.115   3.485  1.00 20.00     0.030 C 
HETATM    3  C3  UNL     1     -34.229   6.304   3.572  1.00 20.00     0.030 C 
HETATM    4  C4  UNL     1     -32.432   7.926   1.967  1.00 20.00     0.274 C 
HETATM    5  C5  UNL     1     -34.111   6.178   2.051  1.00 20.00     0.274 C 
HETATM    6  N7  UNL     1     -32.805   6.579   1.514  1.00 20.00     0.101 N 
ENDROOT
BRANCH   6   7
HETATM    7  C6  UNL     1     -31.764   5.594   1.794  1.00 20.00     0.386 C 
HETATM    8 CL8  UNL     1     -31.635   4.515   0.406  1.00 20.00    -0.098 Cl
ENDBRANCH   6   7
TORSDOF 1
ENDMDL
MODEL 7
REMARK VINA RESULT:       0.4      2.574      3.086
REMARK  1 active torsions:
REMARK  status: ('A' for Active; 'I' for Inactive)
REMARK    1  A    between atoms: C6_6  and  N7_7 
ROOT
HETATM    1  C1  UNL     1     -33.480   7.755   3.638  1.00 20.00     0.003 C 
HETATM    2  C2  UNL     1     -34.315   6.489   3.472  1.00 20.00     0.030 C 
HETATM    3  C3  UNL     1     -32.721   8.078   2.356  1.00 20.00     0.030 C 
HETATM    4  C4  UNL     1     -33.469   5.332   2.936  1.00 20.00     0.274 C 
HETATM    5  C5  UNL     1     -31.929   6.866   1.858  1.00 20.00     0.274 C 
HETATM    6  N7  UNL     1     -32.732   5.646   1.705  1.00 20.00     0.101 N 
ENDROOT
BRANCH   6   7
HETATM    7  C6  UNL     1     -33.606   5.702   0.536  1.00 20.00     0.386 C 
HETATM    8 CL8  UNL     1     -33.502   4.158  -0.308  1.00 20.00    -0.098 Cl
ENDBRANCH   6   7
TORSDOF 1
ENDMDL
MODEL 8
REMARK VINA RESULT:       0.8      2.094      2.894
REMARK  1 active torsions:
REMARK  status: ('A' for Active; 'I' for Inactive)
REMARK    1  A    between atoms: C6_6  and  N7_7 
ROOT
HETATM    1  C1  UNL     1     -32.653   5.524   1.507  1.00 20.00     0.003 C 
HETATM    2  C2  UNL     1     -33.418   5.534   2.826  1.00 20.00     0.030 C 
HETATM    3  C3  UNL     1     -31.744   6.743   1.396  1.00 20.00     0.030 C 
HETATM    4  C4  UNL     1     -34.131   6.871   3.045  1.00 20.00     0.274 C 
HETATM    5  C5  UNL     1     -32.515   8.038   1.663  1.00 20.00     0.274 C 
HETATM    6  N7  UNL     1     -33.256   8.045   2.931  1.00 20.00     0.101 N 
ENDROOT
BRANCH   6   7
HETATM    7  C6  UNL     1     -32.376   8.193   4.086  1.00 20.00     0.386 C 
HETATM    8 CL8  UNL     1     -33.374   8.272   5.537  1.00 20.00    -0.098 Cl
ENDBRANCH   6   7
TORSDOF 1
ENDMDL
MODEL 9
REMARK VINA RESULT:       0.9      2.869      3.820
REMARK  1 active torsions:
REMARK  status: ('A' for Active; 'I' for Inactive)
REMARK    1  A    between atoms: C6_6  and  N7_7 
ROOT
HETATM    1  C1  UNL     1     -32.345   7.966   1.402  1.00 20.00     0.003 C 
HETATM    2  C2  UNL     1     -32.804   8.642   2.689  1.00 20.00     0.030 C 
HETATM    3  C3  UNL     1     -33.069   6.639   1.197  1.00 20.00     0.030 C 
HETATM    4  C4  UNL     1     -32.713   7.688   3.882  1.00 20.00     0.274 C 
HETATM    5  C5  UNL     1     -32.968   5.753   2.442  1.00 20.00     0.274 C 
HETATM    6  N7  UNL     1     -33.404   6.407   3.682  1.00 20.00     0.101 N 
ENDROOT
BRANCH   6   7
HETATM    7  C6  UNL     1     -34.856   6.545   3.754  1.00 20.00     0.386 C 
HETATM    8 CL8  UNL     1     -35.499   5.172   4.654  1.00 20.00    -0.098 Cl
ENDBRANCH   6   7
TORSDOF 1
ENDMDL
