MODEL 1
REMARK VINA RESULT:       0.1      0.000      0.000
REMARK  1 active torsions:
REMARK  status: ('A' for Active; 'I' for Inactive)
REMARK    1  A    between atoms: C4_4  and  C6_6 
ROOT
HETATM    1  C1  UNL     1     -33.365   5.302   2.596  1.00 20.00     0.089 A 
HETATM    2  C2  UNL     1     -33.734   7.642   3.021  1.00 20.00     0.044 A 
HETATM    3  C3  UNL     1     -34.052   6.253   3.243  1.00 20.00    -0.053 A 
HETATM    4  C4  UNL     1     -32.754   7.953   2.168  1.00 20.00     0.080 A 
HETATM    5  C5  UNL     1     -32.281   5.653   1.653  1.00 20.00     0.288 A 
HETATM    6  C8  UNL     1     -35.155   5.947   4.208  1.00 20.00     0.048 C 
HETATM    7  O11 UNL     1     -31.659   4.776   1.064  1.00 20.00    -0.260 OA
HETATM    8  O12 UNL     1     -32.011   6.982   1.470  1.00 20.00    -0.276 OA
ENDROOT
BRANCH   4   9
HETATM    9  C6  UNL     1     -32.361   9.302   1.876  1.00 20.00     0.039 C 
HETATM   10  C7  UNL     1     -32.365   9.884   0.647  1.00 20.00    -0.085 C 
HETATM   11  C9  UNL     1     -31.951  11.299   0.352  1.00 20.00     0.043 C 
HETATM   12  C10 UNL     1     -32.807   9.110  -0.568  1.00 20.00     0.043 C 
ENDBRANCH   4   9
TORSDOF 1
ENDMDL
MODEL 2
REMARK VINA RESULT:       0.3      1.472      2.425
REMARK  1 active torsions:
REMARK  status: ('A' for Active; 'I' for Inactive)
REMARK    1  A    between atoms: C4_4  and  C6_6 
ROOT
HETATM    1  C1  UNL     1     -33.394   5.344   2.536  1.00 20.00     0.089 A 
HETATM    2  C2  UNL     1     -32.059   6.954   1.346  1.00 20.00     0.044 A 
HETATM    3  C3  UNL     1     -32.457   5.594   1.612  1.00 20.00    -0.053 A 
HETATM    4  C4  UNL     1     -32.638   7.944   2.033  1.00 20.00     0.080 A 
HETATM    5  C5  UNL     1     -34.030   6.443   3.293  1.00 20.00     0.288 A 
HETATM    6  C8  UNL     1     -31.787   4.515   0.819  1.00 20.00     0.048 C 
HETATM    7  O11 UNL     1     -34.886   6.205   4.139  1.00 20.00    -0.260 OA
HETATM    8  O12 UNL     1     -33.624   7.720   3.011  1.00 20.00    -0.276 OA
ENDROOT
BRANCH   4   9
HETATM    9  C6  UNL     1     -32.313   9.329   1.846  1.00 20.00     0.039 C 
HETATM   10  C7  UNL     1     -32.370  10.008   0.669  1.00 20.00    -0.085 C 
HETATM   11  C9  UNL     1     -32.027  11.460   0.483  1.00 20.00     0.043 C 
HETATM   12  C10 UNL     1     -32.805   9.315  -0.597  1.00 20.00     0.043 C 
ENDBRANCH   4   9
TORSDOF 1
ENDMDL
MODEL 3
REMARK VINA RESULT:       0.4      2.199      3.331
REMARK  1 active torsions:
REMARK  status: ('A' for Active; 'I' for Inactive)
REMARK    1  A    between atoms: C4_4  and  C6_6 
ROOT
HETATM    1  C1  UNL     1     -34.595   4.551   4.522  1.00 20.00     0.089 A 
HETATM    2  C2  UNL     1     -32.817   4.543   2.900  1.00 20.00     0.044 A 
HETATM    3  C3  UNL     1     -33.554   3.914   3.968  1.00 20.00    -0.053 A 
HETATM    4  C4  UNL     1     -33.190   5.757   2.484  1.00 20.00     0.080 A 
HETATM    5  C5  UNL     1     -35.002   5.894   4.058  1.00 20.00     0.288 A 
HETATM    6  C8  UNL     1     -33.107   2.553   4.403  1.00 20.00     0.048 C 
HETATM    7  O11 UNL     1     -35.955   6.469   4.572  1.00 20.00    -0.260 OA
HETATM    8  O12 UNL     1     -34.276   6.456   3.043  1.00 20.00    -0.276 OA
ENDROOT
BRANCH   4   9
HETATM    9  C6  UNL     1     -32.523   6.469   1.432  1.00 20.00     0.039 C 
HETATM   10  C7  UNL     1     -31.979   7.711   1.531  1.00 20.00    -0.085 C 
HETATM   11  C9  UNL     1     -31.283   8.448   0.421  1.00 20.00     0.043 C 
HETATM   12  C10 UNL     1     -32.042   8.475   2.828  1.00 20.00     0.043 C 
ENDBRANCH   4   9
TORSDOF 1
ENDMDL
MODEL 4
REMARK VINA RESULT:       1.0      1.923      2.718
REMARK  1 active torsions:
REMARK  status: ('A' for Active; 'I' for Inactive)
REMARK    1  A    between atoms: C4_4  and  C6_6 
ROOT
HETATM    1  C1  UNL     1     -33.974   7.497   4.792  1.00 20.00     0.089 A 
HETATM    2  C2  UNL     1     -33.694   6.916   2.473  1.00 20.00     0.044 A 
HETATM    3  C3  UNL     1     -34.412   6.823   3.720  1.00 20.00    -0.053 A 
HETATM    4  C4  UNL     1     -32.598   7.677   2.414  1.00 20.00     0.080 A 
HETATM    5  C5  UNL     1     -32.759   8.337   4.719  1.00 20.00     0.288 A 
HETATM    6  C8  UNL     1     -35.637   5.962   3.745  1.00 20.00     0.048 C 
HETATM    7  O11 UNL     1     -32.365   8.949   5.706  1.00 20.00    -0.260 OA
HETATM    8  O12 UNL     1     -32.107   8.398   3.517  1.00 20.00    -0.276 OA
ENDROOT
BRANCH   4   9
HETATM    9  C6  UNL     1     -31.812   7.835   1.223  1.00 20.00     0.039 C 
HETATM   10  C7  UNL     1     -31.830   8.913   0.394  1.00 20.00    -0.085 C 
HETATM   11  C9  UNL     1     -31.003   9.069  -0.851  1.00 20.00     0.043 C 
HETATM   12  C10 UNL     1     -32.730  10.087   0.681  1.00 20.00     0.043 C 
ENDBRANCH   4   9
TORSDOF 1
ENDMDL
MODEL 5
REMARK VINA RESULT:       1.6      2.585      5.694
REMARK  1 active torsions:
REMARK  status: ('A' for Active; 'I' for Inactive)
REMARK    1  A    between atoms: C4_4  and  C6_6 
ROOT
HETATM    1  C1  UNL     1     -33.200   7.890   2.979  1.00 20.00     0.089 A 
HETATM    2  C2  UNL     1     -32.743   5.654   2.212  1.00 20.00     0.044 A 
HETATM    3  C3  UNL     1     -32.589   7.084   2.100  1.00 20.00    -0.053 A 
HETATM    4  C4  UNL     1     -33.500   5.162   3.198  1.00 20.00     0.080 A 
HETATM    5  C5  UNL     1     -34.035   7.338   4.066  1.00 20.00     0.288 A 
HETATM    6  C8  UNL     1     -31.732   7.596   0.985  1.00 20.00     0.048 C 
HETATM    7  O11 UNL     1     -34.592   8.083   4.865  1.00 20.00    -0.260 OA
HETATM    8  O12 UNL     1     -34.157   5.976   4.138  1.00 20.00    -0.276 OA
ENDROOT
BRANCH   4   9
HETATM    9  C6  UNL     1     -33.719   3.757   3.396  1.00 20.00     0.039 C 
HETATM   10  C7  UNL     1     -33.235   3.013   4.426  1.00 20.00    -0.085 C 
HETATM   11  C9  UNL     1     -33.470   1.541   4.624  1.00 20.00     0.043 C 
HETATM   12  C10 UNL     1     -32.384   3.646   5.497  1.00 20.00     0.043 C 
ENDBRANCH   4   9
TORSDOF 1
ENDMDL
MODEL 6
REMARK VINA RESULT:       1.8      1.021      1.104
REMARK  1 active torsions:
REMARK  status: ('A' for Active; 'I' for Inactive)
REMARK    1  A    between atoms: C4_4  and  C6_6 
ROOT
HETATM    1  C1  UNL     1     -33.548   5.983   2.935  1.00 20.00     0.089 A 
HETATM    2  C2  UNL     1     -32.908   8.300   2.798  1.00 20.00     0.044 A 
HETATM    3  C3  UNL     1     -33.577   7.212   3.468  1.00 20.00    -0.053 A 
HETATM    4  C4  UNL     1     -32.270   8.056   1.649  1.00 20.00     0.080 A 
HETATM    5  C5  UNL     1     -32.840   5.721   1.663  1.00 20.00     0.288 A 
HETATM    6  C8  UNL     1     -34.278   7.525   4.753  1.00 20.00     0.048 C 
HETATM    7  O11 UNL     1     -32.820   4.593   1.182  1.00 20.00    -0.260 OA
HETATM    8  O12 UNL     1     -32.218   6.780   1.059  1.00 20.00    -0.276 OA
ENDROOT
BRANCH   4   9
HETATM    9  C6  UNL     1     -31.576   9.067   0.904  1.00 20.00     0.039 C 
HETATM   10  C7  UNL     1     -32.154  10.091   0.220  1.00 20.00    -0.085 C 
HETATM   11  C9  UNL     1     -31.418  11.145  -0.558  1.00 20.00     0.043 C 
HETATM   12  C10 UNL     1     -33.653  10.246   0.194  1.00 20.00     0.043 C 
ENDBRANCH   4   9
TORSDOF 1
ENDMDL
MODEL 7
REMARK VINA RESULT:       1.9      1.233      4.578
REMARK  1 active torsions:
REMARK  status: ('A' for Active; 'I' for Inactive)
REMARK    1  A    between atoms: C4_4  and  C6_6 
ROOT
HETATM    1  C1  UNL     1     -31.695   7.073   0.891  1.00 20.00     0.089 A 
HETATM    2  C2  UNL     1     -33.299   7.890   2.488  1.00 20.00     0.044 A 
HETATM    3  C3  UNL     1     -32.283   8.117   1.491  1.00 20.00    -0.053 A 
HETATM    4  C4  UNL     1     -33.634   6.632   2.795  1.00 20.00     0.080 A 
HETATM    5  C5  UNL     1     -32.070   5.685   1.235  1.00 20.00     0.288 A 
HETATM    6  C8  UNL     1     -31.937   9.539   1.174  1.00 20.00     0.048 C 
HETATM    7  O11 UNL     1     -31.526   4.736   0.681  1.00 20.00    -0.260 OA
HETATM    8  O12 UNL     1     -33.038   5.513   2.187  1.00 20.00    -0.276 OA
ENDROOT
BRANCH   4   9
HETATM    9  C6  UNL     1     -34.630   6.299   3.773  1.00 20.00     0.039 C 
HETATM   10  C7  UNL     1     -34.771   5.094   4.387  1.00 20.00    -0.085 C 
HETATM   11  C9  UNL     1     -35.819   4.755   5.410  1.00 20.00     0.043 C 
HETATM   12  C10 UNL     1     -33.838   3.955   4.066  1.00 20.00     0.043 C 
ENDBRANCH   4   9
TORSDOF 1
ENDMDL
MODEL 8
REMARK VINA RESULT:       2.0      1.956      4.882
REMARK  1 active torsions:
REMARK  status: ('A' for Active; 'I' for Inactive)
REMARK    1  A    between atoms: C4_4  and  C6_6 
ROOT
HETATM    1  C1  UNL     1     -31.606   6.975   0.943  1.00 20.00     0.089 A 
HETATM    2  C2  UNL     1     -33.028   5.395   2.072  1.00 20.00     0.044 A 
HETATM    3  C3  UNL     1     -31.998   5.705   1.111  1.00 20.00    -0.053 A 
HETATM    4  C4  UNL     1     -33.573   6.390   2.778  1.00 20.00     0.080 A 
HETATM    5  C5  UNL     1     -32.214   8.071   1.727  1.00 20.00     0.288 A 
HETATM    6  C8  UNL     1     -31.411   4.563   0.341  1.00 20.00     0.048 C 
HETATM    7  O11 UNL     1     -31.850   9.231   1.566  1.00 20.00    -0.260 OA
HETATM    8  O12 UNL     1     -33.188   7.734   2.629  1.00 20.00    -0.276 OA
ENDROOT
BRANCH   4   9
HETATM    9  C6  UNL     1     -34.604   6.188   3.757  1.00 20.00     0.039 C 
HETATM   10  C7  UNL     1     -34.810   5.051   4.474  1.00 20.00    -0.085 C 
HETATM   11  C9  UNL     1     -35.893   4.850   5.496  1.00 20.00     0.043 C 
HETATM   12  C10 UNL     1     -33.919   3.851   4.282  1.00 20.00     0.043 C 
ENDBRANCH   4   9
TORSDOF 1
ENDMDL
MODEL 9
REMARK VINA RESULT:       2.3      2.153      5.211
REMARK  1 active torsions:
REMARK  status: ('A' for Active; 'I' for Inactive)
REMARK    1  A    between atoms: C4_4  and  C6_6 
ROOT
HETATM    1  C1  UNL     1     -33.035   7.705   2.748  1.00 20.00     0.089 A 
HETATM    2  C2  UNL     1     -34.098   5.995   4.065  1.00 20.00     0.044 A 
HETATM    3  C3  UNL     1     -33.822   7.381   3.782  1.00 20.00    -0.053 A 
HETATM    4  C4  UNL     1     -33.558   5.055   3.283  1.00 20.00     0.080 A 
HETATM    5  C5  UNL     1     -32.440   6.661   1.887  1.00 20.00     0.288 A 
HETATM    6  C8  UNL     1     -34.449   8.403   4.680  1.00 20.00     0.048 C 
HETATM    7  O11 UNL     1     -31.719   6.967   0.943  1.00 20.00    -0.260 OA
HETATM    8  O12 UNL     1     -32.726   5.357   2.189  1.00 20.00    -0.276 OA
ENDROOT
BRANCH   4   9
HETATM    9  C6  UNL     1     -33.768   3.649   3.479  1.00 20.00     0.039 C 
HETATM   10  C7  UNL     1     -33.237   2.897   4.480  1.00 20.00    -0.085 C 
HETATM   11  C9  UNL     1     -33.464   1.424   4.677  1.00 20.00     0.043 C 
HETATM   12  C10 UNL     1     -32.336   3.521   5.514  1.00 20.00     0.043 C 
ENDBRANCH   4   9
TORSDOF 1
ENDMDL
