MODEL 1
REMARK VINA RESULT:      -1.6      0.000      0.000
REMARK  2 active torsions:
REMARK  status: ('A' for Active; 'I' for Inactive)
REMARK    1  A    between atoms: C1_1  and  C3_3 
REMARK    2  A    between atoms: C3_3  and  C4_4 
ROOT
HETATM    1  C2  UNL     1     -31.946   5.380   1.652  1.00 20.00     0.069 C 
HETATM    2  C3  UNL     1     -32.902   6.565   1.853  1.00 20.00     0.264 C 
HETATM    3  O5  UNL     1     -33.777   6.610   0.868  1.00 20.00    -0.210 OA
ENDROOT
BRANCH   2   4
HETATM    4  C1  UNL     1     -33.708   6.448   3.163  1.00 20.00     0.265 C 
HETATM    5  O6  UNL     1     -34.128   7.440   3.757  1.00 20.00    -0.276 OA
HETATM    6 CL10 UNL     1     -33.952   4.809   3.745  1.00 20.00    -0.040 Cl
ENDBRANCH   2   4
BRANCH   2   7
HETATM    7  C4  UNL     1     -32.088   7.869   1.847  1.00 20.00     0.429 C 
HETATM    8  F7  UNL     1     -31.692   8.224   3.093  1.00 20.00    -0.167 F 
HETATM    9  F8  UNL     1     -32.779   8.912   1.334  1.00 20.00    -0.167 F 
HETATM   10  F9  UNL     1     -30.964   7.729   1.102  1.00 20.00    -0.167 F 
ENDBRANCH   2   7
TORSDOF 2
ENDMDL
MODEL 2
REMARK VINA RESULT:      -1.6      1.210      1.210
REMARK  2 active torsions:
REMARK  status: ('A' for Active; 'I' for Inactive)
REMARK    1  A    between atoms: C1_1  and  C3_3 
REMARK    2  A    between atoms: C3_3  and  C4_4 
ROOT
HETATM    1  C2  UNL     1     -31.911   5.270   1.367  1.00 20.00     0.069 C 
HETATM    2  C3  UNL     1     -32.907   6.355   1.802  1.00 20.00     0.264 C 
HETATM    3  O5  UNL     1     -33.816   6.534   0.865  1.00 20.00    -0.210 OA
ENDROOT
BRANCH   2   4
HETATM    4  C1  UNL     1     -33.662   5.968   3.091  1.00 20.00     0.265 C 
HETATM    5  O6  UNL     1     -33.627   4.825   3.544  1.00 20.00    -0.276 OA
HETATM    6 CL10 UNL     1     -34.585   7.264   3.833  1.00 20.00    -0.040 Cl
ENDBRANCH   2   4
BRANCH   2   7
HETATM    7  C4  UNL     1     -32.147   7.675   2.010  1.00 20.00     0.429 C 
HETATM    8  F7  UNL     1     -32.124   8.046   3.312  1.00 20.00    -0.167 F 
HETATM    9  F8  UNL     1     -32.685   8.701   1.311  1.00 20.00    -0.167 F 
HETATM   10  F9  UNL     1     -30.857   7.554   1.612  1.00 20.00    -0.167 F 
ENDBRANCH   2   7
TORSDOF 2
ENDMDL
MODEL 3
REMARK VINA RESULT:      -1.3      2.195      2.661
REMARK  2 active torsions:
REMARK  status: ('A' for Active; 'I' for Inactive)
REMARK    1  A    between atoms: C1_1  and  C3_3 
REMARK    2  A    between atoms: C3_3  and  C4_4 
ROOT
HETATM    1  C2  UNL     1     -32.976   8.475   1.201  1.00 20.00     0.069 C 
HETATM    2  C3  UNL     1     -32.509   7.452   2.247  1.00 20.00     0.264 C 
HETATM    3  O5  UNL     1     -31.235   7.643   2.524  1.00 20.00    -0.210 OA
ENDROOT
BRANCH   2   4
HETATM    4  C1  UNL     1     -33.281   7.584   3.576  1.00 20.00     0.265 C 
HETATM    5  O6  UNL     1     -32.794   8.149   4.555  1.00 20.00    -0.276 OA
HETATM    6 CL10 UNL     1     -34.876   6.852   3.588  1.00 20.00    -0.040 Cl
ENDBRANCH   2   4
BRANCH   2   7
HETATM    7  C4  UNL     1     -32.681   6.037   1.672  1.00 20.00     0.429 C 
HETATM    8  F7  UNL     1     -33.570   6.010   0.651  1.00 20.00    -0.167 F 
HETATM    9  F8  UNL     1     -33.107   5.148   2.598  1.00 20.00    -0.167 F 
HETATM   10  F9  UNL     1     -31.505   5.572   1.183  1.00 20.00    -0.167 F 
ENDBRANCH   2   7
TORSDOF 2
ENDMDL
MODEL 4
REMARK VINA RESULT:      -1.0      3.092      3.879
REMARK  2 active torsions:
REMARK  status: ('A' for Active; 'I' for Inactive)
REMARK    1  A    between atoms: C1_1  and  C3_3 
REMARK    2  A    between atoms: C3_3  and  C4_4 
ROOT
HETATM    1  C2  UNL     1     -33.115   7.815   4.831  1.00 20.00     0.069 C 
HETATM    2  C3  UNL     1     -33.943   7.457   3.588  1.00 20.00     0.264 C 
HETATM    3  O5  UNL     1     -34.599   8.518   3.164  1.00 20.00    -0.210 OA
ENDROOT
BRANCH   2   4
HETATM    4  C1  UNL     1     -33.058   6.980   2.417  1.00 20.00     0.265 C 
HETATM    5  O6  UNL     1     -33.174   5.854   1.936  1.00 20.00    -0.276 OA
HETATM    6 CL10 UNL     1     -31.874   8.146   1.854  1.00 20.00    -0.040 Cl
ENDBRANCH   2   4
BRANCH   2   7
HETATM    7  C4  UNL     1     -34.960   6.367   3.963  1.00 20.00     0.429 C 
HETATM    8  F7  UNL     1     -35.457   6.545   5.210  1.00 20.00    -0.167 F 
HETATM    9  F8  UNL     1     -34.429   5.123   3.918  1.00 20.00    -0.167 F 
HETATM   10  F9  UNL     1     -36.015   6.383   3.113  1.00 20.00    -0.167 F 
ENDBRANCH   2   7
TORSDOF 2
ENDMDL
MODEL 5
REMARK VINA RESULT:      -0.7      2.783      3.281
REMARK  2 active torsions:
REMARK  status: ('A' for Active; 'I' for Inactive)
REMARK    1  A    between atoms: C1_1  and  C3_3 
REMARK    2  A    between atoms: C3_3  and  C4_4 
ROOT
HETATM    1  C2  UNL     1     -33.780   6.419   0.611  1.00 20.00     0.069 C 
HETATM    2  C3  UNL     1     -32.920   6.601   1.870  1.00 20.00     0.264 C 
HETATM    3  O5  UNL     1     -32.022   5.639   1.946  1.00 20.00    -0.210 OA
ENDROOT
BRANCH   2   4
HETATM    4  C1  UNL     1     -32.146   7.936   1.858  1.00 20.00     0.265 C 
HETATM    5  O6  UNL     1     -31.278   8.189   2.693  1.00 20.00    -0.276 OA
HETATM    6 CL10 UNL     1     -32.614   9.059   0.593  1.00 20.00    -0.040 Cl
ENDBRANCH   2   4
BRANCH   2   7
HETATM    7  C4  UNL     1     -33.827   6.526   3.109  1.00 20.00     0.429 C 
HETATM    8  F7  UNL     1     -35.129   6.729   2.796  1.00 20.00    -0.167 F 
HETATM    9  F8  UNL     1     -33.496   7.438   4.053  1.00 20.00    -0.167 F 
HETATM   10  F9  UNL     1     -33.747   5.304   3.689  1.00 20.00    -0.167 F 
ENDBRANCH   2   7
TORSDOF 2
ENDMDL
MODEL 6
REMARK VINA RESULT:      -0.7      2.781      3.292
REMARK  2 active torsions:
REMARK  status: ('A' for Active; 'I' for Inactive)
REMARK    1  A    between atoms: C1_1  and  C3_3 
REMARK    2  A    between atoms: C3_3  and  C4_4 
ROOT
HETATM    1  C2  UNL     1     -33.761   6.413   0.607  1.00 20.00     0.069 C 
HETATM    2  C3  UNL     1     -32.907   6.593   1.870  1.00 20.00     0.264 C 
HETATM    3  O5  UNL     1     -32.005   5.635   1.944  1.00 20.00    -0.210 OA
ENDROOT
BRANCH   2   4
HETATM    4  C1  UNL     1     -32.140   7.932   1.869  1.00 20.00     0.265 C 
HETATM    5  O6  UNL     1     -31.288   8.191   2.718  1.00 20.00    -0.276 OA
HETATM    6 CL10 UNL     1     -32.592   9.050   0.593  1.00 20.00    -0.040 Cl
ENDBRANCH   2   4
BRANCH   2   7
HETATM    7  C4  UNL     1     -33.819   6.506   3.105  1.00 20.00     0.429 C 
HETATM    8  F7  UNL     1     -33.500   7.436   4.036  1.00 20.00    -0.167 F 
HETATM    9  F8  UNL     1     -33.761   5.297   3.710  1.00 20.00    -0.167 F 
HETATM   10  F9  UNL     1     -35.112   6.720   2.762  1.00 20.00    -0.167 F 
ENDBRANCH   2   7
TORSDOF 2
ENDMDL
MODEL 7
REMARK VINA RESULT:      -0.7      1.877      2.446
REMARK  2 active torsions:
REMARK  status: ('A' for Active; 'I' for Inactive)
REMARK    1  A    between atoms: C1_1  and  C3_3 
REMARK    2  A    between atoms: C3_3  and  C4_4 
ROOT
HETATM    1  C2  UNL     1     -31.629   8.826   3.177  1.00 20.00     0.069 C 
HETATM    2  C3  UNL     1     -31.938   7.986   1.930  1.00 20.00     0.264 C 
HETATM    3  O5  UNL     1     -30.867   7.311   1.564  1.00 20.00    -0.210 OA
ENDROOT
BRANCH   2   4
HETATM    4  C1  UNL     1     -33.053   6.950   2.187  1.00 20.00     0.265 C 
HETATM    5  O6  UNL     1     -33.166   5.936   1.500  1.00 20.00    -0.276 OA
HETATM    6 CL10 UNL     1     -34.147   7.343   3.502  1.00 20.00    -0.040 Cl
ENDBRANCH   2   4
BRANCH   2   7
HETATM    7  C4  UNL     1     -32.343   8.926   0.782  1.00 20.00     0.429 C 
HETATM    8  F7  UNL     1     -32.905  10.070   1.240  1.00 20.00    -0.167 F 
HETATM    9  F8  UNL     1     -33.228   8.357  -0.069  1.00 20.00    -0.167 F 
HETATM   10  F9  UNL     1     -31.260   9.285   0.052  1.00 20.00    -0.167 F 
ENDBRANCH   2   7
TORSDOF 2
ENDMDL
MODEL 8
REMARK VINA RESULT:      -0.5      3.230      3.656
REMARK  2 active torsions:
REMARK  status: ('A' for Active; 'I' for Inactive)
REMARK    1  A    between atoms: C1_1  and  C3_3 
REMARK    2  A    between atoms: C3_3  and  C4_4 
ROOT
HETATM    1  C2  UNL     1     -34.137   6.021   1.546  1.00 20.00     0.069 C 
HETATM    2  C3  UNL     1     -33.790   6.193   3.032  1.00 20.00     0.264 C 
HETATM    3  O5  UNL     1     -33.119   5.143   3.462  1.00 20.00    -0.210 OA
ENDROOT
BRANCH   2   4
HETATM    4  C1  UNL     1     -32.900   7.427   3.283  1.00 20.00     0.265 C 
HETATM    5  O6  UNL     1     -32.819   7.954   4.392  1.00 20.00    -0.276 OA
HETATM    6 CL10 UNL     1     -32.044   8.029   1.873  1.00 20.00    -0.040 Cl
ENDBRANCH   2   4
BRANCH   2   7
HETATM    7  C4  UNL     1     -35.094   6.307   3.838  1.00 20.00     0.429 C 
HETATM    8  F7  UNL     1     -36.141   6.670   3.059  1.00 20.00    -0.167 F 
HETATM    9  F8  UNL     1     -35.008   7.212   4.840  1.00 20.00    -0.167 F 
HETATM   10  F9  UNL     1     -35.416   5.117   4.401  1.00 20.00    -0.167 F 
ENDBRANCH   2   7
TORSDOF 2
ENDMDL
MODEL 9
REMARK VINA RESULT:      -0.4      1.960      2.681
REMARK  2 active torsions:
REMARK  status: ('A' for Active; 'I' for Inactive)
REMARK    1  A    between atoms: C1_1  and  C3_3 
REMARK    2  A    between atoms: C3_3  and  C4_4 
ROOT
HETATM    1  C2  UNL     1     -33.191   5.739   2.072  1.00 20.00     0.069 C 
HETATM    2  C3  UNL     1     -34.236   6.201   3.098  1.00 20.00     0.264 C 
HETATM    3  O5  UNL     1     -35.346   6.553   2.481  1.00 20.00    -0.210 OA
ENDROOT
BRANCH   2   4
HETATM    4  C1  UNL     1     -34.611   5.081   4.091  1.00 20.00     0.265 C 
HETATM    5  O6  UNL     1     -35.638   5.132   4.767  1.00 20.00    -0.276 OA
HETATM    6 CL10 UNL     1     -33.460   3.760   4.196  1.00 20.00    -0.040 Cl
ENDBRANCH   2   4
BRANCH   2   7
HETATM    7  C4  UNL     1     -33.686   7.420   3.856  1.00 20.00     0.429 C 
HETATM    8  F7  UNL     1     -32.653   8.000   3.201  1.00 20.00    -0.167 F 
HETATM    9  F8  UNL     1     -33.248   7.106   5.097  1.00 20.00    -0.167 F 
HETATM   10  F9  UNL     1     -34.645   8.368   3.999  1.00 20.00    -0.167 F 
ENDBRANCH   2   7
TORSDOF 2
ENDMDL
