MODEL 1
REMARK VINA RESULT:      -2.1      0.000      0.000
REMARK  4 active torsions:
REMARK  status: ('A' for Active; 'I' for Inactive)
REMARK    1  A    between atoms: C2_2  and  C5_5 
REMARK    2  A    between atoms: C2_2  and  C6_6 
REMARK    3  A    between atoms: C5_5  and  C7_7 
REMARK    4  A    between atoms: C6_6  and  C8_8 
ROOT
HETATM    1  C1  UNL     1     -32.281   5.636   1.641  1.00 20.00     0.207 A 
HETATM    2  C2  UNL     1     -32.511   7.058   2.095  1.00 20.00     0.082 A 
HETATM    3  O9  UNL     1     -33.428   6.389   1.218  1.00 20.00    -0.375 OA
ENDROOT
BRANCH   2   4
HETATM    4  C5  UNL     1     -33.073   7.320   3.484  1.00 20.00     0.040 C 
BRANCH   4   5
HETATM    5  C7  UNL     1     -34.600   7.313   3.480  1.00 20.00    -0.002 C 
HETATM    6  C3  UNL     1     -35.153   6.055   4.130  1.00 20.00     0.005 C 
ENDBRANCH   4   5
ENDBRANCH   2   4
BRANCH   2   7
HETATM    7  C6  UNL     1     -31.758   8.171   1.443  1.00 20.00     0.040 C 
BRANCH   7   8
HETATM    8  C8  UNL     1     -32.647   9.392   1.158  1.00 20.00    -0.002 C 
HETATM    9  C4  UNL     1     -32.505   9.891  -0.271  1.00 20.00     0.005 C 
ENDBRANCH   7   8
ENDBRANCH   2   7
TORSDOF 4
ENDMDL
MODEL 2
REMARK VINA RESULT:      -1.6      0.932      1.183
REMARK  4 active torsions:
REMARK  status: ('A' for Active; 'I' for Inactive)
REMARK    1  A    between atoms: C2_2  and  C5_5 
REMARK    2  A    between atoms: C2_2  and  C6_6 
REMARK    3  A    between atoms: C5_5  and  C7_7 
REMARK    4  A    between atoms: C6_6  and  C8_8 
ROOT
HETATM    1  C1  UNL     1     -32.020   5.442   1.454  1.00 20.00     0.207 A 
HETATM    2  C2  UNL     1     -32.729   6.617   2.084  1.00 20.00     0.082 A 
HETATM    3  O9  UNL     1     -33.136   6.083   0.817  1.00 20.00    -0.375 OA
ENDROOT
BRANCH   2   4
HETATM    4  C5  UNL     1     -33.734   6.374   3.201  1.00 20.00     0.040 C 
BRANCH   4   5
HETATM    5  C7  UNL     1     -34.231   7.687   3.801  1.00 20.00    -0.002 C 
HETATM    6  C3  UNL     1     -33.484   8.034   5.078  1.00 20.00     0.005 C 
ENDBRANCH   4   5
ENDBRANCH   2   4
BRANCH   2   7
HETATM    7  C6  UNL     1     -32.122   7.979   1.998  1.00 20.00     0.040 C 
BRANCH   7   8
HETATM    8  C8  UNL     1     -32.104   8.522   0.561  1.00 20.00    -0.002 C 
HETATM    9  C4  UNL     1     -32.527   9.981   0.488  1.00 20.00     0.005 C 
ENDBRANCH   7   8
ENDBRANCH   2   7
TORSDOF 4
ENDMDL
MODEL 3
REMARK VINA RESULT:      -1.6      2.111      4.781
REMARK  4 active torsions:
REMARK  status: ('A' for Active; 'I' for Inactive)
REMARK    1  A    between atoms: C2_2  and  C5_5 
REMARK    2  A    between atoms: C2_2  and  C6_6 
REMARK    3  A    between atoms: C5_5  and  C7_7 
REMARK    4  A    between atoms: C6_6  and  C8_8 
ROOT
HETATM    1  C1  UNL     1     -34.199   7.418   4.247  1.00 20.00     0.207 A 
HETATM    2  C2  UNL     1     -34.292   6.092   3.530  1.00 20.00     0.082 A 
HETATM    3  O9  UNL     1     -35.400   7.001   3.580  1.00 20.00    -0.375 OA
ENDROOT
BRANCH   2   4
HETATM    4  C5  UNL     1     -33.683   5.945   2.144  1.00 20.00     0.040 C 
BRANCH   4   5
HETATM    5  C7  UNL     1     -32.226   6.401   2.122  1.00 20.00    -0.002 C 
HETATM    6  C3  UNL     1     -32.094   7.817   1.587  1.00 20.00     0.005 C 
ENDBRANCH   4   5
ENDBRANCH   2   4
BRANCH   2   7
HETATM    7  C6  UNL     1     -34.505   4.841   4.317  1.00 20.00     0.040 C 
BRANCH   7   8
HETATM    8  C8  UNL     1     -33.627   3.681   3.823  1.00 20.00    -0.002 C 
HETATM    9  C4  UNL     1     -33.054   2.859   4.967  1.00 20.00     0.005 C 
ENDBRANCH   7   8
ENDBRANCH   2   7
TORSDOF 4
ENDMDL
MODEL 4
REMARK VINA RESULT:      -1.6      1.989      3.075
REMARK  4 active torsions:
REMARK  status: ('A' for Active; 'I' for Inactive)
REMARK    1  A    between atoms: C2_2  and  C5_5 
REMARK    2  A    between atoms: C2_2  and  C6_6 
REMARK    3  A    between atoms: C5_5  and  C7_7 
REMARK    4  A    between atoms: C6_6  and  C8_8 
ROOT
HETATM    1  C1  UNL     1     -34.698   7.670   3.848  1.00 20.00     0.207 A 
HETATM    2  C2  UNL     1     -34.097   6.339   3.464  1.00 20.00     0.082 A 
HETATM    3  O9  UNL     1     -33.384   7.281   4.277  1.00 20.00    -0.375 OA
ENDROOT
BRANCH   2   4
HETATM    4  C5  UNL     1     -34.519   5.083   4.209  1.00 20.00     0.040 C 
BRANCH   4   5
HETATM    5  C7  UNL     1     -33.739   3.860   3.731  1.00 20.00    -0.002 C 
HETATM    6  C3  UNL     1     -33.190   3.058   4.900  1.00 20.00     0.005 C 
ENDBRANCH   4   5
ENDBRANCH   2   4
BRANCH   2   7
HETATM    7  C6  UNL     1     -33.515   6.160   2.100  1.00 20.00     0.040 C 
BRANCH   7   8
HETATM    8  C8  UNL     1     -32.100   6.748   1.984  1.00 20.00    -0.002 C 
HETATM    9  C4  UNL     1     -32.098   8.132   1.354  1.00 20.00     0.005 C 
ENDBRANCH   7   8
ENDBRANCH   2   7
TORSDOF 4
ENDMDL
MODEL 5
REMARK VINA RESULT:      -1.5      0.854      3.847
REMARK  4 active torsions:
REMARK  status: ('A' for Active; 'I' for Inactive)
REMARK    1  A    between atoms: C2_2  and  C5_5 
REMARK    2  A    between atoms: C2_2  and  C6_6 
REMARK    3  A    between atoms: C5_5  and  C7_7 
REMARK    4  A    between atoms: C6_6  and  C8_8 
ROOT
HETATM    1  C1  UNL     1     -33.050   5.838   0.857  1.00 20.00     0.207 A 
HETATM    2  C2  UNL     1     -32.626   6.973   1.758  1.00 20.00     0.082 A 
HETATM    3  O9  UNL     1     -32.009   5.681   1.834  1.00 20.00    -0.375 OA
ENDROOT
BRANCH   2   4
HETATM    4  C5  UNL     1     -31.709   8.059   1.216  1.00 20.00     0.040 C 
BRANCH   4   5
HETATM    5  C7  UNL     1     -32.412   9.414   1.172  1.00 20.00    -0.002 C 
HETATM    6  C3  UNL     1     -32.555   9.921  -0.254  1.00 20.00     0.005 C 
ENDBRANCH   4   5
ENDBRANCH   2   4
BRANCH   2   7
HETATM    7  C6  UNL     1     -33.455   7.315   2.953  1.00 20.00     0.040 C 
BRANCH   7   8
HETATM    8  C8  UNL     1     -34.019   6.068   3.652  1.00 20.00    -0.002 C 
HETATM    9  C4  UNL     1     -35.474   6.240   4.057  1.00 20.00     0.005 C 
ENDBRANCH   7   8
ENDBRANCH   2   7
TORSDOF 4
ENDMDL
MODEL 6
REMARK VINA RESULT:      -1.1      1.207      2.837
REMARK  4 active torsions:
REMARK  status: ('A' for Active; 'I' for Inactive)
REMARK    1  A    between atoms: C2_2  and  C5_5 
REMARK    2  A    between atoms: C2_2  and  C6_6 
REMARK    3  A    between atoms: C5_5  and  C7_7 
REMARK    4  A    between atoms: C6_6  and  C8_8 
ROOT
HETATM    1  C1  UNL     1     -32.356   8.730   1.387  1.00 20.00     0.207 A 
HETATM    2  C2  UNL     1     -32.693   7.458   2.128  1.00 20.00     0.082 A 
HETATM    3  O9  UNL     1     -31.336   7.871   1.917  1.00 20.00    -0.375 OA
ENDROOT
BRANCH   2   4
HETATM    4  C5  UNL     1     -33.137   7.532   3.581  1.00 20.00     0.040 C 
BRANCH   4   5
HETATM    5  C7  UNL     1     -34.656   7.435   3.707  1.00 20.00    -0.002 C 
HETATM    6  C3  UNL     1     -35.089   6.052   4.165  1.00 20.00     0.005 C 
ENDBRANCH   4   5
ENDBRANCH   2   4
BRANCH   2   7
HETATM    7  C6  UNL     1     -33.076   6.236   1.359  1.00 20.00     0.040 C 
BRANCH   7   8
HETATM    8  C8  UNL     1     -32.135   5.053   1.631  1.00 20.00    -0.002 C 
HETATM    9  C4  UNL     1     -31.542   4.479   0.354  1.00 20.00     0.005 C 
ENDBRANCH   7   8
ENDBRANCH   2   7
TORSDOF 4
ENDMDL
MODEL 7
REMARK VINA RESULT:      -0.7      1.471      3.726
REMARK  4 active torsions:
REMARK  status: ('A' for Active; 'I' for Inactive)
REMARK    1  A    between atoms: C2_2  and  C5_5 
REMARK    2  A    between atoms: C2_2  and  C6_6 
REMARK    3  A    between atoms: C5_5  and  C7_7 
REMARK    4  A    between atoms: C6_6  and  C8_8 
ROOT
HETATM    1  C1  UNL     1     -31.354   8.197   1.845  1.00 20.00     0.207 A 
HETATM    2  C2  UNL     1     -32.618   7.451   2.199  1.00 20.00     0.082 A 
HETATM    3  O9  UNL     1     -32.654   8.736   1.563  1.00 20.00    -0.375 OA
ENDROOT
BRANCH   2   4
HETATM    4  C5  UNL     1     -33.092   6.313   1.308  1.00 20.00     0.040 C 
BRANCH   4   5
HETATM    5  C7  UNL     1     -32.356   5.013   1.622  1.00 20.00    -0.002 C 
HETATM    6  C3  UNL     1     -31.560   4.520   0.425  1.00 20.00     0.005 C 
ENDBRANCH   4   5
ENDBRANCH   2   4
BRANCH   2   7
HETATM    7  C6  UNL     1     -33.112   7.464   3.609  1.00 20.00     0.040 C 
BRANCH   7   8
HETATM    8  C8  UNL     1     -34.646   7.419   3.693  1.00 20.00    -0.002 C 
HETATM    9  C4  UNL     1     -35.161   6.060   4.143  1.00 20.00     0.005 C 
ENDBRANCH   7   8
ENDBRANCH   2   7
TORSDOF 4
ENDMDL
MODEL 8
REMARK VINA RESULT:      -0.7      1.653      4.351
REMARK  4 active torsions:
REMARK  status: ('A' for Active; 'I' for Inactive)
REMARK    1  A    between atoms: C2_2  and  C5_5 
REMARK    2  A    between atoms: C2_2  and  C6_6 
REMARK    3  A    between atoms: C5_5  and  C7_7 
REMARK    4  A    between atoms: C6_6  and  C8_8 
ROOT
HETATM    1  C1  UNL     1     -33.731   7.785   4.760  1.00 20.00     0.207 A 
HETATM    2  C2  UNL     1     -33.266   7.393   3.378  1.00 20.00     0.082 A 
HETATM    3  O9  UNL     1     -34.465   8.152   3.582  1.00 20.00    -0.375 OA
ENDROOT
BRANCH   2   4
HETATM    4  C5  UNL     1     -32.148   8.180   2.711  1.00 20.00     0.040 C 
BRANCH   4   5
HETATM    5  C7  UNL     1     -32.235   8.095   1.189  1.00 20.00    -0.002 C 
HETATM    6  C3  UNL     1     -32.330   9.475   0.558  1.00 20.00     0.005 C 
ENDBRANCH   4   5
ENDBRANCH   2   4
BRANCH   2   7
HETATM    7  C6  UNL     1     -33.509   6.004   2.884  1.00 20.00     0.040 C 
BRANCH   7   8
HETATM    8  C8  UNL     1     -34.458   5.215   3.799  1.00 20.00    -0.002 C 
HETATM    9  C4  UNL     1     -33.871   3.878   4.226  1.00 20.00     0.005 C 
ENDBRANCH   7   8
ENDBRANCH   2   7
TORSDOF 4
ENDMDL
MODEL 9
REMARK VINA RESULT:      -0.6      1.399      2.774
REMARK  4 active torsions:
REMARK  status: ('A' for Active; 'I' for Inactive)
REMARK    1  A    between atoms: C2_2  and  C5_5 
REMARK    2  A    between atoms: C2_2  and  C6_6 
REMARK    3  A    between atoms: C5_5  and  C7_7 
REMARK    4  A    between atoms: C6_6  and  C8_8 
ROOT
HETATM    1  C1  UNL     1     -34.124   7.861   3.538  1.00 20.00     0.207 A 
HETATM    2  C2  UNL     1     -33.022   7.407   2.612  1.00 20.00     0.082 A 
HETATM    3  O9  UNL     1     -32.944   7.207   4.029  1.00 20.00    -0.375 OA
ENDROOT
BRANCH   2   4
HETATM    4  C5  UNL     1     -33.190   6.120   1.820  1.00 20.00     0.040 C 
BRANCH   4   5
HETATM    5  C7  UNL     1     -31.844   5.461   1.531  1.00 20.00    -0.002 C 
HETATM    6  C3  UNL     1     -31.943   4.469   0.383  1.00 20.00     0.005 C 
ENDBRANCH   4   5
ENDBRANCH   2   4
BRANCH   2   7
HETATM    7  C6  UNL     1     -32.040   8.405   2.090  1.00 20.00     0.040 C 
BRANCH   7   8
HETATM    8  C8  UNL     1     -32.283   8.750   0.613  1.00 20.00    -0.002 C 
HETATM    9  C4  UNL     1     -32.537  10.234   0.399  1.00 20.00     0.005 C 
ENDBRANCH   7   8
ENDBRANCH   2   7
TORSDOF 4
ENDMDL
