MODEL 1
REMARK VINA RESULT:      -1.2      0.000      0.000
REMARK  2 active torsions:
REMARK  status: ('A' for Active; 'I' for Inactive)
REMARK    1  A    between atoms: C1_1  and  C3_3 
REMARK    2  A    between atoms: C3_3  and  C4_4 
ROOT
HETATM    1  C2  UNL     1     -33.697   6.347   0.560  1.00 20.00     0.069 C 
HETATM    2  C3  UNL     1     -32.819   6.479   1.813  1.00 20.00     0.264 C 
HETATM    3  O5  UNL     1     -31.908   5.526   1.826  1.00 20.00    -0.210 OA
ENDROOT
BRANCH   2   4
HETATM    4  C1  UNL     1     -33.635   6.337   3.115  1.00 20.00     0.265 C 
HETATM    5  O6  UNL     1     -34.088   7.315   3.706  1.00 20.00    -0.276 OA
HETATM    6 CL10 UNL     1     -33.841   4.691   3.688  1.00 20.00    -0.040 Cl
ENDBRANCH   2   4
BRANCH   2   7
HETATM    7  C4  UNL     1     -32.108   7.843   1.780  1.00 20.00     0.429 C 
HETATM    8  F7  UNL     1     -31.647   8.202   3.003  1.00 20.00    -0.167 F 
HETATM    9  F8  UNL     1     -32.913   8.839   1.346  1.00 20.00    -0.167 F 
HETATM   10  F9  UNL     1     -31.035   7.805   0.953  1.00 20.00    -0.167 F 
ENDBRANCH   2   7
TORSDOF 2
ENDMDL
MODEL 2
REMARK VINA RESULT:      -1.1      2.146      2.665
REMARK  2 active torsions:
REMARK  status: ('A' for Active; 'I' for Inactive)
REMARK    1  A    between atoms: C1_1  and  C3_3 
REMARK    2  A    between atoms: C3_3  and  C4_4 
ROOT
HETATM    1  C2  UNL     1     -31.335   7.980   2.491  1.00 20.00     0.069 C 
HETATM    2  C3  UNL     1     -32.779   7.472   2.355  1.00 20.00     0.264 C 
HETATM    3  O5  UNL     1     -33.454   8.250   1.532  1.00 20.00    -0.210 OA
ENDROOT
BRANCH   2   4
HETATM    4  C1  UNL     1     -33.530   7.485   3.703  1.00 20.00     0.265 C 
HETATM    5  O6  UNL     1     -33.062   8.030   4.700  1.00 20.00    -0.276 OA
HETATM    6 CL10 UNL     1     -35.074   6.650   3.703  1.00 20.00    -0.040 Cl
ENDBRANCH   2   4
BRANCH   2   7
HETATM    7  C4  UNL     1     -32.752   6.046   1.778  1.00 20.00     0.429 C 
HETATM    8  F7  UNL     1     -33.593   5.911   0.725  1.00 20.00    -0.167 F 
HETATM    9  F8  UNL     1     -33.098   5.109   2.690  1.00 20.00    -0.167 F 
HETATM   10  F9  UNL     1     -31.511   5.732   1.332  1.00 20.00    -0.167 F 
ENDBRANCH   2   7
TORSDOF 2
ENDMDL
MODEL 3
REMARK VINA RESULT:      -1.1      2.805      3.301
REMARK  2 active torsions:
REMARK  status: ('A' for Active; 'I' for Inactive)
REMARK    1  A    between atoms: C1_1  and  C3_3 
REMARK    2  A    between atoms: C3_3  and  C4_4 
ROOT
HETATM    1  C2  UNL     1     -32.056   5.446   1.784  1.00 20.00     0.069 C 
HETATM    2  C3  UNL     1     -32.953   6.689   1.878  1.00 20.00     0.264 C 
HETATM    3  O5  UNL     1     -33.743   6.755   0.825  1.00 20.00    -0.210 OA
ENDROOT
BRANCH   2   4
HETATM    4  C1  UNL     1     -32.135   7.998   1.906  1.00 20.00     0.265 C 
HETATM    5  O6  UNL     1     -31.262   8.198   2.748  1.00 20.00    -0.276 OA
HETATM    6 CL10 UNL     1     -32.564   9.171   0.673  1.00 20.00    -0.040 Cl
ENDBRANCH   2   4
BRANCH   2   7
HETATM    7  C4  UNL     1     -33.822   6.581   3.143  1.00 20.00     0.429 C 
HETATM    8  F7  UNL     1     -35.135   6.778   2.873  1.00 20.00    -0.167 F 
HETATM    9  F8  UNL     1     -33.470   7.476   4.094  1.00 20.00    -0.167 F 
HETATM   10  F9  UNL     1     -33.716   5.348   3.694  1.00 20.00    -0.167 F 
ENDBRANCH   2   7
TORSDOF 2
ENDMDL
MODEL 4
REMARK VINA RESULT:      -1.1      2.804      3.302
REMARK  2 active torsions:
REMARK  status: ('A' for Active; 'I' for Inactive)
REMARK    1  A    between atoms: C1_1  and  C3_3 
REMARK    2  A    between atoms: C3_3  and  C4_4 
ROOT
HETATM    1  C2  UNL     1     -32.043   5.448   1.773  1.00 20.00     0.069 C 
HETATM    2  C3  UNL     1     -32.955   6.681   1.875  1.00 20.00     0.264 C 
HETATM    3  O5  UNL     1     -33.745   6.744   0.822  1.00 20.00    -0.210 OA
ENDROOT
BRANCH   2   4
HETATM    4  C1  UNL     1     -32.152   7.998   1.912  1.00 20.00     0.265 C 
HETATM    5  O6  UNL     1     -31.302   8.215   2.774  1.00 20.00    -0.276 OA
HETATM    6 CL10 UNL     1     -32.562   9.156   0.658  1.00 20.00    -0.040 Cl
ENDBRANCH   2   4
BRANCH   2   7
HETATM    7  C4  UNL     1     -33.823   6.554   3.138  1.00 20.00     0.429 C 
HETATM    8  F7  UNL     1     -33.473   7.458   4.085  1.00 20.00    -0.167 F 
HETATM    9  F8  UNL     1     -33.741   5.328   3.705  1.00 20.00    -0.167 F 
HETATM   10  F9  UNL     1     -35.128   6.775   2.848  1.00 20.00    -0.167 F 
ENDBRANCH   2   7
TORSDOF 2
ENDMDL
MODEL 5
REMARK VINA RESULT:      -0.8      3.195      3.701
REMARK  2 active torsions:
REMARK  status: ('A' for Active; 'I' for Inactive)
REMARK    1  A    between atoms: C1_1  and  C3_3 
REMARK    2  A    between atoms: C3_3  and  C4_4 
ROOT
HETATM    1  C2  UNL     1     -33.159   4.844   3.452  1.00 20.00     0.069 C 
HETATM    2  C3  UNL     1     -33.837   6.164   3.054  1.00 20.00     0.264 C 
HETATM    3  O5  UNL     1     -34.164   6.136   1.777  1.00 20.00    -0.210 OA
ENDROOT
BRANCH   2   4
HETATM    4  C1  UNL     1     -32.907   7.380   3.251  1.00 20.00     0.265 C 
HETATM    5  O6  UNL     1     -32.775   7.924   4.346  1.00 20.00    -0.276 OA
HETATM    6 CL10 UNL     1     -32.083   7.930   1.802  1.00 20.00    -0.040 Cl
ENDBRANCH   2   4
BRANCH   2   7
HETATM    7  C4  UNL     1     -35.117   6.337   3.889  1.00 20.00     0.429 C 
HETATM    8  F7  UNL     1     -36.169   6.726   3.128  1.00 20.00    -0.167 F 
HETATM    9  F8  UNL     1     -34.976   7.252   4.875  1.00 20.00    -0.167 F 
HETATM   10  F9  UNL     1     -35.470   5.168   4.475  1.00 20.00    -0.167 F 
ENDBRANCH   2   7
TORSDOF 2
ENDMDL
MODEL 6
REMARK VINA RESULT:      -0.7      1.489      2.560
REMARK  2 active torsions:
REMARK  status: ('A' for Active; 'I' for Inactive)
REMARK    1  A    between atoms: C1_1  and  C3_3 
REMARK    2  A    between atoms: C3_3  and  C4_4 
ROOT
HETATM    1  C2  UNL     1     -32.920   8.079   4.745  1.00 20.00     0.069 C 
HETATM    2  C3  UNL     1     -33.450   7.703   3.353  1.00 20.00     0.264 C 
HETATM    3  O5  UNL     1     -34.480   8.465   3.042  1.00 20.00    -0.210 OA
ENDROOT
BRANCH   2   4
HETATM    4  C1  UNL     1     -33.941   6.241   3.292  1.00 20.00     0.265 C 
HETATM    5  O6  UNL     1     -33.331   5.378   2.662  1.00 20.00    -0.276 OA
HETATM    6 CL10 UNL     1     -35.431   5.918   4.162  1.00 20.00    -0.040 Cl
ENDBRANCH   2   4
BRANCH   2   7
HETATM    7  C4  UNL     1     -32.335   7.930   2.318  1.00 20.00     0.429 C 
HETATM    8  F7  UNL     1     -32.676   8.872   1.406  1.00 20.00    -0.167 F 
HETATM    9  F8  UNL     1     -32.022   6.805   1.634  1.00 20.00    -0.167 F 
HETATM   10  F9  UNL     1     -31.201   8.361   2.921  1.00 20.00    -0.167 F 
ENDBRANCH   2   7
TORSDOF 2
ENDMDL
MODEL 7
REMARK VINA RESULT:      -0.7      1.493      2.570
REMARK  2 active torsions:
REMARK  status: ('A' for Active; 'I' for Inactive)
REMARK    1  A    between atoms: C1_1  and  C3_3 
REMARK    2  A    between atoms: C3_3  and  C4_4 
ROOT
HETATM    1  C2  UNL     1     -32.926   8.081   4.748  1.00 20.00     0.069 C 
HETATM    2  C3  UNL     1     -33.450   7.700   3.355  1.00 20.00     0.264 C 
HETATM    3  O5  UNL     1     -34.478   8.461   3.037  1.00 20.00    -0.210 OA
ENDROOT
BRANCH   2   4
HETATM    4  C1  UNL     1     -33.941   6.238   3.297  1.00 20.00     0.265 C 
HETATM    5  O6  UNL     1     -33.332   5.374   2.668  1.00 20.00    -0.276 OA
HETATM    6 CL10 UNL     1     -35.432   5.918   4.167  1.00 20.00    -0.040 Cl
ENDBRANCH   2   4
BRANCH   2   7
HETATM    7  C4  UNL     1     -32.331   7.924   2.324  1.00 20.00     0.429 C 
HETATM    8  F7  UNL     1     -32.049   6.795   1.629  1.00 20.00    -0.167 F 
HETATM    9  F8  UNL     1     -31.176   8.343   2.892  1.00 20.00    -0.167 F 
HETATM   10  F9  UNL     1     -32.695   8.862   1.417  1.00 20.00    -0.167 F 
ENDBRANCH   2   7
TORSDOF 2
ENDMDL
MODEL 8
REMARK VINA RESULT:      -0.6      1.918      2.065
REMARK  2 active torsions:
REMARK  status: ('A' for Active; 'I' for Inactive)
REMARK    1  A    between atoms: C1_1  and  C3_3 
REMARK    2  A    between atoms: C3_3  and  C4_4 
ROOT
HETATM    1  C2  UNL     1     -33.021   6.508   1.229  1.00 20.00     0.069 C 
HETATM    2  C3  UNL     1     -32.138   7.676   1.691  1.00 20.00     0.264 C 
HETATM    3  O5  UNL     1     -30.872   7.311   1.691  1.00 20.00    -0.210 OA
ENDROOT
BRANCH   2   4
HETATM    4  C1  UNL     1     -32.474   8.128   3.128  1.00 20.00     0.265 C 
HETATM    5  O6  UNL     1     -31.704   8.827   3.784  1.00 20.00    -0.276 OA
HETATM    6 CL10 UNL     1     -34.010   7.550   3.750  1.00 20.00    -0.040 Cl
ENDBRANCH   2   4
BRANCH   2   7
HETATM    7  C4  UNL     1     -32.314   8.850   0.713  1.00 20.00     0.429 C 
HETATM    8  F7  UNL     1     -32.788   9.958   1.332  1.00 20.00    -0.167 F 
HETATM    9  F8  UNL     1     -33.166   8.561  -0.298  1.00 20.00    -0.167 F 
HETATM   10  F9  UNL     1     -31.128   9.190   0.152  1.00 20.00    -0.167 F 
ENDBRANCH   2   7
TORSDOF 2
ENDMDL
MODEL 9
REMARK VINA RESULT:      -0.5      2.295      3.442
REMARK  2 active torsions:
REMARK  status: ('A' for Active; 'I' for Inactive)
REMARK    1  A    between atoms: C1_1  and  C3_3 
REMARK    2  A    between atoms: C3_3  and  C4_4 
ROOT
HETATM    1  C2  UNL     1     -34.064   5.120   4.026  1.00 20.00     0.069 C 
HETATM    2  C3  UNL     1     -34.092   6.406   3.188  1.00 20.00     0.264 C 
HETATM    3  O5  UNL     1     -35.244   6.506   2.556  1.00 20.00    -0.210 OA
ENDROOT
BRANCH   2   4
HETATM    4  C1  UNL     1     -32.987   6.424   2.110  1.00 20.00     0.265 C 
HETATM    5  O6  UNL     1     -32.672   5.411   1.489  1.00 20.00    -0.276 OA
HETATM    6 CL10 UNL     1     -32.210   7.979   1.866  1.00 20.00    -0.040 Cl
ENDBRANCH   2   4
BRANCH   2   7
HETATM    7  C4  UNL     1     -33.936   7.615   4.126  1.00 20.00     0.429 C 
HETATM    8  F7  UNL     1     -34.354   8.765   3.544  1.00 20.00    -0.167 F 
HETATM    9  F8  UNL     1     -32.655   7.807   4.519  1.00 20.00    -0.167 F 
HETATM   10  F9  UNL     1     -34.678   7.451   5.248  1.00 20.00    -0.167 F 
ENDBRANCH   2   7
TORSDOF 2
ENDMDL
