MODEL 1
REMARK VINA RESULT:      -2.4      0.000      0.000
REMARK  1 active torsions:
REMARK  status: ('A' for Active; 'I' for Inactive)
REMARK    1  A    between atoms: C5_5  and  C6_6 
ROOT
HETATM    1  C1  UNL     1     -32.993   6.241   1.802  1.00 20.00     0.139 C 
HETATM    2  C2  UNL     1     -31.627   6.791   1.476  1.00 20.00     0.079 C 
HETATM    3  C3  UNL     1     -31.770   8.253   1.881  1.00 20.00     0.008 C 
HETATM    4  C4  UNL     1     -32.761   8.231   3.036  1.00 20.00     0.021 C 
HETATM    5  C5  UNL     1     -33.827   7.225   2.597  1.00 20.00     0.163 C 
HETATM    6  O7  UNL     1     -33.374   5.128   1.461  1.00 20.00    -0.297 OA
ENDROOT
BRANCH   5   7
HETATM    7  C6  UNL     1     -34.551   6.582   3.762  1.00 20.00     0.398 C 
HETATM    8  F8  UNL     1     -35.862   6.455   3.490  1.00 20.00    -0.170 F 
HETATM    9  F9  UNL     1     -34.049   5.360   4.014  1.00 20.00    -0.170 F 
HETATM   10  F10 UNL     1     -34.418   7.333   4.871  1.00 20.00    -0.170 F 
ENDBRANCH   5   7
TORSDOF 1
ENDMDL
MODEL 2
REMARK VINA RESULT:      -2.3      1.554      2.297
REMARK  1 active torsions:
REMARK  status: ('A' for Active; 'I' for Inactive)
REMARK    1  A    between atoms: C5_5  and  C6_6 
ROOT
HETATM    1  C1  UNL     1     -32.848   7.497   3.186  1.00 20.00     0.139 C 
HETATM    2  C2  UNL     1     -32.163   7.652   1.851  1.00 20.00     0.079 C 
HETATM    3  C3  UNL     1     -32.272   6.245   1.275  1.00 20.00     0.008 C 
HETATM    4  C4  UNL     1     -33.573   5.700   1.850  1.00 20.00     0.021 C 
HETATM    5  C5  UNL     1     -33.562   6.166   3.308  1.00 20.00     0.163 C 
HETATM    6  O7  UNL     1     -32.826   8.353   4.062  1.00 20.00    -0.297 OA
ENDROOT
BRANCH   5   7
HETATM    7  C6  UNL     1     -34.951   6.291   3.901  1.00 20.00     0.398 C 
HETATM    8  F8  UNL     1     -34.955   7.182   4.908  1.00 20.00    -0.170 F 
HETATM    9  F9  UNL     1     -35.827   6.702   2.966  1.00 20.00    -0.170 F 
HETATM   10  F10 UNL     1     -35.366   5.104   4.381  1.00 20.00    -0.170 F 
ENDBRANCH   5   7
TORSDOF 1
ENDMDL
MODEL 3
REMARK VINA RESULT:      -2.2      2.420      3.385
REMARK  1 active torsions:
REMARK  status: ('A' for Active; 'I' for Inactive)
REMARK    1  A    between atoms: C5_5  and  C6_6 
ROOT
HETATM    1  C1  UNL     1     -32.790   7.724   2.780  1.00 20.00     0.139 C 
HETATM    2  C2  UNL     1     -33.264   8.128   4.153  1.00 20.00     0.079 C 
HETATM    3  C3  UNL     1     -34.570   7.352   4.278  1.00 20.00     0.008 C 
HETATM    4  C4  UNL     1     -34.338   6.088   3.461  1.00 20.00     0.021 C 
HETATM    5  C5  UNL     1     -33.603   6.578   2.212  1.00 20.00     0.163 C 
HETATM    6  O7  UNL     1     -31.855   8.262   2.200  1.00 20.00    -0.297 OA
ENDROOT
BRANCH   5   7
HETATM    7  C6  UNL     1     -32.747   5.505   1.569  1.00 20.00     0.398 C 
HETATM    8  F8  UNL     1     -31.501   5.962   1.355  1.00 20.00    -0.170 F 
HETATM    9  F9  UNL     1     -32.673   4.422   2.364  1.00 20.00    -0.170 F 
HETATM   10  F10 UNL     1     -33.272   5.130   0.387  1.00 20.00    -0.170 F 
ENDBRANCH   5   7
TORSDOF 1
ENDMDL
MODEL 4
REMARK VINA RESULT:      -2.1      2.413      3.341
REMARK  1 active torsions:
REMARK  status: ('A' for Active; 'I' for Inactive)
REMARK    1  A    between atoms: C5_5  and  C6_6 
ROOT
HETATM    1  C1  UNL     1     -33.974   5.421   3.467  1.00 20.00     0.139 C 
HETATM    2  C2  UNL     1     -35.123   6.118   4.151  1.00 20.00     0.079 C 
HETATM    3  C3  UNL     1     -34.597   7.542   4.283  1.00 20.00     0.008 C 
HETATM    4  C4  UNL     1     -33.690   7.725   3.074  1.00 20.00     0.021 C 
HETATM    5  C5  UNL     1     -32.928   6.401   2.974  1.00 20.00     0.163 C 
HETATM    6  O7  UNL     1     -33.902   4.207   3.329  1.00 20.00    -0.297 OA
ENDROOT
BRANCH   5   7
HETATM    7  C6  UNL     1     -32.448   6.099   1.569  1.00 20.00     0.398 C 
HETATM    8  F8  UNL     1     -31.614   5.044   1.572  1.00 20.00    -0.170 F 
HETATM    9  F9  UNL     1     -33.489   5.815   0.765  1.00 20.00    -0.170 F 
HETATM   10  F10 UNL     1     -31.792   7.158   1.057  1.00 20.00    -0.170 F 
ENDBRANCH   5   7
TORSDOF 1
ENDMDL
MODEL 5
REMARK VINA RESULT:      -2.1      1.667      2.167
REMARK  1 active torsions:
REMARK  status: ('A' for Active; 'I' for Inactive)
REMARK    1  A    between atoms: C5_5  and  C6_6 
ROOT
HETATM    1  C1  UNL     1     -32.316   7.580   2.436  1.00 20.00     0.139 C 
HETATM    2  C2  UNL     1     -32.016   6.921   1.112  1.00 20.00     0.079 C 
HETATM    3  C3  UNL     1     -32.466   5.487   1.364  1.00 20.00     0.008 C 
HETATM    4  C4  UNL     1     -33.614   5.618   2.355  1.00 20.00     0.021 C 
HETATM    5  C5  UNL     1     -33.136   6.685   3.343  1.00 20.00     0.163 C 
HETATM    6  O7  UNL     1     -31.938   8.706   2.733  1.00 20.00    -0.297 OA
ENDROOT
BRANCH   5   7
HETATM    7  C6  UNL     1     -34.276   7.416   4.023  1.00 20.00     0.398 C 
HETATM    8  F8  UNL     1     -34.748   8.394   3.230  1.00 20.00    -0.170 F 
HETATM    9  F9  UNL     1     -35.283   6.567   4.298  1.00 20.00    -0.170 F 
HETATM   10  F10 UNL     1     -33.858   7.969   5.177  1.00 20.00    -0.170 F 
ENDBRANCH   5   7
TORSDOF 1
ENDMDL
MODEL 6
REMARK VINA RESULT:      -2.0      2.748      3.656
REMARK  1 active torsions:
REMARK  status: ('A' for Active; 'I' for Inactive)
REMARK    1  A    between atoms: C5_5  and  C6_6 
ROOT
HETATM    1  C1  UNL     1     -33.838   7.030   3.386  1.00 20.00     0.139 C 
HETATM    2  C2  UNL     1     -34.054   5.610   3.846  1.00 20.00     0.079 C 
HETATM    3  C3  UNL     1     -33.748   4.817   2.582  1.00 20.00     0.008 C 
HETATM    4  C4  UNL     1     -32.699   5.650   1.857  1.00 20.00     0.021 C 
HETATM    5  C5  UNL     1     -33.188   7.091   2.019  1.00 20.00     0.163 C 
HETATM    6  O7  UNL     1     -34.152   8.012   4.047  1.00 20.00    -0.297 OA
ENDROOT
BRANCH   5   7
HETATM    7  C6  UNL     1     -32.067   8.109   1.941  1.00 20.00     0.398 C 
HETATM    8  F8  UNL     1     -32.492   9.231   1.333  1.00 20.00    -0.170 F 
HETATM    9  F9  UNL     1     -31.634   8.430   3.173  1.00 20.00    -0.170 F 
HETATM   10  F10 UNL     1     -31.030   7.613   1.241  1.00 20.00    -0.170 F 
ENDBRANCH   5   7
TORSDOF 1
ENDMDL
MODEL 7
REMARK VINA RESULT:      -2.0      2.749      3.645
REMARK  1 active torsions:
REMARK  status: ('A' for Active; 'I' for Inactive)
REMARK    1  A    between atoms: C5_5  and  C6_6 
ROOT
HETATM    1  C1  UNL     1     -33.837   7.032   3.389  1.00 20.00     0.139 C 
HETATM    2  C2  UNL     1     -34.057   5.614   3.852  1.00 20.00     0.079 C 
HETATM    3  C3  UNL     1     -33.754   4.819   2.588  1.00 20.00     0.008 C 
HETATM    4  C4  UNL     1     -32.703   5.648   1.861  1.00 20.00     0.021 C 
HETATM    5  C5  UNL     1     -33.188   7.090   2.022  1.00 20.00     0.163 C 
HETATM    6  O7  UNL     1     -34.149   8.016   4.049  1.00 20.00    -0.297 OA
ENDROOT
BRANCH   5   7
HETATM    7  C6  UNL     1     -32.065   8.105   1.941  1.00 20.00     0.398 C 
HETATM    8  F8  UNL     1     -31.636   8.431   3.173  1.00 20.00    -0.170 F 
HETATM    9  F9  UNL     1     -31.026   7.606   1.247  1.00 20.00    -0.170 F 
HETATM   10  F10 UNL     1     -32.487   9.226   1.327  1.00 20.00    -0.170 F 
ENDBRANCH   5   7
TORSDOF 1
ENDMDL
MODEL 8
REMARK VINA RESULT:      -1.7      2.728      3.460
REMARK  1 active torsions:
REMARK  status: ('A' for Active; 'I' for Inactive)
REMARK    1  A    between atoms: C5_5  and  C6_6 
ROOT
HETATM    1  C1  UNL     1     -33.063   6.271   2.283  1.00 20.00     0.139 C 
HETATM    2  C2  UNL     1     -34.244   5.957   3.167  1.00 20.00     0.079 C 
HETATM    3  C3  UNL     1     -34.228   7.127   4.143  1.00 20.00     0.008 C 
HETATM    4  C4  UNL     1     -33.667   8.288   3.334  1.00 20.00     0.021 C 
HETATM    5  C5  UNL     1     -32.525   7.666   2.528  1.00 20.00     0.163 C 
HETATM    6  O7  UNL     1     -32.601   5.486   1.465  1.00 20.00    -0.297 OA
ENDROOT
BRANCH   5   7
HETATM    7  C6  UNL     1     -32.224   8.419   1.248  1.00 20.00     0.398 C 
HETATM    8  F8  UNL     1     -30.982   8.137   0.816  1.00 20.00    -0.170 F 
HETATM    9  F9  UNL     1     -33.098   8.077   0.283  1.00 20.00    -0.170 F 
HETATM   10  F10 UNL     1     -32.312   9.747   1.451  1.00 20.00    -0.170 F 
ENDBRANCH   5   7
TORSDOF 1
ENDMDL
MODEL 9
REMARK VINA RESULT:      -1.5      1.130      1.447
REMARK  1 active torsions:
REMARK  status: ('A' for Active; 'I' for Inactive)
REMARK    1  A    between atoms: C5_5  and  C6_6 
ROOT
HETATM    1  C1  UNL     1     -33.173   5.805   2.511  1.00 20.00     0.139 C 
HETATM    2  C2  UNL     1     -31.894   5.694   1.718  1.00 20.00     0.079 C 
HETATM    3  C3  UNL     1     -31.778   7.087   1.110  1.00 20.00     0.008 C 
HETATM    4  C4  UNL     1     -32.424   8.005   2.140  1.00 20.00     0.021 C 
HETATM    5  C5  UNL     1     -33.663   7.236   2.602  1.00 20.00     0.163 C 
HETATM    6  O7  UNL     1     -33.740   4.846   3.019  1.00 20.00    -0.297 OA
ENDROOT
BRANCH   5   7
HETATM    7  C6  UNL     1     -34.112   7.620   3.998  1.00 20.00     0.398 C 
HETATM    8  F8  UNL     1     -34.981   6.713   4.479  1.00 20.00    -0.170 F 
HETATM    9  F9  UNL     1     -33.059   7.685   4.831  1.00 20.00    -0.170 F 
HETATM   10  F10 UNL     1     -34.718   8.823   3.982  1.00 20.00    -0.170 F 
ENDBRANCH   5   7
TORSDOF 1
ENDMDL
