MODEL 1
REMARK VINA RESULT:      -2.3      0.000      0.000
REMARK  1 active torsions:
REMARK  status: ('A' for Active; 'I' for Inactive)
REMARK    1  A    between atoms: C2_2  and  C3_3 
ROOT
HETATM    1  C1  UNL     1     -33.073   6.005   2.356  1.00 20.00     0.112 C 
HETATM    2  C2  UNL     1     -33.857   6.117   3.434  1.00 20.00     0.090 C 
HETATM    3 CL6  UNL     1     -32.319   7.311   1.535  1.00 20.00    -0.095 Cl
HETATM    4 CL7  UNL     1     -34.223   7.642   4.163  1.00 20.00    -0.080 Cl
ENDROOT
BRANCH   2   5
HETATM    5  C3  UNL     1     -34.475   4.919   4.089  1.00 20.00     0.167 C 
HETATM    6  C4  UNL     1     -33.681   3.639   4.190  1.00 20.00     0.097 C 
HETATM    7  O5  UNL     1     -35.620   4.972   4.540  1.00 20.00    -0.292 OA
ENDBRANCH   2   5
TORSDOF 1
ENDMDL
MODEL 2
REMARK VINA RESULT:      -2.1      2.234      2.472
REMARK  1 active torsions:
REMARK  status: ('A' for Active; 'I' for Inactive)
REMARK    1  A    between atoms: C2_2  and  C3_3 
ROOT
HETATM    1  C1  UNL     1     -33.100   5.619   2.045  1.00 20.00     0.112 C 
HETATM    2  C2  UNL     1     -33.158   6.822   2.626  1.00 20.00     0.090 C 
HETATM    3 CL6  UNL     1     -32.046   5.185   0.760  1.00 20.00    -0.095 Cl
HETATM    4 CL7  UNL     1     -32.146   8.139   2.141  1.00 20.00    -0.080 Cl
ENDROOT
BRANCH   2   5
HETATM    5  C3  UNL     1     -34.111   7.113   3.746  1.00 20.00     0.167 C 
HETATM    6  C4  UNL     1     -35.329   6.240   3.926  1.00 20.00     0.097 C 
HETATM    7  O5  UNL     1     -33.908   8.055   4.513  1.00 20.00    -0.292 OA
ENDBRANCH   2   5
TORSDOF 1
ENDMDL
MODEL 3
REMARK VINA RESULT:      -2.1      2.419      2.667
REMARK  1 active torsions:
REMARK  status: ('A' for Active; 'I' for Inactive)
REMARK    1  A    between atoms: C2_2  and  C3_3 
ROOT
HETATM    1  C1  UNL     1     -32.431   8.310   2.149  1.00 20.00     0.112 C 
HETATM    2  C2  UNL     1     -33.088   7.216   2.547  1.00 20.00     0.090 C 
HETATM    3 CL6  UNL     1     -31.431   8.417   0.757  1.00 20.00    -0.095 Cl
HETATM    4 CL7  UNL     1     -33.011   5.719   1.684  1.00 20.00    -0.080 Cl
ENDROOT
BRANCH   2   5
HETATM    5  C3  UNL     1     -33.942   7.213   3.779  1.00 20.00     0.167 C 
HETATM    6  C4  UNL     1     -35.124   6.277   3.856  1.00 20.00     0.097 C 
HETATM    7  O5  UNL     1     -33.688   7.965   4.721  1.00 20.00    -0.292 OA
ENDBRANCH   2   5
TORSDOF 1
ENDMDL
MODEL 4
REMARK VINA RESULT:      -2.1      1.923      2.344
REMARK  1 active torsions:
REMARK  status: ('A' for Active; 'I' for Inactive)
REMARK    1  A    between atoms: C2_2  and  C3_3 
ROOT
HETATM    1  C1  UNL     1     -32.878   7.595   2.446  1.00 20.00     0.112 C 
HETATM    2  C2  UNL     1     -33.168   6.291   2.395  1.00 20.00     0.090 C 
HETATM    3 CL6  UNL     1     -31.872   8.435   1.336  1.00 20.00    -0.095 Cl
HETATM    4 CL7  UNL     1     -32.543   5.248   1.163  1.00 20.00    -0.080 Cl
ENDROOT
BRANCH   2   5
HETATM    5  C3  UNL     1     -34.059   5.639   3.408  1.00 20.00     0.167 C 
HETATM    6  C4  UNL     1     -35.219   6.416   3.981  1.00 20.00     0.097 C 
HETATM    7  O5  UNL     1     -33.851   4.481   3.774  1.00 20.00    -0.292 OA
ENDBRANCH   2   5
TORSDOF 1
ENDMDL
MODEL 5
REMARK VINA RESULT:      -2.0      3.037      4.317
REMARK  1 active torsions:
REMARK  status: ('A' for Active; 'I' for Inactive)
REMARK    1  A    between atoms: C2_2  and  C3_3 
ROOT
HETATM    1  C1  UNL     1     -33.973   7.325   3.485  1.00 20.00     0.112 C 
HETATM    2  C2  UNL     1     -33.091   7.141   2.498  1.00 20.00     0.090 C 
HETATM    3 CL6  UNL     1     -35.142   6.176   4.000  1.00 20.00    -0.095 Cl
HETATM    4 CL7  UNL     1     -33.011   5.675   1.582  1.00 20.00    -0.080 Cl
ENDROOT
BRANCH   2   5
HETATM    5  C3  UNL     1     -32.103   8.201   2.114  1.00 20.00     0.167 C 
HETATM    6  C4  UNL     1     -32.275   8.932   0.805  1.00 20.00     0.097 C 
HETATM    7  O5  UNL     1     -31.158   8.475   2.855  1.00 20.00    -0.292 OA
ENDBRANCH   2   5
TORSDOF 1
ENDMDL
MODEL 6
REMARK VINA RESULT:      -2.0      2.281      3.514
REMARK  1 active torsions:
REMARK  status: ('A' for Active; 'I' for Inactive)
REMARK    1  A    between atoms: C2_2  and  C3_3 
ROOT
HETATM    1  C1  UNL     1     -34.263   5.289   3.423  1.00 20.00     0.112 C 
HETATM    2  C2  UNL     1     -33.669   6.454   3.147  1.00 20.00     0.090 C 
HETATM    3 CL6  UNL     1     -35.401   5.026   4.682  1.00 20.00    -0.095 Cl
HETATM    4 CL7  UNL     1     -33.979   7.894   4.055  1.00 20.00    -0.080 Cl
ENDROOT
BRANCH   2   5
HETATM    5  C3  UNL     1     -32.685   6.593   2.025  1.00 20.00     0.167 C 
HETATM    6  C4  UNL     1     -32.028   7.929   1.779  1.00 20.00     0.097 C 
HETATM    7  O5  UNL     1     -32.412   5.630   1.307  1.00 20.00    -0.292 OA
ENDBRANCH   2   5
TORSDOF 1
ENDMDL
MODEL 7
REMARK VINA RESULT:      -1.9      2.053      2.486
REMARK  1 active torsions:
REMARK  status: ('A' for Active; 'I' for Inactive)
REMARK    1  A    between atoms: C2_2  and  C3_3 
ROOT
HETATM    1  C1  UNL     1     -32.978   5.980   1.979  1.00 20.00     0.112 C 
HETATM    2  C2  UNL     1     -33.659   5.604   3.067  1.00 20.00     0.090 C 
HETATM    3 CL6  UNL     1     -31.946   4.967   1.053  1.00 20.00    -0.095 Cl
HETATM    4 CL7  UNL     1     -33.584   3.996   3.702  1.00 20.00    -0.080 Cl
ENDROOT
BRANCH   2   5
HETATM    5  C3  UNL     1     -34.540   6.558   3.815  1.00 20.00     0.167 C 
HETATM    6  C4  UNL     1     -33.993   7.903   4.225  1.00 20.00     0.097 C 
HETATM    7  O5  UNL     1     -35.700   6.251   4.097  1.00 20.00    -0.292 OA
ENDBRANCH   2   5
TORSDOF 1
ENDMDL
MODEL 8
REMARK VINA RESULT:      -1.6      2.371      3.243
REMARK  1 active torsions:
REMARK  status: ('A' for Active; 'I' for Inactive)
REMARK    1  A    between atoms: C2_2  and  C3_3 
ROOT
HETATM    1  C1  UNL     1     -34.035   4.164   4.438  1.00 20.00     0.112 C 
HETATM    2  C2  UNL     1     -33.934   5.191   3.588  1.00 20.00     0.090 C 
HETATM    3 CL6  UNL     1     -33.176   2.682   4.313  1.00 20.00    -0.095 Cl
HETATM    4 CL7  UNL     1     -32.890   5.157   2.208  1.00 20.00    -0.080 Cl
ENDROOT
BRANCH   2   5
HETATM    5  C3  UNL     1     -34.723   6.451   3.774  1.00 20.00     0.167 C 
HETATM    6  C4  UNL     1     -34.001   7.732   4.113  1.00 20.00     0.097 C 
HETATM    7  O5  UNL     1     -35.950   6.446   3.655  1.00 20.00    -0.292 OA
ENDBRANCH   2   5
TORSDOF 1
ENDMDL
MODEL 9
REMARK VINA RESULT:      -1.5      2.792      3.871
REMARK  1 active torsions:
REMARK  status: ('A' for Active; 'I' for Inactive)
REMARK    1  A    between atoms: C2_2  and  C3_3 
ROOT
HETATM    1  C1  UNL     1     -34.273   6.405   3.064  1.00 20.00     0.112 C 
HETATM    2  C2  UNL     1     -33.250   7.265   3.118  1.00 20.00     0.090 C 
HETATM    3 CL6  UNL     1     -35.393   6.111   4.332  1.00 20.00    -0.095 Cl
HETATM    4 CL7  UNL     1     -32.913   8.222   4.519  1.00 20.00    -0.080 Cl
ENDROOT
BRANCH   2   5
HETATM    5  C3  UNL     1     -32.320   7.459   1.959  1.00 20.00     0.167 C 
HETATM    6  C4  UNL     1     -32.216   8.819   1.314  1.00 20.00     0.097 C 
HETATM    7  O5  UNL     1     -31.644   6.521   1.533  1.00 20.00    -0.292 OA
ENDBRANCH   2   5
TORSDOF 1
ENDMDL
