MODEL 1
REMARK VINA RESULT:      -1.1      0.000      0.000
REMARK  0 active torsions:
REMARK  status: ('A' for Active; 'I' for Inactive)
ROOT
HETATM    1  C1  UNL     1     -33.176   7.254   2.783  1.00 20.00    -0.057 C 
HETATM    2  C2  UNL     1     -32.184   7.603   1.960  1.00 20.00     0.017 C 
HETATM    3  C3  UNL     1     -33.755   8.115   3.853  1.00 20.00     0.205 C 
HETATM    4  C4  UNL     1     -33.106   4.806   3.443  1.00 20.00     0.040 C 
HETATM    5  C5  UNL     1     -34.212   4.006   4.092  1.00 20.00     0.172 C 
HETATM    6  C6  UNL     1     -33.875   5.941   2.798  1.00 20.00     0.073 C 
HETATM    7  C7  UNL     1     -35.004   6.172   3.789  1.00 20.00     0.268 C 
HETATM    8  O8  UNL     1     -34.570   7.239   4.648  1.00 20.00    -0.356 OA
HETATM    9  O9  UNL     1     -35.199   4.953   4.518  1.00 20.00    -0.361 OA
ENDROOT
TORSDOF 0
ENDMDL
MODEL 2
REMARK VINA RESULT:      -1.0      1.243      1.384
REMARK  0 active torsions:
REMARK  status: ('A' for Active; 'I' for Inactive)
ROOT
HETATM    1  C1  UNL     1     -32.755   6.237   1.988  1.00 20.00    -0.057 C 
HETATM    2  C2  UNL     1     -31.926   5.634   1.132  1.00 20.00     0.017 C 
HETATM    3  C3  UNL     1     -32.562   7.597   2.565  1.00 20.00     0.205 C 
HETATM    4  C4  UNL     1     -33.824   4.630   3.633  1.00 20.00     0.040 C 
HETATM    5  C5  UNL     1     -35.018   4.897   4.521  1.00 20.00     0.172 C 
HETATM    6  C6  UNL     1     -34.011   5.659   2.538  1.00 20.00     0.073 C 
HETATM    7  C7  UNL     1     -34.617   6.832   3.293  1.00 20.00     0.268 C 
HETATM    8  O8  UNL     1     -33.523   7.700   3.628  1.00 20.00    -0.356 OA
HETATM    9  O9  UNL     1     -35.255   6.310   4.465  1.00 20.00    -0.361 OA
ENDROOT
TORSDOF 0
ENDMDL
MODEL 3
REMARK VINA RESULT:      -0.9      1.422      2.351
REMARK  0 active torsions:
REMARK  status: ('A' for Active; 'I' for Inactive)
ROOT
HETATM    1  C1  UNL     1     -32.537   7.255   2.079  1.00 20.00    -0.057 C 
HETATM    2  C2  UNL     1     -32.110   8.465   1.708  1.00 20.00     0.017 C 
HETATM    3  C3  UNL     1     -32.400   6.007   1.277  1.00 20.00     0.205 C 
HETATM    4  C4  UNL     1     -34.704   7.326   3.395  1.00 20.00     0.040 C 
HETATM    5  C5  UNL     1     -35.304   6.211   4.221  1.00 20.00     0.172 C 
HETATM    6  C6  UNL     1     -33.243   6.931   3.348  1.00 20.00     0.073 C 
HETATM    7  C7  UNL     1     -33.317   5.412   3.312  1.00 20.00     0.268 C 
HETATM    8  O8  UNL     1     -33.241   5.041   1.927  1.00 20.00    -0.356 OA
HETATM    9  O9  UNL     1     -34.568   5.026   3.895  1.00 20.00    -0.361 OA
ENDROOT
TORSDOF 0
ENDMDL
MODEL 4
REMARK VINA RESULT:      -0.8      1.962      3.617
REMARK  0 active torsions:
REMARK  status: ('A' for Active; 'I' for Inactive)
ROOT
HETATM    1  C1  UNL     1     -34.441   5.951   3.506  1.00 20.00    -0.057 C 
HETATM    2  C2  UNL     1     -35.412   6.298   4.355  1.00 20.00     0.017 C 
HETATM    3  C3  UNL     1     -33.776   4.618   3.451  1.00 20.00     0.205 C 
HETATM    4  C4  UNL     1     -32.842   7.851   2.993  1.00 20.00     0.040 C 
HETATM    5  C5  UNL     1     -31.835   7.915   1.867  1.00 20.00     0.172 C 
HETATM    6  C6  UNL     1     -33.832   6.830   2.472  1.00 20.00     0.073 C 
HETATM    7  C7  UNL     1     -32.936   5.872   1.702  1.00 20.00     0.268 C 
HETATM    8  O8  UNL     1     -32.629   4.798   2.606  1.00 20.00    -0.356 OA
HETATM    9  O9  UNL     1     -31.758   6.593   1.320  1.00 20.00    -0.361 OA
ENDROOT
TORSDOF 0
ENDMDL
MODEL 5
REMARK VINA RESULT:      -0.7      1.365      3.117
REMARK  0 active torsions:
REMARK  status: ('A' for Active; 'I' for Inactive)
ROOT
HETATM    1  C1  UNL     1     -34.093   5.296   3.772  1.00 20.00    -0.057 C 
HETATM    2  C2  UNL     1     -34.201   3.972   3.915  1.00 20.00     0.017 C 
HETATM    3  C3  UNL     1     -35.152   6.290   4.104  1.00 20.00     0.205 C 
HETATM    4  C4  UNL     1     -32.739   5.967   1.735  1.00 20.00     0.040 C 
HETATM    5  C5  UNL     1     -32.160   7.332   1.436  1.00 20.00     0.172 C 
HETATM    6  C6  UNL     1     -32.908   6.021   3.240  1.00 20.00     0.073 C 
HETATM    7  C7  UNL     1     -33.273   7.478   3.474  1.00 20.00     0.268 C 
HETATM    8  O8  UNL     1     -34.707   7.528   3.525  1.00 20.00    -0.356 OA
HETATM    9  O9  UNL     1     -32.757   8.237   2.373  1.00 20.00    -0.361 OA
ENDROOT
TORSDOF 0
ENDMDL
MODEL 6
REMARK VINA RESULT:      -0.7      1.512      2.248
REMARK  0 active torsions:
REMARK  status: ('A' for Active; 'I' for Inactive)
ROOT
HETATM    1  C1  UNL     1     -32.455   6.132   1.565  1.00 20.00    -0.057 C 
HETATM    2  C2  UNL     1     -31.993   5.133   0.809  1.00 20.00     0.017 C 
HETATM    3  C3  UNL     1     -31.708   7.375   1.907  1.00 20.00     0.205 C 
HETATM    4  C4  UNL     1     -33.931   5.336   3.469  1.00 20.00     0.040 C 
HETATM    5  C5  UNL     1     -34.856   6.179   4.317  1.00 20.00     0.172 C 
HETATM    6  C6  UNL     1     -33.790   6.183   2.221  1.00 20.00     0.073 C 
HETATM    7  C7  UNL     1     -33.835   7.596   2.780  1.00 20.00     0.268 C 
HETATM    8  O8  UNL     1     -32.468   8.002   2.952  1.00 20.00    -0.356 OA
HETATM    9  O9  UNL     1     -34.532   7.545   4.031  1.00 20.00    -0.361 OA
ENDROOT
TORSDOF 0
ENDMDL
MODEL 7
REMARK VINA RESULT:       0.0      1.787      3.074
REMARK  0 active torsions:
REMARK  status: ('A' for Active; 'I' for Inactive)
ROOT
HETATM    1  C1  UNL     1     -34.524   6.299   3.829  1.00 20.00    -0.057 C 
HETATM    2  C2  UNL     1     -35.376   5.377   4.284  1.00 20.00     0.017 C 
HETATM    3  C3  UNL     1     -34.719   7.773   3.911  1.00 20.00     0.205 C 
HETATM    4  C4  UNL     1     -33.350   5.596   1.693  1.00 20.00     0.040 C 
HETATM    5  C5  UNL     1     -32.124   6.231   1.076  1.00 20.00     0.172 C 
HETATM    6  C6  UNL     1     -33.233   6.027   3.140  1.00 20.00     0.073 C 
HETATM    7  C7  UNL     1     -32.619   7.413   3.019  1.00 20.00     0.268 C 
HETATM    8  O8  UNL     1     -33.715   8.340   3.054  1.00 20.00    -0.356 OA
HETATM    9  O9  UNL     1     -31.920   7.469   1.769  1.00 20.00    -0.361 OA
ENDROOT
TORSDOF 0
ENDMDL
MODEL 8
REMARK VINA RESULT:       0.1      1.227      1.459
REMARK  0 active torsions:
REMARK  status: ('A' for Active; 'I' for Inactive)
ROOT
HETATM    1  C1  UNL     1     -32.298   7.960   2.070  1.00 20.00    -0.057 C 
HETATM    2  C2  UNL     1     -31.559   8.200   0.984  1.00 20.00     0.017 C 
HETATM    3  C3  UNL     1     -32.140   8.634   3.390  1.00 20.00     0.205 C 
HETATM    4  C4  UNL     1     -32.961   5.523   2.302  1.00 20.00     0.040 C 
HETATM    5  C5  UNL     1     -34.026   4.951   3.211  1.00 20.00     0.172 C 
HETATM    6  C6  UNL     1     -33.401   6.966   2.172  1.00 20.00     0.073 C 
HETATM    7  C7  UNL     1     -33.986   7.253   3.545  1.00 20.00     0.268 C 
HETATM    8  O8  UNL     1     -32.934   7.866   4.308  1.00 20.00    -0.356 OA
HETATM    9  O9  UNL     1     -34.391   6.002   4.114  1.00 20.00    -0.361 OA
ENDROOT
TORSDOF 0
ENDMDL
MODEL 9
REMARK VINA RESULT:       0.5      2.134      4.033
REMARK  0 active torsions:
REMARK  status: ('A' for Active; 'I' for Inactive)
ROOT
HETATM    1  C1  UNL     1     -32.537   6.156   1.703  1.00 20.00    -0.057 C 
HETATM    2  C2  UNL     1     -32.356   5.000   1.057  1.00 20.00     0.017 C 
HETATM    3  C3  UNL     1     -33.457   6.368   2.855  1.00 20.00     0.205 C 
HETATM    4  C4  UNL     1     -32.419   8.176   0.174  1.00 20.00     0.040 C 
HETATM    5  C5  UNL     1     -32.270   9.623   0.587  1.00 20.00     0.172 C 
HETATM    6  C6  UNL     1     -31.869   7.446   1.382  1.00 20.00     0.073 C 
HETATM    7  C7  UNL     1     -32.305   8.344   2.530  1.00 20.00     0.268 C 
HETATM    8  O8  UNL     1     -33.536   7.792   3.024  1.00 20.00    -0.356 OA
HETATM    9  O9  UNL     1     -32.491   9.663   2.003  1.00 20.00    -0.361 OA
ENDROOT
TORSDOF 0
ENDMDL
