MODEL 1
REMARK VINA RESULT:       0.6      0.000      0.000
REMARK  1 active torsions:
REMARK  status: ('A' for Active; 'I' for Inactive)
REMARK    1  A    between atoms: C4_4  and  C10_10 
ROOT
HETATM    1  C1  UNL     1     -33.693   7.605   3.823  1.00 20.00     0.008 C 
HETATM    2  C2  UNL     1     -34.981   6.898   4.245  1.00 20.00     0.035 C 
HETATM    3  C3  UNL     1     -33.014   5.770   2.222  1.00 20.00     0.039 C 
HETATM    4  C4  UNL     1     -33.325   7.268   2.370  1.00 20.00    -0.005 C 
HETATM    5  C5  UNL     1     -35.007   5.449   3.886  1.00 20.00     0.151 A 
HETATM    6  C6  UNL     1     -34.058   4.903   2.854  1.00 20.00     0.151 A 
HETATM    7  O11 UNL     1     -33.853   4.697   4.265  1.00 20.00    -0.375 OA
ENDROOT
BRANCH   4   8
HETATM    8  C10 UNL     1     -32.138   8.108   1.902  1.00 20.00    -0.048 C 
HETATM    9  C7  UNL     1     -31.450   8.756   3.115  1.00 20.00     0.015 C 
HETATM   10  C8  UNL     1     -32.625   9.210   0.948  1.00 20.00     0.015 C 
HETATM   11  C9  UNL     1     -31.127   7.212   1.167  1.00 20.00     0.015 C 
ENDBRANCH   4   8
TORSDOF 1
ENDMDL
MODEL 2
REMARK VINA RESULT:       0.6      0.014      1.310
REMARK  1 active torsions:
REMARK  status: ('A' for Active; 'I' for Inactive)
REMARK    1  A    between atoms: C4_4  and  C10_10 
ROOT
HETATM    1  C1  UNL     1     -33.686   7.597   3.819  1.00 20.00     0.008 C 
HETATM    2  C2  UNL     1     -34.970   6.885   4.245  1.00 20.00     0.035 C 
HETATM    3  C3  UNL     1     -33.009   5.769   2.210  1.00 20.00     0.039 C 
HETATM    4  C4  UNL     1     -33.324   7.265   2.363  1.00 20.00    -0.005 C 
HETATM    5  C5  UNL     1     -34.994   5.437   3.882  1.00 20.00     0.151 A 
HETATM    6  C6  UNL     1     -34.047   4.897   2.845  1.00 20.00     0.151 A 
HETATM    7  O11 UNL     1     -33.835   4.688   4.254  1.00 20.00    -0.375 OA
ENDROOT
BRANCH   4   8
HETATM    8  C10 UNL     1     -32.142   8.110   1.893  1.00 20.00    -0.048 C 
HETATM    9  C7  UNL     1     -32.635   9.209   0.938  1.00 20.00     0.015 C 
HETATM   10  C8  UNL     1     -31.126   7.220   1.159  1.00 20.00     0.015 C 
HETATM   11  C9  UNL     1     -31.457   8.764   3.106  1.00 20.00     0.015 C 
ENDBRANCH   4   8
TORSDOF 1
ENDMDL
MODEL 3
REMARK VINA RESULT:       1.4      1.766      4.111
REMARK  1 active torsions:
REMARK  status: ('A' for Active; 'I' for Inactive)
REMARK    1  A    between atoms: C4_4  and  C10_10 
ROOT
HETATM    1  C1  UNL     1     -32.829   5.550   2.316  1.00 20.00     0.008 C 
HETATM    2  C2  UNL     1     -32.081   5.736   0.996  1.00 20.00     0.035 C 
HETATM    3  C3  UNL     1     -33.131   8.032   2.686  1.00 20.00     0.039 C 
HETATM    4  C4  UNL     1     -33.846   6.679   2.541  1.00 20.00    -0.005 C 
HETATM    5  C5  UNL     1     -31.568   7.124   0.795  1.00 20.00     0.151 A 
HETATM    6  C6  UNL     1     -32.120   8.264   1.607  1.00 20.00     0.151 A 
HETATM    7  O11 UNL     1     -30.836   7.676   1.891  1.00 20.00    -0.375 OA
ENDROOT
BRANCH   4   8
HETATM    8  C10 UNL     1     -34.706   6.395   3.772  1.00 20.00    -0.048 C 
HETATM    9  C7  UNL     1     -34.478   4.949   4.243  1.00 20.00     0.015 C 
HETATM   10  C8  UNL     1     -36.191   6.587   3.424  1.00 20.00     0.015 C 
HETATM   11  C9  UNL     1     -34.323   7.363   4.905  1.00 20.00     0.015 C 
ENDBRANCH   4   8
TORSDOF 1
ENDMDL
MODEL 4
REMARK VINA RESULT:       1.5      0.953      2.160
REMARK  1 active torsions:
REMARK  status: ('A' for Active; 'I' for Inactive)
REMARK    1  A    between atoms: C4_4  and  C10_10 
ROOT
HETATM    1  C1  UNL     1     -33.330   5.693   2.316  1.00 20.00     0.008 C 
HETATM    2  C2  UNL     1     -33.977   4.779   3.356  1.00 20.00     0.035 C 
HETATM    3  C3  UNL     1     -33.992   7.813   3.524  1.00 20.00     0.039 C 
HETATM    4  C4  UNL     1     -32.822   6.993   2.959  1.00 20.00    -0.005 C 
HETATM    5  C5  UNL     1     -34.944   5.486   4.248  1.00 20.00     0.151 A 
HETATM    6  C6  UNL     1     -34.921   6.986   4.358  1.00 20.00     0.151 A 
HETATM    7  O11 UNL     1     -35.920   6.293   3.586  1.00 20.00    -0.375 OA
ENDROOT
BRANCH   4   8
HETATM    8  C10 UNL     1     -32.028   7.822   1.950  1.00 20.00    -0.048 C 
HETATM    9  C7  UNL     1     -32.956   8.843   1.272  1.00 20.00     0.015 C 
HETATM   10  C8  UNL     1     -31.424   6.898   0.880  1.00 20.00     0.015 C 
HETATM   11  C9  UNL     1     -30.894   8.570   2.672  1.00 20.00     0.015 C 
ENDBRANCH   4   8
TORSDOF 1
ENDMDL
MODEL 5
REMARK VINA RESULT:       1.5      0.956      1.808
REMARK  1 active torsions:
REMARK  status: ('A' for Active; 'I' for Inactive)
REMARK    1  A    between atoms: C4_4  and  C10_10 
ROOT
HETATM    1  C1  UNL     1     -33.347   5.695   2.313  1.00 20.00     0.008 C 
HETATM    2  C2  UNL     1     -33.998   4.778   3.349  1.00 20.00     0.035 C 
HETATM    3  C3  UNL     1     -33.997   7.812   3.534  1.00 20.00     0.039 C 
HETATM    4  C4  UNL     1     -32.831   6.988   2.962  1.00 20.00    -0.005 C 
HETATM    5  C5  UNL     1     -34.960   5.485   4.245  1.00 20.00     0.151 A 
HETATM    6  C6  UNL     1     -34.928   6.985   4.364  1.00 20.00     0.151 A 
HETATM    7  O11 UNL     1     -35.932   6.301   3.589  1.00 20.00    -0.375 OA
ENDROOT
BRANCH   4   8
HETATM    8  C10 UNL     1     -32.034   7.818   1.958  1.00 20.00    -0.048 C 
HETATM    9  C7  UNL     1     -30.896   8.557   2.680  1.00 20.00     0.015 C 
HETATM   10  C8  UNL     1     -32.958   8.847   1.285  1.00 20.00     0.015 C 
HETATM   11  C9  UNL     1     -31.436   6.896   0.882  1.00 20.00     0.015 C 
ENDBRANCH   4   8
TORSDOF 1
ENDMDL
MODEL 6
REMARK VINA RESULT:       1.8      1.389      2.492
REMARK  1 active torsions:
REMARK  status: ('A' for Active; 'I' for Inactive)
REMARK    1  A    between atoms: C4_4  and  C10_10 
ROOT
HETATM    1  C1  UNL     1     -33.712   4.566   2.790  1.00 20.00     0.008 C 
HETATM    2  C2  UNL     1     -34.244   4.223   4.182  1.00 20.00     0.035 C 
HETATM    3  C3  UNL     1     -34.113   7.047   3.066  1.00 20.00     0.039 C 
HETATM    4  C4  UNL     1     -33.067   5.960   2.771  1.00 20.00    -0.005 C 
HETATM    5  C5  UNL     1     -35.048   5.321   4.796  1.00 20.00     0.151 A 
HETATM    6  C6  UNL     1     -34.949   6.725   4.266  1.00 20.00     0.151 A 
HETATM    7  O11 UNL     1     -36.073   5.874   3.969  1.00 20.00    -0.375 OA
ENDROOT
BRANCH   4   8
HETATM    8  C10 UNL     1     -32.388   6.224   1.428  1.00 20.00    -0.048 C 
HETATM    9  C7  UNL     1     -31.321   5.149   1.163  1.00 20.00     0.015 C 
HETATM   10  C8  UNL     1     -31.719   7.608   1.447  1.00 20.00     0.015 C 
HETATM   11  C9  UNL     1     -33.436   6.185   0.301  1.00 20.00     0.015 C 
ENDBRANCH   4   8
TORSDOF 1
ENDMDL
MODEL 7
REMARK VINA RESULT:       2.7      1.608      3.539
REMARK  1 active torsions:
REMARK  status: ('A' for Active; 'I' for Inactive)
REMARK    1  A    between atoms: C4_4  and  C10_10 
ROOT
HETATM    1  C1  UNL     1     -32.753   7.787   1.996  1.00 20.00     0.008 C 
HETATM    2  C2  UNL     1     -31.546   7.247   1.229  1.00 20.00     0.035 C 
HETATM    3  C3  UNL     1     -33.549   5.491   2.691  1.00 20.00     0.039 C 
HETATM    4  C4  UNL     1     -33.109   6.879   3.183  1.00 20.00    -0.005 C 
HETATM    5  C5  UNL     1     -31.640   5.787   0.928  1.00 20.00     0.151 A 
HETATM    6  C6  UNL     1     -32.605   4.914   1.683  1.00 20.00     0.151 A 
HETATM    7  O11 UNL     1     -32.867   5.356   0.337  1.00 20.00    -0.375 OA
ENDROOT
BRANCH   4   8
HETATM    8  C10 UNL     1     -34.203   7.512   4.041  1.00 20.00    -0.048 C 
HETATM    9  C7  UNL     1     -34.822   8.707   3.295  1.00 20.00     0.015 C 
HETATM   10  C8  UNL     1     -33.603   8.001   5.369  1.00 20.00     0.015 C 
HETATM   11  C9  UNL     1     -35.300   6.474   4.332  1.00 20.00     0.015 C 
ENDBRANCH   4   8
TORSDOF 1
ENDMDL
MODEL 8
REMARK VINA RESULT:       2.9      1.880      4.010
REMARK  1 active torsions:
REMARK  status: ('A' for Active; 'I' for Inactive)
REMARK    1  A    between atoms: C4_4  and  C10_10 
ROOT
HETATM    1  C1  UNL     1     -33.172   8.147   3.698  1.00 20.00     0.008 C 
HETATM    2  C2  UNL     1     -31.786   8.669   3.321  1.00 20.00     0.035 C 
HETATM    3  C3  UNL     1     -33.222   6.446   1.828  1.00 20.00     0.039 C 
HETATM    4  C4  UNL     1     -33.319   6.659   3.347  1.00 20.00    -0.005 C 
HETATM    5  C5  UNL     1     -31.359   8.279   1.945  1.00 20.00     0.151 A 
HETATM    6  C6  UNL     1     -32.047   7.151   1.225  1.00 20.00     0.151 A 
HETATM    7  O11 UNL     1     -32.309   8.531   0.908  1.00 20.00    -0.375 OA
ENDROOT
BRANCH   4   8
HETATM    8  C10 UNL     1     -34.639   6.104   3.880  1.00 20.00    -0.048 C 
HETATM    9  C7  UNL     1     -34.533   4.580   4.050  1.00 20.00     0.015 C 
HETATM   10  C8  UNL     1     -35.773   6.426   2.894  1.00 20.00     0.015 C 
HETATM   11  C9  UNL     1     -34.958   6.744   5.243  1.00 20.00     0.015 C 
ENDBRANCH   4   8
TORSDOF 1
ENDMDL
MODEL 9
REMARK VINA RESULT:       2.9      1.879      4.011
REMARK  1 active torsions:
REMARK  status: ('A' for Active; 'I' for Inactive)
REMARK    1  A    between atoms: C4_4  and  C10_10 
ROOT
HETATM    1  C1  UNL     1     -33.178   8.143   3.704  1.00 20.00     0.008 C 
HETATM    2  C2  UNL     1     -31.792   8.668   3.329  1.00 20.00     0.035 C 
HETATM    3  C3  UNL     1     -33.225   6.444   1.833  1.00 20.00     0.039 C 
HETATM    4  C4  UNL     1     -33.323   6.655   3.353  1.00 20.00    -0.005 C 
HETATM    5  C5  UNL     1     -31.364   8.279   1.952  1.00 20.00     0.151 A 
HETATM    6  C6  UNL     1     -32.051   7.151   1.232  1.00 20.00     0.151 A 
HETATM    7  O11 UNL     1     -32.314   8.531   0.915  1.00 20.00    -0.375 OA
ENDROOT
BRANCH   4   8
HETATM    8  C10 UNL     1     -34.643   6.099   3.884  1.00 20.00    -0.048 C 
HETATM    9  C7  UNL     1     -34.964   6.734   5.247  1.00 20.00     0.015 C 
HETATM   10  C8  UNL     1     -34.535   4.574   4.050  1.00 20.00     0.015 C 
HETATM   11  C9  UNL     1     -35.777   6.421   2.896  1.00 20.00     0.015 C 
ENDBRANCH   4   8
TORSDOF 1
ENDMDL
