MODEL 1
REMARK VINA RESULT:      -2.4      0.000      0.000
REMARK  2 active torsions:
REMARK  status: ('A' for Active; 'I' for Inactive)
REMARK    1  A    between atoms: C1_1  and  C5_5 
REMARK    2  A    between atoms: C4_4  and  C5_5 
ROOT
HETATM    1  C5  UNL     1     -33.271   7.274   3.210  1.00 20.00     0.101 C 
ENDROOT
BRANCH   1   2
HETATM    2  C1  UNL     1     -32.409   7.342   1.962  1.00 20.00     0.219 C 
HETATM    3  O6  UNL     1     -32.010   8.402   1.488  1.00 20.00    -0.280 OA
HETATM    4 CL7  UNL     1     -32.078   5.759   1.316  1.00 20.00    -0.044 Cl
ENDBRANCH   1   2
BRANCH   1   5
HETATM    5  C4  UNL     1     -34.362   6.263   3.134  1.00 20.00    -0.006 A 
HETATM    6  C2  UNL     1     -34.374   5.088   4.074  1.00 20.00     0.005 A 
HETATM    7  C3  UNL     1     -35.395   6.181   4.224  1.00 20.00     0.005 A 
ENDBRANCH   1   5
TORSDOF 2
ENDMDL
MODEL 2
REMARK VINA RESULT:      -2.4      1.706      1.902
REMARK  2 active torsions:
REMARK  status: ('A' for Active; 'I' for Inactive)
REMARK    1  A    between atoms: C1_1  and  C5_5 
REMARK    2  A    between atoms: C4_4  and  C5_5 
ROOT
HETATM    1  C5  UNL     1     -33.711   6.045   2.012  1.00 20.00     0.101 C 
ENDROOT
BRANCH   1   2
HETATM    2  C1  UNL     1     -32.267   6.218   1.575  1.00 20.00     0.219 C 
HETATM    3  O6  UNL     1     -31.570   5.280   1.200  1.00 20.00    -0.280 OA
HETATM    4 CL7  UNL     1     -31.754   7.880   1.678  1.00 20.00    -0.044 Cl
ENDBRANCH   1   2
BRANCH   1   5
HETATM    5  C4  UNL     1     -33.913   6.169   3.483  1.00 20.00    -0.006 A 
HETATM    6  C2  UNL     1     -34.408   7.461   4.074  1.00 20.00     0.005 A 
HETATM    7  C3  UNL     1     -35.303   6.252   4.051  1.00 20.00     0.005 A 
ENDBRANCH   1   5
TORSDOF 2
ENDMDL
MODEL 3
REMARK VINA RESULT:      -2.3      2.397      3.525
REMARK  2 active torsions:
REMARK  status: ('A' for Active; 'I' for Inactive)
REMARK    1  A    between atoms: C1_1  and  C5_5 
REMARK    2  A    between atoms: C4_4  and  C5_5 
ROOT
HETATM    1  C5  UNL     1     -33.584   7.142   3.630  1.00 20.00     0.101 C 
ENDROOT
BRANCH   1   2
HETATM    2  C1  UNL     1     -34.673   6.097   3.805  1.00 20.00     0.219 C 
HETATM    3  O6  UNL     1     -35.867   6.379   3.809  1.00 20.00    -0.280 OA
HETATM    4 CL7  UNL     1     -34.012   4.498   3.997  1.00 20.00    -0.044 Cl
ENDBRANCH   1   2
BRANCH   1   5
HETATM    5  C4  UNL     1     -33.212   7.391   2.209  1.00 20.00    -0.006 A 
HETATM    6  C2  UNL     1     -31.822   7.848   1.859  1.00 20.00     0.005 A 
HETATM    7  C3  UNL     1     -32.270   6.459   1.499  1.00 20.00     0.005 A 
ENDBRANCH   1   5
TORSDOF 2
ENDMDL
MODEL 4
REMARK VINA RESULT:      -2.3      2.574      4.263
REMARK  2 active torsions:
REMARK  status: ('A' for Active; 'I' for Inactive)
REMARK    1  A    between atoms: C1_1  and  C5_5 
REMARK    2  A    between atoms: C4_4  and  C5_5 
ROOT
HETATM    1  C5  UNL     1     -32.018   8.165   1.659  1.00 20.00     0.101 C 
ENDROOT
BRANCH   1   2
HETATM    2  C1  UNL     1     -32.810   6.969   2.159  1.00 20.00     0.219 C 
HETATM    3  O6  UNL     1     -32.769   5.872   1.612  1.00 20.00    -0.280 OA
HETATM    4 CL7  UNL     1     -33.754   7.361   3.569  1.00 20.00    -0.044 Cl
ENDBRANCH   1   2
BRANCH   1   5
HETATM    5  C4  UNL     1     -32.773   9.035   0.714  1.00 20.00    -0.006 A 
HETATM    6  C2  UNL     1     -32.648  10.531   0.797  1.00 20.00     0.005 A 
HETATM    7  C3  UNL     1     -32.048   9.789  -0.365  1.00 20.00     0.005 A 
ENDBRANCH   1   5
TORSDOF 2
ENDMDL
MODEL 5
REMARK VINA RESULT:      -2.2      2.686      3.860
REMARK  2 active torsions:
REMARK  status: ('A' for Active; 'I' for Inactive)
REMARK    1  A    between atoms: C1_1  and  C5_5 
REMARK    2  A    between atoms: C4_4  and  C5_5 
ROOT
HETATM    1  C5  UNL     1     -33.556   6.732   2.560  1.00 20.00     0.101 C 
ENDROOT
BRANCH   1   2
HETATM    2  C1  UNL     1     -34.388   6.877   3.823  1.00 20.00     0.219 C 
HETATM    3  O6  UNL     1     -35.413   6.231   4.019  1.00 20.00    -0.280 OA
HETATM    4 CL7  UNL     1     -33.707   8.048   4.917  1.00 20.00    -0.044 Cl
ENDBRANCH   1   2
BRANCH   1   5
HETATM    5  C4  UNL     1     -32.470   7.744   2.436  1.00 20.00    -0.006 A 
HETATM    6  C2  UNL     1     -31.392   7.575   1.399  1.00 20.00     0.005 A 
HETATM    7  C3  UNL     1     -32.422   8.660   1.245  1.00 20.00     0.005 A 
ENDBRANCH   1   5
TORSDOF 2
ENDMDL
MODEL 6
REMARK VINA RESULT:      -2.2      2.471      3.729
REMARK  2 active torsions:
REMARK  status: ('A' for Active; 'I' for Inactive)
REMARK    1  A    between atoms: C1_1  and  C5_5 
REMARK    2  A    between atoms: C4_4  and  C5_5 
ROOT
HETATM    1  C5  UNL     1     -33.471   6.921   2.601  1.00 20.00     0.101 C 
ENDROOT
BRANCH   1   2
HETATM    2  C1  UNL     1     -34.206   7.131   3.913  1.00 20.00     0.219 C 
HETATM    3  O6  UNL     1     -33.905   8.017   4.707  1.00 20.00    -0.280 OA
HETATM    4 CL7  UNL     1     -35.492   5.976   4.128  1.00 20.00    -0.044 Cl
ENDBRANCH   1   2
BRANCH   1   5
HETATM    5  C4  UNL     1     -32.347   7.874   2.381  1.00 20.00    -0.006 A 
HETATM    6  C2  UNL     1     -31.363   7.641   1.267  1.00 20.00     0.005 A 
HETATM    7  C3  UNL     1     -32.345   8.776   1.178  1.00 20.00     0.005 A 
ENDBRANCH   1   5
TORSDOF 2
ENDMDL
MODEL 7
REMARK VINA RESULT:      -2.1      2.702      3.703
REMARK  2 active torsions:
REMARK  status: ('A' for Active; 'I' for Inactive)
REMARK    1  A    between atoms: C1_1  and  C5_5 
REMARK    2  A    between atoms: C4_4  and  C5_5 
ROOT
HETATM    1  C5  UNL     1     -33.547   5.702   3.146  1.00 20.00     0.101 C 
ENDROOT
BRANCH   1   2
HETATM    2  C1  UNL     1     -34.583   6.541   3.874  1.00 20.00     0.219 C 
HETATM    3  O6  UNL     1     -35.761   6.211   3.961  1.00 20.00    -0.280 OA
HETATM    4 CL7  UNL     1     -33.888   7.992   4.542  1.00 20.00    -0.044 Cl
ENDBRANCH   1   2
BRANCH   1   5
HETATM    5  C4  UNL     1     -33.183   6.228   1.801  1.00 20.00    -0.006 A 
HETATM    6  C2  UNL     1     -31.984   7.121   1.635  1.00 20.00     0.005 A 
HETATM    7  C3  UNL     1     -31.957   5.718   1.095  1.00 20.00     0.005 A 
ENDBRANCH   1   5
TORSDOF 2
ENDMDL
MODEL 8
REMARK VINA RESULT:      -2.0      1.465      1.465
REMARK  2 active torsions:
REMARK  status: ('A' for Active; 'I' for Inactive)
REMARK    1  A    between atoms: C1_1  and  C5_5 
REMARK    2  A    between atoms: C4_4  and  C5_5 
ROOT
HETATM    1  C5  UNL     1     -33.147   7.471   3.063  1.00 20.00     0.101 C 
ENDROOT
BRANCH   1   2
HETATM    2  C1  UNL     1     -32.267   7.478   1.826  1.00 20.00     0.219 C 
HETATM    3  O6  UNL     1     -31.653   6.487   1.444  1.00 20.00    -0.280 OA
HETATM    4 CL7  UNL     1     -32.249   9.038   1.052  1.00 20.00    -0.044 Cl
ENDBRANCH   1   2
BRANCH   1   5
HETATM    5  C4  UNL     1     -34.271   6.494   2.997  1.00 20.00    -0.006 A 
HETATM    6  C2  UNL     1     -34.296   5.304   3.917  1.00 20.00     0.005 A 
HETATM    7  C3  UNL     1     -35.280   6.425   4.110  1.00 20.00     0.005 A 
ENDBRANCH   1   5
TORSDOF 2
ENDMDL
MODEL 9
REMARK VINA RESULT:      -2.0      3.004      3.693
REMARK  2 active torsions:
REMARK  status: ('A' for Active; 'I' for Inactive)
REMARK    1  A    between atoms: C1_1  and  C5_5 
REMARK    2  A    between atoms: C4_4  and  C5_5 
ROOT
HETATM    1  C5  UNL     1     -33.438   5.187   3.314  1.00 20.00     0.101 C 
ENDROOT
BRANCH   1   2
HETATM    2  C1  UNL     1     -34.195   4.289   4.276  1.00 20.00     0.219 C 
HETATM    3  O6  UNL     1     -35.334   4.537   4.660  1.00 20.00    -0.280 OA
HETATM    4 CL7  UNL     1     -33.251   2.903   4.747  1.00 20.00    -0.044 Cl
ENDBRANCH   1   2
BRANCH   1   5
HETATM    5  C4  UNL     1     -34.074   6.519   3.108  1.00 20.00    -0.006 A 
HETATM    6  C2  UNL     1     -33.895   7.610   4.128  1.00 20.00     0.005 A 
HETATM    7  C3  UNL     1     -33.228   7.719   2.785  1.00 20.00     0.005 A 
ENDBRANCH   1   5
TORSDOF 2
ENDMDL
