MODEL 1
REMARK VINA RESULT:      -2.4      0.000      0.000
REMARK  1 active torsions:
REMARK  status: ('A' for Active; 'I' for Inactive)
REMARK    1  A    between atoms: C2_2  and  C4_4 
REMARK       I    between atoms: C2_2  and  N7_7 
ROOT
HETATM    1  C1  UNL     1     -32.257   8.789   1.165  1.00 20.00     0.166 C 
HETATM    2  C2  UNL     1     -32.818   6.873   2.063  1.00 20.00     0.249 C 
HETATM    3  N7  UNL     1     -32.118   8.060   2.075  1.00 20.00    -0.199 NA
HETATM    4  O8  UNL     1     -32.457   5.796   1.596  1.00 20.00    -0.271 OA
HETATM    5  S9  UNL     1     -32.420   9.802  -0.053  1.00 20.00    -0.055 SA
ENDROOT
BRANCH   2   6
HETATM    6  C4  UNL     1     -34.141   6.962   2.690  1.00 20.00     0.084 A 
HETATM    7  C3  UNL     1     -34.486   6.030   3.825  1.00 20.00     0.019 A 
HETATM    8  C5  UNL     1     -34.301   7.497   4.093  1.00 20.00    -0.005 A 
HETATM    9  C6  UNL     1     -33.139   7.965   4.900  1.00 20.00     0.011 C 
ENDBRANCH   2   6
TORSDOF 1
ENDMDL
MODEL 2
REMARK VINA RESULT:      -2.1      0.834      1.448
REMARK  1 active torsions:
REMARK  status: ('A' for Active; 'I' for Inactive)
REMARK    1  A    between atoms: C2_2  and  C4_4 
REMARK       I    between atoms: C2_2  and  N7_7 
ROOT
HETATM    1  C1  UNL     1     -32.189   8.615   1.268  1.00 20.00     0.166 C 
HETATM    2  C2  UNL     1     -32.940   6.775   2.186  1.00 20.00     0.249 C 
HETATM    3  N7  UNL     1     -31.948   7.710   1.976  1.00 20.00    -0.199 NA
HETATM    4  O8  UNL     1     -33.157   5.757   1.536  1.00 20.00    -0.271 OA
HETATM    5  S9  UNL     1     -32.479   9.857   0.312  1.00 20.00    -0.055 SA
ENDROOT
BRANCH   2   6
HETATM    6  C4  UNL     1     -33.808   7.082   3.328  1.00 20.00     0.084 A 
HETATM    7  C3  UNL     1     -35.278   6.756   3.249  1.00 20.00     0.019 A 
HETATM    8  C5  UNL     1     -34.390   5.979   4.180  1.00 20.00    -0.005 A 
HETATM    9  C6  UNL     1     -34.109   4.540   3.914  1.00 20.00     0.011 C 
ENDBRANCH   2   6
TORSDOF 1
ENDMDL
MODEL 3
REMARK VINA RESULT:      -0.3      2.553      4.221
REMARK  1 active torsions:
REMARK  status: ('A' for Active; 'I' for Inactive)
REMARK    1  A    between atoms: C2_2  and  C4_4 
REMARK       I    between atoms: C2_2  and  N7_7 
ROOT
HETATM    1  C1  UNL     1     -33.579   6.588   2.788  1.00 20.00     0.166 C 
HETATM    2  C2  UNL     1     -32.215   8.059   1.910  1.00 20.00     0.249 C 
HETATM    3  N7  UNL     1     -32.748   6.789   1.983  1.00 20.00    -0.199 NA
HETATM    4  O8  UNL     1     -31.242   8.497   2.516  1.00 20.00    -0.271 OA
HETATM    5  S9  UNL     1     -34.708   6.277   3.868  1.00 20.00    -0.055 SA
ENDROOT
BRANCH   2   6
HETATM    6  C4  UNL     1     -32.934   8.948   0.991  1.00 20.00     0.084 A 
HETATM    7  C3  UNL     1     -32.462  10.371   0.818  1.00 20.00     0.019 A 
HETATM    8  C5  UNL     1     -32.307   9.390  -0.310  1.00 20.00    -0.005 A 
HETATM    9  C6  UNL     1     -30.948   8.944  -0.727  1.00 20.00     0.011 C 
ENDBRANCH   2   6
TORSDOF 1
ENDMDL
MODEL 4
REMARK VINA RESULT:      -0.2      2.260      2.717
REMARK  1 active torsions:
REMARK  status: ('A' for Active; 'I' for Inactive)
REMARK    1  A    between atoms: C2_2  and  C4_4 
REMARK       I    between atoms: C2_2  and  N7_7 
ROOT
HETATM    1  C1  UNL     1     -32.767   6.763   1.970  1.00 20.00     0.166 C 
HETATM    2  C2  UNL     1     -33.451   7.629   3.861  1.00 20.00     0.249 C 
HETATM    3  N7  UNL     1     -33.147   7.729   2.520  1.00 20.00    -0.199 NA
HETATM    4  O8  UNL     1     -32.697   7.807   4.814  1.00 20.00    -0.271 OA
HETATM    5  S9  UNL     1     -32.247   5.474   1.191  1.00 20.00    -0.055 SA
ENDROOT
BRANCH   2   6
HETATM    6  C4  UNL     1     -34.847   7.264   4.123  1.00 20.00     0.084 A 
HETATM    7  C3  UNL     1     -35.646   6.573   3.046  1.00 20.00     0.019 A 
HETATM    8  C5  UNL     1     -35.254   5.818   4.285  1.00 20.00    -0.005 A 
HETATM    9  C6  UNL     1     -34.269   4.703   4.198  1.00 20.00     0.011 C 
ENDBRANCH   2   6
TORSDOF 1
ENDMDL
MODEL 5
REMARK VINA RESULT:       0.3      3.483      4.252
REMARK  1 active torsions:
REMARK  status: ('A' for Active; 'I' for Inactive)
REMARK    1  A    between atoms: C2_2  and  C4_4 
REMARK       I    between atoms: C2_2  and  N7_7 
ROOT
HETATM    1  C1  UNL     1     -34.466   4.576   4.464  1.00 20.00     0.166 C 
HETATM    2  C2  UNL     1     -35.427   6.429   3.803  1.00 20.00     0.249 C 
HETATM    3  N7  UNL     1     -35.192   5.454   4.749  1.00 20.00    -0.199 NA
HETATM    4  O8  UNL     1     -36.308   6.444   2.948  1.00 20.00    -0.271 OA
HETATM    5  S9  UNL     1     -33.487   3.369   4.112  1.00 20.00    -0.055 SA
ENDROOT
BRANCH   2   6
HETATM    6  C4  UNL     1     -34.486   7.552   3.868  1.00 20.00     0.084 A 
HETATM    7  C3  UNL     1     -33.106   7.330   4.434  1.00 20.00     0.019 A 
HETATM    8  C5  UNL     1     -33.276   7.605   2.967  1.00 20.00    -0.005 A 
HETATM    9  C6  UNL     1     -32.983   6.537   1.969  1.00 20.00     0.011 C 
ENDBRANCH   2   6
TORSDOF 1
ENDMDL
MODEL 6
REMARK VINA RESULT:       0.4      3.145      3.831
REMARK  1 active torsions:
REMARK  status: ('A' for Active; 'I' for Inactive)
REMARK    1  A    between atoms: C2_2  and  C4_4 
REMARK       I    between atoms: C2_2  and  N7_7 
ROOT
HETATM    1  C1  UNL     1     -33.644   4.387   3.626  1.00 20.00     0.166 C 
HETATM    2  C2  UNL     1     -33.193   5.687   1.923  1.00 20.00     0.249 C 
HETATM    3  N7  UNL     1     -33.991   5.305   2.980  1.00 20.00    -0.199 NA
HETATM    4  O8  UNL     1     -33.251   5.293   0.762  1.00 20.00    -0.271 OA
HETATM    5  S9  UNL     1     -33.206   3.146   4.524  1.00 20.00    -0.055 SA
ENDROOT
BRANCH   2   6
HETATM    6  C4  UNL     1     -32.172   6.676   2.283  1.00 20.00     0.084 A 
HETATM    7  C3  UNL     1     -32.257   8.069   1.709  1.00 20.00     0.019 A 
HETATM    8  C5  UNL     1     -32.506   7.848   3.175  1.00 20.00    -0.005 A 
HETATM    9  C6  UNL     1     -33.872   8.052   3.737  1.00 20.00     0.011 C 
ENDBRANCH   2   6
TORSDOF 1
ENDMDL
MODEL 7
REMARK VINA RESULT:       0.5      3.484      4.094
REMARK  1 active torsions:
REMARK  status: ('A' for Active; 'I' for Inactive)
REMARK    1  A    between atoms: C2_2  and  C4_4 
REMARK       I    between atoms: C2_2  and  N7_7 
ROOT
HETATM    1  C1  UNL     1     -33.682   3.835   4.392  1.00 20.00     0.166 C 
HETATM    2  C2  UNL     1     -33.833   5.444   2.916  1.00 20.00     0.249 C 
HETATM    3  N7  UNL     1     -34.317   4.305   3.524  1.00 20.00    -0.199 NA
HETATM    4  O8  UNL     1     -33.091   5.513   1.940  1.00 20.00    -0.271 OA
HETATM    5  S9  UNL     1     -32.847   3.167   5.574  1.00 20.00    -0.055 SA
ENDROOT
BRANCH   2   6
HETATM    6  C4  UNL     1     -34.283   6.688   3.550  1.00 20.00     0.084 A 
HETATM    7  C3  UNL     1     -33.438   7.317   4.630  1.00 20.00     0.019 A 
HETATM    8  C5  UNL     1     -33.568   7.993   3.295  1.00 20.00    -0.005 A 
HETATM    9  C6  UNL     1     -32.387   8.086   2.389  1.00 20.00     0.011 C 
ENDBRANCH   2   6
TORSDOF 1
ENDMDL
MODEL 8
REMARK VINA RESULT:       0.5      3.009      3.977
REMARK  1 active torsions:
REMARK  status: ('A' for Active; 'I' for Inactive)
REMARK    1  A    between atoms: C2_2  and  C4_4 
REMARK       I    between atoms: C2_2  and  N7_7 
ROOT
HETATM    1  C1  UNL     1     -33.833   5.072   3.083  1.00 20.00     0.166 C 
HETATM    2  C2  UNL     1     -32.594   6.377   1.837  1.00 20.00     0.249 C 
HETATM    3  N7  UNL     1     -33.789   5.755   2.129  1.00 20.00    -0.199 NA
HETATM    4  O8  UNL     1     -31.677   5.948   1.143  1.00 20.00    -0.271 OA
HETATM    5  S9  UNL     1     -33.931   4.138   4.370  1.00 20.00    -0.055 SA
ENDROOT
BRANCH   2   6
HETATM    6  C4  UNL     1     -32.453   7.701   2.453  1.00 20.00     0.084 A 
HETATM    7  C3  UNL     1     -31.134   8.426   2.356  1.00 20.00     0.019 A 
HETATM    8  C5  UNL     1     -32.327   8.944   1.603  1.00 20.00    -0.005 A 
HETATM    9  C6  UNL     1     -32.349   8.891   0.114  1.00 20.00     0.011 C 
ENDBRANCH   2   6
TORSDOF 1
ENDMDL
MODEL 9
REMARK VINA RESULT:       0.5      2.389      2.845
REMARK  1 active torsions:
REMARK  status: ('A' for Active; 'I' for Inactive)
REMARK    1  A    between atoms: C2_2  and  C4_4 
REMARK       I    between atoms: C2_2  and  N7_7 
ROOT
HETATM    1  C1  UNL     1     -32.380   5.491   1.221  1.00 20.00     0.166 C 
HETATM    2  C2  UNL     1     -32.837   7.393   2.204  1.00 20.00     0.249 C 
HETATM    3  N7  UNL     1     -33.203   6.295   1.454  1.00 20.00    -0.199 NA
HETATM    4  O8  UNL     1     -32.401   8.466   1.796  1.00 20.00    -0.271 OA
HETATM    5  S9  UNL     1     -31.290   4.379   0.884  1.00 20.00    -0.055 SA
ENDROOT
BRANCH   2   6
HETATM    6  C4  UNL     1     -33.006   7.203   3.648  1.00 20.00     0.084 A 
HETATM    7  C3  UNL     1     -33.773   8.229   4.445  1.00 20.00     0.019 A 
HETATM    8  C5  UNL     1     -34.355   6.859   4.234  1.00 20.00    -0.005 A 
HETATM    9  C6  UNL     1     -35.568   6.688   3.385  1.00 20.00     0.011 C 
ENDBRANCH   2   6
TORSDOF 1
ENDMDL
