MODEL 1
REMARK VINA RESULT:      -1.2      0.000      0.000
REMARK  1 active torsions:
REMARK  status: ('A' for Active; 'I' for Inactive)
REMARK    1  A    between atoms: C2_2  and  C6_6 
REMARK       I    between atoms: C2_2  and  N7_7 
ROOT
HETATM    1  C1  UNL     1     -32.370   8.556   1.490  1.00 20.00     0.166 C 
HETATM    2  C2  UNL     1     -33.136   6.681   2.339  1.00 20.00     0.252 C 
HETATM    3  N7  UNL     1     -32.330   7.806   2.393  1.00 20.00    -0.199 NA
HETATM    4  O8  UNL     1     -33.091   5.807   1.473  1.00 20.00    -0.270 OA
HETATM    5  S9  UNL     1     -32.395   9.599   0.287  1.00 20.00    -0.055 SA
ENDROOT
BRANCH   2   6
HETATM    6  C6  UNL     1     -34.146   6.601   3.505  1.00 20.00     0.032 C 
HETATM    7  C3  UNL     1     -33.747   7.604   4.597  1.00 20.00     0.025 C 
HETATM    8  C4  UNL     1     -35.557   6.948   3.003  1.00 20.00     0.025 C 
HETATM    9  C5  UNL     1     -34.158   5.175   4.074  1.00 20.00     0.025 C 
ENDBRANCH   2   6
TORSDOF 1
ENDMDL
MODEL 2
REMARK VINA RESULT:       0.9      3.103      3.921
REMARK  1 active torsions:
REMARK  status: ('A' for Active; 'I' for Inactive)
REMARK    1  A    between atoms: C2_2  and  C6_6 
REMARK       I    between atoms: C2_2  and  N7_7 
ROOT
HETATM    1  C1  UNL     1     -33.802   4.113   4.157  1.00 20.00     0.166 C 
HETATM    2  C2  UNL     1     -33.548   5.867   2.859  1.00 20.00     0.252 C 
HETATM    3  N7  UNL     1     -34.331   5.009   3.613  1.00 20.00    -0.199 NA
HETATM    4  O8  UNL     1     -32.862   5.546   1.889  1.00 20.00    -0.270 OA
HETATM    5  S9  UNL     1     -33.121   2.887   4.911  1.00 20.00    -0.055 SA
ENDROOT
BRANCH   2   6
HETATM    6  C6  UNL     1     -33.603   7.330   3.352  1.00 20.00     0.032 C 
HETATM    7  C3  UNL     1     -35.061   7.811   3.367  1.00 20.00     0.025 C 
HETATM    8  C4  UNL     1     -33.031   7.428   4.776  1.00 20.00     0.025 C 
HETATM    9  C5  UNL     1     -32.763   8.215   2.419  1.00 20.00     0.025 C 
ENDBRANCH   2   6
TORSDOF 1
ENDMDL
MODEL 3
REMARK VINA RESULT:       1.0      3.101      3.732
REMARK  1 active torsions:
REMARK  status: ('A' for Active; 'I' for Inactive)
REMARK    1  A    between atoms: C2_2  and  C6_6 
REMARK       I    between atoms: C2_2  and  N7_7 
ROOT
HETATM    1  C1  UNL     1     -33.803   4.117   4.156  1.00 20.00     0.166 C 
HETATM    2  C2  UNL     1     -33.548   5.870   2.856  1.00 20.00     0.252 C 
HETATM    3  N7  UNL     1     -34.332   5.015   3.614  1.00 20.00    -0.199 NA
HETATM    4  O8  UNL     1     -32.866   5.546   1.884  1.00 20.00    -0.270 OA
HETATM    5  S9  UNL     1     -33.124   2.889   4.908  1.00 20.00    -0.055 SA
ENDROOT
BRANCH   2   6
HETATM    6  C6  UNL     1     -33.596   7.333   3.349  1.00 20.00     0.032 C 
HETATM    7  C3  UNL     1     -32.758   8.215   2.412  1.00 20.00     0.025 C 
HETATM    8  C4  UNL     1     -35.047   7.842   3.347  1.00 20.00     0.025 C 
HETATM    9  C5  UNL     1     -33.045   7.408   4.780  1.00 20.00     0.025 C 
ENDBRANCH   2   6
TORSDOF 1
ENDMDL
MODEL 4
REMARK VINA RESULT:       1.2      1.650      2.247
REMARK  1 active torsions:
REMARK  status: ('A' for Active; 'I' for Inactive)
REMARK    1  A    between atoms: C2_2  and  C6_6 
REMARK       I    between atoms: C2_2  and  N7_7 
ROOT
HETATM    1  C1  UNL     1     -32.646   9.396   0.841  1.00 20.00     0.166 C 
HETATM    2  C2  UNL     1     -32.000   7.483   1.705  1.00 20.00     0.252 C 
HETATM    3  N7  UNL     1     -32.767   8.636   1.727  1.00 20.00    -0.199 NA
HETATM    4  O8  UNL     1     -30.769   7.440   1.696  1.00 20.00    -0.270 OA
HETATM    5  S9  UNL     1     -32.512  10.452  -0.345  1.00 20.00    -0.055 SA
ENDROOT
BRANCH   2   6
HETATM    6  C6  UNL     1     -32.846   6.191   1.690  1.00 20.00     0.032 C 
HETATM    7  C3  UNL     1     -33.715   6.134   2.955  1.00 20.00     0.025 C 
HETATM    8  C4  UNL     1     -33.762   6.176   0.456  1.00 20.00     0.025 C 
HETATM    9  C5  UNL     1     -31.915   4.971   1.633  1.00 20.00     0.025 C 
ENDBRANCH   2   6
TORSDOF 1
ENDMDL
MODEL 5
REMARK VINA RESULT:       1.3      2.207      2.352
REMARK  1 active torsions:
REMARK  status: ('A' for Active; 'I' for Inactive)
REMARK    1  A    between atoms: C2_2  and  C6_6 
REMARK       I    between atoms: C2_2  and  N7_7 
ROOT
HETATM    1  C1  UNL     1     -32.506   5.355   1.168  1.00 20.00     0.166 C 
HETATM    2  C2  UNL     1     -33.285   6.941   2.473  1.00 20.00     0.252 C 
HETATM    3  N7  UNL     1     -33.432   6.019   1.450  1.00 20.00    -0.199 NA
HETATM    4  O8  UNL     1     -32.479   7.872   2.489  1.00 20.00    -0.270 OA
HETATM    5  S9  UNL     1     -31.273   4.434   0.757  1.00 20.00    -0.055 SA
ENDROOT
BRANCH   2   6
HETATM    6  C6  UNL     1     -34.255   6.701   3.650  1.00 20.00     0.032 C 
HETATM    7  C3  UNL     1     -33.924   7.673   4.792  1.00 20.00     0.025 C 
HETATM    8  C4  UNL     1     -35.704   6.942   3.196  1.00 20.00     0.025 C 
HETATM    9  C5  UNL     1     -34.122   5.250   4.135  1.00 20.00     0.025 C 
ENDBRANCH   2   6
TORSDOF 1
ENDMDL
MODEL 6
REMARK VINA RESULT:       1.3      2.765      3.735
REMARK  1 active torsions:
REMARK  status: ('A' for Active; 'I' for Inactive)
REMARK    1  A    between atoms: C2_2  and  C6_6 
REMARK       I    between atoms: C2_2  and  N7_7 
ROOT
HETATM    1  C1  UNL     1     -33.934   5.272   3.558  1.00 20.00     0.166 C 
HETATM    2  C2  UNL     1     -33.201   6.515   1.901  1.00 20.00     0.252 C 
HETATM    3  N7  UNL     1     -34.052   6.281   2.969  1.00 20.00    -0.199 NA
HETATM    4  O8  UNL     1     -33.106   5.815   0.893  1.00 20.00    -0.270 OA
HETATM    5  S9  UNL     1     -33.805   3.915   4.382  1.00 20.00    -0.055 SA
ENDROOT
BRANCH   2   6
HETATM    6  C6  UNL     1     -32.336   7.782   2.080  1.00 20.00     0.032 C 
HETATM    7  C3  UNL     1     -30.865   7.440   1.806  1.00 20.00     0.025 C 
HETATM    8  C4  UNL     1     -32.787   8.871   1.093  1.00 20.00     0.025 C 
HETATM    9  C5  UNL     1     -32.497   8.312   3.512  1.00 20.00     0.025 C 
ENDBRANCH   2   6
TORSDOF 1
ENDMDL
MODEL 7
REMARK VINA RESULT:       1.7      2.498      3.464
REMARK  1 active torsions:
REMARK  status: ('A' for Active; 'I' for Inactive)
REMARK    1  A    between atoms: C2_2  and  C6_6 
REMARK       I    between atoms: C2_2  and  N7_7 
ROOT
HETATM    1  C1  UNL     1     -33.871   7.545   4.115  1.00 20.00     0.166 C 
HETATM    2  C2  UNL     1     -33.512   5.824   2.796  1.00 20.00     0.252 C 
HETATM    3  N7  UNL     1     -34.161   7.006   3.112  1.00 20.00    -0.199 NA
HETATM    4  O8  UNL     1     -33.522   4.797   3.475  1.00 20.00    -0.270 OA
HETATM    5  S9  UNL     1     -33.505   8.306   5.465  1.00 20.00    -0.055 SA
ENDROOT
BRANCH   2   6
HETATM    6  C6  UNL     1     -32.734   5.896   1.464  1.00 20.00     0.032 C 
HETATM    7  C3  UNL     1     -32.063   7.271   1.337  1.00 20.00     0.025 C 
HETATM    8  C4  UNL     1     -31.650   4.807   1.428  1.00 20.00     0.025 C 
HETATM    9  C5  UNL     1     -33.703   5.671   0.294  1.00 20.00     0.025 C 
ENDBRANCH   2   6
TORSDOF 1
ENDMDL
