MODEL 1
REMARK VINA RESULT:       0.1      0.000      0.000
REMARK  2 active torsions:
REMARK  status: ('A' for Active; 'I' for Inactive)
REMARK    1  A    between atoms: C4_4  and  C11_11 
REMARK    2  A    between atoms: C10_10  and  C11_11 
ROOT
HETATM    1  C1  UNL     1     -33.600   7.678   3.810  1.00 20.00     0.008 C 
HETATM    2  C2  UNL     1     -34.845   6.903   4.246  1.00 20.00     0.035 C 
HETATM    3  C3  UNL     1     -32.953   5.979   2.053  1.00 20.00     0.040 C 
HETATM    4  C4  UNL     1     -33.299   7.452   2.320  1.00 20.00    -0.004 C 
HETATM    5  C5  UNL     1     -34.846   5.482   3.788  1.00 20.00     0.151 A 
HETATM    6  C6  UNL     1     -33.938   5.038   2.675  1.00 20.00     0.151 A 
HETATM    7  O12 UNL     1     -33.654   4.743   4.056  1.00 20.00    -0.375 OA
ENDROOT
BRANCH   4   8
HETATM    8  C11 UNL     1     -32.162   8.359   1.854  1.00 20.00    -0.044 C 
HETATM    9  C8  UNL     1     -31.270   8.706   3.064  1.00 20.00     0.015 C 
HETATM   10  C9  UNL     1     -31.313   7.606   0.811  1.00 20.00     0.015 C 
BRANCH   8  11
HETATM   11  C10 UNL     1     -32.776   9.649   1.238  1.00 20.00     0.004 C 
HETATM   12  C7  UNL     1     -32.470   9.904  -0.233  1.00 20.00     0.006 C 
ENDBRANCH   8  11
ENDBRANCH   4   8
TORSDOF 2
ENDMDL
MODEL 2
REMARK VINA RESULT:       0.7      0.967      1.752
REMARK  2 active torsions:
REMARK  status: ('A' for Active; 'I' for Inactive)
REMARK    1  A    between atoms: C4_4  and  C11_11 
REMARK    2  A    between atoms: C10_10  and  C11_11 
ROOT
HETATM    1  C1  UNL     1     -33.321   5.772   2.260  1.00 20.00     0.008 C 
HETATM    2  C2  UNL     1     -33.946   4.823   3.284  1.00 20.00     0.035 C 
HETATM    3  C3  UNL     1     -33.982   7.852   3.536  1.00 20.00     0.040 C 
HETATM    4  C4  UNL     1     -32.814   7.057   2.932  1.00 20.00    -0.004 C 
HETATM    5  C5  UNL     1     -34.905   5.499   4.208  1.00 20.00     0.151 A 
HETATM    6  C6  UNL     1     -34.892   6.995   4.360  1.00 20.00     0.151 A 
HETATM    7  O12 UNL     1     -35.896   6.315   3.583  1.00 20.00    -0.375 OA
ENDROOT
BRANCH   4   8
HETATM    8  C11 UNL     1     -32.042   7.920   1.935  1.00 20.00    -0.044 C 
HETATM    9  C8  UNL     1     -30.866   8.599   2.665  1.00 20.00     0.015 C 
HETATM   10  C9  UNL     1     -31.477   7.016   0.820  1.00 20.00     0.015 C 
BRANCH   8  11
HETATM   11  C10 UNL     1     -33.010   8.984   1.343  1.00 20.00     0.004 C 
HETATM   12  C7  UNL     1     -32.457   9.844   0.213  1.00 20.00     0.006 C 
ENDBRANCH   8  11
ENDBRANCH   4   8
TORSDOF 2
ENDMDL
MODEL 3
REMARK VINA RESULT:       1.4      1.351      2.422
REMARK  2 active torsions:
REMARK  status: ('A' for Active; 'I' for Inactive)
REMARK    1  A    between atoms: C4_4  and  C11_11 
REMARK    2  A    between atoms: C10_10  and  C11_11 
ROOT
HETATM    1  C1  UNL     1     -33.616   4.630   2.729  1.00 20.00     0.008 C 
HETATM    2  C2  UNL     1     -34.122   4.160   4.094  1.00 20.00     0.035 C 
HETATM    3  C3  UNL     1     -34.192   7.053   3.163  1.00 20.00     0.040 C 
HETATM    4  C4  UNL     1     -33.072   6.065   2.803  1.00 20.00    -0.004 C 
HETATM    5  C5  UNL     1     -35.001   5.157   4.774  1.00 20.00     0.151 A 
HETATM    6  C6  UNL     1     -35.002   6.597   4.336  1.00 20.00     0.151 A 
HETATM    7  O12 UNL     1     -36.063   5.689   3.980  1.00 20.00    -0.375 OA
ENDROOT
BRANCH   4   8
HETATM    8  C11 UNL     1     -32.415   6.462   1.482  1.00 20.00    -0.044 C 
HETATM    9  C8  UNL     1     -31.407   5.369   1.074  1.00 20.00     0.015 C 
HETATM   10  C9  UNL     1     -33.501   6.567   0.392  1.00 20.00     0.015 C 
BRANCH   8  11
HETATM   11  C10 UNL     1     -31.696   7.828   1.675  1.00 20.00     0.004 C 
HETATM   12  C7  UNL     1     -32.153   8.965   0.769  1.00 20.00     0.006 C 
ENDBRANCH   8  11
ENDBRANCH   4   8
TORSDOF 2
ENDMDL
MODEL 4
REMARK VINA RESULT:       2.0      0.588      1.389
REMARK  2 active torsions:
REMARK  status: ('A' for Active; 'I' for Inactive)
REMARK    1  A    between atoms: C4_4  and  C11_11 
REMARK    2  A    between atoms: C10_10  and  C11_11 
ROOT
HETATM    1  C1  UNL     1     -33.845   7.555   3.883  1.00 20.00     0.008 C 
HETATM    2  C2  UNL     1     -35.048   6.665   4.204  1.00 20.00     0.035 C 
HETATM    3  C3  UNL     1     -32.891   5.942   2.187  1.00 20.00     0.040 C 
HETATM    4  C4  UNL     1     -33.393   7.374   2.426  1.00 20.00    -0.004 C 
HETATM    5  C5  UNL     1     -34.878   5.255   3.744  1.00 20.00     0.151 A 
HETATM    6  C6  UNL     1     -33.836   4.908   2.716  1.00 20.00     0.151 A 
HETATM    7  O12 UNL     1     -33.651   4.625   4.116  1.00 20.00    -0.375 OA
ENDROOT
BRANCH   4   8
HETATM    8  C11 UNL     1     -32.307   8.387   2.067  1.00 20.00    -0.044 C 
HETATM    9  C8  UNL     1     -32.976   9.676   1.549  1.00 20.00     0.015 C 
HETATM   10  C9  UNL     1     -31.495   8.723   3.334  1.00 20.00     0.015 C 
BRANCH   8  11
HETATM   11  C10 UNL     1     -31.391   7.766   0.974  1.00 20.00     0.004 C 
HETATM   12  C7  UNL     1     -31.126   8.629  -0.254  1.00 20.00     0.006 C 
ENDBRANCH   8  11
ENDBRANCH   4   8
TORSDOF 2
ENDMDL
MODEL 5
REMARK VINA RESULT:       2.2      1.281      2.008
REMARK  2 active torsions:
REMARK  status: ('A' for Active; 'I' for Inactive)
REMARK    1  A    between atoms: C4_4  and  C11_11 
REMARK    2  A    between atoms: C10_10  and  C11_11 
ROOT
HETATM    1  C1  UNL     1     -34.118   6.643   3.500  1.00 20.00     0.008 C 
HETATM    2  C2  UNL     1     -35.261   6.061   4.334  1.00 20.00     0.035 C 
HETATM    3  C3  UNL     1     -33.182   4.375   2.894  1.00 20.00     0.040 C 
HETATM    4  C4  UNL     1     -33.736   5.700   2.349  1.00 20.00    -0.004 C 
HETATM    5  C5  UNL     1     -35.052   4.630   4.705  1.00 20.00     0.151 A 
HETATM    6  C6  UNL     1     -34.051   3.788   3.963  1.00 20.00     0.151 A 
HETATM    7  O12 UNL     1     -33.780   4.318   5.276  1.00 20.00    -0.375 OA
ENDROOT
BRANCH   4   8
HETATM    8  C11 UNL     1     -32.716   6.363   1.424  1.00 20.00    -0.044 C 
HETATM    9  C8  UNL     1     -31.542   5.390   1.193  1.00 20.00     0.015 C 
HETATM   10  C9  UNL     1     -33.388   6.660   0.068  1.00 20.00     0.015 C 
BRANCH   8  11
HETATM   11  C10 UNL     1     -32.219   7.677   2.092  1.00 20.00     0.004 C 
HETATM   12  C7  UNL     1     -32.012   8.868   1.164  1.00 20.00     0.006 C 
ENDBRANCH   8  11
ENDBRANCH   4   8
TORSDOF 2
ENDMDL
MODEL 6
REMARK VINA RESULT:       2.4      1.581      3.124
REMARK  2 active torsions:
REMARK  status: ('A' for Active; 'I' for Inactive)
REMARK    1  A    between atoms: C4_4  and  C11_11 
REMARK    2  A    between atoms: C10_10  and  C11_11 
ROOT
HETATM    1  C1  UNL     1     -33.743   4.674   2.773  1.00 20.00     0.008 C 
HETATM    2  C2  UNL     1     -34.326   4.333   4.146  1.00 20.00     0.035 C 
HETATM    3  C3  UNL     1     -34.068   7.164   3.067  1.00 20.00     0.040 C 
HETATM    4  C4  UNL     1     -33.052   6.046   2.789  1.00 20.00    -0.004 C 
HETATM    5  C5  UNL     1     -35.109   5.452   4.750  1.00 20.00     0.151 A 
HETATM    6  C6  UNL     1     -34.948   6.858   4.240  1.00 20.00     0.151 A 
HETATM    7  O12 UNL     1     -36.092   6.049   3.902  1.00 20.00    -0.375 OA
ENDROOT
BRANCH   4   8
HETATM    8  C11 UNL     1     -32.328   6.301   1.468  1.00 20.00    -0.044 C 
HETATM    9  C8  UNL     1     -33.349   6.229   0.314  1.00 20.00     0.015 C 
HETATM   10  C9  UNL     1     -31.712   7.715   1.497  1.00 20.00     0.015 C 
BRANCH   8  11
HETATM   11  C10 UNL     1     -31.222   5.223   1.290  1.00 20.00     0.004 C 
HETATM   12  C7  UNL     1     -31.438   4.213   0.169  1.00 20.00     0.006 C 
ENDBRANCH   8  11
ENDBRANCH   4   8
TORSDOF 2
ENDMDL
MODEL 7
REMARK VINA RESULT:       2.5      1.965      4.460
REMARK  2 active torsions:
REMARK  status: ('A' for Active; 'I' for Inactive)
REMARK    1  A    between atoms: C4_4  and  C11_11 
REMARK    2  A    between atoms: C10_10  and  C11_11 
ROOT
HETATM    1  C1  UNL     1     -33.377   8.052   3.778  1.00 20.00     0.008 C 
HETATM    2  C2  UNL     1     -31.993   8.649   3.517  1.00 20.00     0.035 C 
HETATM    3  C3  UNL     1     -33.198   6.383   1.888  1.00 20.00     0.040 C 
HETATM    4  C4  UNL     1     -33.420   6.564   3.397  1.00 20.00    -0.004 C 
HETATM    5  C5  UNL     1     -31.444   8.303   2.172  1.00 20.00     0.151 A 
HETATM    6  C6  UNL     1     -32.017   7.155   1.387  1.00 20.00     0.151 A 
HETATM    7  O12 UNL     1     -32.323   8.526   1.068  1.00 20.00    -0.375 OA
ENDROOT
BRANCH   4   8
HETATM    8  C11 UNL     1     -34.748   5.937   3.819  1.00 20.00    -0.044 C 
HETATM    9  C8  UNL     1     -35.057   6.347   5.273  1.00 20.00     0.015 C 
HETATM   10  C9  UNL     1     -35.869   6.470   2.904  1.00 20.00     0.015 C 
BRANCH   8  11
HETATM   11  C10 UNL     1     -34.628   4.391   3.698  1.00 20.00     0.004 C 
HETATM   12  C7  UNL     1     -33.595   3.723   4.598  1.00 20.00     0.006 C 
ENDBRANCH   8  11
ENDBRANCH   4   8
TORSDOF 2
ENDMDL
MODEL 8
REMARK VINA RESULT:       2.7      1.864      4.538
REMARK  2 active torsions:
REMARK  status: ('A' for Active; 'I' for Inactive)
REMARK    1  A    between atoms: C4_4  and  C11_11 
REMARK    2  A    between atoms: C10_10  and  C11_11 
ROOT
HETATM    1  C1  UNL     1     -32.686   5.743   2.083  1.00 20.00     0.008 C 
HETATM    2  C2  UNL     1     -32.180   6.057   0.674  1.00 20.00     0.035 C 
HETATM    3  C3  UNL     1     -32.935   8.177   2.718  1.00 20.00     0.040 C 
HETATM    4  C4  UNL     1     -33.654   6.827   2.580  1.00 20.00    -0.004 C 
HETATM    5  C5  UNL     1     -31.720   7.468   0.512  1.00 20.00     0.151 A 
HETATM    6  C6  UNL     1     -32.129   8.523   1.504  1.00 20.00     0.151 A 
HETATM    7  O12 UNL     1     -30.811   7.941   1.508  1.00 20.00    -0.375 OA
ENDROOT
BRANCH   4   8
HETATM    8  C11 UNL     1     -34.284   6.420   3.912  1.00 20.00    -0.044 C 
HETATM    9  C8  UNL     1     -34.154   7.592   4.906  1.00 20.00     0.015 C 
HETATM   10  C9  UNL     1     -35.780   6.122   3.690  1.00 20.00     0.015 C 
BRANCH   8  11
HETATM   11  C10 UNL     1     -33.544   5.161   4.447  1.00 20.00     0.004 C 
HETATM   12  C7  UNL     1     -34.251   3.826   4.242  1.00 20.00     0.006 C 
ENDBRANCH   8  11
ENDBRANCH   4   8
TORSDOF 2
ENDMDL
MODEL 9
REMARK VINA RESULT:       2.7      1.662      2.864
REMARK  2 active torsions:
REMARK  status: ('A' for Active; 'I' for Inactive)
REMARK    1  A    between atoms: C4_4  and  C11_11 
REMARK    2  A    between atoms: C10_10  and  C11_11 
ROOT
HETATM    1  C1  UNL     1     -33.505   4.316   2.904  1.00 20.00     0.008 C 
HETATM    2  C2  UNL     1     -33.905   3.906   4.323  1.00 20.00     0.035 C 
HETATM    3  C3  UNL     1     -34.367   6.678   3.164  1.00 20.00     0.040 C 
HETATM    4  C4  UNL     1     -33.143   5.807   2.838  1.00 20.00    -0.004 C 
HETATM    5  C5  UNL     1     -34.880   4.843   4.955  1.00 20.00     0.151 A 
HETATM    6  C6  UNL     1     -35.076   6.228   4.403  1.00 20.00     0.151 A 
HETATM    7  O12 UNL     1     -36.026   5.170   4.167  1.00 20.00    -0.375 OA
ENDROOT
BRANCH   4   8
HETATM    8  C11 UNL     1     -32.584   6.168   1.463  1.00 20.00    -0.044 C 
HETATM    9  C8  UNL     1     -31.899   7.547   1.546  1.00 20.00     0.015 C 
HETATM   10  C9  UNL     1     -31.532   5.116   1.057  1.00 20.00     0.015 C 
BRANCH   8  11
HETATM   11  C10 UNL     1     -33.756   6.197   0.441  1.00 20.00     0.004 C 
HETATM   12  C7  UNL     1     -34.016   4.905  -0.323  1.00 20.00     0.006 C 
ENDBRANCH   8  11
ENDBRANCH   4   8
TORSDOF 2
ENDMDL
