MODEL 1
REMARK VINA RESULT:      -1.5      0.000      0.000
REMARK  2 active torsions:
REMARK  status: ('A' for Active; 'I' for Inactive)
REMARK    1  A    between atoms: C3_3  and  C5_5 
REMARK    2  A    between atoms: C4_4  and  C8_8 
ROOT
HETATM    1  C1  UNL     1     -33.919   7.231   3.837  1.00 20.00     0.023 A 
HETATM    2  C2  UNL     1     -33.319   8.302   3.113  1.00 20.00     0.016 A 
HETATM    3  C3  UNL     1     -33.690   6.011   3.240  1.00 20.00     0.043 A 
HETATM    4  C4  UNL     1     -32.653   7.859   1.991  1.00 20.00    -0.013 A 
HETATM    5  S10 UNL     1     -32.754   6.159   1.814  1.00 20.00    -0.091 SA
ENDROOT
BRANCH   4   6
HETATM    6  C8  UNL     1     -31.910   8.774   1.013  1.00 20.00     0.026 A 
HETATM    7  C6  UNL     1     -32.463  10.157   0.745  1.00 20.00     0.010 A 
HETATM    8  C7  UNL     1     -32.559   9.104  -0.314  1.00 20.00     0.010 A 
ENDBRANCH   4   6
BRANCH   3   9
HETATM    9  C5  UNL     1     -34.121   4.716   3.656  1.00 20.00     0.277 C 
HETATM   10  O9  UNL     1     -35.057   4.514   4.457  1.00 20.00    -0.301 OA
ENDBRANCH   3   9
TORSDOF 2
ENDMDL
MODEL 2
REMARK VINA RESULT:      -1.5      1.074      1.449
REMARK  2 active torsions:
REMARK  status: ('A' for Active; 'I' for Inactive)
REMARK    1  A    between atoms: C3_3  and  C5_5 
REMARK    2  A    between atoms: C4_4  and  C8_8 
ROOT
HETATM    1  C1  UNL     1     -33.123   5.553   2.126  1.00 20.00     0.023 A 
HETATM    2  C2  UNL     1     -32.380   6.481   1.339  1.00 20.00     0.016 A 
HETATM    3  C3  UNL     1     -33.826   6.175   3.133  1.00 20.00     0.043 A 
HETATM    4  C4  UNL     1     -32.544   7.777   1.776  1.00 20.00    -0.013 A 
HETATM    5  S10 UNL     1     -33.589   7.871   3.129  1.00 20.00    -0.091 SA
ENDROOT
BRANCH   4   6
HETATM    6  C8  UNL     1     -31.873   8.994   1.133  1.00 20.00     0.026 A 
HETATM    7  C6  UNL     1     -32.679  10.262   0.955  1.00 20.00     0.010 A 
HETATM    8  C7  UNL     1     -32.327   9.436  -0.242  1.00 20.00     0.010 A 
ENDBRANCH   4   6
BRANCH   3   9
HETATM    9  C5  UNL     1     -34.677   5.596   4.120  1.00 20.00     0.277 C 
HETATM   10  O9  UNL     1     -34.709   4.376   4.389  1.00 20.00    -0.301 OA
ENDBRANCH   3   9
TORSDOF 2
ENDMDL
MODEL 3
REMARK VINA RESULT:      -0.9      2.310      4.842
REMARK  2 active torsions:
REMARK  status: ('A' for Active; 'I' for Inactive)
REMARK    1  A    between atoms: C3_3  and  C5_5 
REMARK    2  A    between atoms: C4_4  and  C8_8 
ROOT
HETATM    1  C1  UNL     1     -33.470   7.969   3.260  1.00 20.00     0.023 A 
HETATM    2  C2  UNL     1     -34.071   6.835   3.880  1.00 20.00     0.016 A 
HETATM    3  C3  UNL     1     -32.696   7.616   2.177  1.00 20.00     0.043 A 
HETATM    4  C4  UNL     1     -33.735   5.660   3.247  1.00 20.00    -0.013 A 
HETATM    5  S10 UNL     1     -32.697   5.925   1.911  1.00 20.00    -0.091 SA
ENDROOT
BRANCH   4   6
HETATM    6  C8  UNL     1     -34.226   4.276   3.682  1.00 20.00     0.026 A 
HETATM    7  C6  UNL     1     -34.007   3.842   5.115  1.00 20.00     0.010 A 
HETATM    8  C7  UNL     1     -33.203   3.212   4.020  1.00 20.00     0.010 A 
ENDBRANCH   4   6
BRANCH   3   9
HETATM    9  C5  UNL     1     -31.940   8.455   1.306  1.00 20.00     0.277 C 
HETATM   10  O9  UNL     1     -32.406   9.451   0.714  1.00 20.00    -0.301 OA
ENDBRANCH   3   9
TORSDOF 2
ENDMDL
MODEL 4
REMARK VINA RESULT:      -0.3      1.571      2.119
REMARK  2 active torsions:
REMARK  status: ('A' for Active; 'I' for Inactive)
REMARK    1  A    between atoms: C3_3  and  C5_5 
REMARK    2  A    between atoms: C4_4  and  C8_8 
ROOT
HETATM    1  C1  UNL     1     -34.913   5.510   4.289  1.00 20.00     0.023 A 
HETATM    2  C2  UNL     1     -34.675   6.770   3.665  1.00 20.00     0.016 A 
HETATM    3  C3  UNL     1     -33.961   4.576   3.946  1.00 20.00     0.043 A 
HETATM    4  C4  UNL     1     -33.550   6.749   2.871  1.00 20.00    -0.013 A 
HETATM    5  S10 UNL     1     -32.787   5.216   2.877  1.00 20.00    -0.091 SA
ENDROOT
BRANCH   4   6
HETATM    6  C8  UNL     1     -33.038   7.951   2.071  1.00 20.00     0.026 A 
HETATM    7  C6  UNL     1     -31.825   7.774   1.184  1.00 20.00     0.010 A 
HETATM    8  C7  UNL     1     -31.707   8.566   2.449  1.00 20.00     0.010 A 
ENDBRANCH   4   6
BRANCH   3   9
HETATM    9  C5  UNL     1     -33.854   3.214   4.359  1.00 20.00     0.277 C 
HETATM   10  O9  UNL     1     -32.921   2.766   5.059  1.00 20.00    -0.301 OA
ENDBRANCH   3   9
TORSDOF 2
ENDMDL
MODEL 5
REMARK VINA RESULT:      -0.2      2.743      4.870
REMARK  2 active torsions:
REMARK  status: ('A' for Active; 'I' for Inactive)
REMARK    1  A    between atoms: C3_3  and  C5_5 
REMARK    2  A    between atoms: C4_4  and  C8_8 
ROOT
HETATM    1  C1  UNL     1     -32.175   6.704   1.027  1.00 20.00     0.023 A 
HETATM    2  C2  UNL     1     -32.853   5.921   2.007  1.00 20.00     0.016 A 
HETATM    3  C3  UNL     1     -32.180   8.045   1.343  1.00 20.00     0.043 A 
HETATM    4  C4  UNL     1     -33.348   6.694   3.034  1.00 20.00    -0.013 A 
HETATM    5  S10 UNL     1     -32.998   8.356   2.815  1.00 20.00    -0.091 SA
ENDROOT
BRANCH   4   6
HETATM    6  C8  UNL     1     -34.123   6.139   4.233  1.00 20.00     0.026 A 
HETATM    7  C6  UNL     1     -34.636   4.716   4.174  1.00 20.00     0.010 A 
HETATM    8  C7  UNL     1     -35.602   5.854   4.077  1.00 20.00     0.010 A 
ENDBRANCH   4   6
BRANCH   3   9
HETATM    9  C5  UNL     1     -31.612   9.136   0.620  1.00 20.00     0.277 C 
HETATM   10  O9  UNL     1     -32.280   9.976  -0.018  1.00 20.00    -0.301 OA
ENDBRANCH   3   9
TORSDOF 2
ENDMDL
MODEL 6
REMARK VINA RESULT:      -0.1      2.592      4.985
REMARK  2 active torsions:
REMARK  status: ('A' for Active; 'I' for Inactive)
REMARK    1  A    between atoms: C3_3  and  C5_5 
REMARK    2  A    between atoms: C4_4  and  C8_8 
ROOT
HETATM    1  C1  UNL     1     -31.912   6.498   1.128  1.00 20.00     0.023 A 
HETATM    2  C2  UNL     1     -32.502   5.288   1.596  1.00 20.00     0.016 A 
HETATM    3  C3  UNL     1     -32.391   7.600   1.800  1.00 20.00     0.043 A 
HETATM    4  C4  UNL     1     -33.408   5.512   2.609  1.00 20.00    -0.013 A 
HETATM    5  S10 UNL     1     -33.547   7.176   2.990  1.00 20.00    -0.091 SA
ENDROOT
BRANCH   4   6
HETATM    6  C8  UNL     1     -34.204   4.409   3.313  1.00 20.00     0.026 A 
HETATM    7  C6  UNL     1     -34.769   4.684   4.690  1.00 20.00     0.010 A 
HETATM    8  C7  UNL     1     -33.609   3.750   4.540  1.00 20.00     0.010 A 
ENDBRANCH   4   6
BRANCH   3   9
HETATM    9  C5  UNL     1     -32.050   8.974   1.623  1.00 20.00     0.277 C 
HETATM   10  O9  UNL     1     -32.353   9.647   0.615  1.00 20.00    -0.301 OA
ENDBRANCH   3   9
TORSDOF 2
ENDMDL
MODEL 7
REMARK VINA RESULT:       1.2      2.581      4.650
REMARK  2 active torsions:
REMARK  status: ('A' for Active; 'I' for Inactive)
REMARK    1  A    between atoms: C3_3  and  C5_5 
REMARK    2  A    between atoms: C4_4  and  C8_8 
ROOT
HETATM    1  C1  UNL     1     -32.047   8.833   2.947  1.00 20.00     0.023 A 
HETATM    2  C2  UNL     1     -32.758   8.177   3.994  1.00 20.00     0.016 A 
HETATM    3  C3  UNL     1     -32.220   8.205   1.733  1.00 20.00     0.043 A 
HETATM    4  C4  UNL     1     -33.447   7.075   3.540  1.00 20.00    -0.013 A 
HETATM    5  S10 UNL     1     -33.235   6.832   1.858  1.00 20.00    -0.091 SA
ENDROOT
BRANCH   4   6
HETATM    6  C8  UNL     1     -34.303   6.167   4.429  1.00 20.00     0.026 A 
HETATM    7  C6  UNL     1     -34.558   4.743   3.985  1.00 20.00     0.010 A 
HETATM    8  C7  UNL     1     -35.671   5.744   3.937  1.00 20.00     0.010 A 
ENDBRANCH   4   6
BRANCH   3   9
HETATM    9  C5  UNL     1     -31.677   8.553   0.461  1.00 20.00     0.277 C 
HETATM   10  O9  UNL     1     -32.022   9.557  -0.198  1.00 20.00    -0.301 OA
ENDBRANCH   3   9
TORSDOF 2
ENDMDL
