MODEL 1
REMARK VINA RESULT:       0.2      0.000      0.000
REMARK  2 active torsions:
REMARK  status: ('A' for Active; 'I' for Inactive)
REMARK    1  A    between atoms: C4_4  and  C11_11 
REMARK    2  A    between atoms: C10_10  and  C11_11 
ROOT
HETATM    1  C1  UNL     1     -32.781   5.932   2.412  1.00 20.00     0.008 C 
HETATM    2  C2  UNL     1     -33.916   4.984   2.802  1.00 20.00     0.035 C 
HETATM    3  C3  UNL     1     -33.697   7.863   3.753  1.00 20.00     0.040 C 
HETATM    4  C4  UNL     1     -33.261   7.390   2.356  1.00 20.00    -0.004 C 
HETATM    5  C5  UNL     1     -34.667   5.458   4.005  1.00 20.00     0.151 A 
HETATM    6  C6  UNL     1     -34.590   6.892   4.456  1.00 20.00     0.151 A 
HETATM    7  O12 UNL     1     -35.701   6.412   3.696  1.00 20.00    -0.375 OA
ENDROOT
BRANCH   4   8
HETATM    8  C11 UNL     1     -32.165   8.301   1.804  1.00 20.00    -0.044 C 
HETATM    9  C8  UNL     1     -31.198   8.671   2.946  1.00 20.00     0.015 C 
HETATM   10  C9  UNL     1     -31.381   7.539   0.717  1.00 20.00     0.015 C 
BRANCH   8  11
HETATM   11  C10 UNL     1     -32.829   9.576   1.212  1.00 20.00     0.004 C 
HETATM   12  C7  UNL     1     -32.441   9.937  -0.217  1.00 20.00     0.006 C 
ENDBRANCH   8  11
ENDBRANCH   4   8
TORSDOF 2
ENDMDL
MODEL 2
REMARK VINA RESULT:       1.4      0.873      1.720
REMARK  2 active torsions:
REMARK  status: ('A' for Active; 'I' for Inactive)
REMARK    1  A    between atoms: C4_4  and  C11_11 
REMARK    2  A    between atoms: C10_10  and  C11_11 
ROOT
HETATM    1  C1  UNL     1     -34.123   7.738   3.338  1.00 20.00     0.008 C 
HETATM    2  C2  UNL     1     -34.851   6.872   4.366  1.00 20.00     0.035 C 
HETATM    3  C3  UNL     1     -33.125   5.766   2.121  1.00 20.00     0.040 C 
HETATM    4  C4  UNL     1     -32.820   7.076   2.866  1.00 20.00    -0.004 C 
HETATM    5  C5  UNL     1     -34.978   5.449   3.925  1.00 20.00     0.151 A 
HETATM    6  C6  UNL     1     -34.098   4.888   2.840  1.00 20.00     0.151 A 
HETATM    7  O12 UNL     1     -33.815   4.651   4.220  1.00 20.00    -0.375 OA
ENDROOT
BRANCH   4   8
HETATM    8  C11 UNL     1     -32.023   8.024   1.971  1.00 20.00    -0.044 C 
HETATM    9  C8  UNL     1     -30.929   8.709   2.814  1.00 20.00     0.015 C 
HETATM   10  C9  UNL     1     -31.347   7.207   0.852  1.00 20.00     0.015 C 
BRANCH   8  11
HETATM   11  C10 UNL     1     -32.996   9.078   1.371  1.00 20.00     0.004 C 
HETATM   12  C7  UNL     1     -32.455   9.919   0.221  1.00 20.00     0.006 C 
ENDBRANCH   8  11
ENDBRANCH   4   8
TORSDOF 2
ENDMDL
MODEL 3
REMARK VINA RESULT:       1.7      1.250      1.896
REMARK  2 active torsions:
REMARK  status: ('A' for Active; 'I' for Inactive)
REMARK    1  A    between atoms: C4_4  and  C11_11 
REMARK    2  A    between atoms: C10_10  and  C11_11 
ROOT
HETATM    1  C1  UNL     1     -33.093   4.667   3.207  1.00 20.00     0.008 C 
HETATM    2  C2  UNL     1     -34.163   4.040   4.102  1.00 20.00     0.035 C 
HETATM    3  C3  UNL     1     -34.115   6.972   3.301  1.00 20.00     0.040 C 
HETATM    4  C4  UNL     1     -33.663   5.828   2.378  1.00 20.00    -0.004 C 
HETATM    5  C5  UNL     1     -34.931   5.064   4.875  1.00 20.00     0.151 A 
HETATM    6  C6  UNL     1     -34.940   6.510   4.459  1.00 20.00     0.151 A 
HETATM    7  O12 UNL     1     -36.025   5.639   4.136  1.00 20.00    -0.375 OA
ENDROOT
BRANCH   4   8
HETATM    8  C11 UNL     1     -32.632   6.333   1.371  1.00 20.00    -0.044 C 
HETATM    9  C8  UNL     1     -31.556   5.248   1.167  1.00 20.00     0.015 C 
HETATM   10  C9  UNL     1     -33.333   6.594   0.023  1.00 20.00     0.015 C 
BRANCH   8  11
HETATM   11  C10 UNL     1     -31.996   7.641   1.922  1.00 20.00     0.004 C 
HETATM   12  C7  UNL     1     -32.033   8.851   0.997  1.00 20.00     0.006 C 
ENDBRANCH   8  11
ENDBRANCH   4   8
TORSDOF 2
ENDMDL
MODEL 4
REMARK VINA RESULT:       1.9      1.957      4.352
REMARK  2 active torsions:
REMARK  status: ('A' for Active; 'I' for Inactive)
REMARK    1  A    between atoms: C4_4  and  C11_11 
REMARK    2  A    between atoms: C10_10  and  C11_11 
ROOT
HETATM    1  C1  UNL     1     -33.657   5.639   1.785  1.00 20.00     0.008 C 
HETATM    2  C2  UNL     1     -32.357   5.589   0.982  1.00 20.00     0.035 C 
HETATM    3  C3  UNL     1     -33.176   7.918   2.756  1.00 20.00     0.040 C 
HETATM    4  C4  UNL     1     -33.487   6.447   3.080  1.00 20.00    -0.004 C 
HETATM    5  C5  UNL     1     -31.736   6.939   0.818  1.00 20.00     0.151 A 
HETATM    6  C6  UNL     1     -32.111   8.085   1.720  1.00 20.00     0.151 A 
HETATM    7  O12 UNL     1     -30.916   7.332   1.936  1.00 20.00    -0.375 OA
ENDROOT
BRANCH   4   8
HETATM    8  C11 UNL     1     -34.740   6.348   3.950  1.00 20.00    -0.044 C 
HETATM    9  C8  UNL     1     -34.593   7.301   5.152  1.00 20.00     0.015 C 
HETATM   10  C9  UNL     1     -35.963   6.782   3.119  1.00 20.00     0.015 C 
BRANCH   8  11
HETATM   11  C10 UNL     1     -34.897   4.877   4.431  1.00 20.00     0.004 C 
HETATM   12  C7  UNL     1     -33.684   3.973   4.244  1.00 20.00     0.006 C 
ENDBRANCH   8  11
ENDBRANCH   4   8
TORSDOF 2
ENDMDL
MODEL 5
REMARK VINA RESULT:       2.2      1.511      2.473
REMARK  2 active torsions:
REMARK  status: ('A' for Active; 'I' for Inactive)
REMARK    1  A    between atoms: C4_4  and  C11_11 
REMARK    2  A    between atoms: C10_10  and  C11_11 
ROOT
HETATM    1  C1  UNL     1     -34.565   6.642   3.025  1.00 20.00     0.008 C 
HETATM    2  C2  UNL     1     -35.169   6.248   4.373  1.00 20.00     0.035 C 
HETATM    3  C3  UNL     1     -33.325   4.463   2.743  1.00 20.00     0.040 C 
HETATM    4  C4  UNL     1     -33.189   5.993   2.814  1.00 20.00    -0.004 C 
HETATM    5  C5  UNL     1     -35.113   4.773   4.613  1.00 20.00     0.151 A 
HETATM    6  C6  UNL     1     -34.173   3.892   3.835  1.00 20.00     0.151 A 
HETATM    7  O12 UNL     1     -33.855   4.328   5.157  1.00 20.00    -0.375 OA
ENDROOT
BRANCH   4   8
HETATM    8  C11 UNL     1     -32.526   6.527   1.546  1.00 20.00    -0.044 C 
HETATM    9  C8  UNL     1     -31.426   5.542   1.102  1.00 20.00     0.015 C 
HETATM   10  C9  UNL     1     -33.584   6.623   0.429  1.00 20.00     0.015 C 
BRANCH   8  11
HETATM   11  C10 UNL     1     -31.920   7.926   1.851  1.00 20.00     0.004 C 
HETATM   12  C7  UNL     1     -32.218   9.026   0.839  1.00 20.00     0.006 C 
ENDBRANCH   8  11
ENDBRANCH   4   8
TORSDOF 2
ENDMDL
MODEL 6
REMARK VINA RESULT:       2.4      1.933      4.615
REMARK  2 active torsions:
REMARK  status: ('A' for Active; 'I' for Inactive)
REMARK    1  A    between atoms: C4_4  and  C11_11 
REMARK    2  A    between atoms: C10_10  and  C11_11 
ROOT
HETATM    1  C1  UNL     1     -32.829   7.783   4.055  1.00 20.00     0.008 C 
HETATM    2  C2  UNL     1     -31.943   8.875   3.455  1.00 20.00     0.035 C 
HETATM    3  C3  UNL     1     -32.998   6.488   1.897  1.00 20.00     0.040 C 
HETATM    4  C4  UNL     1     -33.788   7.198   3.008  1.00 20.00    -0.004 C 
HETATM    5  C5  UNL     1     -31.308   8.452   2.170  1.00 20.00     0.151 A 
HETATM    6  C6  UNL     1     -31.851   7.294   1.376  1.00 20.00     0.151 A 
HETATM    7  O12 UNL     1     -32.156   8.644   1.020  1.00 20.00    -0.375 OA
ENDROOT
BRANCH   4   8
HETATM    8  C11 UNL     1     -34.777   6.232   3.658  1.00 20.00    -0.044 C 
HETATM    9  C8  UNL     1     -34.813   6.496   5.176  1.00 20.00     0.015 C 
HETATM   10  C9  UNL     1     -36.182   6.487   3.077  1.00 20.00     0.015 C 
BRANCH   8  11
HETATM   11  C10 UNL     1     -34.317   4.775   3.364  1.00 20.00     0.004 C 
HETATM   12  C7  UNL     1     -33.908   3.940   4.571  1.00 20.00     0.006 C 
ENDBRANCH   8  11
ENDBRANCH   4   8
TORSDOF 2
ENDMDL
MODEL 7
REMARK VINA RESULT:       2.6      1.910      4.666
REMARK  2 active torsions:
REMARK  status: ('A' for Active; 'I' for Inactive)
REMARK    1  A    between atoms: C4_4  and  C11_11 
REMARK    2  A    between atoms: C10_10  and  C11_11 
ROOT
HETATM    1  C1  UNL     1     -32.892   5.763   1.786  1.00 20.00     0.008 C 
HETATM    2  C2  UNL     1     -31.864   6.777   1.283  1.00 20.00     0.035 C 
HETATM    3  C3  UNL     1     -33.749   7.274   3.616  1.00 20.00     0.040 C 
HETATM    4  C4  UNL     1     -33.129   5.904   3.297  1.00 20.00    -0.004 C 
HETATM    5  C5  UNL     1     -32.151   8.164   1.760  1.00 20.00     0.151 A 
HETATM    6  C6  UNL     1     -33.054   8.412   2.939  1.00 20.00     0.151 A 
HETATM    7  O12 UNL     1     -31.632   8.437   3.077  1.00 20.00    -0.375 OA
ENDROOT
BRANCH   4   8
HETATM    8  C11 UNL     1     -34.026   4.780   3.813  1.00 20.00    -0.044 C 
HETATM    9  C8  UNL     1     -35.385   5.376   4.231  1.00 20.00     0.015 C 
HETATM   10  C9  UNL     1     -34.260   3.764   2.677  1.00 20.00     0.015 C 
BRANCH   8  11
HETATM   11  C10 UNL     1     -33.328   4.100   5.024  1.00 20.00     0.004 C 
HETATM   12  C7  UNL     1     -33.008   2.617   4.874  1.00 20.00     0.006 C 
ENDBRANCH   8  11
ENDBRANCH   4   8
TORSDOF 2
ENDMDL
MODEL 8
REMARK VINA RESULT:       2.6      1.022      2.121
REMARK  2 active torsions:
REMARK  status: ('A' for Active; 'I' for Inactive)
REMARK    1  A    between atoms: C4_4  and  C11_11 
REMARK    2  A    between atoms: C10_10  and  C11_11 
ROOT
HETATM    1  C1  UNL     1     -33.017   5.351   3.089  1.00 20.00     0.008 C 
HETATM    2  C2  UNL     1     -34.249   4.599   3.596  1.00 20.00     0.035 C 
HETATM    3  C3  UNL     1     -33.992   7.628   3.567  1.00 20.00     0.040 C 
HETATM    4  C4  UNL     1     -33.397   6.711   2.486  1.00 20.00    -0.004 C 
HETATM    5  C5  UNL     1     -35.128   5.456   4.449  1.00 20.00     0.151 A 
HETATM    6  C6  UNL     1     -35.030   6.957   4.409  1.00 20.00     0.151 A 
HETATM    7  O12 UNL     1     -36.052   6.262   3.692  1.00 20.00    -0.375 OA
ENDROOT
BRANCH   4   8
HETATM    8  C11 UNL     1     -32.184   7.374   1.835  1.00 20.00    -0.044 C 
HETATM    9  C8  UNL     1     -32.668   8.318   0.717  1.00 20.00     0.015 C 
HETATM   10  C9  UNL     1     -31.437   8.206   2.897  1.00 20.00     0.015 C 
BRANCH   8  11
HETATM   11  C10 UNL     1     -31.261   6.264   1.257  1.00 20.00     0.004 C 
HETATM   12  C7  UNL     1     -31.956   5.113   0.541  1.00 20.00     0.006 C 
ENDBRANCH   8  11
ENDBRANCH   4   8
TORSDOF 2
ENDMDL
MODEL 9
REMARK VINA RESULT:       2.6      1.950      4.121
REMARK  2 active torsions:
REMARK  status: ('A' for Active; 'I' for Inactive)
REMARK    1  A    between atoms: C4_4  and  C11_11 
REMARK    2  A    between atoms: C10_10  and  C11_11 
ROOT
HETATM    1  C1  UNL     1     -33.316   5.624   1.905  1.00 20.00     0.008 C 
HETATM    2  C2  UNL     1     -31.991   5.660   1.143  1.00 20.00     0.035 C 
HETATM    3  C3  UNL     1     -33.285   8.092   2.429  1.00 20.00     0.040 C 
HETATM    4  C4  UNL     1     -33.350   6.676   3.024  1.00 20.00    -0.004 C 
HETATM    5  C5  UNL     1     -31.607   7.046   0.732  1.00 20.00     0.151 A 
HETATM    6  C6  UNL     1     -32.218   8.252   1.394  1.00 20.00     0.151 A 
HETATM    7  O12 UNL     1     -30.921   7.781   1.765  1.00 20.00    -0.375 OA
ENDROOT
BRANCH   4   8
HETATM    8  C11 UNL     1     -34.605   6.516   3.881  1.00 20.00    -0.044 C 
HETATM    9  C8  UNL     1     -35.844   6.836   3.021  1.00 20.00     0.015 C 
HETATM   10  C9  UNL     1     -34.700   5.055   4.364  1.00 20.00     0.015 C 
BRANCH   8  11
HETATM   11  C10 UNL     1     -34.510   7.489   5.091  1.00 20.00     0.004 C 
HETATM   12  C7  UNL     1     -33.157   8.153   5.318  1.00 20.00     0.006 C 
ENDBRANCH   8  11
ENDBRANCH   4   8
TORSDOF 2
ENDMDL
