MODEL 1
REMARK VINA RESULT:      -0.4      0.000      0.000
REMARK  0 active torsions:
REMARK  status: ('A' for Active; 'I' for Inactive)
ROOT
HETATM    1  C1  UNL     1     -31.866   8.224   1.507  1.00 20.00    -0.027 C 
HETATM    2  C2  UNL     1     -35.289   6.138   4.547  1.00 20.00    -0.027 C 
HETATM    3  C3  UNL     1     -31.499   6.997   1.121  1.00 20.00    -0.001 C 
HETATM    4  C4  UNL     1     -34.888   4.932   4.130  1.00 20.00    -0.001 C 
HETATM    5  C5  UNL     1     -32.929   8.437   2.540  1.00 20.00     0.063 C 
HETATM    6  C6  UNL     1     -34.639   7.394   4.059  1.00 20.00     0.063 C 
HETATM    7  C7  UNL     1     -32.132   5.760   1.685  1.00 20.00     0.300 C 
HETATM    8  C8  UNL     1     -33.772   4.760   3.143  1.00 20.00     0.300 C 
HETATM    9  C9  UNL     1     -33.301   7.154   3.320  1.00 20.00     0.230 C 
HETATM   10  N10 UNL     1     -33.390   5.989   2.420  1.00 20.00     0.100 N 
ENDROOT
TORSDOF 0
ENDMDL
MODEL 2
REMARK VINA RESULT:      -0.2      0.672      2.138
REMARK  0 active torsions:
REMARK  status: ('A' for Active; 'I' for Inactive)
ROOT
HETATM    1  C1  UNL     1     -31.484   7.159   1.205  1.00 20.00    -0.027 C 
HETATM    2  C2  UNL     1     -34.811   4.797   4.148  1.00 20.00    -0.027 C 
HETATM    3  C3  UNL     1     -31.962   8.328   1.646  1.00 20.00    -0.001 C 
HETATM    4  C4  UNL     1     -35.255   5.988   4.559  1.00 20.00    -0.001 C 
HETATM    5  C5  UNL     1     -32.063   5.854   1.655  1.00 20.00     0.063 C 
HETATM    6  C6  UNL     1     -33.726   4.674   3.124  1.00 20.00     0.063 C 
HETATM    7  C7  UNL     1     -33.097   8.408   2.624  1.00 20.00     0.300 C 
HETATM    8  C8  UNL     1     -34.692   7.275   4.033  1.00 20.00     0.300 C 
HETATM    9  C9  UNL     1     -33.422   5.996   2.381  1.00 20.00     0.230 C 
HETATM   10  N10 UNL     1     -33.413   7.141   3.310  1.00 20.00     0.100 N 
ENDROOT
TORSDOF 0
ENDMDL
MODEL 3
REMARK VINA RESULT:       0.3      0.627      4.115
REMARK  0 active torsions:
REMARK  status: ('A' for Active; 'I' for Inactive)
ROOT
HETATM    1  C1  UNL     1     -35.058   4.929   4.308  1.00 20.00    -0.027 C 
HETATM    2  C2  UNL     1     -31.628   6.684   1.073  1.00 20.00    -0.027 C 
HETATM    3  C3  UNL     1     -35.273   6.182   4.721  1.00 20.00    -0.001 C 
HETATM    4  C4  UNL     1     -31.878   7.920   1.518  1.00 20.00    -0.001 C 
HETATM    5  C5  UNL     1     -34.031   4.610   3.266  1.00 20.00     0.063 C 
HETATM    6  C6  UNL     1     -32.317   5.488   1.650  1.00 20.00     0.063 C 
HETATM    7  C7  UNL     1     -34.512   7.348   4.162  1.00 20.00     0.300 C 
HETATM    8  C8  UNL     1     -32.868   8.189   2.612  1.00 20.00     0.300 C 
HETATM    9  C9  UNL     1     -33.059   5.778   2.976  1.00 20.00     0.230 C 
HETATM   10  N10 UNL     1     -33.776   7.066   2.916  1.00 20.00     0.100 N 
ENDROOT
TORSDOF 0
ENDMDL
MODEL 4
REMARK VINA RESULT:       0.3      0.363      3.545
REMARK  0 active torsions:
REMARK  status: ('A' for Active; 'I' for Inactive)
ROOT
HETATM    1  C1  UNL     1     -35.274   6.089   4.715  1.00 20.00    -0.027 C 
HETATM    2  C2  UNL     1     -31.838   7.964   1.555  1.00 20.00    -0.027 C 
HETATM    3  C3  UNL     1     -34.992   4.865   4.256  1.00 20.00    -0.001 C 
HETATM    4  C4  UNL     1     -31.590   6.721   1.127  1.00 20.00    -0.001 C 
HETATM    5  C5  UNL     1     -34.602   7.309   4.166  1.00 20.00     0.063 C 
HETATM    6  C6  UNL     1     -32.885   8.245   2.586  1.00 20.00     0.063 C 
HETATM    7  C7  UNL     1     -33.980   4.633   3.173  1.00 20.00     0.300 C 
HETATM    8  C8  UNL     1     -32.334   5.532   1.657  1.00 20.00     0.300 C 
HETATM    9  C9  UNL     1     -33.836   7.053   2.846  1.00 20.00     0.230 C 
HETATM   10  N10 UNL     1     -33.094   5.780   2.898  1.00 20.00     0.100 N 
ENDROOT
TORSDOF 0
ENDMDL
MODEL 5
REMARK VINA RESULT:       1.7      0.792      1.194
REMARK  0 active torsions:
REMARK  status: ('A' for Active; 'I' for Inactive)
ROOT
HETATM    1  C1  UNL     1     -33.265   8.857   2.255  1.00 20.00    -0.027 C 
HETATM    2  C2  UNL     1     -35.014   4.842   4.729  1.00 20.00    -0.027 C 
HETATM    3  C3  UNL     1     -32.323   8.080   1.711  1.00 20.00    -0.001 C 
HETATM    4  C4  UNL     1     -34.055   4.104   4.160  1.00 20.00    -0.001 C 
HETATM    5  C5  UNL     1     -34.255   8.319   3.240  1.00 20.00     0.063 C 
HETATM    6  C6  UNL     1     -35.128   6.312   4.477  1.00 20.00     0.063 C 
HETATM    7  C7  UNL     1     -32.202   6.622   2.042  1.00 20.00     0.300 C 
HETATM    8  C8  UNL     1     -33.040   4.697   3.228  1.00 20.00     0.300 C 
HETATM    9  C9  UNL     1     -33.882   6.923   3.794  1.00 20.00     0.230 C 
HETATM   10  N10 UNL     1     -33.375   6.044   2.724  1.00 20.00     0.100 N 
ENDROOT
TORSDOF 0
ENDMDL
MODEL 6
REMARK VINA RESULT:       2.2      1.187      3.650
REMARK  0 active torsions:
REMARK  status: ('A' for Active; 'I' for Inactive)
ROOT
HETATM    1  C1  UNL     1     -34.631   7.534   4.686  1.00 20.00    -0.027 C 
HETATM    2  C2  UNL     1     -32.484   5.301   0.723  1.00 20.00    -0.027 C 
HETATM    3  C3  UNL     1     -33.660   8.453   4.662  1.00 20.00    -0.001 C 
HETATM    4  C4  UNL     1     -31.534   6.242   0.739  1.00 20.00    -0.001 C 
HETATM    5  C5  UNL     1     -34.654   6.390   3.720  1.00 20.00     0.063 C 
HETATM    6  C6  UNL     1     -33.580   5.275   1.740  1.00 20.00     0.063 C 
HETATM    7  C7  UNL     1     -32.540   8.405   3.665  1.00 20.00     0.300 C 
HETATM    8  C8  UNL     1     -31.510   7.334   1.766  1.00 20.00     0.300 C 
HETATM    9  C9  UNL     1     -33.324   6.201   2.953  1.00 20.00     0.230 C 
HETATM   10  N10 UNL     1     -32.766   7.497   2.525  1.00 20.00     0.100 N 
ENDROOT
TORSDOF 0
ENDMDL
MODEL 7
REMARK VINA RESULT:       2.3      1.252      1.809
REMARK  0 active torsions:
REMARK  status: ('A' for Active; 'I' for Inactive)
ROOT
HETATM    1  C1  UNL     1     -32.406  10.074   0.989  1.00 20.00    -0.027 C 
HETATM    2  C2  UNL     1     -34.167   6.186   3.651  1.00 20.00    -0.027 C 
HETATM    3  C3  UNL     1     -31.726   9.212   0.226  1.00 20.00    -0.001 C 
HETATM    4  C4  UNL     1     -33.469   5.362   2.861  1.00 20.00    -0.001 C 
HETATM    5  C5  UNL     1     -33.234   9.615   2.149  1.00 20.00     0.063 C 
HETATM    6  C6  UNL     1     -34.112   7.671   3.479  1.00 20.00     0.063 C 
HETATM    7  C7  UNL     1     -31.755   7.732   0.474  1.00 20.00     0.300 C 
HETATM    8  C8  UNL     1     -32.599   5.869   1.750  1.00 20.00     0.300 C 
HETATM    9  C9  UNL     1     -32.963   8.148   2.560  1.00 20.00     0.230 C 
HETATM   10  N10 UNL     1     -32.829   7.278   1.377  1.00 20.00     0.100 N 
ENDROOT
TORSDOF 0
ENDMDL
MODEL 8
REMARK VINA RESULT:       2.5      1.312      4.259
REMARK  0 active torsions:
REMARK  status: ('A' for Active; 'I' for Inactive)
ROOT
HETATM    1  C1  UNL     1     -33.478   5.308   2.944  1.00 20.00    -0.027 C 
HETATM    2  C2  UNL     1     -31.720   9.126   0.180  1.00 20.00    -0.027 C 
HETATM    3  C3  UNL     1     -34.112   6.195   3.719  1.00 20.00    -0.001 C 
HETATM    4  C4  UNL     1     -32.372   9.974   0.982  1.00 20.00    -0.001 C 
HETATM    5  C5  UNL     1     -32.617   5.741   1.798  1.00 20.00     0.063 C 
HETATM    6  C6  UNL     1     -31.739   7.649   0.418  1.00 20.00     0.063 C 
HETATM    7  C7  UNL     1     -34.013   7.673   3.486  1.00 20.00     0.300 C 
HETATM    8  C8  UNL     1     -33.170   9.503   2.162  1.00 20.00     0.300 C 
HETATM    9  C9  UNL     1     -32.282   7.251   1.810  1.00 20.00     0.230 C 
HETATM   10  N10 UNL     1     -33.463   8.056   2.172  1.00 20.00     0.100 N 
ENDROOT
TORSDOF 0
ENDMDL
