MODEL 1
REMARK VINA RESULT:      -1.2      0.000      0.000
REMARK  0 active torsions:
REMARK  status: ('A' for Active; 'I' for Inactive)
ROOT
HETATM    1  C1  UNL     1     -32.209   5.814   1.551  1.00 20.00     0.030 A 
HETATM    2  C2  UNL     1     -31.635   7.002   1.151  1.00 20.00     0.141 A 
HETATM    3  C3  UNL     1     -33.170   5.848   2.556  1.00 20.00    -0.030 A 
HETATM    4  C4  UNL     1     -33.512   7.092   3.081  1.00 20.00     0.063 A 
HETATM    5  C5  UNL     1     -33.852   4.580   2.994  1.00 20.00     0.041 C 
HETATM    6  C6  UNL     1     -34.518   7.227   4.191  1.00 20.00     0.062 C 
HETATM    7  C7  UNL     1     -34.601   4.727   4.317  1.00 20.00     0.005 C 
HETATM    8  C8  UNL     1     -35.428   6.007   4.326  1.00 20.00     0.006 C 
HETATM    9  N9  UNL     1     -31.972   8.191   1.685  1.00 20.00    -0.162 NA
HETATM   10  N10 UNL     1     -32.919   8.234   2.663  1.00 20.00    -0.155 NA
ENDROOT
TORSDOF 0
ENDMDL
MODEL 2
REMARK VINA RESULT:      -1.2      1.071      2.126
REMARK  0 active torsions:
REMARK  status: ('A' for Active; 'I' for Inactive)
ROOT
HETATM    1  C1  UNL     1     -32.798   8.290   2.670  1.00 20.00     0.030 A 
HETATM    2  C2  UNL     1     -31.839   8.131   1.691  1.00 20.00     0.141 A 
HETATM    3  C3  UNL     1     -33.489   7.165   3.109  1.00 20.00    -0.030 A 
HETATM    4  C4  UNL     1     -33.149   5.937   2.545  1.00 20.00     0.063 A 
HETATM    5  C5  UNL     1     -34.512   7.287   4.205  1.00 20.00     0.041 C 
HETATM    6  C6  UNL     1     -33.860   4.670   2.933  1.00 20.00     0.062 C 
HETATM    7  C7  UNL     1     -35.415   6.059   4.322  1.00 20.00     0.005 C 
HETATM    8  C8  UNL     1     -34.589   4.779   4.272  1.00 20.00     0.006 C 
HETATM    9  N9  UNL     1     -31.540   6.935   1.150  1.00 20.00    -0.162 NA
HETATM   10  N10 UNL     1     -32.205   5.827   1.581  1.00 20.00    -0.155 NA
ENDROOT
TORSDOF 0
ENDMDL
MODEL 3
REMARK VINA RESULT:      -0.9      2.015      4.055
REMARK  0 active torsions:
REMARK  status: ('A' for Active; 'I' for Inactive)
ROOT
HETATM    1  C1  UNL     1     -34.816   6.932   4.124  1.00 20.00     0.030 A 
HETATM    2  C2  UNL     1     -35.345   5.766   4.636  1.00 20.00     0.141 A 
HETATM    3  C3  UNL     1     -33.787   6.839   3.192  1.00 20.00    -0.030 A 
HETATM    4  C4  UNL     1     -33.371   5.566   2.813  1.00 20.00     0.063 A 
HETATM    5  C5  UNL     1     -33.210   8.085   2.577  1.00 20.00     0.041 C 
HETATM    6  C6  UNL     1     -32.247   5.364   1.835  1.00 20.00     0.062 C 
HETATM    7  C7  UNL     1     -31.882   7.842   1.861  1.00 20.00     0.005 C 
HETATM    8  C8  UNL     1     -31.967   6.600   0.982  1.00 20.00     0.006 C 
HETATM    9  N9  UNL     1     -34.914   4.545   4.265  1.00 20.00    -0.162 NA
HETATM   10  N10 UNL     1     -33.915   4.446   3.346  1.00 20.00    -0.155 NA
ENDROOT
TORSDOF 0
ENDMDL
MODEL 4
REMARK VINA RESULT:      -0.4      1.538      3.466
REMARK  0 active torsions:
REMARK  status: ('A' for Active; 'I' for Inactive)
ROOT
HETATM    1  C1  UNL     1     -34.059   4.701   3.362  1.00 20.00     0.030 A 
HETATM    2  C2  UNL     1     -35.019   5.001   4.305  1.00 20.00     0.141 A 
HETATM    3  C3  UNL     1     -33.375   5.751   2.756  1.00 20.00    -0.030 A 
HETATM    4  C4  UNL     1     -33.689   7.046   3.161  1.00 20.00     0.063 A 
HETATM    5  C5  UNL     1     -32.290   5.467   1.753  1.00 20.00     0.041 C 
HETATM    6  C6  UNL     1     -33.026   8.246   2.543  1.00 20.00     0.062 C 
HETATM    7  C7  UNL     1     -31.893   6.695   0.935  1.00 20.00     0.005 C 
HETATM    8  C8  UNL     1     -31.712   7.907   1.840  1.00 20.00     0.006 C 
HETATM    9  N9  UNL     1     -35.316   6.263   4.668  1.00 20.00    -0.162 NA
HETATM   10  N10 UNL     1     -34.645   7.296   4.087  1.00 20.00    -0.155 NA
ENDROOT
TORSDOF 0
ENDMDL
MODEL 5
REMARK VINA RESULT:       1.5      1.167      2.263
REMARK  0 active torsions:
REMARK  status: ('A' for Active; 'I' for Inactive)
ROOT
HETATM    1  C1  UNL     1     -34.233   8.168   3.170  1.00 20.00     0.030 A 
HETATM    2  C2  UNL     1     -33.361   8.656   2.219  1.00 20.00     0.141 A 
HETATM    3  C3  UNL     1     -34.236   6.801   3.426  1.00 20.00    -0.030 A 
HETATM    4  C4  UNL     1     -33.335   6.009   2.719  1.00 20.00     0.063 A 
HETATM    5  C5  UNL     1     -35.141   6.233   4.486  1.00 20.00     0.041 C 
HETATM    6  C6  UNL     1     -33.285   4.517   2.905  1.00 20.00     0.062 C 
HETATM    7  C7  UNL     1     -35.284   4.714   4.401  1.00 20.00     0.005 C 
HETATM    8  C8  UNL     1     -33.922   4.056   4.215  1.00 20.00     0.006 C 
HETATM    9  N9  UNL     1     -32.511   7.866   1.536  1.00 20.00    -0.162 NA
HETATM   10  N10 UNL     1     -32.501   6.528   1.788  1.00 20.00    -0.155 NA
ENDROOT
TORSDOF 0
ENDMDL
