MODEL 1
REMARK VINA RESULT:       0.1      0.000      0.000
REMARK  0 active torsions:
REMARK  status: ('A' for Active; 'I' for Inactive)
ROOT
HETATM    1  C1  UNL     1     -31.913   8.220   1.271  1.00 20.00    -0.026 C 
HETATM    2  C2  UNL     1     -35.201   6.614   4.490  1.00 20.00    -0.027 C 
HETATM    3  C3  UNL     1     -31.527   6.970   0.979  1.00 20.00    -0.001 C 
HETATM    4  C4  UNL     1     -34.274   7.546   4.232  1.00 20.00     0.005 C 
HETATM    5  C5  UNL     1     -35.128   5.242   3.887  1.00 20.00     0.057 C 
HETATM    6  C6  UNL     1     -32.900   8.505   2.366  1.00 20.00     0.066 C 
HETATM    7  C7  UNL     1     -32.093   5.776   1.694  1.00 20.00     0.300 C 
HETATM    8  C8  UNL     1     -33.765   4.942   3.250  1.00 20.00     0.277 C 
HETATM    9  C9  UNL     1     -33.120   7.290   3.295  1.00 20.00     0.249 C 
HETATM   10  N10 UNL     1     -33.313   6.088   2.454  1.00 20.00     0.100 N 
ENDROOT
TORSDOF 0
ENDMDL
MODEL 2
REMARK VINA RESULT:       0.7      0.896      2.267
REMARK  0 active torsions:
REMARK  status: ('A' for Active; 'I' for Inactive)
ROOT
HETATM    1  C1  UNL     1     -31.566   7.417   1.492  1.00 20.00    -0.026 C 
HETATM    2  C2  UNL     1     -34.211   4.097   3.888  1.00 20.00    -0.027 C 
HETATM    3  C3  UNL     1     -32.392   8.405   1.865  1.00 20.00    -0.001 C 
HETATM    4  C4  UNL     1     -33.516   4.357   2.773  1.00 20.00     0.005 C 
HETATM    5  C5  UNL     1     -34.874   5.187   4.677  1.00 20.00     0.057 C 
HETATM    6  C6  UNL     1     -31.866   5.979   1.805  1.00 20.00     0.066 C 
HETATM    7  C7  UNL     1     -33.640   8.140   2.661  1.00 20.00     0.300 C 
HETATM    8  C8  UNL     1     -34.946   6.517   3.914  1.00 20.00     0.277 C 
HETATM    9  C9  UNL     1     -33.327   5.763   2.257  1.00 20.00     0.249 C 
HETATM   10  N10 UNL     1     -33.663   6.797   3.262  1.00 20.00     0.100 N 
ENDROOT
TORSDOF 0
ENDMDL
MODEL 3
REMARK VINA RESULT:       0.7      0.694      4.050
REMARK  0 active torsions:
REMARK  status: ('A' for Active; 'I' for Inactive)
ROOT
HETATM    1  C1  UNL     1     -35.145   5.465   4.075  1.00 20.00    -0.026 C 
HETATM    2  C2  UNL     1     -31.677   6.590   0.840  1.00 20.00    -0.027 C 
HETATM    3  C3  UNL     1     -35.066   6.676   4.643  1.00 20.00    -0.001 C 
HETATM    4  C4  UNL     1     -32.165   5.639   1.647  1.00 20.00     0.005 C 
HETATM    5  C5  UNL     1     -31.869   8.048   1.134  1.00 20.00     0.057 C 
HETATM    6  C6  UNL     1     -34.195   5.039   2.993  1.00 20.00     0.066 C 
HETATM    7  C7  UNL     1     -34.057   7.698   4.200  1.00 20.00     0.300 C 
HETATM    8  C8  UNL     1     -32.367   8.309   2.562  1.00 20.00     0.277 C 
HETATM    9  C9  UNL     1     -32.968   5.970   2.881  1.00 20.00     0.249 C 
HETATM   10  N10 UNL     1     -33.442   7.372   2.904  1.00 20.00     0.100 N 
ENDROOT
TORSDOF 0
ENDMDL
MODEL 4
REMARK VINA RESULT:       0.8      0.758      3.460
REMARK  0 active torsions:
REMARK  status: ('A' for Active; 'I' for Inactive)
ROOT
HETATM    1  C1  UNL     1     -34.367   7.636   4.861  1.00 20.00    -0.026 C 
HETATM    2  C2  UNL     1     -31.272   7.174   1.124  1.00 20.00    -0.027 C 
HETATM    3  C3  UNL     1     -35.020   6.519   4.512  1.00 20.00    -0.001 C 
HETATM    4  C4  UNL     1     -32.002   8.030   1.852  1.00 20.00     0.005 C 
HETATM    5  C5  UNL     1     -31.665   5.735   0.970  1.00 20.00     0.057 C 
HETATM    6  C6  UNL     1     -33.271   8.208   4.007  1.00 20.00     0.066 C 
HETATM    7  C7  UNL     1     -34.665   5.744   3.274  1.00 20.00     0.300 C 
HETATM    8  C8  UNL     1     -33.100   5.455   1.436  1.00 20.00     0.277 C 
HETATM    9  C9  UNL     1     -33.245   7.595   2.590  1.00 20.00     0.249 C 
HETATM   10  N10 UNL     1     -33.359   6.125   2.715  1.00 20.00     0.100 N 
ENDROOT
TORSDOF 0
ENDMDL
MODEL 5
REMARK VINA RESULT:       0.9      0.510      3.510
REMARK  0 active torsions:
REMARK  status: ('A' for Active; 'I' for Inactive)
ROOT
HETATM    1  C1  UNL     1     -35.121   6.303   4.734  1.00 20.00    -0.026 C 
HETATM    2  C2  UNL     1     -31.806   7.964   1.570  1.00 20.00    -0.027 C 
HETATM    3  C3  UNL     1     -34.998   5.051   4.269  1.00 20.00    -0.001 C 
HETATM    4  C4  UNL     1     -32.978   8.211   2.171  1.00 20.00     0.005 C 
HETATM    5  C5  UNL     1     -31.319   6.565   1.338  1.00 20.00     0.057 C 
HETATM    6  C6  UNL     1     -34.416   7.458   4.083  1.00 20.00     0.066 C 
HETATM    7  C7  UNL     1     -34.111   4.720   3.102  1.00 20.00     0.300 C 
HETATM    8  C8  UNL     1     -32.411   5.508   1.552  1.00 20.00     0.277 C 
HETATM    9  C9  UNL     1     -33.864   7.103   2.685  1.00 20.00     0.249 C 
HETATM   10  N10 UNL     1     -33.167   5.800   2.775  1.00 20.00     0.100 N 
ENDROOT
TORSDOF 0
ENDMDL
MODEL 6
REMARK VINA RESULT:       1.4      0.962      2.245
REMARK  0 active torsions:
REMARK  status: ('A' for Active; 'I' for Inactive)
ROOT
HETATM    1  C1  UNL     1     -31.696   5.841   0.961  1.00 20.00    -0.026 C 
HETATM    2  C2  UNL     1     -34.959   6.387   4.540  1.00 20.00    -0.027 C 
HETATM    3  C3  UNL     1     -31.366   7.139   1.008  1.00 20.00    -0.001 C 
HETATM    4  C4  UNL     1     -34.699   5.799   3.365  1.00 20.00     0.005 C 
HETATM    5  C5  UNL     1     -34.323   7.689   4.927  1.00 20.00     0.057 C 
HETATM    6  C6  UNL     1     -32.822   5.284   1.784  1.00 20.00     0.066 C 
HETATM    7  C7  UNL     1     -32.068   8.106   1.920  1.00 20.00     0.300 C 
HETATM    8  C8  UNL     1     -33.645   8.397   3.747  1.00 20.00     0.277 C 
HETATM    9  C9  UNL     1     -33.728   6.388   2.372  1.00 20.00     0.249 C 
HETATM   10  N10 UNL     1     -32.864   7.437   2.960  1.00 20.00     0.100 N 
ENDROOT
TORSDOF 0
ENDMDL
MODEL 7
REMARK VINA RESULT:       1.4      1.254      4.171
REMARK  0 active torsions:
REMARK  status: ('A' for Active; 'I' for Inactive)
ROOT
HETATM    1  C1  UNL     1     -33.704   5.434   2.885  1.00 20.00    -0.026 C 
HETATM    2  C2  UNL     1     -31.586   8.833   0.107  1.00 20.00    -0.027 C 
HETATM    3  C3  UNL     1     -34.199   6.362   3.716  1.00 20.00    -0.001 C 
HETATM    4  C4  UNL     1     -31.452   7.620   0.660  1.00 20.00     0.005 C 
HETATM    5  C5  UNL     1     -32.463   9.885   0.717  1.00 20.00     0.057 C 
HETATM    6  C6  UNL     1     -32.769   5.795   1.766  1.00 20.00     0.066 C 
HETATM    7  C7  UNL     1     -33.890   7.824   3.550  1.00 20.00     0.300 C 
HETATM    8  C8  UNL     1     -32.895   9.545   2.150  1.00 20.00     0.277 C 
HETATM    9  C9  UNL     1     -32.198   7.223   1.910  1.00 20.00     0.249 C 
HETATM   10  N10 UNL     1     -33.313   8.141   2.234  1.00 20.00     0.100 N 
ENDROOT
TORSDOF 0
ENDMDL
MODEL 8
REMARK VINA RESULT:       2.8      1.121      2.532
REMARK  0 active torsions:
REMARK  status: ('A' for Active; 'I' for Inactive)
ROOT
HETATM    1  C1  UNL     1     -32.552   8.490   2.160  1.00 20.00    -0.026 C 
HETATM    2  C2  UNL     1     -33.482   3.866   3.387  1.00 20.00    -0.027 C 
HETATM    3  C3  UNL     1     -33.617   8.930   2.845  1.00 20.00    -0.001 C 
HETATM    4  C4  UNL     1     -33.086   4.688   2.407  1.00 20.00     0.005 C 
HETATM    5  C5  UNL     1     -34.376   4.335   4.496  1.00 20.00     0.057 C 
HETATM    6  C6  UNL     1     -32.271   7.024   1.994  1.00 20.00     0.066 C 
HETATM    7  C7  UNL     1     -34.566   7.987   3.530  1.00 20.00     0.300 C 
HETATM    8  C8  UNL     1     -35.022   5.697   4.207  1.00 20.00     0.277 C 
HETATM    9  C9  UNL     1     -33.483   6.143   2.372  1.00 20.00     0.249 C 
HETATM   10  N10 UNL     1     -34.025   6.625   3.663  1.00 20.00     0.100 N 
ENDROOT
TORSDOF 0
ENDMDL
MODEL 9
REMARK VINA RESULT:       2.8      1.193      3.399
REMARK  0 active torsions:
REMARK  status: ('A' for Active; 'I' for Inactive)
ROOT
HETATM    1  C1  UNL     1     -34.127   3.613   4.467  1.00 20.00    -0.026 C 
HETATM    2  C2  UNL     1     -33.830   8.357   3.391  1.00 20.00    -0.027 C 
HETATM    3  C3  UNL     1     -33.352   3.285   3.423  1.00 20.00    -0.001 C 
HETATM    4  C4  UNL     1     -34.633   7.369   3.807  1.00 20.00     0.005 C 
HETATM    5  C5  UNL     1     -32.637   8.091   2.523  1.00 20.00     0.057 C 
HETATM    6  C6  UNL     1     -34.586   5.025   4.696  1.00 20.00     0.066 C 
HETATM    7  C7  UNL     1     -32.855   4.315   2.448  1.00 20.00     0.300 C 
HETATM    8  C8  UNL     1     -32.639   6.679   1.921  1.00 20.00     0.277 C 
HETATM    9  C9  UNL     1     -34.372   5.925   3.459  1.00 20.00     0.249 C 
HETATM   10  N10 UNL     1     -33.003   5.692   2.944  1.00 20.00     0.100 N 
ENDROOT
TORSDOF 0
ENDMDL
