MODEL 1
REMARK VINA RESULT:      -0.6      0.000      0.000
REMARK  0 active torsions:
REMARK  status: ('A' for Active; 'I' for Inactive)
ROOT
HETATM    1  C1  UNL     1     -33.891   4.454   3.948  1.00 20.00     0.066 C 
HETATM    2  C2  UNL     1     -31.755   7.029   1.460  1.00 20.00     0.032 C 
HETATM    3  C3  UNL     1     -32.598   5.775   1.634  1.00 20.00     0.039 C 
HETATM    4  C4  UNL     1     -35.118   6.571   4.267  1.00 20.00     0.051 C 
HETATM    5  C5  UNL     1     -32.089   7.825   2.712  1.00 20.00     0.273 C 
HETATM    6  C6  UNL     1     -33.950   7.548   4.289  1.00 20.00     0.274 C 
HETATM    7  C7  UNL     1     -34.671   5.501   3.270  1.00 20.00     0.128 C 
HETATM    8  C8  UNL     1     -33.882   6.320   2.245  1.00 20.00     0.240 C 
HETATM    9  N9  UNL     1     -33.276   3.628   4.483  1.00 20.00    -0.197 NA
HETATM   10  N10 UNL     1     -33.525   7.604   2.890  1.00 20.00     0.094 N 
ENDROOT
TORSDOF 0
ENDMDL
MODEL 2
REMARK VINA RESULT:       1.2      1.451      3.278
REMARK  0 active torsions:
REMARK  status: ('A' for Active; 'I' for Inactive)
ROOT
HETATM    1  C1  UNL     1     -33.429   5.506   0.562  1.00 20.00     0.066 C 
HETATM    2  C2  UNL     1     -35.014   6.330   4.329  1.00 20.00     0.032 C 
HETATM    3  C3  UNL     1     -34.459   5.323   3.333  1.00 20.00     0.039 C 
HETATM    4  C4  UNL     1     -31.765   7.095   1.455  1.00 20.00     0.051 C 
HETATM    5  C5  UNL     1     -34.486   7.651   3.791  1.00 20.00     0.273 C 
HETATM    6  C6  UNL     1     -32.693   8.070   2.166  1.00 20.00     0.274 C 
HETATM    7  C7  UNL     1     -32.456   5.743   1.640  1.00 20.00     0.128 C 
HETATM    8  C8  UNL     1     -33.073   5.881   3.035  1.00 20.00     0.240 C 
HETATM    9  N9  UNL     1     -34.195   5.319  -0.290  1.00 20.00    -0.197 NA
HETATM   10  N10 UNL     1     -33.128   7.327   3.349  1.00 20.00     0.094 N 
ENDROOT
TORSDOF 0
ENDMDL
MODEL 3
REMARK VINA RESULT:       1.5      1.307      3.752
REMARK  0 active torsions:
REMARK  status: ('A' for Active; 'I' for Inactive)
ROOT
HETATM    1  C1  UNL     1     -32.131   8.400   3.144  1.00 20.00     0.066 C 
HETATM    2  C2  UNL     1     -34.948   5.518   4.213  1.00 20.00     0.032 C 
HETATM    3  C3  UNL     1     -34.612   6.967   3.895  1.00 20.00     0.039 C 
HETATM    4  C4  UNL     1     -32.022   6.870   1.211  1.00 20.00     0.051 C 
HETATM    5  C5  UNL     1     -33.786   4.765   3.583  1.00 20.00     0.273 C 
HETATM    6  C6  UNL     1     -32.141   5.533   1.931  1.00 20.00     0.274 C 
HETATM    7  C7  UNL     1     -32.903   7.804   2.043  1.00 20.00     0.128 C 
HETATM    8  C8  UNL     1     -34.034   6.872   2.489  1.00 20.00     0.240 C 
HETATM    9  N9  UNL     1     -31.522   8.871   4.013  1.00 20.00    -0.197 NA
HETATM   10  N10 UNL     1     -33.547   5.484   2.330  1.00 20.00     0.094 N 
ENDROOT
TORSDOF 0
ENDMDL
MODEL 4
REMARK VINA RESULT:       2.1      1.419      3.415
REMARK  0 active torsions:
REMARK  status: ('A' for Active; 'I' for Inactive)
ROOT
HETATM    1  C1  UNL     1     -33.235   8.121   4.430  1.00 20.00     0.066 C 
HETATM    2  C2  UNL     1     -34.220   4.095   3.976  1.00 20.00     0.032 C 
HETATM    3  C3  UNL     1     -34.631   5.509   4.357  1.00 20.00     0.039 C 
HETATM    4  C4  UNL     1     -32.816   7.784   2.022  1.00 20.00     0.051 C 
HETATM    5  C5  UNL     1     -32.983   4.330   3.122  1.00 20.00     0.273 C 
HETATM    6  C6  UNL     1     -32.190   6.396   2.059  1.00 20.00     0.274 C 
HETATM    7  C7  UNL     1     -33.849   7.741   3.149  1.00 20.00     0.128 C 
HETATM    8  C8  UNL     1     -34.342   6.293   3.083  1.00 20.00     0.240 C 
HETATM    9  N9  UNL     1     -32.751   8.421   5.442  1.00 20.00    -0.197 NA
HETATM   10  N10 UNL     1     -33.326   5.517   2.336  1.00 20.00     0.094 N 
ENDROOT
TORSDOF 0
ENDMDL
MODEL 5
REMARK VINA RESULT:       2.2      1.649      3.802
REMARK  0 active torsions:
REMARK  status: ('A' for Active; 'I' for Inactive)
ROOT
HETATM    1  C1  UNL     1     -32.184   9.073   0.933  1.00 20.00     0.066 C 
HETATM    2  C2  UNL     1     -33.090   5.008   1.109  1.00 20.00     0.032 C 
HETATM    3  C3  UNL     1     -32.148   6.122   0.681  1.00 20.00     0.039 C 
HETATM    4  C4  UNL     1     -32.301   8.704   3.370  1.00 20.00     0.051 C 
HETATM    5  C5  UNL     1     -33.919   5.676   2.194  1.00 20.00     0.273 C 
HETATM    6  C6  UNL     1     -33.488   7.753   3.432  1.00 20.00     0.274 C 
HETATM    7  C7  UNL     1     -31.607   8.326   2.060  1.00 20.00     0.128 C 
HETATM    8  C8  UNL     1     -31.828   6.811   2.001  1.00 20.00     0.240 C 
HETATM    9  N9  UNL     1     -32.638   9.664   0.043  1.00 20.00    -0.197 NA
HETATM   10  N10 UNL     1     -32.945   6.495   2.919  1.00 20.00     0.094 N 
ENDROOT
TORSDOF 0
ENDMDL
