MODEL 1
REMARK VINA RESULT:      -0.2      0.000      0.000
REMARK  0 active torsions:
REMARK  status: ('A' for Active; 'I' for Inactive)
ROOT
HETATM    1  C1  UNL     1     -32.207   8.492   1.093  1.00 20.00     0.101 C 
HETATM    2  C2  UNL     1     -31.899   5.971   1.033  1.00 20.00     0.042 A 
HETATM    3  C3  UNL     1     -32.435   4.921   1.745  1.00 20.00     0.092 A 
HETATM    4  C4  UNL     1     -32.468   7.166   1.541  1.00 20.00     0.068 A 
HETATM    5  C5  UNL     1     -33.340   6.815   2.553  1.00 20.00     0.032 A 
HETATM    6  C6  UNL     1     -34.229   7.649   3.413  1.00 20.00     0.059 C 
HETATM    7  C7  UNL     1     -34.701   6.890   4.656  1.00 20.00     0.008 C 
HETATM    8  C8  UNL     1     -35.177   5.485   4.286  1.00 20.00     0.021 C 
HETATM    9  C9  UNL     1     -34.043   4.681   3.651  1.00 20.00     0.128 C 
HETATM   10  N10 UNL     1     -31.993   9.573   0.728  1.00 20.00    -0.191 NA
HETATM   11  N11 UNL     1     -33.306   5.444   2.660  1.00 20.00    -0.359 N 
ENDROOT
TORSDOF 0
ENDMDL
MODEL 2
REMARK VINA RESULT:       0.7      1.408      4.457
REMARK  0 active torsions:
REMARK  status: ('A' for Active; 'I' for Inactive)
ROOT
HETATM    1  C1  UNL     1     -33.908   4.172   3.928  1.00 20.00     0.101 C 
HETATM    2  C2  UNL     1     -34.804   6.499   4.416  1.00 20.00     0.042 A 
HETATM    3  C3  UNL     1     -34.540   7.754   3.915  1.00 20.00     0.092 A 
HETATM    4  C4  UNL     1     -33.965   5.582   3.735  1.00 20.00     0.068 A 
HETATM    5  C5  UNL     1     -33.207   6.303   2.832  1.00 20.00     0.032 A 
HETATM    6  C6  UNL     1     -32.187   5.860   1.837  1.00 20.00     0.059 C 
HETATM    7  C7  UNL     1     -31.322   7.024   1.347  1.00 20.00     0.008 C 
HETATM    8  C8  UNL     1     -32.188   8.234   0.994  1.00 20.00     0.021 C 
HETATM    9  C9  UNL     1     -32.967   8.714   2.217  1.00 20.00     0.128 C 
HETATM   10  N10 UNL     1     -33.862   3.023   4.086  1.00 20.00    -0.191 NA
HETATM   11  N11 UNL     1     -33.574   7.622   2.957  1.00 20.00    -0.359 N 
ENDROOT
TORSDOF 0
ENDMDL
MODEL 3
REMARK VINA RESULT:       0.8      1.405      2.793
REMARK  0 active torsions:
REMARK  status: ('A' for Active; 'I' for Inactive)
ROOT
HETATM    1  C1  UNL     1     -31.866   5.090   0.718  1.00 20.00     0.101 C 
HETATM    2  C2  UNL     1     -31.578   7.545   1.304  1.00 20.00     0.042 A 
HETATM    3  C3  UNL     1     -32.158   8.387   2.227  1.00 20.00     0.092 A 
HETATM    4  C4  UNL     1     -32.170   6.267   1.460  1.00 20.00     0.068 A 
HETATM    5  C5  UNL     1     -33.100   6.360   2.477  1.00 20.00     0.032 A 
HETATM    6  C6  UNL     1     -33.992   5.330   3.086  1.00 20.00     0.059 C 
HETATM    7  C7  UNL     1     -35.130   5.962   3.892  1.00 20.00     0.008 C 
HETATM    8  C8  UNL     1     -34.603   7.076   4.796  1.00 20.00     0.021 C 
HETATM    9  C9  UNL     1     -33.950   8.180   3.966  1.00 20.00     0.128 C 
HETATM   10  N10 UNL     1     -31.619   4.131   0.112  1.00 20.00    -0.191 NA
HETATM   11  N11 UNL     1     -33.075   7.658   2.932  1.00 20.00    -0.359 N 
ENDROOT
TORSDOF 0
ENDMDL
MODEL 4
REMARK VINA RESULT:       0.8      1.511      4.419
REMARK  0 active torsions:
REMARK  status: ('A' for Active; 'I' for Inactive)
ROOT
HETATM    1  C1  UNL     1     -35.118   5.604   4.351  1.00 20.00     0.101 C 
HETATM    2  C2  UNL     1     -34.018   7.880   4.599  1.00 20.00     0.042 A 
HETATM    3  C3  UNL     1     -33.075   8.575   3.874  1.00 20.00     0.092 A 
HETATM    4  C4  UNL     1     -34.222   6.636   3.952  1.00 20.00     0.068 A 
HETATM    5  C5  UNL     1     -33.397   6.603   2.844  1.00 20.00     0.032 A 
HETATM    6  C6  UNL     1     -33.217   5.564   1.789  1.00 20.00     0.059 C 
HETATM    7  C7  UNL     1     -31.922   5.767   0.999  1.00 20.00     0.008 C 
HETATM    8  C8  UNL     1     -31.756   7.232   0.595  1.00 20.00     0.021 C 
HETATM    9  C9  UNL     1     -31.695   8.129   1.831  1.00 20.00     0.128 C 
HETATM   10  N10 UNL     1     -35.848   4.763   4.678  1.00 20.00    -0.191 NA
HETATM   11  N11 UNL     1     -32.709   7.793   2.815  1.00 20.00    -0.359 N 
ENDROOT
TORSDOF 0
ENDMDL
MODEL 5
REMARK VINA RESULT:       2.2      1.037      2.553
REMARK  0 active torsions:
REMARK  status: ('A' for Active; 'I' for Inactive)
ROOT
HETATM    1  C1  UNL     1     -32.230   8.188   1.633  1.00 20.00     0.101 C 
HETATM    2  C2  UNL     1     -33.931   8.380   3.510  1.00 20.00     0.042 A 
HETATM    3  C3  UNL     1     -34.607   7.469   4.291  1.00 20.00     0.092 A 
HETATM    4  C4  UNL     1     -33.109   7.650   2.616  1.00 20.00     0.068 A 
HETATM    5  C5  UNL     1     -33.304   6.307   2.873  1.00 20.00     0.032 A 
HETATM    6  C6  UNL     1     -32.684   5.093   2.265  1.00 20.00     0.059 C 
HETATM    7  C7  UNL     1     -33.487   3.826   2.569  1.00 20.00     0.008 C 
HETATM    8  C8  UNL     1     -33.872   3.768   4.048  1.00 20.00     0.021 C 
HETATM    9  C9  UNL     1     -34.734   4.971   4.429  1.00 20.00     0.128 C 
HETATM   10  N10 UNL     1     -31.514   8.627   0.831  1.00 20.00    -0.191 NA
HETATM   11  N11 UNL     1     -34.217   6.219   3.897  1.00 20.00    -0.359 N 
ENDROOT
TORSDOF 0
ENDMDL
