MODEL 1
REMARK VINA RESULT:      -1.1      0.000      0.000
REMARK  1 active torsions:
REMARK  status: ('A' for Active; 'I' for Inactive)
REMARK    1  A    between atoms: C3_3  and  C5_5 
ROOT
HETATM    1  C1  UNL     1     -31.855   6.239   0.953  1.00 20.00     0.034 A 
HETATM    2  C2  UNL     1     -32.561   5.240   1.586  1.00 20.00     0.092 A 
HETATM    3  C3  UNL     1     -32.220   7.469   1.556  1.00 20.00     0.025 A 
HETATM    4  C4  UNL     1     -33.143   7.190   2.545  1.00 20.00     0.024 A 
HETATM    5  C6  UNL     1     -33.885   8.091   3.474  1.00 20.00     0.058 C 
HETATM    6  C7  UNL     1     -34.482   7.329   4.658  1.00 20.00     0.008 C 
HETATM    7  C8  UNL     1     -35.185   6.056   4.185  1.00 20.00     0.021 C 
HETATM    8  C9  UNL     1     -34.197   5.125   3.481  1.00 20.00     0.128 C 
HETATM    9  N10 UNL     1     -33.337   5.830   2.546  1.00 20.00    -0.359 N 
ENDROOT
BRANCH   3  10
HETATM   10  C5  UNL     1     -31.744   8.779   1.219  1.00 20.00     0.272 C 
HETATM   11  O11 UNL     1     -32.325   9.546   0.429  1.00 20.00    -0.301 OA
ENDBRANCH   3  10
TORSDOF 1
ENDMDL
MODEL 2
REMARK VINA RESULT:      -0.8      2.404      4.397
REMARK  1 active torsions:
REMARK  status: ('A' for Active; 'I' for Inactive)
REMARK    1  A    between atoms: C3_3  and  C5_5 
ROOT
HETATM    1  C1  UNL     1     -34.270   7.714   4.702  1.00 20.00     0.034 A 
HETATM    2  C2  UNL     1     -33.259   8.432   4.100  1.00 20.00     0.092 A 
HETATM    3  C3  UNL     1     -34.458   6.528   3.949  1.00 20.00     0.025 A 
HETATM    4  C4  UNL     1     -33.556   6.550   2.903  1.00 20.00     0.024 A 
HETATM    5  C6  UNL     1     -33.325   5.585   1.789  1.00 20.00     0.058 C 
HETATM    6  C7  UNL     1     -31.972   5.805   1.110  1.00 20.00     0.008 C 
HETATM    7  C8  UNL     1     -31.740   7.290   0.829  1.00 20.00     0.021 C 
HETATM    8  C9  UNL     1     -31.746   8.092   2.131  1.00 20.00     0.128 C 
HETATM    9  N10 UNL     1     -32.838   7.716   3.012  1.00 20.00    -0.359 N 
ENDROOT
BRANCH   3  10
HETATM   10  C5  UNL     1     -35.407   5.481   4.197  1.00 20.00     0.272 C 
HETATM   11  O11 UNL     1     -35.098   4.349   4.614  1.00 20.00    -0.301 OA
ENDBRANCH   3  10
TORSDOF 1
ENDMDL
MODEL 3
REMARK VINA RESULT:       0.1      1.799      2.752
REMARK  1 active torsions:
REMARK  status: ('A' for Active; 'I' for Inactive)
REMARK    1  A    between atoms: C3_3  and  C5_5 
ROOT
HETATM    1  C1  UNL     1     -31.648   7.238   1.141  1.00 20.00     0.034 A 
HETATM    2  C2  UNL     1     -32.094   8.186   2.037  1.00 20.00     0.092 A 
HETATM    3  C3  UNL     1     -32.340   6.032   1.416  1.00 20.00     0.025 A 
HETATM    4  C4  UNL     1     -33.194   6.273   2.475  1.00 20.00     0.024 A 
HETATM    5  C6  UNL     1     -34.135   5.370   3.199  1.00 20.00     0.058 C 
HETATM    6  C7  UNL     1     -35.162   6.151   4.021  1.00 20.00     0.008 C 
HETATM    7  C8  UNL     1     -34.484   7.266   4.819  1.00 20.00     0.021 C 
HETATM    8  C9  UNL     1     -33.788   8.252   3.882  1.00 20.00     0.128 C 
HETATM    9  N10 UNL     1     -33.028   7.588   2.838  1.00 20.00    -0.359 N 
ENDROOT
BRANCH   3  10
HETATM   10  C5  UNL     1     -32.198   4.774   0.743  1.00 20.00     0.272 C 
HETATM   11  O11 UNL     1     -33.046   4.307  -0.041  1.00 20.00    -0.301 OA
ENDBRANCH   3  10
TORSDOF 1
ENDMDL
MODEL 4
REMARK VINA RESULT:       1.4      1.792      3.587
REMARK  1 active torsions:
REMARK  status: ('A' for Active; 'I' for Inactive)
REMARK    1  A    between atoms: C3_3  and  C5_5 
ROOT
HETATM    1  C1  UNL     1     -34.888   6.223   4.280  1.00 20.00     0.034 A 
HETATM    2  C2  UNL     1     -34.574   5.402   3.217  1.00 20.00     0.092 A 
HETATM    3  C3  UNL     1     -34.040   7.356   4.210  1.00 20.00     0.025 A 
HETATM    4  C4  UNL     1     -33.226   7.200   3.104  1.00 20.00     0.024 A 
HETATM    5  C6  UNL     1     -32.133   8.060   2.564  1.00 20.00     0.058 C 
HETATM    6  C7  UNL     1     -31.790   7.710   1.115  1.00 20.00     0.008 C 
HETATM    7  C8  UNL     1     -31.662   6.196   0.938  1.00 20.00     0.021 C 
HETATM    8  C9  UNL     1     -32.977   5.500   1.289  1.00 20.00     0.128 C 
HETATM    9  N10 UNL     1     -33.566   6.006   2.516  1.00 20.00    -0.359 N 
ENDROOT
BRANCH   3  10
HETATM   10  C5  UNL     1     -34.002   8.472   5.110  1.00 20.00     0.272 C 
HETATM   11  O11 UNL     1     -33.020   8.757   5.821  1.00 20.00    -0.301 OA
ENDBRANCH   3  10
TORSDOF 1
ENDMDL
MODEL 5
REMARK VINA RESULT:       1.5      1.052      2.605
REMARK  1 active torsions:
REMARK  status: ('A' for Active; 'I' for Inactive)
REMARK    1  A    between atoms: C3_3  and  C5_5 
ROOT
HETATM    1  C1  UNL     1     -33.852   8.396   3.374  1.00 20.00     0.034 A 
HETATM    2  C2  UNL     1     -34.615   7.558   4.159  1.00 20.00     0.092 A 
HETATM    3  C3  UNL     1     -33.000   7.584   2.585  1.00 20.00     0.025 A 
HETATM    4  C4  UNL     1     -33.263   6.267   2.907  1.00 20.00     0.024 A 
HETATM    5  C6  UNL     1     -32.652   4.998   2.416  1.00 20.00     0.058 C 
HETATM    6  C7  UNL     1     -33.521   3.780   2.737  1.00 20.00     0.008 C 
HETATM    7  C8  UNL     1     -34.006   3.826   4.186  1.00 20.00     0.021 C 
HETATM    8  C9  UNL     1     -34.846   5.078   4.434  1.00 20.00     0.128 C 
HETATM    9  N10 UNL     1     -34.247   6.273   3.867  1.00 20.00    -0.359 N 
ENDROOT
BRANCH   3  10
HETATM   10  C5  UNL     1     -32.027   8.018   1.624  1.00 20.00     0.272 C 
HETATM   11  O11 UNL     1     -32.179   9.007   0.882  1.00 20.00    -0.301 OA
ENDBRANCH   3  10
TORSDOF 1
ENDMDL
MODEL 6
REMARK VINA RESULT:       1.9      2.160      3.816
REMARK  1 active torsions:
REMARK  status: ('A' for Active; 'I' for Inactive)
REMARK    1  A    between atoms: C3_3  and  C5_5 
ROOT
HETATM    1  C1  UNL     1     -33.020   5.467   2.522  1.00 20.00     0.034 A 
HETATM    2  C2  UNL     1     -32.124   5.719   1.506  1.00 20.00     0.092 A 
HETATM    3  C3  UNL     1     -33.571   6.709   2.923  1.00 20.00     0.025 A 
HETATM    4  C4  UNL     1     -32.997   7.693   2.141  1.00 20.00     0.024 A 
HETATM    5  C6  UNL     1     -33.176   9.174   2.142  1.00 20.00     0.058 C 
HETATM    6  C7  UNL     1     -32.660   9.815   0.852  1.00 20.00     0.008 C 
HETATM    7  C8  UNL     1     -31.282   9.262   0.485  1.00 20.00     0.021 C 
HETATM    8  C9  UNL     1     -31.351   7.752   0.261  1.00 20.00     0.128 C 
HETATM    9  N10 UNL     1     -32.119   7.070   1.287  1.00 20.00    -0.359 N 
ENDROOT
BRANCH   3  10
HETATM   10  C5  UNL     1     -34.543   6.939   3.953  1.00 20.00     0.272 C 
HETATM   11  O11 UNL     1     -35.531   6.208   4.149  1.00 20.00    -0.301 OA
ENDBRANCH   3  10
TORSDOF 1
ENDMDL
