MODEL 1
REMARK VINA RESULT:      -1.2      0.000      0.000
REMARK  0 active torsions:
REMARK  status: ('A' for Active; 'I' for Inactive)
ROOT
HETATM    1  C1  UNL     1     -32.668   5.620   1.726  1.00 20.00     0.027 A 
HETATM    2  C2  UNL     1     -31.766   6.461   1.088  1.00 20.00     0.116 A 
HETATM    3  C3  UNL     1     -32.404   8.306   2.326  1.00 20.00     0.123 A 
HETATM    4  C4  UNL     1     -33.446   6.191   2.715  1.00 20.00    -0.045 A 
HETATM    5  C5  UNL     1     -33.317   7.546   3.021  1.00 20.00    -0.034 A 
HETATM    6  C6  UNL     1     -34.280   7.965   4.080  1.00 20.00     0.041 C 
HETATM    7  C7  UNL     1     -34.646   6.602   4.690  1.00 20.00     0.014 C 
HETATM    8  C8  UNL     1     -34.530   5.567   3.549  1.00 20.00     0.015 C 
HETATM    9  C9  UNL     1     -34.224   4.170   4.067  1.00 20.00     0.015 C 
HETATM   10  N10 UNL     1     -31.614   7.785   1.361  1.00 20.00    -0.273 NA
ENDROOT
TORSDOF 0
ENDMDL
MODEL 2
REMARK VINA RESULT:      -1.0      1.701      3.295
REMARK  0 active torsions:
REMARK  status: ('A' for Active; 'I' for Inactive)
ROOT
HETATM    1  C1  UNL     1     -33.998   4.962   3.204  1.00 20.00     0.027 A 
HETATM    2  C2  UNL     1     -34.965   5.366   4.115  1.00 20.00     0.116 A 
HETATM    3  C3  UNL     1     -34.341   7.589   3.996  1.00 20.00     0.123 A 
HETATM    4  C4  UNL     1     -33.194   5.956   2.681  1.00 20.00    -0.045 A 
HETATM    5  C5  UNL     1     -33.363   7.283   3.078  1.00 20.00    -0.034 A 
HETATM    6  C6  UNL     1     -32.365   8.182   2.429  1.00 20.00     0.041 C 
HETATM    7  C7  UNL     1     -31.912   7.306   1.251  1.00 20.00     0.014 C 
HETATM    8  C8  UNL     1     -32.043   5.840   1.719  1.00 20.00     0.015 C 
HETATM    9  C9  UNL     1     -32.265   4.881   0.560  1.00 20.00     0.015 C 
HETATM   10  N10 UNL     1     -35.158   6.649   4.523  1.00 20.00    -0.273 NA
ENDROOT
TORSDOF 0
ENDMDL
MODEL 3
REMARK VINA RESULT:      -0.8      1.867      4.035
REMARK  0 active torsions:
REMARK  status: ('A' for Active; 'I' for Inactive)
ROOT
HETATM    1  C1  UNL     1     -34.491   7.103   3.655  1.00 20.00     0.027 A 
HETATM    2  C2  UNL     1     -35.152   6.179   4.454  1.00 20.00     0.116 A 
HETATM    3  C3  UNL     1     -34.083   4.374   3.483  1.00 20.00     0.123 A 
HETATM    4  C4  UNL     1     -33.581   6.592   2.749  1.00 20.00    -0.045 A 
HETATM    5  C5  UNL     1     -33.372   5.215   2.659  1.00 20.00    -0.034 A 
HETATM    6  C6  UNL     1     -32.388   4.878   1.590  1.00 20.00     0.041 C 
HETATM    7  C7  UNL     1     -31.694   6.236   1.399  1.00 20.00     0.014 C 
HETATM    8  C8  UNL     1     -32.749   7.317   1.728  1.00 20.00     0.015 C 
HETATM    9  C9  UNL     1     -32.116   8.612   2.212  1.00 20.00     0.015 C 
HETATM   10  N10 UNL     1     -34.973   4.832   4.392  1.00 20.00    -0.273 NA
ENDROOT
TORSDOF 0
ENDMDL
MODEL 4
REMARK VINA RESULT:       0.8      0.851      2.439
REMARK  0 active torsions:
REMARK  status: ('A' for Active; 'I' for Inactive)
ROOT
HETATM    1  C1  UNL     1     -32.303   7.907   2.274  1.00 20.00     0.027 A 
HETATM    2  C2  UNL     1     -31.607   7.289   1.244  1.00 20.00     0.116 A 
HETATM    3  C3  UNL     1     -32.618   5.242   1.608  1.00 20.00     0.123 A 
HETATM    4  C4  UNL     1     -33.200   7.118   2.969  1.00 20.00    -0.045 A 
HETATM    5  C5  UNL     1     -33.361   5.772   2.637  1.00 20.00    -0.034 A 
HETATM    6  C6  UNL     1     -34.338   5.098   3.540  1.00 20.00     0.041 C 
HETATM    7  C7  UNL     1     -35.080   6.312   4.120  1.00 20.00     0.014 C 
HETATM    8  C8  UNL     1     -34.062   7.474   4.148  1.00 20.00     0.015 C 
HETATM    9  C9  UNL     1     -34.737   8.834   4.068  1.00 20.00     0.015 C 
HETATM   10  N10 UNL     1     -31.739   5.981   0.894  1.00 20.00    -0.273 NA
ENDROOT
TORSDOF 0
ENDMDL
MODEL 5
REMARK VINA RESULT:       0.8      2.010      3.394
REMARK  0 active torsions:
REMARK  status: ('A' for Active; 'I' for Inactive)
ROOT
HETATM    1  C1  UNL     1     -33.195   4.799   3.181  1.00 20.00     0.027 A 
HETATM    2  C2  UNL     1     -34.166   4.095   3.881  1.00 20.00     0.116 A 
HETATM    3  C3  UNL     1     -35.317   6.010   4.476  1.00 20.00     0.123 A 
HETATM    4  C4  UNL     1     -33.339   6.173   3.144  1.00 20.00    -0.045 A 
HETATM    5  C5  UNL     1     -34.409   6.788   3.796  1.00 20.00    -0.034 A 
HETATM    6  C6  UNL     1     -34.348   8.273   3.668  1.00 20.00     0.041 C 
HETATM    7  C7  UNL     1     -33.398   8.421   2.469  1.00 20.00     0.014 C 
HETATM    8  C8  UNL     1     -32.446   7.205   2.514  1.00 20.00     0.015 C 
HETATM    9  C9  UNL     1     -31.908   6.842   1.139  1.00 20.00     0.015 C 
HETATM   10  N10 UNL     1     -35.220   4.662   4.527  1.00 20.00    -0.273 NA
ENDROOT
TORSDOF 0
ENDMDL
MODEL 6
REMARK VINA RESULT:       1.3      1.300      2.784
REMARK  0 active torsions:
REMARK  status: ('A' for Active; 'I' for Inactive)
ROOT
HETATM    1  C1  UNL     1     -33.249   9.170   2.315  1.00 20.00     0.027 A 
HETATM    2  C2  UNL     1     -32.682   9.921   1.295  1.00 20.00     0.116 A 
HETATM    3  C3  UNL     1     -31.644   8.090   0.339  1.00 20.00     0.123 A 
HETATM    4  C4  UNL     1     -32.983   7.814   2.300  1.00 20.00    -0.045 A 
HETATM    5  C5  UNL     1     -32.173   7.265   1.305  1.00 20.00    -0.034 A 
HETATM    6  C6  UNL     1     -31.978   5.799   1.502  1.00 20.00     0.041 C 
HETATM    7  C7  UNL     1     -33.151   5.477   2.441  1.00 20.00     0.014 C 
HETATM    8  C8  UNL     1     -33.407   6.752   3.276  1.00 20.00     0.015 C 
HETATM    9  C9  UNL     1     -34.847   6.850   3.753  1.00 20.00     0.015 C 
HETATM   10  N10 UNL     1     -31.889   9.419   0.310  1.00 20.00    -0.273 NA
ENDROOT
TORSDOF 0
ENDMDL
MODEL 7
REMARK VINA RESULT:       1.7      1.386      2.386
REMARK  0 active torsions:
REMARK  status: ('A' for Active; 'I' for Inactive)
ROOT
HETATM    1  C1  UNL     1     -31.701   7.732   1.837  1.00 20.00     0.027 A 
HETATM    2  C2  UNL     1     -31.363   8.778   2.685  1.00 20.00     0.116 A 
HETATM    3  C3  UNL     1     -32.942   8.185   4.266  1.00 20.00     0.123 A 
HETATM    4  C4  UNL     1     -32.706   6.889   2.272  1.00 20.00    -0.045 A 
HETATM    5  C5  UNL     1     -33.336   7.115   3.497  1.00 20.00    -0.034 A 
HETATM    6  C6  UNL     1     -34.418   6.120   3.749  1.00 20.00     0.041 C 
HETATM    7  C7  UNL     1     -34.025   5.010   2.762  1.00 20.00     0.014 C 
HETATM    8  C8  UNL     1     -33.323   5.708   1.576  1.00 20.00     0.015 C 
HETATM    9  C9  UNL     1     -32.340   4.791   0.866  1.00 20.00     0.015 C 
HETATM   10  N10 UNL     1     -31.954   9.026   3.884  1.00 20.00    -0.273 NA
ENDROOT
TORSDOF 0
ENDMDL
