MODEL 1
REMARK VINA RESULT:      -1.1      0.000      0.000
REMARK  2 active torsions:
REMARK  status: ('A' for Active; 'I' for Inactive)
REMARK    1  A    between atoms: C1_1  and  C8_8 
REMARK    2  A    between atoms: C5_5  and  C8_8 
ROOT
HETATM    1  C2  UNL     1     -33.295   5.680   1.864  1.00 20.00     0.003 C 
HETATM    2  C3  UNL     1     -31.878   6.254   1.834  1.00 20.00     0.007 C 
HETATM    3  C4  UNL     1     -34.017   6.038   3.161  1.00 20.00     0.034 C 
HETATM    4  C5  UNL     1     -31.867   7.793   1.871  1.00 20.00     0.023 C 
HETATM    5  C6  UNL     1     -33.880   7.484   3.515  1.00 20.00     0.151 A 
HETATM    6  C7  UNL     1     -32.802   8.346   2.911  1.00 20.00     0.155 A 
HETATM    7  O10 UNL     1     -32.661   7.784   4.219  1.00 20.00    -0.375 OA
ENDROOT
BRANCH   4   8
HETATM    8  C8  UNL     1     -32.210   8.381   0.499  1.00 20.00     0.076 C 
BRANCH   8   9
HETATM    9  C1  UNL     1     -32.441   9.866   0.556  1.00 20.00     0.231 C 
HETATM   10  O9  UNL     1     -32.871  10.550  -0.368  1.00 20.00    -0.307 OA
ENDBRANCH   8   9
ENDBRANCH   4   8
TORSDOF 2
ENDMDL
MODEL 2
REMARK VINA RESULT:      -0.4      2.107      4.505
REMARK  2 active torsions:
REMARK  status: ('A' for Active; 'I' for Inactive)
REMARK    1  A    between atoms: C1_1  and  C8_8 
REMARK    2  A    between atoms: C5_5  and  C8_8 
ROOT
HETATM    1  C2  UNL     1     -31.990   6.967   1.719  1.00 20.00     0.003 C 
HETATM    2  C3  UNL     1     -33.219   6.108   1.421  1.00 20.00     0.007 C 
HETATM    3  C4  UNL     1     -32.348   8.179   2.577  1.00 20.00     0.034 C 
HETATM    4  C5  UNL     1     -33.841   5.510   2.696  1.00 20.00     0.023 C 
HETATM    5  C6  UNL     1     -33.206   7.821   3.748  1.00 20.00     0.151 A 
HETATM    6  C7  UNL     1     -33.973   6.525   3.797  1.00 20.00     0.155 A 
HETATM    7  O10 UNL     1     -34.608   7.752   3.425  1.00 20.00    -0.375 OA
ENDROOT
BRANCH   4   8
HETATM    8  C8  UNL     1     -33.032   4.307   3.192  1.00 20.00     0.076 C 
BRANCH   8   9
HETATM    9  C1  UNL     1     -33.694   3.614   4.352  1.00 20.00     0.231 C 
HETATM   10  O9  UNL     1     -33.149   2.804   5.095  1.00 20.00    -0.307 OA
ENDBRANCH   8   9
ENDBRANCH   4   8
TORSDOF 2
ENDMDL
MODEL 3
REMARK VINA RESULT:      -0.2      1.731      3.944
REMARK  2 active torsions:
REMARK  status: ('A' for Active; 'I' for Inactive)
REMARK    1  A    between atoms: C1_1  and  C8_8 
REMARK    2  A    between atoms: C5_5  and  C8_8 
ROOT
HETATM    1  C2  UNL     1     -32.710   5.483   1.624  1.00 20.00     0.003 C 
HETATM    2  C3  UNL     1     -33.993   6.314   1.644  1.00 20.00     0.007 C 
HETATM    3  C4  UNL     1     -31.510   6.315   1.176  1.00 20.00     0.034 C 
HETATM    4  C5  UNL     1     -33.926   7.472   2.657  1.00 20.00     0.023 C 
HETATM    5  C6  UNL     1     -31.433   7.635   1.875  1.00 20.00     0.151 A 
HETATM    6  C7  UNL     1     -32.628   8.228   2.575  1.00 20.00     0.155 A 
HETATM    7  O10 UNL     1     -32.250   8.651   1.262  1.00 20.00    -0.375 OA
ENDROOT
BRANCH   4   8
HETATM    8  C8  UNL     1     -34.145   6.968   4.087  1.00 20.00     0.076 C 
BRANCH   8   9
HETATM    9  C1  UNL     1     -35.332   6.049   4.193  1.00 20.00     0.231 C 
HETATM   10  O9  UNL     1     -35.284   4.871   4.529  1.00 20.00    -0.307 OA
ENDBRANCH   8   9
ENDBRANCH   4   8
TORSDOF 2
ENDMDL
MODEL 4
REMARK VINA RESULT:      -0.2      2.275      4.310
REMARK  2 active torsions:
REMARK  status: ('A' for Active; 'I' for Inactive)
REMARK    1  A    between atoms: C1_1  and  C8_8 
REMARK    2  A    between atoms: C5_5  and  C8_8 
ROOT
HETATM    1  C2  UNL     1     -32.535   8.663   2.222  1.00 20.00     0.003 C 
HETATM    2  C3  UNL     1     -32.504   7.792   3.479  1.00 20.00     0.007 C 
HETATM    3  C4  UNL     1     -31.920   7.942   1.025  1.00 20.00     0.034 C 
HETATM    4  C5  UNL     1     -33.344   6.511   3.326  1.00 20.00     0.023 C 
HETATM    5  C6  UNL     1     -32.426   6.542   0.874  1.00 20.00     0.151 A 
HETATM    6  C7  UNL     1     -33.095   5.819   2.014  1.00 20.00     0.155 A 
HETATM    7  O10 UNL     1     -31.720   5.591   1.693  1.00 20.00    -0.375 OA
ENDROOT
BRANCH   4   8
HETATM    8  C8  UNL     1     -34.838   6.808   3.483  1.00 20.00     0.076 C 
BRANCH   8   9
HETATM    9  C1  UNL     1     -35.537   5.783   4.335  1.00 20.00     0.231 C 
HETATM   10  O9  UNL     1     -35.151   4.633   4.516  1.00 20.00    -0.307 OA
ENDBRANCH   8   9
ENDBRANCH   4   8
TORSDOF 2
ENDMDL
MODEL 5
REMARK VINA RESULT:       1.0      2.772      3.289
REMARK  2 active torsions:
REMARK  status: ('A' for Active; 'I' for Inactive)
REMARK    1  A    between atoms: C1_1  and  C8_8 
REMARK    2  A    between atoms: C5_5  and  C8_8 
ROOT
HETATM    1  C2  UNL     1     -34.304   4.244   3.915  1.00 20.00     0.003 C 
HETATM    2  C3  UNL     1     -32.951   4.940   3.762  1.00 20.00     0.007 C 
HETATM    3  C4  UNL     1     -35.343   5.172   4.541  1.00 20.00     0.034 C 
HETATM    4  C5  UNL     1     -33.015   6.147   2.809  1.00 20.00     0.023 C 
HETATM    5  C6  UNL     1     -35.361   6.526   3.906  1.00 20.00     0.151 A 
HETATM    6  C7  UNL     1     -34.204   7.027   3.083  1.00 20.00     0.155 A 
HETATM    7  O10 UNL     1     -34.371   7.421   4.448  1.00 20.00    -0.375 OA
ENDROOT
BRANCH   4   8
HETATM    8  C8  UNL     1     -33.028   5.696   1.346  1.00 20.00     0.076 C 
BRANCH   8   9
HETATM    9  C1  UNL     1     -31.753   5.001   0.952  1.00 20.00     0.231 C 
HETATM   10  O9  UNL     1     -31.640   4.202   0.028  1.00 20.00    -0.307 OA
ENDBRANCH   8   9
ENDBRANCH   4   8
TORSDOF 2
ENDMDL
MODEL 6
REMARK VINA RESULT:       1.0      2.454      3.442
REMARK  2 active torsions:
REMARK  status: ('A' for Active; 'I' for Inactive)
REMARK    1  A    between atoms: C1_1  and  C8_8 
REMARK    2  A    between atoms: C5_5  and  C8_8 
ROOT
HETATM    1  C2  UNL     1     -34.363   6.269   3.516  1.00 20.00     0.003 C 
HETATM    2  C3  UNL     1     -33.259   5.368   2.962  1.00 20.00     0.007 C 
HETATM    3  C4  UNL     1     -33.843   7.674   3.812  1.00 20.00     0.034 C 
HETATM    4  C5  UNL     1     -32.714   5.871   1.612  1.00 20.00     0.023 C 
HETATM    5  C6  UNL     1     -33.032   8.235   2.688  1.00 20.00     0.151 A 
HETATM    6  C7  UNL     1     -32.442   7.349   1.622  1.00 20.00     0.155 A 
HETATM    7  O10 UNL     1     -31.653   7.819   2.719  1.00 20.00    -0.375 OA
ENDROOT
BRANCH   4   8
HETATM    8  C8  UNL     1     -33.670   5.524   0.467  1.00 20.00     0.076 C 
BRANCH   8   9
HETATM    9  C1  UNL     1     -33.334   4.207  -0.178  1.00 20.00     0.231 C 
HETATM   10  O9  UNL     1     -34.108   3.532  -0.849  1.00 20.00    -0.307 OA
ENDBRANCH   8   9
ENDBRANCH   4   8
TORSDOF 2
ENDMDL
MODEL 7
REMARK VINA RESULT:       1.1      2.296      3.408
REMARK  2 active torsions:
REMARK  status: ('A' for Active; 'I' for Inactive)
REMARK    1  A    between atoms: C1_1  and  C8_8 
REMARK    2  A    between atoms: C5_5  and  C8_8 
ROOT
HETATM    1  C2  UNL     1     -32.321   8.260   3.454  1.00 20.00     0.003 C 
HETATM    2  C3  UNL     1     -32.750   7.937   2.022  1.00 20.00     0.007 C 
HETATM    3  C4  UNL     1     -33.476   8.085   4.438  1.00 20.00     0.034 C 
HETATM    4  C5  UNL     1     -33.181   6.468   1.856  1.00 20.00     0.023 C 
HETATM    5  C6  UNL     1     -34.209   6.796   4.240  1.00 20.00     0.151 A 
HETATM    6  C7  UNL     1     -34.097   6.014   2.958  1.00 20.00     0.155 A 
HETATM    7  O10 UNL     1     -35.216   6.867   3.213  1.00 20.00    -0.375 OA
ENDROOT
BRANCH   4   8
HETATM    8  C8  UNL     1     -31.964   5.542   1.776  1.00 20.00     0.076 C 
BRANCH   8   9
HETATM    9  C1  UNL     1     -32.003   4.652   0.563  1.00 20.00     0.231 C 
HETATM   10  O9  UNL     1     -33.021   4.313  -0.032  1.00 20.00    -0.307 OA
ENDBRANCH   8   9
ENDBRANCH   4   8
TORSDOF 2
ENDMDL
MODEL 8
REMARK VINA RESULT:       1.2      1.594      2.352
REMARK  2 active torsions:
REMARK  status: ('A' for Active; 'I' for Inactive)
REMARK    1  A    between atoms: C1_1  and  C8_8 
REMARK    2  A    between atoms: C5_5  and  C8_8 
ROOT
HETATM    1  C2  UNL     1     -34.230   7.057   4.082  1.00 20.00     0.003 C 
HETATM    2  C3  UNL     1     -34.325   7.631   2.668  1.00 20.00     0.007 C 
HETATM    3  C4  UNL     1     -34.215   5.529   4.066  1.00 20.00     0.034 C 
HETATM    4  C5  UNL     1     -33.105   7.265   1.803  1.00 20.00     0.023 C 
HETATM    5  C6  UNL     1     -33.259   4.974   3.059  1.00 20.00     0.151 A 
HETATM    6  C7  UNL     1     -32.737   5.812   1.921  1.00 20.00     0.155 A 
HETATM    7  O10 UNL     1     -33.815   4.891   1.733  1.00 20.00    -0.375 OA
ENDROOT
BRANCH   4   8
HETATM    8  C8  UNL     1     -31.897   8.139   2.154  1.00 20.00     0.076 C 
BRANCH   8   9
HETATM    9  C1  UNL     1     -31.582   9.138   1.073  1.00 20.00     0.231 C 
HETATM   10  O9  UNL     1     -32.409   9.660   0.332  1.00 20.00    -0.307 OA
ENDBRANCH   8   9
ENDBRANCH   4   8
TORSDOF 2
ENDMDL
MODEL 9
REMARK VINA RESULT:       1.2      2.515      3.504
REMARK  2 active torsions:
REMARK  status: ('A' for Active; 'I' for Inactive)
REMARK    1  A    between atoms: C1_1  and  C8_8 
REMARK    2  A    between atoms: C5_5  and  C8_8 
ROOT
HETATM    1  C2  UNL     1     -34.993   4.971   4.605  1.00 20.00     0.003 C 
HETATM    2  C3  UNL     1     -35.499   6.182   3.820  1.00 20.00     0.007 C 
HETATM    3  C4  UNL     1     -34.038   4.121   3.770  1.00 20.00     0.034 C 
HETATM    4  C5  UNL     1     -34.362   7.146   3.431  1.00 20.00     0.023 C 
HETATM    5  C6  UNL     1     -32.999   4.940   3.072  1.00 20.00     0.151 A 
HETATM    6  C7  UNL     1     -33.169   6.423   2.870  1.00 20.00     0.155 A 
HETATM    7  O10 UNL     1     -33.454   5.492   1.823  1.00 20.00    -0.375 OA
ENDROOT
BRANCH   4   8
HETATM    8  C8  UNL     1     -33.936   8.007   4.623  1.00 20.00     0.076 C 
BRANCH   8   9
HETATM    9  C1  UNL     1     -32.470   8.343   4.589  1.00 20.00     0.231 C 
HETATM   10  O9  UNL     1     -31.862   8.753   3.606  1.00 20.00    -0.307 OA
ENDBRANCH   8   9
ENDBRANCH   4   8
TORSDOF 2
ENDMDL
