MODEL 1
REMARK VINA RESULT:      -0.6      0.000      0.000
REMARK  1 active torsions:
REMARK  status: ('A' for Active; 'I' for Inactive)
REMARK    1  A    between atoms: C4_4  and  C6_6 
ROOT
HETATM    1  C1  UNL     1     -33.945   7.702   4.115  1.00 20.00     0.280 C 
HETATM    2  C2  UNL     1     -34.769   6.450   3.846  1.00 20.00     0.104 C 
HETATM    3  C3  UNL     1     -32.986   6.053   1.809  1.00 20.00     0.109 C 
HETATM    4  C4  UNL     1     -32.351   7.356   2.306  1.00 20.00     0.229 C 
HETATM    5  N7  UNL     1     -33.345   8.258   2.901  1.00 20.00     0.089 N 
HETATM    6  S8  UNL     1     -33.746   5.115   3.166  1.00 20.00    -0.165 SA
HETATM    7  H21 UNL     1     -34.078   8.454   2.220  1.00 20.00     0.316 HD
ENDROOT
BRANCH   4   8
HETATM    8  C6  UNL     1     -31.683   8.081   1.135  1.00 20.00     0.032 C 
HETATM    9  C5  UNL     1     -32.425   9.321   0.762  1.00 20.00     0.007 C 
ENDBRANCH   4   8
TORSDOF 1
ENDMDL
MODEL 2
REMARK VINA RESULT:      -0.5      1.452      2.007
REMARK  1 active torsions:
REMARK  status: ('A' for Active; 'I' for Inactive)
REMARK    1  A    between atoms: C4_4  and  C6_6 
ROOT
HETATM    1  C1  UNL     1     -33.172   5.310   1.777  1.00 20.00     0.280 C 
HETATM    2  C2  UNL     1     -33.598   5.219   3.237  1.00 20.00     0.104 C 
HETATM    3  C3  UNL     1     -33.179   7.924   3.235  1.00 20.00     0.109 C 
HETATM    4  C4  UNL     1     -32.800   7.717   1.766  1.00 20.00     0.229 C 
HETATM    5  N7  UNL     1     -32.216   6.390   1.530  1.00 20.00     0.089 N 
HETATM    6  S8  UNL     1     -34.439   6.733   3.778  1.00 20.00    -0.165 SA
HETATM    7  H21 UNL     1     -31.402   6.265   2.132  1.00 20.00     0.316 HD
ENDROOT
BRANCH   4   8
HETATM    8  C6  UNL     1     -31.775   8.775   1.346  1.00 20.00     0.032 C 
HETATM    9  C5  UNL     1     -32.340   9.714   0.333  1.00 20.00     0.007 C 
ENDBRANCH   4   8
TORSDOF 1
ENDMDL
MODEL 3
REMARK VINA RESULT:      -0.3      1.431      3.514
REMARK  1 active torsions:
REMARK  status: ('A' for Active; 'I' for Inactive)
REMARK    1  A    between atoms: C4_4  and  C6_6 
ROOT
HETATM    1  C1  UNL     1     -32.548   8.341   2.393  1.00 20.00     0.280 C 
HETATM    2  C2  UNL     1     -31.560   7.342   1.803  1.00 20.00     0.104 C 
HETATM    3  C3  UNL     1     -33.433   5.485   2.532  1.00 20.00     0.109 C 
HETATM    4  C4  UNL     1     -34.221   6.695   3.043  1.00 20.00     0.229 C 
HETATM    5  N7  UNL     1     -33.337   7.778   3.490  1.00 20.00     0.089 N 
HETATM    6  S8  UNL     1     -32.413   5.908   1.090  1.00 20.00    -0.165 SA
HETATM    7  H21 UNL     1     -32.709   7.428   4.214  1.00 20.00     0.316 HD
ENDROOT
BRANCH   4   8
HETATM    8  C6  UNL     1     -35.101   6.274   4.224  1.00 20.00     0.032 C 
HETATM    9  C5  UNL     1     -34.981   4.813   4.504  1.00 20.00     0.007 C 
ENDBRANCH   4   8
TORSDOF 1
ENDMDL
MODEL 4
REMARK VINA RESULT:      -0.0      1.833      3.967
REMARK  1 active torsions:
REMARK  status: ('A' for Active; 'I' for Inactive)
REMARK    1  A    between atoms: C4_4  and  C6_6 
ROOT
HETATM    1  C1  UNL     1     -32.261   6.259   1.613  1.00 20.00     0.280 C 
HETATM    2  C2  UNL     1     -31.871   7.727   1.496  1.00 20.00     0.104 C 
HETATM    3  C3  UNL     1     -33.597   8.061   3.593  1.00 20.00     0.109 C 
HETATM    4  C4  UNL     1     -33.796   6.546   3.480  1.00 20.00     0.229 C 
HETATM    5  N7  UNL     1     -33.627   6.070   2.102  1.00 20.00     0.089 N 
HETATM    6  S8  UNL     1     -31.918   8.555   3.110  1.00 20.00    -0.165 SA
HETATM    7  H21 UNL     1     -34.277   6.564   1.489  1.00 20.00     0.316 HD
ENDROOT
BRANCH   4   8
HETATM    8  C6  UNL     1     -35.208   6.177   3.947  1.00 20.00     0.032 C 
HETATM    9  C5  UNL     1     -35.234   4.843   4.614  1.00 20.00     0.007 C 
ENDBRANCH   4   8
TORSDOF 1
ENDMDL
MODEL 5
REMARK VINA RESULT:      -0.0      2.147      4.017
REMARK  1 active torsions:
REMARK  status: ('A' for Active; 'I' for Inactive)
REMARK    1  A    between atoms: C4_4  and  C6_6 
ROOT
HETATM    1  C1  UNL     1     -31.996   6.525   1.413  1.00 20.00     0.280 C 
HETATM    2  C2  UNL     1     -32.257   8.021   1.532  1.00 20.00     0.104 C 
HETATM    3  C3  UNL     1     -33.783   7.298   3.686  1.00 20.00     0.109 C 
HETATM    4  C4  UNL     1     -33.350   5.873   3.329  1.00 20.00     0.229 C 
HETATM    5  N7  UNL     1     -33.118   5.713   1.888  1.00 20.00     0.089 N 
HETATM    6  S8  UNL     1     -32.504   8.515   3.261  1.00 20.00    -0.165 SA
HETATM    7  H21 UNL     1     -33.962   5.970   1.377  1.00 20.00     0.316 HD
ENDROOT
BRANCH   4   8
HETATM    8  C6  UNL     1     -34.440   4.883   3.753  1.00 20.00     0.032 C 
HETATM    9  C5  UNL     1     -33.857   3.655   4.367  1.00 20.00     0.007 C 
ENDBRANCH   4   8
TORSDOF 1
ENDMDL
MODEL 6
REMARK VINA RESULT:       0.6      2.735      4.189
REMARK  1 active torsions:
REMARK  status: ('A' for Active; 'I' for Inactive)
REMARK    1  A    between atoms: C4_4  and  C6_6 
ROOT
HETATM    1  C1  UNL     1     -35.369   6.202   4.070  1.00 20.00     0.280 C 
HETATM    2  C2  UNL     1     -34.325   7.240   3.677  1.00 20.00     0.104 C 
HETATM    3  C3  UNL     1     -32.779   5.057   3.100  1.00 20.00     0.109 C 
HETATM    4  C4  UNL     1     -34.001   4.254   3.557  1.00 20.00     0.229 C 
HETATM    5  N7  UNL     1     -34.775   4.965   4.581  1.00 20.00     0.089 N 
HETATM    6  S8  UNL     1     -33.259   6.635   2.339  1.00 20.00    -0.165 SA
HETATM    7  H21 UNL     1     -34.172   5.183   5.374  1.00 20.00     0.316 HD
ENDROOT
BRANCH   4   8
HETATM    8  C6  UNL     1     -33.544   2.914   4.143  1.00 20.00     0.032 C 
HETATM    9  C5  UNL     1     -32.789   3.101   5.416  1.00 20.00     0.007 C 
ENDBRANCH   4   8
TORSDOF 1
ENDMDL
MODEL 7
REMARK VINA RESULT:       0.6      2.046      3.719
REMARK  1 active torsions:
REMARK  status: ('A' for Active; 'I' for Inactive)
REMARK    1  A    between atoms: C4_4  and  C6_6 
ROOT
HETATM    1  C1  UNL     1     -32.252   5.600   1.840  1.00 20.00     0.280 C 
HETATM    2  C2  UNL     1     -31.931   6.674   0.808  1.00 20.00     0.104 C 
HETATM    3  C3  UNL     1     -33.132   8.358   2.599  1.00 20.00     0.109 C 
HETATM    4  C4  UNL     1     -33.320   7.092   3.441  1.00 20.00     0.229 C 
HETATM    5  N7  UNL     1     -33.464   5.893   2.606  1.00 20.00     0.089 N 
HETATM    6  S8  UNL     1     -31.621   8.279   1.595  1.00 20.00    -0.165 SA
HETATM    7  H21 UNL     1     -34.248   6.017   1.965  1.00 20.00     0.316 HD
ENDROOT
BRANCH   4   8
HETATM    8  C6  UNL     1     -34.578   7.231   4.304  1.00 20.00     0.032 C 
HETATM    9  C5  UNL     1     -35.543   6.122   4.049  1.00 20.00     0.007 C 
ENDBRANCH   4   8
TORSDOF 1
ENDMDL
MODEL 8
REMARK VINA RESULT:       0.7      1.287      3.135
REMARK  1 active torsions:
REMARK  status: ('A' for Active; 'I' for Inactive)
REMARK    1  A    between atoms: C4_4  and  C6_6 
ROOT
HETATM    1  C1  UNL     1     -31.978   7.939   1.559  1.00 20.00     0.280 C 
HETATM    2  C2  UNL     1     -31.518   6.534   1.194  1.00 20.00     0.104 C 
HETATM    3  C3  UNL     1     -33.550   5.742   2.846  1.00 20.00     0.109 C 
HETATM    4  C4  UNL     1     -33.790   7.244   3.029  1.00 20.00     0.229 C 
HETATM    5  N7  UNL     1     -32.549   8.018   2.905  1.00 20.00     0.089 N 
HETATM    6  S8  UNL     1     -32.903   5.362   1.192  1.00 20.00    -0.165 SA
HETATM    7  H21 UNL     1     -31.866   7.679   3.582  1.00 20.00     0.316 HD
ENDROOT
BRANCH   4   8
HETATM    8  C6  UNL     1     -34.382   7.504   4.418  1.00 20.00     0.032 C 
HETATM    9  C5  UNL     1     -33.423   8.240   5.293  1.00 20.00     0.007 C 
ENDBRANCH   4   8
TORSDOF 1
ENDMDL
MODEL 9
REMARK VINA RESULT:       1.0      1.444      1.839
REMARK  1 active torsions:
REMARK  status: ('A' for Active; 'I' for Inactive)
REMARK    1  A    between atoms: C4_4  and  C6_6 
ROOT
HETATM    1  C1  UNL     1     -34.337   7.450   4.152  1.00 20.00     0.280 C 
HETATM    2  C2  UNL     1     -35.318   6.292   4.289  1.00 20.00     0.104 C 
HETATM    3  C3  UNL     1     -33.587   4.995   2.613  1.00 20.00     0.109 C 
HETATM    4  C4  UNL     1     -32.790   6.302   2.662  1.00 20.00     0.229 C 
HETATM    5  N7  UNL     1     -33.659   7.470   2.854  1.00 20.00     0.089 N 
HETATM    6  S8  UNL     1     -34.474   4.690   4.168  1.00 20.00    -0.165 SA
HETATM    7  H21 UNL     1     -34.356   7.502   2.110  1.00 20.00     0.316 HD
ENDROOT
BRANCH   4   8
HETATM    8  C6  UNL     1     -32.022   6.486   1.349  1.00 20.00     0.032 C 
HETATM    9  C5  UNL     1     -31.756   5.178   0.682  1.00 20.00     0.007 C 
ENDBRANCH   4   8
TORSDOF 1
ENDMDL
