MODEL 1
REMARK VINA RESULT:       5.5      0.000      0.000
REMARK  0 active torsions:
REMARK  status: ('A' for Active; 'I' for Inactive)
ROOT
HETATM    1  C1  UNL     1     -35.040   5.666   3.961  1.00 20.00     0.147 C 
HETATM    2  C2  UNL     1     -35.683   6.870   3.299  1.00 20.00     0.085 C 
HETATM    3  C3  UNL     1     -33.695   8.145   4.116  1.00 20.00     0.008 C 
HETATM    4  C4  UNL     1     -33.119   6.873   4.781  1.00 20.00     0.030 C 
HETATM    5  C5  UNL     1     -34.388   7.594   2.841  1.00 20.00     0.002 C 
HETATM    6  C6  UNL     1     -33.532   5.776   3.791  1.00 20.00     0.086 C 
HETATM    7  C7  UNL     1     -33.442   6.439   2.401  1.00 20.00    -0.019 C 
HETATM    8  C8  UNL     1     -33.989   5.598   1.228  1.00 20.00     0.017 C 
HETATM    9  C9  UNL     1     -32.038   6.919   1.986  1.00 20.00     0.017 C 
HETATM   10  O10 UNL     1     -35.653   4.792   4.550  1.00 20.00    -0.296 OA
HETATM   11 BR11 UNL     1     -32.650   4.117   4.026  1.00 20.00    -0.076 Br
ENDROOT
TORSDOF 0
ENDMDL
MODEL 2
REMARK VINA RESULT:       5.9      2.061      3.268
REMARK  0 active torsions:
REMARK  status: ('A' for Active; 'I' for Inactive)
ROOT
HETATM    1  C1  UNL     1     -32.922   5.361   2.848  1.00 20.00     0.147 C 
HETATM    2  C2  UNL     1     -31.844   5.048   1.827  1.00 20.00     0.085 C 
HETATM    3  C3  UNL     1     -33.400   6.061   0.154  1.00 20.00     0.008 C 
HETATM    4  C4  UNL     1     -34.454   6.326   1.254  1.00 20.00     0.030 C 
HETATM    5  C5  UNL     1     -32.053   6.273   0.897  1.00 20.00     0.002 C 
HETATM    6  C6  UNL     1     -33.577   6.678   2.462  1.00 20.00     0.086 C 
HETATM    7  C7  UNL     1     -32.373   7.442   1.874  1.00 20.00    -0.019 C 
HETATM    8  C8  UNL     1     -31.234   7.754   2.867  1.00 20.00     0.017 C 
HETATM    9  C9  UNL     1     -32.713   8.765   1.158  1.00 20.00     0.017 C 
HETATM   10  O10 UNL     1     -33.212   4.641   3.789  1.00 20.00    -0.296 OA
HETATM   11 BR11 UNL     1     -34.499   7.484   3.908  1.00 20.00    -0.076 Br
ENDROOT
TORSDOF 0
ENDMDL
MODEL 3
REMARK VINA RESULT:       6.4      2.599      3.676
REMARK  0 active torsions:
REMARK  status: ('A' for Active; 'I' for Inactive)
ROOT
HETATM    1  C1  UNL     1     -32.866   7.947   1.172  1.00 20.00     0.147 C 
HETATM    2  C2  UNL     1     -33.614   6.950   0.307  1.00 20.00     0.085 C 
HETATM    3  C3  UNL     1     -32.001   5.259   1.194  1.00 20.00     0.008 C 
HETATM    4  C4  UNL     1     -31.283   6.343   2.029  1.00 20.00     0.030 C 
HETATM    5  C5  UNL     1     -33.486   5.710   1.232  1.00 20.00     0.002 C 
HETATM    6  C6  UNL     1     -32.447   7.247   2.455  1.00 20.00     0.086 C 
HETATM    7  C7  UNL     1     -33.637   6.290   2.669  1.00 20.00    -0.019 C 
HETATM    8  C8  UNL     1     -34.999   6.971   2.926  1.00 20.00     0.017 C 
HETATM    9  C9  UNL     1     -33.451   5.237   3.779  1.00 20.00     0.017 C 
HETATM   10  O10 UNL     1     -32.630   9.100   0.850  1.00 20.00    -0.296 OA
HETATM   11 BR11 UNL     1     -32.043   8.463   3.850  1.00 20.00    -0.076 Br
ENDROOT
TORSDOF 0
ENDMDL
MODEL 4
REMARK VINA RESULT:       6.7      2.781      3.430
REMARK  0 active torsions:
REMARK  status: ('A' for Active; 'I' for Inactive)
ROOT
HETATM    1  C1  UNL     1     -33.335   9.017   1.843  1.00 20.00     0.147 C 
HETATM    2  C2  UNL     1     -32.453   9.137   0.614  1.00 20.00     0.085 C 
HETATM    3  C3  UNL     1     -30.642   8.191   2.053  1.00 20.00     0.008 C 
HETATM    4  C4  UNL     1     -31.603   8.121   3.262  1.00 20.00     0.030 C 
HETATM    5  C5  UNL     1     -31.570   7.882   0.847  1.00 20.00     0.002 C 
HETATM    6  C6  UNL     1     -32.936   7.757   2.596  1.00 20.00     0.086 C 
HETATM    7  C7  UNL     1     -32.556   6.826   1.426  1.00 20.00    -0.019 C 
HETATM    8  C8  UNL     1     -33.709   6.457   0.469  1.00 20.00     0.017 C 
HETATM    9  C9  UNL     1     -31.872   5.503   1.827  1.00 20.00     0.017 C 
HETATM   10  O10 UNL     1     -34.189   9.828   2.163  1.00 20.00    -0.296 OA
HETATM   11 BR11 UNL     1     -34.284   7.160   3.784  1.00 20.00    -0.076 Br
ENDROOT
TORSDOF 0
ENDMDL
MODEL 5
REMARK VINA RESULT:       6.9      2.571      3.391
REMARK  0 active torsions:
REMARK  status: ('A' for Active; 'I' for Inactive)
ROOT
HETATM    1  C1  UNL     1     -32.720   7.882   1.612  1.00 20.00     0.147 C 
HETATM    2  C2  UNL     1     -31.985   8.082   2.924  1.00 20.00     0.085 C 
HETATM    3  C3  UNL     1     -34.150   7.472   4.012  1.00 20.00     0.008 C 
HETATM    4  C4  UNL     1     -34.829   7.309   2.633  1.00 20.00     0.030 C 
HETATM    5  C5  UNL     1     -32.700   6.982   3.753  1.00 20.00     0.002 C 
HETATM    6  C6  UNL     1     -33.694   6.726   1.782  1.00 20.00     0.086 C 
HETATM    7  C7  UNL     1     -32.902   5.815   2.742  1.00 20.00    -0.019 C 
HETATM    8  C8  UNL     1     -31.583   5.243   2.179  1.00 20.00     0.017 C 
HETATM    9  C9  UNL     1     -33.688   4.625   3.327  1.00 20.00     0.017 C 
HETATM   10  O10 UNL     1     -32.558   8.570   0.617  1.00 20.00    -0.296 OA
HETATM   11 BR11 UNL     1     -34.239   5.984   0.126  1.00 20.00    -0.076 Br
ENDROOT
TORSDOF 0
ENDMDL
MODEL 6
REMARK VINA RESULT:       7.1      1.860      3.364
REMARK  0 active torsions:
REMARK  status: ('A' for Active; 'I' for Inactive)
ROOT
HETATM    1  C1  UNL     1     -31.776   5.733   2.098  1.00 20.00     0.147 C 
HETATM    2  C2  UNL     1     -31.671   7.147   1.555  1.00 20.00     0.085 C 
HETATM    3  C3  UNL     1     -33.907   6.715   0.526  1.00 20.00     0.008 C 
HETATM    4  C4  UNL     1     -33.924   5.280   1.100  1.00 20.00     0.030 C 
HETATM    5  C5  UNL     1     -33.174   7.527   1.627  1.00 20.00     0.002 C 
HETATM    6  C6  UNL     1     -33.230   5.466   2.455  1.00 20.00     0.086 C 
HETATM    7  C7  UNL     1     -33.673   6.860   2.942  1.00 20.00    -0.019 C 
HETATM    8  C8  UNL     1     -32.963   7.377   4.212  1.00 20.00     0.017 C 
HETATM    9  C9  UNL     1     -35.186   7.030   3.181  1.00 20.00     0.017 C 
HETATM   10  O10 UNL     1     -30.839   4.957   2.189  1.00 20.00    -0.296 OA
HETATM   11 BR11 UNL     1     -33.429   4.017   3.658  1.00 20.00    -0.076 Br
ENDROOT
TORSDOF 0
ENDMDL
MODEL 7
REMARK VINA RESULT:       7.1      2.581      3.328
REMARK  0 active torsions:
REMARK  status: ('A' for Active; 'I' for Inactive)
ROOT
HETATM    1  C1  UNL     1     -32.399   7.902   3.568  1.00 20.00     0.147 C 
HETATM    2  C2  UNL     1     -32.790   6.672   4.367  1.00 20.00     0.085 C 
HETATM    3  C3  UNL     1     -35.040   6.934   3.313  1.00 20.00     0.008 C 
HETATM    4  C4  UNL     1     -34.566   8.193   2.550  1.00 20.00     0.030 C 
HETATM    5  C5  UNL     1     -33.771   6.041   3.343  1.00 20.00     0.002 C 
HETATM    6  C6  UNL     1     -33.109   7.843   2.224  1.00 20.00     0.086 C 
HETATM    7  C7  UNL     1     -33.112   6.323   1.961  1.00 20.00    -0.019 C 
HETATM    8  C8  UNL     1     -31.722   5.675   1.789  1.00 20.00     0.017 C 
HETATM    9  C9  UNL     1     -33.969   5.859   0.767  1.00 20.00     0.017 C 
HETATM   10  O10 UNL     1     -31.664   8.786   3.976  1.00 20.00    -0.296 OA
HETATM   11 BR11 UNL     1     -32.295   8.952   0.922  1.00 20.00    -0.076 Br
ENDROOT
TORSDOF 0
ENDMDL
MODEL 8
REMARK VINA RESULT:       7.3      1.978      2.868
REMARK  0 active torsions:
REMARK  status: ('A' for Active; 'I' for Inactive)
ROOT
HETATM    1  C1  UNL     1     -34.487   6.401   1.791  1.00 20.00     0.147 C 
HETATM    2  C2  UNL     1     -35.770   6.349   2.599  1.00 20.00     0.085 C 
HETATM    3  C3  UNL     1     -34.410   5.165   4.329  1.00 20.00     0.008 C 
HETATM    4  C4  UNL     1     -33.153   5.243   3.432  1.00 20.00     0.030 C 
HETATM    5  C5  UNL     1     -35.151   6.492   4.014  1.00 20.00     0.002 C 
HETATM    6  C6  UNL     1     -33.326   6.607   2.752  1.00 20.00     0.086 C 
HETATM    7  C7  UNL     1     -33.985   7.505   3.818  1.00 20.00    -0.019 C 
HETATM    8  C8  UNL     1     -34.443   8.895   3.327  1.00 20.00     0.017 C 
HETATM    9  C9  UNL     1     -33.153   7.737   5.095  1.00 20.00     0.017 C 
HETATM   10  O10 UNL     1     -34.427   6.266   0.580  1.00 20.00    -0.296 OA
HETATM   11 BR11 UNL     1     -31.776   7.270   1.889  1.00 20.00    -0.076 Br
ENDROOT
TORSDOF 0
ENDMDL
MODEL 9
REMARK VINA RESULT:       7.6      2.254      3.283
REMARK  0 active torsions:
REMARK  status: ('A' for Active; 'I' for Inactive)
ROOT
HETATM    1  C1  UNL     1     -33.395   7.247   2.885  1.00 20.00     0.147 C 
HETATM    2  C2  UNL     1     -32.583   8.291   3.628  1.00 20.00     0.085 C 
HETATM    3  C3  UNL     1     -30.614   7.359   2.403  1.00 20.00     0.008 C 
HETATM    4  C4  UNL     1     -31.512   6.313   1.703  1.00 20.00     0.030 C 
HETATM    5  C5  UNL     1     -31.542   8.599   2.519  1.00 20.00     0.002 C 
HETATM    6  C6  UNL     1     -32.813   7.096   1.488  1.00 20.00     0.086 C 
HETATM    7  C7  UNL     1     -32.365   8.543   1.199  1.00 20.00    -0.019 C 
HETATM    8  C8  UNL     1     -33.499   9.588   1.127  1.00 20.00     0.017 C 
HETATM    9  C9  UNL     1     -31.508   8.732  -0.068  1.00 20.00     0.017 C 
HETATM   10  O10 UNL     1     -34.331   6.628   3.365  1.00 20.00    -0.296 OA
HETATM   11 BR11 UNL     1     -34.030   6.300   0.274  1.00 20.00    -0.076 Br
ENDROOT
TORSDOF 0
ENDMDL
