MODEL 1
REMARK VINA RESULT:       2.8      0.000      0.000
REMARK  1 active torsions:
REMARK  status: ('A' for Active; 'I' for Inactive)
REMARK    1  A    between atoms: C1_1  and  C5_5 
ROOT
HETATM    1  C2  UNL     1     -31.761   8.486   3.275  1.00 20.00     0.022 C 
HETATM    2  C3  UNL     1     -32.629   7.634   4.217  1.00 20.00     0.011 C 
HETATM    3  C4  UNL     1     -34.024   8.531   2.482  1.00 20.00     0.031 C 
HETATM    4  C5  UNL     1     -32.565   8.302   1.985  1.00 20.00     0.057 C 
HETATM    5  C6  UNL     1     -33.715   7.180   3.216  1.00 20.00    -0.035 C 
HETATM    6  C7  UNL     1     -32.966   6.771   1.860  1.00 20.00    -0.023 C 
HETATM    7  C8  UNL     1     -34.830   6.351   3.785  1.00 20.00     0.016 C 
HETATM    8  C9  UNL     1     -31.831   5.741   1.982  1.00 20.00     0.017 C 
HETATM    9  C10 UNL     1     -33.830   6.344   0.657  1.00 20.00     0.017 C 
ENDROOT
BRANCH   4  10
HETATM   10  C1  UNL     1     -32.088   9.027   0.799  1.00 20.00     0.182 C 
HETATM   11  O11 UNL     1     -32.759  10.051   0.487  1.00 20.00    -0.647 OA
HETATM   12  O12 UNL     1     -31.068   8.528   0.247  1.00 20.00    -0.647 OA
ENDBRANCH   4  10
TORSDOF 1
ENDMDL
MODEL 2
REMARK VINA RESULT:       3.1      2.932      4.119
REMARK  1 active torsions:
REMARK  status: ('A' for Active; 'I' for Inactive)
REMARK    1  A    between atoms: C1_1  and  C5_5 
ROOT
HETATM    1  C2  UNL     1     -35.059   7.055   3.436  1.00 20.00     0.022 C 
HETATM    2  C3  UNL     1     -34.278   8.203   2.773  1.00 20.00     0.011 C 
HETATM    3  C4  UNL     1     -32.727   6.782   3.929  1.00 20.00     0.031 C 
HETATM    4  C5  UNL     1     -33.963   5.985   3.415  1.00 20.00     0.057 C 
HETATM    5  C6  UNL     1     -32.928   7.490   2.543  1.00 20.00    -0.035 C 
HETATM    6  C7  UNL     1     -33.257   6.021   1.994  1.00 20.00    -0.023 C 
HETATM    7  C8  UNL     1     -31.832   8.328   1.951  1.00 20.00     0.016 C 
HETATM    8  C9  UNL     1     -34.170   5.934   0.760  1.00 20.00     0.017 C 
HETATM    9  C10 UNL     1     -32.078   5.059   1.746  1.00 20.00     0.017 C 
ENDROOT
BRANCH   4  10
HETATM   10  C1  UNL     1     -34.290   4.692   4.032  1.00 20.00     0.182 C 
HETATM   11  O11 UNL     1     -33.411   3.795   3.902  1.00 20.00    -0.647 OA
HETATM   12  O12 UNL     1     -35.411   4.649   4.612  1.00 20.00    -0.647 OA
ENDBRANCH   4  10
TORSDOF 1
ENDMDL
MODEL 3
REMARK VINA RESULT:       3.6      1.085      1.482
REMARK  1 active torsions:
REMARK  status: ('A' for Active; 'I' for Inactive)
REMARK    1  A    between atoms: C1_1  and  C5_5 
ROOT
HETATM    1  C2  UNL     1     -32.521   8.064   4.116  1.00 20.00     0.022 C 
HETATM    2  C3  UNL     1     -33.764   7.469   4.802  1.00 20.00     0.011 C 
HETATM    3  C4  UNL     1     -34.347   8.101   2.561  1.00 20.00     0.031 C 
HETATM    4  C5  UNL     1     -32.850   7.685   2.669  1.00 20.00     0.057 C 
HETATM    5  C6  UNL     1     -34.488   6.901   3.562  1.00 20.00    -0.035 C 
HETATM    6  C7  UNL     1     -33.379   6.188   2.652  1.00 20.00    -0.023 C 
HETATM    7  C8  UNL     1     -35.829   6.272   3.813  1.00 20.00     0.016 C 
HETATM    8  C9  UNL     1     -32.499   5.130   3.338  1.00 20.00     0.017 C 
HETATM    9  C10 UNL     1     -33.824   5.592   1.302  1.00 20.00     0.017 C 
ENDROOT
BRANCH   4  10
HETATM   10  C1  UNL     1     -31.904   8.133   1.637  1.00 20.00     0.182 C 
HETATM   11  O11 UNL     1     -30.838   7.463   1.554  1.00 20.00    -0.647 OA
HETATM   12  O12 UNL     1     -32.286   9.134   0.967  1.00 20.00    -0.647 OA
ENDBRANCH   4  10
TORSDOF 1
ENDMDL
MODEL 4
REMARK VINA RESULT:       4.0      2.659      3.905
REMARK  1 active torsions:
REMARK  status: ('A' for Active; 'I' for Inactive)
REMARK    1  A    between atoms: C1_1  and  C5_5 
ROOT
HETATM    1  C2  UNL     1     -32.141   5.596   2.508  1.00 20.00     0.022 C 
HETATM    2  C3  UNL     1     -31.584   6.737   1.639  1.00 20.00     0.011 C 
HETATM    3  C4  UNL     1     -33.977   6.729   1.461  1.00 20.00     0.031 C 
HETATM    4  C5  UNL     1     -33.503   6.207   2.850  1.00 20.00     0.057 C 
HETATM    5  C6  UNL     1     -32.779   7.712   1.706  1.00 20.00    -0.035 C 
HETATM    6  C7  UNL     1     -33.286   7.734   3.226  1.00 20.00    -0.023 C 
HETATM    7  C8  UNL     1     -32.649   8.971   0.897  1.00 20.00     0.016 C 
HETATM    8  C9  UNL     1     -32.230   8.044   4.301  1.00 20.00     0.017 C 
HETATM    9  C10 UNL     1     -34.529   8.582   3.563  1.00 20.00     0.017 C 
ENDROOT
BRANCH   4  10
HETATM   10  C1  UNL     1     -34.415   5.383   3.656  1.00 20.00     0.182 C 
HETATM   11  O11 UNL     1     -35.486   5.950   4.007  1.00 20.00    -0.647 OA
HETATM   12  O12 UNL     1     -34.002   4.212   3.891  1.00 20.00    -0.647 OA
ENDBRANCH   4  10
TORSDOF 1
ENDMDL
MODEL 5
REMARK VINA RESULT:       4.1      1.348      2.813
REMARK  1 active torsions:
REMARK  status: ('A' for Active; 'I' for Inactive)
REMARK    1  A    between atoms: C1_1  and  C5_5 
ROOT
HETATM    1  C2  UNL     1     -33.358   6.317   0.706  1.00 20.00     0.022 C 
HETATM    2  C3  UNL     1     -33.880   5.024   1.359  1.00 20.00     0.011 C 
HETATM    3  C4  UNL     1     -31.977   5.802   2.599  1.00 20.00     0.031 C 
HETATM    4  C5  UNL     1     -32.761   6.982   1.950  1.00 20.00     0.057 C 
HETATM    5  C6  UNL     1     -33.442   5.285   2.817  1.00 20.00    -0.035 C 
HETATM    6  C7  UNL     1     -33.788   6.814   3.149  1.00 20.00    -0.023 C 
HETATM    7  C8  UNL     1     -33.721   4.181   3.796  1.00 20.00     0.016 C 
HETATM    8  C9  UNL     1     -35.236   7.264   2.894  1.00 20.00     0.017 C 
HETATM    9  C10 UNL     1     -33.385   7.364   4.531  1.00 20.00     0.017 C 
ENDROOT
BRANCH   4  10
HETATM   10  C1  UNL     1     -32.083   8.270   1.749  1.00 20.00     0.182 C 
HETATM   11  O11 UNL     1     -32.540   8.981   0.811  1.00 20.00    -0.647 OA
HETATM   12  O12 UNL     1     -31.129   8.496   2.545  1.00 20.00    -0.647 OA
ENDBRANCH   4  10
TORSDOF 1
ENDMDL
MODEL 6
REMARK VINA RESULT:       4.5      2.180      3.545
REMARK  1 active torsions:
REMARK  status: ('A' for Active; 'I' for Inactive)
REMARK    1  A    between atoms: C1_1  and  C5_5 
ROOT
HETATM    1  C2  UNL     1     -33.664   9.201   1.985  1.00 20.00     0.022 C 
HETATM    2  C3  UNL     1     -32.751   9.430   0.767  1.00 20.00     0.011 C 
HETATM    3  C4  UNL     1     -31.467   8.394   2.510  1.00 20.00     0.031 C 
HETATM    4  C5  UNL     1     -32.966   7.971   2.572  1.00 20.00     0.057 C 
HETATM    5  C6  UNL     1     -31.758   8.265   0.974  1.00 20.00    -0.035 C 
HETATM    6  C7  UNL     1     -32.619   6.977   1.383  1.00 20.00    -0.023 C 
HETATM    7  C8  UNL     1     -30.627   8.181  -0.010  1.00 20.00     0.016 C 
HETATM    8  C9  UNL     1     -33.771   6.590   0.440  1.00 20.00     0.017 C 
HETATM    9  C10 UNL     1     -31.862   5.678   1.721  1.00 20.00     0.017 C 
ENDROOT
BRANCH   4  10
HETATM   10  C1  UNL     1     -33.510   7.438   3.829  1.00 20.00     0.182 C 
HETATM   11  O11 UNL     1     -34.397   6.549   3.698  1.00 20.00    -0.647 OA
HETATM   12  O12 UNL     1     -33.017   7.943   4.876  1.00 20.00    -0.647 OA
ENDBRANCH   4  10
TORSDOF 1
ENDMDL
MODEL 7
REMARK VINA RESULT:       4.8      1.995      3.232
REMARK  1 active torsions:
REMARK  status: ('A' for Active; 'I' for Inactive)
REMARK    1  A    between atoms: C1_1  and  C5_5 
ROOT
HETATM    1  C2  UNL     1     -34.863   6.528   2.387  1.00 20.00     0.022 C 
HETATM    2  C3  UNL     1     -34.911   7.421   3.639  1.00 20.00     0.011 C 
HETATM    3  C4  UNL     1     -32.904   6.107   3.704  1.00 20.00     0.031 C 
HETATM    4  C5  UNL     1     -33.344   6.411   2.241  1.00 20.00     0.057 C 
HETATM    5  C6  UNL     1     -33.396   7.584   3.890  1.00 20.00    -0.035 C 
HETATM    6  C7  UNL     1     -32.708   7.848   2.467  1.00 20.00    -0.023 C 
HETATM    7  C8  UNL     1     -33.011   8.367   5.112  1.00 20.00     0.016 C 
HETATM    8  C9  UNL     1     -33.280   9.003   1.628  1.00 20.00     0.017 C 
HETATM    9  C10 UNL     1     -31.173   7.978   2.418  1.00 20.00     0.017 C 
ENDROOT
BRANCH   4  10
HETATM   10  C1  UNL     1     -32.847   5.561   1.150  1.00 20.00     0.182 C 
HETATM   11  O11 UNL     1     -31.683   5.099   1.314  1.00 20.00    -0.647 OA
HETATM   12  O12 UNL     1     -33.653   5.404   0.192  1.00 20.00    -0.647 OA
ENDBRANCH   4  10
TORSDOF 1
ENDMDL
MODEL 8
REMARK VINA RESULT:       5.2      2.189      3.515
REMARK  1 active torsions:
REMARK  status: ('A' for Active; 'I' for Inactive)
REMARK    1  A    between atoms: C1_1  and  C5_5 
ROOT
HETATM    1  C2  UNL     1     -31.007   7.216   1.108  1.00 20.00     0.022 C 
HETATM    2  C3  UNL     1     -31.009   8.715   0.761  1.00 20.00     0.011 C 
HETATM    3  C4  UNL     1     -33.239   7.861   0.512  1.00 20.00     0.031 C 
HETATM    4  C5  UNL     1     -32.448   7.090   1.611  1.00 20.00     0.057 C 
HETATM    5  C6  UNL     1     -32.461   9.062   1.156  1.00 20.00    -0.035 C 
HETATM    6  C7  UNL     1     -32.760   8.331   2.550  1.00 20.00    -0.023 C 
HETATM    7  C8  UNL     1     -32.894  10.476   0.896  1.00 20.00     0.016 C 
HETATM    8  C9  UNL     1     -31.771   8.602   3.697  1.00 20.00     0.017 C 
HETATM    9  C10 UNL     1     -34.177   8.453   3.144  1.00 20.00     0.017 C 
ENDROOT
BRANCH   4  10
HETATM   10  C1  UNL     1     -32.895   5.747   2.008  1.00 20.00     0.182 C 
HETATM   11  O11 UNL     1     -33.646   5.707   3.022  1.00 20.00    -0.647 OA
HETATM   12  O12 UNL     1     -32.467   4.809   1.279  1.00 20.00    -0.647 OA
ENDBRANCH   4  10
TORSDOF 1
ENDMDL
