MODEL 1
REMARK VINA RESULT:       1.4      0.000      0.000
REMARK  1 active torsions:
REMARK  status: ('A' for Active; 'I' for Inactive)
REMARK    1  A    between atoms: C3_3  and  O10_10 
ROOT
HETATM    1  C1  UNL     1     -33.103   7.175   4.261  1.00 20.00     0.041 C 
HETATM    2  C2  UNL     1     -33.698   6.814   1.898  1.00 20.00     0.020 C 
HETATM    3  C3  UNL     1     -32.688   8.376   3.417  1.00 20.00     0.126 C 
HETATM    4  C4  UNL     1     -34.038   6.359   3.344  1.00 20.00    -0.045 C 
HETATM    5  C5  UNL     1     -32.504   7.788   2.007  1.00 20.00    -0.021 C 
HETATM    6  C6  UNL     1     -35.508   6.674   3.665  1.00 20.00     0.015 C 
HETATM    7  C7  UNL     1     -33.802   4.856   3.528  1.00 20.00     0.015 C 
HETATM    8  C8  UNL     1     -31.170   7.036   1.842  1.00 20.00     0.017 C 
HETATM    9  C9  UNL     1     -32.578   8.881   0.935  1.00 20.00     0.017 C 
ENDROOT
BRANCH   3  10
HETATM   10  O10 UNL     1     -31.515   8.968   3.941  1.00 20.00    -0.395 OA
HETATM   11  H28 UNL     1     -31.780   9.806   4.360  1.00 20.00     0.210 HD
ENDBRANCH   3  10
TORSDOF 1
ENDMDL
MODEL 2
REMARK VINA RESULT:       1.8      1.652      2.318
REMARK  1 active torsions:
REMARK  status: ('A' for Active; 'I' for Inactive)
REMARK    1  A    between atoms: C3_3  and  O10_10 
ROOT
HETATM    1  C1  UNL     1     -33.228   5.985   2.688  1.00 20.00     0.041 C 
HETATM    2  C2  UNL     1     -32.046   7.105   0.840  1.00 20.00     0.020 C 
HETATM    3  C3  UNL     1     -33.571   7.470   2.658  1.00 20.00     0.126 C 
HETATM    4  C4  UNL     1     -32.540   5.717   1.334  1.00 20.00    -0.045 C 
HETATM    5  C5  UNL     1     -32.356   8.114   1.968  1.00 20.00    -0.021 C 
HETATM    6  C6  UNL     1     -33.544   5.128   0.331  1.00 20.00     0.015 C 
HETATM    7  C7  UNL     1     -31.374   4.737   1.502  1.00 20.00     0.015 C 
HETATM    8  C8  UNL     1     -31.146   8.272   2.908  1.00 20.00     0.017 C 
HETATM    9  C9  UNL     1     -32.707   9.494   1.398  1.00 20.00     0.017 C 
ENDROOT
BRANCH   3  10
HETATM   10  O10 UNL     1     -33.798   7.952   3.969  1.00 20.00    -0.395 OA
HETATM   11  H28 UNL     1     -34.087   8.878   3.888  1.00 20.00     0.210 HD
ENDBRANCH   3  10
TORSDOF 1
ENDMDL
MODEL 3
REMARK VINA RESULT:       1.8      0.988      3.456
REMARK  1 active torsions:
REMARK  status: ('A' for Active; 'I' for Inactive)
REMARK    1  A    between atoms: C3_3  and  O10_10 
ROOT
HETATM    1  C1  UNL     1     -32.644   8.538   3.228  1.00 20.00     0.041 C 
HETATM    2  C2  UNL     1     -33.232   6.522   1.941  1.00 20.00     0.020 C 
HETATM    3  C3  UNL     1     -33.099   7.422   4.163  1.00 20.00     0.126 C 
HETATM    4  C4  UNL     1     -32.411   7.839   1.873  1.00 20.00    -0.045 C 
HETATM    5  C5  UNL     1     -34.005   6.549   3.278  1.00 20.00    -0.021 C 
HETATM    6  C6  UNL     1     -30.919   7.522   1.684  1.00 20.00     0.015 C 
HETATM    7  C7  UNL     1     -32.878   8.730   0.716  1.00 20.00     0.015 C 
HETATM    8  C8  UNL     1     -35.411   7.148   3.084  1.00 20.00     0.017 C 
HETATM    9  C9  UNL     1     -34.158   5.138   3.860  1.00 20.00     0.017 C 
ENDROOT
BRANCH   3  10
HETATM   10  O10 UNL     1     -33.760   7.961   5.292  1.00 20.00    -0.395 OA
HETATM   11  H28 UNL     1     -34.677   8.147   5.025  1.00 20.00     0.210 HD
ENDBRANCH   3  10
TORSDOF 1
ENDMDL
MODEL 4
REMARK VINA RESULT:       1.8      1.973      3.586
REMARK  1 active torsions:
REMARK  status: ('A' for Active; 'I' for Inactive)
REMARK    1  A    between atoms: C3_3  and  O10_10 
ROOT
HETATM    1  C1  UNL     1     -33.414   7.791   2.766  1.00 20.00     0.041 C 
HETATM    2  C2  UNL     1     -31.701   6.999   1.184  1.00 20.00     0.020 C 
HETATM    3  C3  UNL     1     -33.231   6.283   2.891  1.00 20.00     0.126 C 
HETATM    4  C4  UNL     1     -32.205   8.263   1.934  1.00 20.00    -0.045 C 
HETATM    5  C5  UNL     1     -32.696   5.863   1.511  1.00 20.00    -0.021 C 
HETATM    6  C6  UNL     1     -31.100   8.805   2.854  1.00 20.00     0.015 C 
HETATM    7  C7  UNL     1     -32.618   9.366   0.953  1.00 20.00     0.015 C 
HETATM    8  C8  UNL     1     -33.800   5.779   0.440  1.00 20.00     0.017 C 
HETATM    9  C9  UNL     1     -31.987   4.505   1.579  1.00 20.00     0.017 C 
ENDROOT
BRANCH   3  10
HETATM   10  O10 UNL     1     -34.455   5.662   3.236  1.00 20.00    -0.395 OA
HETATM   11  H28 UNL     1     -34.261   5.016   3.937  1.00 20.00     0.210 HD
ENDBRANCH   3  10
TORSDOF 1
ENDMDL
MODEL 5
REMARK VINA RESULT:       2.3      2.014      3.635
REMARK  1 active torsions:
REMARK  status: ('A' for Active; 'I' for Inactive)
REMARK    1  A    between atoms: C3_3  and  O10_10 
ROOT
HETATM    1  C1  UNL     1     -32.672   5.069   2.828  1.00 20.00     0.041 C 
HETATM    2  C2  UNL     1     -34.053   6.987   2.134  1.00 20.00     0.020 C 
HETATM    3  C3  UNL     1     -34.056   4.987   3.463  1.00 20.00     0.126 C 
HETATM    4  C4  UNL     1     -32.810   6.147   1.733  1.00 20.00    -0.045 C 
HETATM    5  C5  UNL     1     -34.530   6.450   3.502  1.00 20.00    -0.021 C 
HETATM    6  C6  UNL     1     -33.037   5.490   0.362  1.00 20.00     0.015 C 
HETATM    7  C7  UNL     1     -31.548   7.013   1.663  1.00 20.00     0.015 C 
HETATM    8  C8  UNL     1     -33.898   7.253   4.654  1.00 20.00     0.017 C 
HETATM    9  C9  UNL     1     -36.055   6.538   3.633  1.00 20.00     0.017 C 
ENDROOT
BRANCH   3  10
HETATM   10  O10 UNL     1     -33.980   4.382   4.740  1.00 20.00    -0.395 OA
HETATM   11  H28 UNL     1     -34.500   3.561   4.699  1.00 20.00     0.210 HD
ENDBRANCH   3  10
TORSDOF 1
ENDMDL
MODEL 6
REMARK VINA RESULT:       2.5      1.682      2.466
REMARK  1 active torsions:
REMARK  status: ('A' for Active; 'I' for Inactive)
REMARK    1  A    between atoms: C3_3  and  O10_10 
ROOT
HETATM    1  C1  UNL     1     -33.745   5.730   2.074  1.00 20.00     0.041 C 
HETATM    2  C2  UNL     1     -33.474   7.652   3.589  1.00 20.00     0.020 C 
HETATM    3  C3  UNL     1     -32.308   6.237   2.039  1.00 20.00     0.126 C 
HETATM    4  C4  UNL     1     -34.370   6.416   3.306  1.00 20.00    -0.045 C 
HETATM    5  C5  UNL     1     -32.430   7.714   2.452  1.00 20.00    -0.021 C 
HETATM    6  C6  UNL     1     -34.354   5.465   4.513  1.00 20.00     0.015 C 
HETATM    7  C7  UNL     1     -35.818   6.829   3.021  1.00 20.00     0.015 C 
HETATM    8  C8  UNL     1     -32.922   8.619   1.307  1.00 20.00     0.017 C 
HETATM    9  C9  UNL     1     -31.090   8.262   2.958  1.00 20.00     0.017 C 
ENDROOT
BRANCH   3  10
HETATM   10  O10 UNL     1     -31.749   6.055   0.752  1.00 20.00    -0.395 OA
HETATM   11  H28 UNL     1     -31.507   6.936   0.417  1.00 20.00     0.210 HD
ENDBRANCH   3  10
TORSDOF 1
ENDMDL
MODEL 7
REMARK VINA RESULT:       2.7      2.170      3.172
REMARK  1 active torsions:
REMARK  status: ('A' for Active; 'I' for Inactive)
REMARK    1  A    between atoms: C3_3  and  O10_10 
ROOT
HETATM    1  C1  UNL     1     -34.395   6.167   3.957  1.00 20.00     0.041 C 
HETATM    2  C2  UNL     1     -32.819   7.373   2.498  1.00 20.00     0.020 C 
HETATM    3  C3  UNL     1     -33.373   5.203   3.364  1.00 20.00     0.126 C 
HETATM    4  C4  UNL     1     -33.819   7.569   3.669  1.00 20.00    -0.045 C 
HETATM    5  C5  UNL     1     -32.927   5.894   2.064  1.00 20.00    -0.021 C 
HETATM    6  C6  UNL     1     -33.084   8.109   4.906  1.00 20.00     0.015 C 
HETATM    7  C7  UNL     1     -34.937   8.548   3.292  1.00 20.00     0.015 C 
HETATM    8  C8  UNL     1     -33.946   5.733   0.920  1.00 20.00     0.017 C 
HETATM    9  C9  UNL     1     -31.574   5.355   1.584  1.00 20.00     0.017 C 
ENDROOT
BRANCH   3  10
HETATM   10  O10 UNL     1     -33.954   3.930   3.158  1.00 20.00    -0.395 OA
HETATM   11  H28 UNL     1     -34.908   4.069   3.024  1.00 20.00     0.210 HD
ENDBRANCH   3  10
TORSDOF 1
ENDMDL
MODEL 8
REMARK VINA RESULT:       2.8      1.809      3.668
REMARK  1 active torsions:
REMARK  status: ('A' for Active; 'I' for Inactive)
REMARK    1  A    between atoms: C3_3  and  O10_10 
ROOT
HETATM    1  C1  UNL     1     -32.064   6.673   1.720  1.00 20.00     0.041 C 
HETATM    2  C2  UNL     1     -33.491   8.218   3.001  1.00 20.00     0.020 C 
HETATM    3  C3  UNL     1     -33.436   6.055   1.961  1.00 20.00     0.126 C 
HETATM    4  C4  UNL     1     -32.238   8.162   2.085  1.00 20.00    -0.045 C 
HETATM    5  C5  UNL     1     -33.937   6.758   3.235  1.00 20.00    -0.021 C 
HETATM    6  C6  UNL     1     -32.473   8.999   0.818  1.00 20.00     0.015 C 
HETATM    7  C7  UNL     1     -30.995   8.693   2.806  1.00 20.00     0.015 C 
HETATM    8  C8  UNL     1     -33.304   6.192   4.520  1.00 20.00     0.017 C 
HETATM    9  C9  UNL     1     -35.462   6.656   3.363  1.00 20.00     0.017 C 
ENDROOT
BRANCH   3  10
HETATM   10  O10 UNL     1     -33.330   4.650   2.095  1.00 20.00    -0.395 OA
HETATM   11  H28 UNL     1     -33.395   4.272   1.201  1.00 20.00     0.210 HD
ENDBRANCH   3  10
TORSDOF 1
ENDMDL
MODEL 9
REMARK VINA RESULT:       2.8      1.518      3.025
REMARK  1 active torsions:
REMARK  status: ('A' for Active; 'I' for Inactive)
REMARK    1  A    between atoms: C3_3  and  O10_10 
ROOT
HETATM    1  C1  UNL     1     -32.386   7.191   1.038  1.00 20.00     0.041 C 
HETATM    2  C2  UNL     1     -33.238   5.869   2.933  1.00 20.00     0.020 C 
HETATM    3  C3  UNL     1     -32.260   7.979   2.338  1.00 20.00     0.126 C 
HETATM    4  C4  UNL     1     -32.685   5.746   1.487  1.00 20.00    -0.045 C 
HETATM    5  C5  UNL     1     -33.353   7.379   3.239  1.00 20.00    -0.021 C 
HETATM    6  C6  UNL     1     -31.396   4.908   1.484  1.00 20.00     0.015 C 
HETATM    7  C7  UNL     1     -33.705   5.088   0.552  1.00 20.00     0.015 C 
HETATM    8  C8  UNL     1     -34.762   7.899   2.899  1.00 20.00     0.017 C 
HETATM    9  C9  UNL     1     -33.075   7.669   4.718  1.00 20.00     0.017 C 
ENDROOT
BRANCH   3  10
HETATM   10  O10 UNL     1     -32.423   9.364   2.095  1.00 20.00    -0.395 OA
HETATM   11  H28 UNL     1     -32.362   9.814   2.956  1.00 20.00     0.210 HD
ENDBRANCH   3  10
TORSDOF 1
ENDMDL
