MODEL 1
REMARK VINA RESULT:      -2.7      0.000      0.000
REMARK  3 active torsions:
REMARK  status: ('A' for Active; 'I' for Inactive)
REMARK    1  A    between atoms: C1_1  and  C6_6 
REMARK    2  A    between atoms: C1_1  and  O8_8 
REMARK    3  A    between atoms: C4_4  and  C6_6 
ROOT
HETATM    1  C6  UNL     1     -34.396   6.155   3.464  1.00 20.00     0.115 C 
ENDROOT
BRANCH   1   2
HETATM    2  C1  UNL     1     -34.564   4.813   4.153  1.00 20.00     0.139 C 
HETATM    3  O7  UNL     1     -33.764   3.891   4.105  1.00 20.00    -0.650 OA
BRANCH   2   4
HETATM    4  O8  UNL     1     -35.733   4.761   4.842  1.00 20.00    -0.776 OA
HETATM    5  H18 UNL     1     -36.399   5.383   4.481  1.00 20.00     0.167 HD
ENDBRANCH   2   4
ENDBRANCH   1   2
BRANCH   1   6
HETATM    6  C4  UNL     1     -33.053   6.327   2.843  1.00 20.00    -0.001 A 
HETATM    7  C2  UNL     1     -32.797   5.831   1.445  1.00 20.00     0.010 A 
HETATM    8  C3  UNL     1     -32.860   7.310   1.718  1.00 20.00    -0.014 A 
HETATM    9  C5  UNL     1     -31.623   8.137   1.653  1.00 20.00     0.010 C 
ENDBRANCH   1   6
TORSDOF 3
ENDMDL
MODEL 2
REMARK VINA RESULT:      -2.4      1.739      2.346
REMARK  3 active torsions:
REMARK  status: ('A' for Active; 'I' for Inactive)
REMARK    1  A    between atoms: C1_1  and  C6_6 
REMARK    2  A    between atoms: C1_1  and  O8_8 
REMARK    3  A    between atoms: C4_4  and  C6_6 
ROOT
HETATM    1  C6  UNL     1     -33.489   6.754   2.559  1.00 20.00     0.115 C 
ENDROOT
BRANCH   1   2
HETATM    2  C1  UNL     1     -34.394   6.896   3.771  1.00 20.00     0.139 C 
HETATM    3  O7  UNL     1     -35.379   6.210   3.999  1.00 20.00    -0.650 OA
BRANCH   2   4
HETATM    4  O8  UNL     1     -33.967   7.896   4.584  1.00 20.00    -0.776 OA
HETATM    5  H18 UNL     1     -33.033   8.138   4.408  1.00 20.00     0.167 HD
ENDBRANCH   2   4
ENDBRANCH   1   2
BRANCH   1   6
HETATM    6  C4  UNL     1     -32.669   7.970   2.300  1.00 20.00    -0.001 A 
HETATM    7  C2  UNL     1     -31.289   7.840   1.709  1.00 20.00     0.010 A 
HETATM    8  C3  UNL     1     -32.408   8.419   0.885  1.00 20.00    -0.014 A 
HETATM    9  C5  UNL     1     -32.417   9.869   0.548  1.00 20.00     0.010 C 
ENDBRANCH   1   6
TORSDOF 3
ENDMDL
MODEL 3
REMARK VINA RESULT:      -2.4      3.005      4.365
REMARK  3 active torsions:
REMARK  status: ('A' for Active; 'I' for Inactive)
REMARK    1  A    between atoms: C1_1  and  C6_6 
REMARK    2  A    between atoms: C1_1  and  O8_8 
REMARK    3  A    between atoms: C4_4  and  C6_6 
ROOT
HETATM    1  C6  UNL     1     -33.019   6.938   1.846  1.00 20.00     0.115 C 
ENDROOT
BRANCH   1   2
HETATM    2  C1  UNL     1     -32.064   8.118   1.801  1.00 20.00     0.139 C 
HETATM    3  O7  UNL     1     -31.153   8.318   2.591  1.00 20.00    -0.650 OA
BRANCH   2   4
HETATM    4  O8  UNL     1     -32.349   8.938   0.757  1.00 20.00    -0.776 OA
HETATM    5  H18 UNL     1     -32.442   8.441  -0.084  1.00 20.00     0.167 HD
ENDBRANCH   2   4
ENDBRANCH   1   2
BRANCH   1   6
HETATM    6  C4  UNL     1     -33.440   6.582   3.229  1.00 20.00    -0.001 A 
HETATM    7  C2  UNL     1     -34.097   7.613   4.109  1.00 20.00     0.010 A 
HETATM    8  C3  UNL     1     -34.903   6.463   3.567  1.00 20.00    -0.014 A 
HETATM    9  C5  UNL     1     -35.374   5.383   4.478  1.00 20.00     0.010 C 
ENDBRANCH   1   6
TORSDOF 3
ENDMDL
MODEL 4
REMARK VINA RESULT:      -2.3      2.975      4.377
REMARK  3 active torsions:
REMARK  status: ('A' for Active; 'I' for Inactive)
REMARK    1  A    between atoms: C1_1  and  C6_6 
REMARK    2  A    between atoms: C1_1  and  O8_8 
REMARK    3  A    between atoms: C4_4  and  C6_6 
ROOT
HETATM    1  C6  UNL     1     -32.964   6.852   1.815  1.00 20.00     0.115 C 
ENDROOT
BRANCH   1   2
HETATM    2  C1  UNL     1     -32.168   8.139   1.696  1.00 20.00     0.139 C 
HETATM    3  O7  UNL     1     -32.351   9.006   0.854  1.00 20.00    -0.650 OA
BRANCH   2   4
HETATM    4  O8  UNL     1     -31.211   8.212   2.656  1.00 20.00    -0.776 OA
HETATM    5  H18 UNL     1     -31.455   8.837   3.370  1.00 20.00     0.167 HD
ENDBRANCH   2   4
ENDBRANCH   1   2
BRANCH   1   6
HETATM    6  C4  UNL     1     -33.407   6.568   3.208  1.00 20.00    -0.001 A 
HETATM    7  C2  UNL     1     -34.104   7.634   4.013  1.00 20.00     0.010 A 
HETATM    8  C3  UNL     1     -34.875   6.437   3.524  1.00 20.00    -0.014 A 
HETATM    9  C5  UNL     1     -35.342   5.401   4.487  1.00 20.00     0.010 C 
ENDBRANCH   1   6
TORSDOF 3
ENDMDL
MODEL 5
REMARK VINA RESULT:      -2.3      3.979      5.013
REMARK  3 active torsions:
REMARK  status: ('A' for Active; 'I' for Inactive)
REMARK    1  A    between atoms: C1_1  and  C6_6 
REMARK    2  A    between atoms: C1_1  and  O8_8 
REMARK    3  A    between atoms: C4_4  and  C6_6 
ROOT
HETATM    1  C6  UNL     1     -31.999   8.678   1.301  1.00 20.00     0.115 C 
ENDROOT
BRANCH   1   2
HETATM    2  C1  UNL     1     -32.464   9.711   0.290  1.00 20.00     0.139 C 
HETATM    3  O7  UNL     1     -32.799   9.470  -0.860  1.00 20.00    -0.650 OA
BRANCH   2   4
HETATM    4  O8  UNL     1     -32.464  10.957   0.829  1.00 20.00    -0.776 OA
HETATM    5  H18 UNL     1     -31.623  11.156   1.292  1.00 20.00     0.167 HD
ENDBRANCH   2   4
ENDBRANCH   1   2
BRANCH   1   6
HETATM    6  C4  UNL     1     -33.056   7.688   1.651  1.00 20.00    -0.001 A 
HETATM    7  C2  UNL     1     -32.698   6.239   1.851  1.00 20.00     0.010 A 
HETATM    8  C3  UNL     1     -33.100   7.085   3.030  1.00 20.00    -0.014 A 
HETATM    9  C5  UNL     1     -34.408   6.857   3.705  1.00 20.00     0.010 C 
ENDBRANCH   1   6
TORSDOF 3
ENDMDL
MODEL 6
REMARK VINA RESULT:      -2.2      1.296      2.165
REMARK  3 active torsions:
REMARK  status: ('A' for Active; 'I' for Inactive)
REMARK    1  A    between atoms: C1_1  and  C6_6 
REMARK    2  A    between atoms: C1_1  and  O8_8 
REMARK    3  A    between atoms: C4_4  and  C6_6 
ROOT
HETATM    1  C6  UNL     1     -33.177   6.365   2.243  1.00 20.00     0.115 C 
ENDROOT
BRANCH   1   2
HETATM    2  C1  UNL     1     -34.108   6.040   3.397  1.00 20.00     0.139 C 
HETATM    3  O7  UNL     1     -34.861   6.835   3.939  1.00 20.00    -0.650 OA
BRANCH   2   4
HETATM    4  O8  UNL     1     -34.000   4.736   3.759  1.00 20.00    -0.776 OA
HETATM    5  H18 UNL     1     -34.573   4.520   4.525  1.00 20.00     0.167 HD
ENDBRANCH   2   4
ENDBRANCH   1   2
BRANCH   1   6
HETATM    6  C4  UNL     1     -32.827   7.811   2.165  1.00 20.00    -0.001 A 
HETATM    7  C2  UNL     1     -31.397   8.253   2.328  1.00 20.00     0.010 A 
HETATM    8  C3  UNL     1     -32.063   8.342   0.980  1.00 20.00    -0.014 A 
HETATM    9  C5  UNL     1     -32.410   9.670   0.402  1.00 20.00     0.010 C 
ENDBRANCH   1   6
TORSDOF 3
ENDMDL
MODEL 7
REMARK VINA RESULT:      -1.9      2.377      4.021
REMARK  3 active torsions:
REMARK  status: ('A' for Active; 'I' for Inactive)
REMARK    1  A    between atoms: C1_1  and  C6_6 
REMARK    2  A    between atoms: C1_1  and  O8_8 
REMARK    3  A    between atoms: C4_4  and  C6_6 
ROOT
HETATM    1  C6  UNL     1     -33.820   6.823   2.433  1.00 20.00     0.115 C 
ENDROOT
BRANCH   1   2
HETATM    2  C1  UNL     1     -32.426   6.840   1.830  1.00 20.00     0.139 C 
HETATM    3  O7  UNL     1     -31.699   7.820   1.765  1.00 20.00    -0.650 OA
BRANCH   2   4
HETATM    4  O8  UNL     1     -32.080   5.613   1.365  1.00 20.00    -0.776 OA
HETATM    5  H18 UNL     1     -32.843   4.997   1.353  1.00 20.00     0.167 HD
ENDBRANCH   2   4
ENDBRANCH   1   2
BRANCH   1   6
HETATM    6  C4  UNL     1     -33.894   6.052   3.705  1.00 20.00    -0.001 A 
HETATM    7  C2  UNL     1     -35.232   5.670   4.281  1.00 20.00     0.010 A 
HETATM    8  C3  UNL     1     -34.338   4.612   3.692  1.00 20.00    -0.014 A 
HETATM    9  C5  UNL     1     -33.671   3.617   4.577  1.00 20.00     0.010 C 
ENDBRANCH   1   6
TORSDOF 3
ENDMDL
MODEL 8
REMARK VINA RESULT:      -1.9      2.410      3.978
REMARK  3 active torsions:
REMARK  status: ('A' for Active; 'I' for Inactive)
REMARK    1  A    between atoms: C1_1  and  C6_6 
REMARK    2  A    between atoms: C1_1  and  O8_8 
REMARK    3  A    between atoms: C4_4  and  C6_6 
ROOT
HETATM    1  C6  UNL     1     -33.675   7.202   2.507  1.00 20.00     0.115 C 
ENDROOT
BRANCH   1   2
HETATM    2  C1  UNL     1     -32.379   6.876   1.787  1.00 20.00     0.139 C 
HETATM    3  O7  UNL     1     -32.054   5.768   1.386  1.00 20.00    -0.650 OA
BRANCH   2   4
HETATM    4  O8  UNL     1     -31.611   7.986   1.639  1.00 20.00    -0.776 OA
HETATM    5  H18 UNL     1     -31.704   8.600   2.397  1.00 20.00     0.167 HD
ENDBRANCH   2   4
ENDBRANCH   1   2
BRANCH   1   6
HETATM    6  C4  UNL     1     -33.892   6.367   3.721  1.00 20.00    -0.001 A 
HETATM    7  C2  UNL     1     -35.291   6.058   4.187  1.00 20.00     0.010 A 
HETATM    8  C3  UNL     1     -34.439   4.969   3.591  1.00 20.00    -0.014 A 
HETATM    9  C5  UNL     1     -33.908   3.876   4.452  1.00 20.00     0.010 C 
ENDBRANCH   1   6
TORSDOF 3
ENDMDL
MODEL 9
REMARK VINA RESULT:      -1.8      0.686      1.457
REMARK  3 active torsions:
REMARK  status: ('A' for Active; 'I' for Inactive)
REMARK    1  A    between atoms: C1_1  and  C6_6 
REMARK    2  A    between atoms: C1_1  and  O8_8 
REMARK    3  A    between atoms: C4_4  and  C6_6 
ROOT
HETATM    1  C6  UNL     1     -34.001   6.319   3.639  1.00 20.00     0.115 C 
ENDROOT
BRANCH   1   2
HETATM    2  C1  UNL     1     -34.503   4.965   4.107  1.00 20.00     0.139 C 
HETATM    3  O7  UNL     1     -33.876   3.919   4.036  1.00 20.00    -0.650 OA
BRANCH   2   4
HETATM    4  O8  UNL     1     -35.754   5.060   4.625  1.00 20.00    -0.776 OA
HETATM    5  H18 UNL     1     -36.349   4.363   4.276  1.00 20.00     0.167 HD
ENDBRANCH   2   4
ENDBRANCH   1   2
BRANCH   1   6
HETATM    6  C4  UNL     1     -33.550   6.314   2.219  1.00 20.00    -0.001 A 
HETATM    7  C2  UNL     1     -32.500   7.289   1.755  1.00 20.00     0.010 A 
HETATM    8  C3  UNL     1     -32.170   5.824   1.866  1.00 20.00    -0.014 A 
HETATM    9  C5  UNL     1     -31.957   5.009   0.638  1.00 20.00     0.010 C 
ENDBRANCH   1   6
TORSDOF 3
ENDMDL
