MODEL 1
REMARK VINA RESULT:      -2.2      0.000      0.000
REMARK  3 active torsions:
REMARK  status: ('A' for Active; 'I' for Inactive)
REMARK    1  A    between atoms: C1_1  and  C4_4 
REMARK    2  A    between atoms: C2_2  and  C9_9 
REMARK    3  A    between atoms: C9_9  and  N10_10 
ROOT
HETATM    1  C5  UNL     1     -34.985   4.831   4.410  1.00 20.00     0.032 C 
HETATM    2  C6  UNL     1     -35.267   6.325   4.268  1.00 20.00     0.032 C 
HETATM    3  C7  UNL     1     -33.726   4.585   3.592  1.00 20.00     0.273 C 
HETATM    4  C8  UNL     1     -34.151   6.857   3.382  1.00 20.00     0.273 C 
HETATM    5  N10 UNL     1     -33.750   5.675   2.616  1.00 20.00     0.099 N 
ENDROOT
BRANCH   5   6
HETATM    6  C9  UNL     1     -32.424   5.868   2.018  1.00 20.00     0.366 C 
BRANCH   6   7
HETATM    7  C2  UNL     1     -32.266   7.239   1.525  1.00 20.00    -0.072 C 
HETATM    8  C1  UNL     1     -32.142   8.363   1.118  1.00 20.00    -0.078 C 
BRANCH   8   9
HETATM    9  C4  UNL     1     -32.001   9.690   0.633  1.00 20.00     0.054 C 
HETATM   10  C3  UNL     1     -32.777  10.170  -0.343  1.00 20.00     0.020 C 
ENDBRANCH   8   9
ENDBRANCH   6   7
ENDBRANCH   5   6
TORSDOF 3
ENDMDL
MODEL 2
REMARK VINA RESULT:      -1.7      0.310      1.277
REMARK  3 active torsions:
REMARK  status: ('A' for Active; 'I' for Inactive)
REMARK    1  A    between atoms: C1_1  and  C4_4 
REMARK    2  A    between atoms: C2_2  and  C9_9 
REMARK    3  A    between atoms: C9_9  and  N10_10 
ROOT
HETATM    1  C5  UNL     1     -35.377   6.200   4.317  1.00 20.00     0.032 C 
HETATM    2  C6  UNL     1     -34.965   4.749   4.555  1.00 20.00     0.032 C 
HETATM    3  C7  UNL     1     -34.516   6.671   3.153  1.00 20.00     0.273 C 
HETATM    4  C8  UNL     1     -33.895   4.464   3.511  1.00 20.00     0.273 C 
HETATM    5  N10 UNL     1     -33.349   5.793   3.231  1.00 20.00     0.099 N 
ENDROOT
BRANCH   5   6
HETATM    6  C9  UNL     1     -32.609   5.795   1.964  1.00 20.00     0.366 C 
BRANCH   6   7
HETATM    7  C2  UNL     1     -32.378   7.165   1.496  1.00 20.00    -0.072 C 
HETATM    8  C1  UNL     1     -32.193   8.289   1.114  1.00 20.00    -0.078 C 
BRANCH   8   9
HETATM    9  C4  UNL     1     -31.982   9.618   0.664  1.00 20.00     0.054 C 
HETATM   10  C3  UNL     1     -32.707  10.152  -0.324  1.00 20.00     0.020 C 
ENDBRANCH   8   9
ENDBRANCH   6   7
ENDBRANCH   5   6
TORSDOF 3
ENDMDL
MODEL 3
REMARK VINA RESULT:      -1.2      1.637      5.181
REMARK  3 active torsions:
REMARK  status: ('A' for Active; 'I' for Inactive)
REMARK    1  A    between atoms: C1_1  and  C4_4 
REMARK    2  A    between atoms: C2_2  and  C9_9 
REMARK    3  A    between atoms: C9_9  and  N10_10 
ROOT
HETATM    1  C5  UNL     1     -31.958   8.379   3.104  1.00 20.00     0.032 C 
HETATM    2  C6  UNL     1     -32.116   7.563   1.824  1.00 20.00     0.032 C 
HETATM    3  C7  UNL     1     -33.093   7.922   4.009  1.00 20.00     0.273 C 
HETATM    4  C8  UNL     1     -33.329   6.677   2.065  1.00 20.00     0.273 C 
HETATM    5  N10 UNL     1     -34.093   7.432   3.060  1.00 20.00     0.099 N 
ENDROOT
BRANCH   5   6
HETATM    6  C9  UNL     1     -35.070   6.567   3.732  1.00 20.00     0.366 C 
BRANCH   6   7
HETATM    7  C2  UNL     1     -34.496   5.248   4.010  1.00 20.00    -0.072 C 
HETATM    8  C1  UNL     1     -34.021   4.169   4.242  1.00 20.00    -0.078 C 
BRANCH   8   9
HETATM    9  C4  UNL     1     -33.455   2.897   4.520  1.00 20.00     0.054 C 
HETATM   10  C3  UNL     1     -32.599   2.711   5.530  1.00 20.00     0.020 C 
ENDBRANCH   8   9
ENDBRANCH   6   7
ENDBRANCH   5   6
TORSDOF 3
ENDMDL
MODEL 4
REMARK VINA RESULT:      -0.7      1.727      5.026
REMARK  3 active torsions:
REMARK  status: ('A' for Active; 'I' for Inactive)
REMARK    1  A    between atoms: C1_1  and  C4_4 
REMARK    2  A    between atoms: C2_2  and  C9_9 
REMARK    3  A    between atoms: C9_9  and  N10_10 
ROOT
HETATM    1  C5  UNL     1     -32.781  10.240  -0.707  1.00 20.00     0.032 C 
HETATM    2  C6  UNL     1     -32.829  10.898   0.669  1.00 20.00     0.032 C 
HETATM    3  C7  UNL     1     -32.411   8.788  -0.440  1.00 20.00     0.273 C 
HETATM    4  C8  UNL     1     -32.490   9.789   1.652  1.00 20.00     0.273 C 
HETATM    5  N10 UNL     1     -31.704   8.859   0.839  1.00 20.00     0.099 N 
ENDROOT
BRANCH   5   6
HETATM    6  C9  UNL     1     -31.640   7.538   1.474  1.00 20.00     0.366 C 
BRANCH   6   7
HETATM    7  C2  UNL     1     -32.740   7.361   2.425  1.00 20.00    -0.072 C 
HETATM    8  C1  UNL     1     -33.640   7.212   3.209  1.00 20.00    -0.078 C 
BRANCH   8   9
HETATM    9  C4  UNL     1     -34.698   7.031   4.137  1.00 20.00     0.054 C 
HETATM   10  C3  UNL     1     -35.403   5.897   4.191  1.00 20.00     0.020 C 
ENDBRANCH   8   9
ENDBRANCH   6   7
ENDBRANCH   5   6
TORSDOF 3
ENDMDL
MODEL 5
REMARK VINA RESULT:      -0.3      1.354      5.133
REMARK  3 active torsions:
REMARK  status: ('A' for Active; 'I' for Inactive)
REMARK    1  A    between atoms: C1_1  and  C4_4 
REMARK    2  A    between atoms: C2_2  and  C9_9 
REMARK    3  A    between atoms: C9_9  and  N10_10 
ROOT
HETATM    1  C5  UNL     1     -31.453   7.575   0.954  1.00 20.00     0.032 C 
HETATM    2  C6  UNL     1     -31.916   9.028   1.021  1.00 20.00     0.032 C 
HETATM    3  C7  UNL     1     -32.418   6.809   1.847  1.00 20.00     0.273 C 
HETATM    4  C8  UNL     1     -33.126   9.018   1.943  1.00 20.00     0.273 C 
HETATM    5  N10 UNL     1     -32.891   7.837   2.776  1.00 20.00     0.099 N 
ENDROOT
BRANCH   5   6
HETATM    6  C9  UNL     1     -34.131   7.411   3.436  1.00 20.00     0.366 C 
BRANCH   6   7
HETATM    7  C2  UNL     1     -34.078   5.987   3.779  1.00 20.00    -0.072 C 
HETATM    8  C1  UNL     1     -34.031   4.818   4.056  1.00 20.00    -0.078 C 
BRANCH   8   9
HETATM    9  C4  UNL     1     -33.970   3.437   4.377  1.00 20.00     0.054 C 
HETATM   10  C3  UNL     1     -32.870   2.880   4.893  1.00 20.00     0.020 C 
ENDBRANCH   8   9
ENDBRANCH   6   7
ENDBRANCH   5   6
TORSDOF 3
ENDMDL
MODEL 6
REMARK VINA RESULT:       0.1      1.293      1.875
REMARK  3 active torsions:
REMARK  status: ('A' for Active; 'I' for Inactive)
REMARK    1  A    between atoms: C1_1  and  C4_4 
REMARK    2  A    between atoms: C2_2  and  C9_9 
REMARK    3  A    between atoms: C9_9  and  N10_10 
ROOT
HETATM    1  C5  UNL     1     -35.191   6.474   3.988  1.00 20.00     0.032 C 
HETATM    2  C6  UNL     1     -34.406   5.536   3.075  1.00 20.00     0.032 C 
HETATM    3  C7  UNL     1     -34.314   7.709   4.137  1.00 20.00     0.273 C 
HETATM    4  C8  UNL     1     -33.124   6.285   2.744  1.00 20.00     0.273 C 
HETATM    5  N10 UNL     1     -32.970   7.189   3.885  1.00 20.00     0.099 N 
ENDROOT
BRANCH   5   6
HETATM    6  C9  UNL     1     -32.042   8.279   3.563  1.00 20.00     0.366 C 
BRANCH   6   7
HETATM    7  C2  UNL     1     -32.158   8.667   2.155  1.00 20.00    -0.072 C 
HETATM    8  C1  UNL     1     -32.257   8.988   1.001  1.00 20.00    -0.078 C 
BRANCH   8   9
HETATM    9  C4  UNL     1     -32.378   9.374  -0.360  1.00 20.00     0.054 C 
HETATM   10  C3  UNL     1     -32.940  10.533  -0.717  1.00 20.00     0.020 C 
ENDBRANCH   8   9
ENDBRANCH   6   7
ENDBRANCH   5   6
TORSDOF 3
ENDMDL
MODEL 7
REMARK VINA RESULT:       0.8      1.007      1.851
REMARK  3 active torsions:
REMARK  status: ('A' for Active; 'I' for Inactive)
REMARK    1  A    between atoms: C1_1  and  C4_4 
REMARK    2  A    between atoms: C2_2  and  C9_9 
REMARK    3  A    between atoms: C9_9  and  N10_10 
ROOT
HETATM    1  C5  UNL     1     -34.239   3.692   4.447  1.00 20.00     0.032 C 
HETATM    2  C6  UNL     1     -33.125   3.790   3.407  1.00 20.00     0.032 C 
HETATM    3  C7  UNL     1     -34.872   5.076   4.482  1.00 20.00     0.273 C 
HETATM    4  C8  UNL     1     -33.183   5.222   2.897  1.00 20.00     0.273 C 
HETATM    5  N10 UNL     1     -33.789   5.944   4.017  1.00 20.00     0.099 N 
ENDROOT
BRANCH   5   6
HETATM    6  C9  UNL     1     -34.315   7.241   3.576  1.00 20.00     0.366 C 
BRANCH   6   7
HETATM    7  C2  UNL     1     -33.431   7.853   2.580  1.00 20.00    -0.072 C 
HETATM    8  C1  UNL     1     -32.709   8.358   1.762  1.00 20.00    -0.078 C 
BRANCH   8   9
HETATM    9  C4  UNL     1     -31.863   8.960   0.795  1.00 20.00     0.054 C 
HETATM   10  C3  UNL     1     -32.301   9.918  -0.028  1.00 20.00     0.020 C 
ENDBRANCH   8   9
ENDBRANCH   6   7
ENDBRANCH   5   6
TORSDOF 3
ENDMDL
