MODEL 1
REMARK VINA RESULT:      -1.6      0.000      0.000
REMARK  0 active torsions:
REMARK  status: ('A' for Active; 'I' for Inactive)
ROOT
HETATM    1  C1  UNL     1     -34.752   5.748   3.915  1.00 20.00     0.124 C 
HETATM    2  C2  UNL     1     -33.300   7.633   3.636  1.00 20.00     0.021 C 
HETATM    3  C3  UNL     1     -33.741   6.443   3.196  1.00 20.00     0.145 C 
HETATM    4  C4  UNL     1     -32.281   8.436   2.888  1.00 20.00     0.033 C 
HETATM    5  C5  UNL     1     -32.061   7.875   1.487  1.00 20.00     0.031 C 
HETATM    6  C6  UNL     1     -32.050   6.354   1.537  1.00 20.00     0.176 C 
HETATM    7  N7  UNL     1     -35.577   5.181   4.501  1.00 20.00    -0.189 NA
HETATM    8  O8  UNL     1     -33.279   5.825   2.051  1.00 20.00    -0.341 OA
ENDROOT
TORSDOF 0
ENDMDL
MODEL 2
REMARK VINA RESULT:      -1.3      1.018      1.765
REMARK  0 active torsions:
REMARK  status: ('A' for Active; 'I' for Inactive)
ROOT
HETATM    1  C1  UNL     1     -34.691   5.599   3.929  1.00 20.00     0.124 C 
HETATM    2  C2  UNL     1     -33.221   5.667   2.038  1.00 20.00     0.021 C 
HETATM    3  C3  UNL     1     -33.751   6.282   3.109  1.00 20.00     0.145 C 
HETATM    4  C4  UNL     1     -32.184   6.316   1.175  1.00 20.00     0.033 C 
HETATM    5  C5  UNL     1     -31.636   7.579   1.831  1.00 20.00     0.031 C 
HETATM    6  C6  UNL     1     -32.769   8.350   2.492  1.00 20.00     0.176 C 
HETATM    7  N7  UNL     1     -35.457   5.042   4.599  1.00 20.00    -0.189 NA
HETATM    8  O8  UNL     1     -33.435   7.570   3.493  1.00 20.00    -0.341 OA
ENDROOT
TORSDOF 0
ENDMDL
MODEL 3
REMARK VINA RESULT:      -1.2      2.652      3.860
REMARK  0 active torsions:
REMARK  status: ('A' for Active; 'I' for Inactive)
ROOT
HETATM    1  C1  UNL     1     -32.112   7.983   1.589  1.00 20.00     0.124 C 
HETATM    2  C2  UNL     1     -33.169   5.994   2.407  1.00 20.00     0.021 C 
HETATM    3  C3  UNL     1     -32.994   7.324   2.489  1.00 20.00     0.145 C 
HETATM    4  C4  UNL     1     -34.128   5.257   3.290  1.00 20.00     0.033 C 
HETATM    5  C5  UNL     1     -35.040   6.224   4.038  1.00 20.00     0.031 C 
HETATM    6  C6  UNL     1     -34.238   7.431   4.505  1.00 20.00     0.176 C 
HETATM    7  N7  UNL     1     -31.394   8.521   0.854  1.00 20.00    -0.189 NA
HETATM    8  O8  UNL     1     -33.635   8.130   3.409  1.00 20.00    -0.341 OA
ENDROOT
TORSDOF 0
ENDMDL
MODEL 4
REMARK VINA RESULT:      -1.0      2.305      3.167
REMARK  0 active torsions:
REMARK  status: ('A' for Active; 'I' for Inactive)
ROOT
HETATM    1  C1  UNL     1     -33.552   3.144   4.322  1.00 20.00     0.124 C 
HETATM    2  C2  UNL     1     -33.177   5.196   3.143  1.00 20.00     0.021 C 
HETATM    3  C3  UNL     1     -33.931   4.473   3.988  1.00 20.00     0.145 C 
HETATM    4  C4  UNL     1     -33.495   6.619   2.803  1.00 20.00     0.033 C 
HETATM    5  C5  UNL     1     -34.561   7.181   3.737  1.00 20.00     0.031 C 
HETATM    6  C6  UNL     1     -35.630   6.128   3.993  1.00 20.00     0.176 C 
HETATM    7  N7  UNL     1     -33.244   2.060   4.595  1.00 20.00    -0.189 NA
HETATM    8  O8  UNL     1     -35.083   4.944   4.587  1.00 20.00    -0.341 OA
ENDROOT
TORSDOF 0
ENDMDL
MODEL 5
REMARK VINA RESULT:      -1.0      2.232      3.521
REMARK  0 active torsions:
REMARK  status: ('A' for Active; 'I' for Inactive)
ROOT
HETATM    1  C1  UNL     1     -32.593   7.488   2.104  1.00 20.00     0.124 C 
HETATM    2  C2  UNL     1     -34.497   6.968   3.461  1.00 20.00     0.021 C 
HETATM    3  C3  UNL     1     -33.392   6.555   2.819  1.00 20.00     0.145 C 
HETATM    4  C4  UNL     1     -35.343   6.040   4.278  1.00 20.00     0.033 C 
HETATM    5  C5  UNL     1     -34.635   4.708   4.503  1.00 20.00     0.031 C 
HETATM    6  C6  UNL     1     -33.924   4.280   3.227  1.00 20.00     0.176 C 
HETATM    7  N7  UNL     1     -31.940   8.250   1.521  1.00 20.00    -0.189 NA
HETATM    8  O8  UNL     1     -32.952   5.246   2.806  1.00 20.00    -0.341 OA
ENDROOT
TORSDOF 0
ENDMDL
MODEL 6
REMARK VINA RESULT:      -0.5      2.564      3.478
REMARK  0 active torsions:
REMARK  status: ('A' for Active; 'I' for Inactive)
ROOT
HETATM    1  C1  UNL     1     -32.225   8.388   1.438  1.00 20.00     0.124 C 
HETATM    2  C2  UNL     1     -33.753   7.756   3.172  1.00 20.00     0.021 C 
HETATM    3  C3  UNL     1     -32.940   7.396   2.164  1.00 20.00     0.145 C 
HETATM    4  C4  UNL     1     -34.484   6.751   4.008  1.00 20.00     0.033 C 
HETATM    5  C5  UNL     1     -33.960   5.342   3.755  1.00 20.00     0.031 C 
HETATM    6  C6  UNL     1     -33.693   5.150   2.269  1.00 20.00     0.176 C 
HETATM    7  N7  UNL     1     -31.641   9.196   0.845  1.00 20.00    -0.189 NA
HETATM    8  O8  UNL     1     -32.730   6.089   1.772  1.00 20.00    -0.341 OA
ENDROOT
TORSDOF 0
ENDMDL
MODEL 7
REMARK VINA RESULT:      -0.5      2.173      3.040
REMARK  0 active torsions:
REMARK  status: ('A' for Active; 'I' for Inactive)
ROOT
HETATM    1  C1  UNL     1     -32.370   5.344   1.226  1.00 20.00     0.124 C 
HETATM    2  C2  UNL     1     -32.593   7.479   2.289  1.00 20.00     0.021 C 
HETATM    3  C3  UNL     1     -32.970   6.192   2.196  1.00 20.00     0.145 C 
HETATM    4  C4  UNL     1     -33.148   8.402   3.330  1.00 20.00     0.033 C 
HETATM    5  C5  UNL     1     -33.927   7.629   4.389  1.00 20.00     0.031 C 
HETATM    6  C6  UNL     1     -34.748   6.531   3.727  1.00 20.00     0.176 C 
HETATM    7  N7  UNL     1     -31.880   4.651   0.434  1.00 20.00    -0.189 NA
HETATM    8  O8  UNL     1     -33.924   5.608   3.005  1.00 20.00    -0.341 OA
ENDROOT
TORSDOF 0
ENDMDL
MODEL 8
REMARK VINA RESULT:       0.1      1.786      2.399
REMARK  0 active torsions:
REMARK  status: ('A' for Active; 'I' for Inactive)
ROOT
HETATM    1  C1  UNL     1     -33.672   7.921   4.469  1.00 20.00     0.124 C 
HETATM    2  C2  UNL     1     -33.675   6.211   2.789  1.00 20.00     0.021 C 
HETATM    3  C3  UNL     1     -33.171   7.364   3.260  1.00 20.00     0.145 C 
HETATM    4  C4  UNL     1     -33.145   5.551   1.555  1.00 20.00     0.033 C 
HETATM    5  C5  UNL     1     -31.830   6.185   1.114  1.00 20.00     0.031 C 
HETATM    6  C6  UNL     1     -31.905   7.696   1.283  1.00 20.00     0.176 C 
HETATM    7  N7  UNL     1     -34.081   8.374   5.455  1.00 20.00    -0.189 NA
HETATM    8  O8  UNL     1     -32.159   8.072   2.642  1.00 20.00    -0.341 OA
ENDROOT
TORSDOF 0
ENDMDL
MODEL 9
REMARK VINA RESULT:       0.7      1.690      2.053
REMARK  0 active torsions:
REMARK  status: ('A' for Active; 'I' for Inactive)
ROOT
HETATM    1  C1  UNL     1     -33.689   7.922   4.456  1.00 20.00     0.124 C 
HETATM    2  C2  UNL     1     -32.286   7.977   2.515  1.00 20.00     0.021 C 
HETATM    3  C3  UNL     1     -33.196   7.329   3.261  1.00 20.00     0.145 C 
HETATM    4  C4  UNL     1     -31.777   7.428   1.218  1.00 20.00     0.033 C 
HETATM    5  C5  UNL     1     -32.619   6.245   0.755  1.00 20.00     0.031 C 
HETATM    6  C6  UNL     1     -32.977   5.368   1.947  1.00 20.00     0.176 C 
HETATM    7  N7  UNL     1     -34.092   8.405   5.431  1.00 20.00    -0.189 NA
HETATM    8  O8  UNL     1     -33.715   6.090   2.941  1.00 20.00    -0.341 OA
ENDROOT
TORSDOF 0
ENDMDL
