MODEL 1
REMARK VINA RESULT:      -1.1      0.000      0.000
REMARK  1 active torsions:
REMARK  status: ('A' for Active; 'I' for Inactive)
REMARK    1  A    between atoms: C8_8  and  N10_10 
ROOT
HETATM    1  C1  UNL     1     -32.609  10.292  -0.254  1.00 20.00     0.013 C 
HETATM    2  C2  UNL     1     -32.215   9.440   0.494  1.00 20.00    -0.087 C 
HETATM    3  C8  UNL     1     -31.728   8.402   1.406  1.00 20.00     0.365 C 
ENDROOT
BRANCH   3   4
HETATM    4  N10 UNL     1     -32.843   7.639   1.962  1.00 20.00     0.102 N 
HETATM    5  C5  UNL     1     -32.600   6.196   1.844  1.00 20.00     0.303 C 
HETATM    6  C3  UNL     1     -33.768   5.396   2.429  1.00 20.00     0.302 C 
HETATM    7  N9  UNL     1     -34.004   5.763   3.831  1.00 20.00     0.087 N 
HETATM    8  C4  UNL     1     -34.248   7.206   3.949  1.00 20.00     0.302 C 
HETATM    9  C7  UNL     1     -35.122   5.001   4.386  1.00 20.00     0.310 C 
HETATM   10  C6  UNL     1     -33.079   8.006   3.364  1.00 20.00     0.303 C 
ENDBRANCH   3   4
TORSDOF 1
ENDMDL
MODEL 2
REMARK VINA RESULT:      -0.9      1.119      4.904
REMARK  1 active torsions:
REMARK  status: ('A' for Active; 'I' for Inactive)
REMARK    1  A    between atoms: C8_8  and  N10_10 
ROOT
HETATM    1  C1  UNL     1     -33.175   2.924   4.608  1.00 20.00     0.013 C 
HETATM    2  C2  UNL     1     -33.943   3.838   4.485  1.00 20.00    -0.087 C 
HETATM    3  C8  UNL     1     -34.886   4.950   4.340  1.00 20.00     0.365 C 
ENDROOT
BRANCH   3   4
HETATM    4  N10 UNL     1     -34.392   5.921   3.365  1.00 20.00     0.102 N 
HETATM    5  C5  UNL     1     -33.961   7.156   4.031  1.00 20.00     0.303 C 
HETATM    6  C3  UNL     1     -33.442   8.174   3.010  1.00 20.00     0.302 C 
HETATM    7  N9  UNL     1     -32.342   7.607   2.220  1.00 20.00     0.087 N 
HETATM    8  C4  UNL     1     -32.773   6.372   1.554  1.00 20.00     0.302 C 
HETATM    9  C7  UNL     1     -31.850   8.578   1.244  1.00 20.00     0.310 C 
HETATM   10  C6  UNL     1     -33.292   5.354   2.576  1.00 20.00     0.303 C 
ENDBRANCH   3   4
TORSDOF 1
ENDMDL
MODEL 3
REMARK VINA RESULT:      -0.9      0.602      1.628
REMARK  1 active torsions:
REMARK  status: ('A' for Active; 'I' for Inactive)
REMARK    1  A    between atoms: C8_8  and  N10_10 
ROOT
HETATM    1  C1  UNL     1     -32.730  10.232   0.271  1.00 20.00     0.013 C 
HETATM    2  C2  UNL     1     -32.114   9.278   0.660  1.00 20.00    -0.087 C 
HETATM    3  C8  UNL     1     -31.357   8.116   1.131  1.00 20.00     0.365 C 
ENDROOT
BRANCH   3   4
HETATM    4  N10 UNL     1     -32.106   7.393   2.157  1.00 20.00     0.102 N 
HETATM    5  C5  UNL     1     -33.015   8.297   2.873  1.00 20.00     0.303 C 
HETATM    6  C3  UNL     1     -33.802   7.540   3.948  1.00 20.00     0.302 C 
HETATM    7  N9  UNL     1     -34.549   6.422   3.359  1.00 20.00     0.087 N 
HETATM    8  C4  UNL     1     -33.640   5.518   2.643  1.00 20.00     0.302 C 
HETATM    9  C7  UNL     1     -35.296   5.698   4.387  1.00 20.00     0.310 C 
HETATM   10  C6  UNL     1     -32.853   6.276   1.568  1.00 20.00     0.303 C 
ENDBRANCH   3   4
TORSDOF 1
ENDMDL
MODEL 4
REMARK VINA RESULT:      -0.8      1.294      4.772
REMARK  1 active torsions:
REMARK  status: ('A' for Active; 'I' for Inactive)
REMARK    1  A    between atoms: C8_8  and  N10_10 
ROOT
HETATM    1  C1  UNL     1     -33.142   2.615   4.787  1.00 20.00     0.013 C 
HETATM    2  C2  UNL     1     -33.721   3.591   4.396  1.00 20.00    -0.087 C 
HETATM    3  C8  UNL     1     -34.433   4.779   3.921  1.00 20.00     0.365 C 
ENDROOT
BRANCH   3   4
HETATM    4  N10 UNL     1     -33.493   5.775   3.410  1.00 20.00     0.102 N 
HETATM    5  C5  UNL     1     -33.205   5.539   1.989  1.00 20.00     0.303 C 
HETATM    6  C3  UNL     1     -32.221   6.583   1.452  1.00 20.00     0.302 C 
HETATM    7  N9  UNL     1     -32.738   7.942   1.652  1.00 20.00     0.087 N 
HETATM    8  C4  UNL     1     -33.026   8.177   3.072  1.00 20.00     0.302 C 
HETATM    9  C7  UNL     1     -31.796   8.937   1.142  1.00 20.00     0.310 C 
HETATM   10  C6  UNL     1     -34.011   7.133   3.609  1.00 20.00     0.303 C 
ENDBRANCH   3   4
TORSDOF 1
ENDMDL
