MODEL 1
REMARK VINA RESULT:       0.6      0.000      0.000
REMARK  0 active torsions:
REMARK  status: ('A' for Active; 'I' for Inactive)
ROOT
HETATM    1  C1  UNL     1     -32.503   5.339   1.791  1.00 20.00     0.011 A 
HETATM    2  C2  UNL     1     -31.799   6.317   1.089  1.00 20.00     0.024 A 
HETATM    3  C3  UNL     1     -32.944   8.039   2.336  1.00 20.00     0.031 A 
HETATM    4  C4  UNL     1     -33.440   5.702   2.766  1.00 20.00    -0.024 A 
HETATM    5  C5  UNL     1     -33.649   7.063   3.054  1.00 20.00    -0.047 A 
HETATM    6  C6  UNL     1     -32.021   7.666   1.359  1.00 20.00     0.034 A 
HETATM    7  C7  UNL     1     -34.671   7.473   4.083  1.00 20.00     0.069 C 
HETATM    8  C8  UNL     1     -34.169   4.636   3.546  1.00 20.00     0.308 C 
HETATM    9  C9  UNL     1     -35.065   6.323   5.011  1.00 20.00     0.274 C 
HETATM   10  N10 UNL     1     -35.371   5.126   4.230  1.00 20.00     0.087 N 
HETATM   11 CL11 UNL     1     -31.156   8.871   0.488  1.00 20.00    -0.084 Cl
HETATM   12  H21 UNL     1     -36.085   5.349   3.536  1.00 20.00     0.316 HD
ENDROOT
TORSDOF 0
ENDMDL
MODEL 2
REMARK VINA RESULT:       1.3      2.945      4.521
REMARK  0 active torsions:
REMARK  status: ('A' for Active; 'I' for Inactive)
ROOT
HETATM    1  C1  UNL     1     -34.128   7.704   3.658  1.00 20.00     0.011 A 
HETATM    2  C2  UNL     1     -34.383   6.420   4.137  1.00 20.00     0.024 A 
HETATM    3  C3  UNL     1     -32.914   5.497   2.456  1.00 20.00     0.031 A 
HETATM    4  C4  UNL     1     -33.269   7.896   2.567  1.00 20.00    -0.024 A 
HETATM    5  C5  UNL     1     -32.643   6.785   1.974  1.00 20.00    -0.047 A 
HETATM    6  C6  UNL     1     -33.779   5.317   3.536  1.00 20.00     0.034 A 
HETATM    7  C7  UNL     1     -31.736   6.971   0.785  1.00 20.00     0.069 C 
HETATM    8  C8  UNL     1     -32.971   9.293   2.080  1.00 20.00     0.308 C 
HETATM    9  C9  UNL     1     -31.263   8.417   0.627  1.00 20.00     0.274 C 
HETATM   10  N10 UNL     1     -32.397   9.334   0.730  1.00 20.00     0.087 N 
HETATM   11 CL11 UNL     1     -34.100   3.733   4.125  1.00 20.00    -0.084 Cl
HETATM   12  H21 UNL     1     -33.111   9.065   0.053  1.00 20.00     0.316 HD
ENDROOT
TORSDOF 0
ENDMDL
MODEL 3
REMARK VINA RESULT:       1.5      0.998      1.120
REMARK  0 active torsions:
REMARK  status: ('A' for Active; 'I' for Inactive)
ROOT
HETATM    1  C1  UNL     1     -31.927   6.401   1.673  1.00 20.00     0.011 A 
HETATM    2  C2  UNL     1     -31.781   7.672   1.119  1.00 20.00     0.024 A 
HETATM    3  C3  UNL     1     -33.703   8.438   2.366  1.00 20.00     0.031 A 
HETATM    4  C4  UNL     1     -32.968   6.134   2.571  1.00 20.00    -0.024 A 
HETATM    5  C5  UNL     1     -33.852   7.166   2.935  1.00 20.00    -0.047 A 
HETATM    6  C6  UNL     1     -32.669   8.690   1.463  1.00 20.00     0.034 A 
HETATM    7  C7  UNL     1     -34.992   6.891   3.881  1.00 20.00     0.069 C 
HETATM    8  C8  UNL     1     -33.095   4.765   3.193  1.00 20.00     0.308 C 
HETATM    9  C9  UNL     1     -34.796   5.600   4.678  1.00 20.00     0.274 C 
HETATM   10  N10 UNL     1     -34.413   4.508   3.785  1.00 20.00     0.087 N 
HETATM   11 CL11 UNL     1     -32.491  10.256   0.775  1.00 20.00    -0.084 Cl
HETATM   12  H21 UNL     1     -35.105   4.423   3.040  1.00 20.00     0.316 HD
ENDROOT
TORSDOF 0
ENDMDL
MODEL 4
REMARK VINA RESULT:       1.5      1.778      2.572
REMARK  0 active torsions:
REMARK  status: ('A' for Active; 'I' for Inactive)
ROOT
HETATM    1  C1  UNL     1     -32.100   7.549   1.815  1.00 20.00     0.011 A 
HETATM    2  C2  UNL     1     -31.509   6.624   0.955  1.00 20.00     0.024 A 
HETATM    3  C3  UNL     1     -32.890   4.874   1.885  1.00 20.00     0.031 A 
HETATM    4  C4  UNL     1     -33.086   7.144   2.724  1.00 20.00    -0.024 A 
HETATM    5  C5  UNL     1     -33.497   5.799   2.745  1.00 20.00    -0.047 A 
HETATM    6  C6  UNL     1     -31.902   5.288   0.991  1.00 20.00     0.034 A 
HETATM    7  C7  UNL     1     -34.539   5.341   3.733  1.00 20.00     0.069 C 
HETATM    8  C8  UNL     1     -33.745   8.160   3.623  1.00 20.00     0.308 C 
HETATM    9  C9  UNL     1     -35.345   6.501   4.319  1.00 20.00     0.274 C 
HETATM   10  N10 UNL     1     -34.448   7.564   4.766  1.00 20.00     0.087 N 
HETATM   11 CL11 UNL     1     -31.167   4.146  -0.066  1.00 20.00    -0.084 Cl
HETATM   12  H21 UNL     1     -33.764   7.177   5.417  1.00 20.00     0.316 HD
ENDROOT
TORSDOF 0
ENDMDL
MODEL 5
REMARK VINA RESULT:       2.1      3.056      4.193
REMARK  0 active torsions:
REMARK  status: ('A' for Active; 'I' for Inactive)
ROOT
HETATM    1  C1  UNL     1     -32.507   5.702   1.739  1.00 20.00     0.011 A 
HETATM    2  C2  UNL     1     -33.410   5.234   2.693  1.00 20.00     0.024 A 
HETATM    3  C3  UNL     1     -34.082   7.503   3.175  1.00 20.00     0.031 A 
HETATM    4  C4  UNL     1     -32.376   7.076   1.501  1.00 20.00    -0.024 A 
HETATM    5  C5  UNL     1     -33.184   7.982   2.211  1.00 20.00    -0.047 A 
HETATM    6  C6  UNL     1     -34.196   6.133   3.412  1.00 20.00     0.034 A 
HETATM    7  C7  UNL     1     -33.039   9.465   1.985  1.00 20.00     0.069 C 
HETATM    8  C8  UNL     1     -31.423   7.570   0.441  1.00 20.00     0.308 C 
HETATM    9  C9  UNL     1     -32.315   9.793   0.678  1.00 20.00     0.274 C 
HETATM   10  N10 UNL     1     -31.096   8.995   0.562  1.00 20.00     0.087 N 
HETATM   11 CL11 UNL     1     -35.305   5.554   4.592  1.00 20.00    -0.084 Cl
HETATM   12  H21 UNL     1     -30.520   9.138   1.392  1.00 20.00     0.316 HD
ENDROOT
TORSDOF 0
ENDMDL
MODEL 6
REMARK VINA RESULT:       2.4      0.860      2.261
REMARK  0 active torsions:
REMARK  status: ('A' for Active; 'I' for Inactive)
ROOT
HETATM    1  C1  UNL     1     -34.089   8.023   3.267  1.00 20.00     0.011 A 
HETATM    2  C2  UNL     1     -33.267   8.726   2.386  1.00 20.00     0.024 A 
HETATM    3  C3  UNL     1     -32.200   6.661   1.729  1.00 20.00     0.031 A 
HETATM    4  C4  UNL     1     -33.968   6.633   3.393  1.00 20.00    -0.024 A 
HETATM    5  C5  UNL     1     -33.028   5.945   2.604  1.00 20.00    -0.047 A 
HETATM    6  C6  UNL     1     -32.322   8.047   1.620  1.00 20.00     0.034 A 
HETATM    7  C7  UNL     1     -32.868   4.453   2.744  1.00 20.00     0.069 C 
HETATM    8  C8  UNL     1     -34.887   5.878   4.320  1.00 20.00     0.308 C 
HETATM    9  C9  UNL     1     -34.062   3.796   3.437  1.00 20.00     0.274 C 
HETATM   10  N10 UNL     1     -34.410   4.530   4.652  1.00 20.00     0.087 N 
HETATM   11 CL11 UNL     1     -31.305   8.917   0.539  1.00 20.00    -0.084 Cl
HETATM   12  H21 UNL     1     -33.585   4.603   5.248  1.00 20.00     0.316 HD
ENDROOT
TORSDOF 0
ENDMDL
