MODEL 1
REMARK VINA RESULT:      -2.2      0.000      0.000
REMARK  2 active torsions:
REMARK  status: ('A' for Active; 'I' for Inactive)
REMARK    1  A    between atoms: C2_2  and  C3_3 
REMARK    2  A    between atoms: C3_3  and  O10_10 
ROOT
HETATM    1  C1  UNL     1     -33.458   6.274   2.799  1.00 20.00    -0.067 C 
HETATM    2  C2  UNL     1     -32.495   6.582   1.925  1.00 20.00     0.014 C 
HETATM    3  C4  UNL     1     -33.965   4.883   3.056  1.00 20.00     0.035 C 
HETATM    4  C5  UNL     1     -34.184   7.272   3.657  1.00 20.00     0.035 C 
HETATM    5  C6  UNL     1     -34.800   5.049   4.320  1.00 20.00     0.005 C 
HETATM    6  C7  UNL     1     -35.353   6.464   4.208  1.00 20.00     0.005 C 
HETATM    7  C8  UNL     1     -31.800   5.550   1.088  1.00 20.00     0.056 C 
ENDROOT
BRANCH   2   8
HETATM    8  C3  UNL     1     -32.119   8.015   1.799  1.00 20.00     0.171 C 
HETATM    9  O9  UNL     1     -32.465   8.762   0.897  1.00 20.00    -0.646 OA
BRANCH   8  10
HETATM   10  O10 UNL     1     -31.330   8.396   2.831  1.00 20.00    -0.773 OA
HETATM   11  H22 UNL     1     -31.402   7.784   3.595  1.00 20.00     0.167 HD
ENDBRANCH   8  10
ENDBRANCH   2   8
TORSDOF 2
ENDMDL
MODEL 2
REMARK VINA RESULT:      -1.5      2.592      4.316
REMARK  2 active torsions:
REMARK  status: ('A' for Active; 'I' for Inactive)
REMARK    1  A    between atoms: C2_2  and  C3_3 
REMARK    2  A    between atoms: C3_3  and  O10_10 
ROOT
HETATM    1  C1  UNL     1     -33.217   6.518   2.707  1.00 20.00    -0.067 C 
HETATM    2  C2  UNL     1     -34.065   6.388   3.733  1.00 20.00     0.014 C 
HETATM    3  C4  UNL     1     -32.684   7.829   2.201  1.00 20.00     0.035 C 
HETATM    4  C5  UNL     1     -32.669   5.374   1.902  1.00 20.00     0.035 C 
HETATM    5  C6  UNL     1     -31.558   7.404   1.266  1.00 20.00     0.005 C 
HETATM    6  C7  UNL     1     -32.034   6.071   0.704  1.00 20.00     0.005 C 
HETATM    7  C8  UNL     1     -34.586   7.562   4.506  1.00 20.00     0.056 C 
ENDROOT
BRANCH   2   8
HETATM    8  C3  UNL     1     -34.490   5.011   4.097  1.00 20.00     0.171 C 
HETATM    9  O9  UNL     1     -33.803   4.006   3.994  1.00 20.00    -0.646 OA
BRANCH   8  10
HETATM   10  O10 UNL     1     -35.759   5.010   4.568  1.00 20.00    -0.773 OA
HETATM   11  H22 UNL     1     -35.967   5.829   5.067  1.00 20.00     0.167 HD
ENDBRANCH   8  10
ENDBRANCH   2   8
TORSDOF 2
ENDMDL
MODEL 3
REMARK VINA RESULT:      -1.0      1.744      2.634
REMARK  2 active torsions:
REMARK  status: ('A' for Active; 'I' for Inactive)
REMARK    1  A    between atoms: C2_2  and  C3_3 
REMARK    2  A    between atoms: C3_3  and  O10_10 
ROOT
HETATM    1  C1  UNL     1     -33.571   6.231   2.869  1.00 20.00    -0.067 C 
HETATM    2  C2  UNL     1     -32.644   6.507   1.946  1.00 20.00     0.014 C 
HETATM    3  C4  UNL     1     -34.213   7.252   3.766  1.00 20.00     0.035 C 
HETATM    4  C5  UNL     1     -34.112   4.858   3.152  1.00 20.00     0.035 C 
HETATM    5  C6  UNL     1     -35.380   6.485   4.378  1.00 20.00     0.005 C 
HETATM    6  C7  UNL     1     -34.871   5.052   4.459  1.00 20.00     0.005 C 
HETATM    7  C8  UNL     1     -32.134   7.896   1.701  1.00 20.00     0.056 C 
ENDROOT
BRANCH   2   8
HETATM    8  C3  UNL     1     -32.116   5.370   1.146  1.00 20.00     0.171 C 
HETATM    9  O9  UNL     1     -31.026   4.841   1.300  1.00 20.00    -0.646 OA
BRANCH   8  10
HETATM   10  O10 UNL     1     -33.012   4.987   0.208  1.00 20.00    -0.773 OA
HETATM   11  H22 UNL     1     -32.922   4.036  -0.021  1.00 20.00     0.167 HD
ENDBRANCH   8  10
ENDBRANCH   2   8
TORSDOF 2
ENDMDL
MODEL 4
REMARK VINA RESULT:      -0.7      2.470      4.160
REMARK  2 active torsions:
REMARK  status: ('A' for Active; 'I' for Inactive)
REMARK    1  A    between atoms: C2_2  and  C3_3 
REMARK    2  A    between atoms: C3_3  and  O10_10 
ROOT
HETATM    1  C1  UNL     1     -33.133   7.262   2.877  1.00 20.00    -0.067 C 
HETATM    2  C2  UNL     1     -33.987   7.223   3.905  1.00 20.00     0.014 C 
HETATM    3  C4  UNL     1     -32.042   8.282   2.713  1.00 20.00     0.035 C 
HETATM    4  C5  UNL     1     -33.136   6.295   1.727  1.00 20.00     0.035 C 
HETATM    5  C6  UNL     1     -31.197   7.702   1.585  1.00 20.00     0.005 C 
HETATM    6  C7  UNL     1     -32.207   6.960   0.718  1.00 20.00     0.005 C 
HETATM    7  C8  UNL     1     -33.946   8.213   5.030  1.00 20.00     0.056 C 
ENDROOT
BRANCH   2   8
HETATM    8  C3  UNL     1     -35.008   6.141   3.904  1.00 20.00     0.171 C 
HETATM    9  O9  UNL     1     -36.175   6.269   3.569  1.00 20.00    -0.646 OA
BRANCH   8  10
HETATM   10  O10 UNL     1     -34.471   4.974   4.329  1.00 20.00    -0.773 OA
HETATM   11  H22 UNL     1     -34.181   5.023   5.266  1.00 20.00     0.167 HD
ENDBRANCH   8  10
ENDBRANCH   2   8
TORSDOF 2
ENDMDL
MODEL 5
REMARK VINA RESULT:      -0.6      2.420      3.796
REMARK  2 active torsions:
REMARK  status: ('A' for Active; 'I' for Inactive)
REMARK    1  A    between atoms: C2_2  and  C3_3 
REMARK    2  A    between atoms: C3_3  and  O10_10 
ROOT
HETATM    1  C1  UNL     1     -33.126   6.145   2.606  1.00 20.00    -0.067 C 
HETATM    2  C2  UNL     1     -33.874   5.347   3.375  1.00 20.00     0.014 C 
HETATM    3  C4  UNL     1     -32.017   5.672   1.710  1.00 20.00     0.035 C 
HETATM    4  C5  UNL     1     -33.279   7.637   2.522  1.00 20.00     0.035 C 
HETATM    5  C6  UNL     1     -31.720   6.898   0.854  1.00 20.00     0.005 C 
HETATM    6  C7  UNL     1     -32.020   8.070   1.780  1.00 20.00     0.005 C 
HETATM    7  C8  UNL     1     -33.682   3.861   3.427  1.00 20.00     0.056 C 
ENDROOT
BRANCH   2   8
HETATM    8  C3  UNL     1     -34.930   5.989   4.202  1.00 20.00     0.171 C 
HETATM    9  O9  UNL     1     -35.045   7.188   4.399  1.00 20.00    -0.646 OA
BRANCH   8  10
HETATM   10  O10 UNL     1     -35.766   5.058   4.720  1.00 20.00    -0.773 OA
HETATM   11  H22 UNL     1     -36.636   5.440   4.964  1.00 20.00     0.167 HD
ENDBRANCH   8  10
ENDBRANCH   2   8
TORSDOF 2
ENDMDL
MODEL 6
REMARK VINA RESULT:      -0.2      2.138      4.088
REMARK  2 active torsions:
REMARK  status: ('A' for Active; 'I' for Inactive)
REMARK    1  A    between atoms: C2_2  and  C3_3 
REMARK    2  A    between atoms: C3_3  and  O10_10 
ROOT
HETATM    1  C1  UNL     1     -32.533   8.447   1.353  1.00 20.00    -0.067 C 
HETATM    2  C2  UNL     1     -32.566   7.318   2.068  1.00 20.00     0.014 C 
HETATM    3  C4  UNL     1     -31.868   8.589   0.013  1.00 20.00     0.035 C 
HETATM    4  C5  UNL     1     -33.153   9.747   1.781  1.00 20.00     0.035 C 
HETATM    5  C6  UNL     1     -32.383   9.936  -0.484  1.00 20.00     0.005 C 
HETATM    6  C7  UNL     1     -32.569  10.748   0.792  1.00 20.00     0.005 C 
HETATM    7  C8  UNL     1     -31.929   6.044   1.599  1.00 20.00     0.056 C 
ENDROOT
BRANCH   2   8
HETATM    8  C3  UNL     1     -33.269   7.358   3.378  1.00 20.00     0.171 C 
HETATM    9  O9  UNL     1     -32.929   8.023   4.344  1.00 20.00    -0.646 OA
BRANCH   8  10
HETATM   10  O10 UNL     1     -34.354   6.550   3.365  1.00 20.00    -0.773 OA
HETATM   11  H22 UNL     1     -34.436   6.031   4.194  1.00 20.00     0.167 HD
ENDBRANCH   8  10
ENDBRANCH   2   8
TORSDOF 2
ENDMDL
MODEL 7
REMARK VINA RESULT:       0.2      1.394      2.221
REMARK  2 active torsions:
REMARK  status: ('A' for Active; 'I' for Inactive)
REMARK    1  A    between atoms: C2_2  and  C3_3 
REMARK    2  A    between atoms: C3_3  and  O10_10 
ROOT
HETATM    1  C1  UNL     1     -33.809   6.279   3.252  1.00 20.00    -0.067 C 
HETATM    2  C2  UNL     1     -33.139   7.178   2.524  1.00 20.00     0.014 C 
HETATM    3  C4  UNL     1     -34.932   6.609   4.195  1.00 20.00     0.035 C 
HETATM    4  C5  UNL     1     -33.541   4.801   3.241  1.00 20.00     0.035 C 
HETATM    5  C6  UNL     1     -35.529   5.242   4.510  1.00 20.00     0.005 C 
HETATM    6  C7  UNL     1     -34.335   4.298   4.440  1.00 20.00     0.005 C 
HETATM    7  C8  UNL     1     -33.443   8.646   2.571  1.00 20.00     0.056 C 
ENDROOT
BRANCH   2   8
HETATM    8  C3  UNL     1     -32.053   6.672   1.643  1.00 20.00     0.171 C 
HETATM    9  O9  UNL     1     -31.985   5.546   1.178  1.00 20.00    -0.646 OA
BRANCH   8  10
HETATM   10  O10 UNL     1     -31.132   7.637   1.415  1.00 20.00    -0.773 OA
HETATM   11  H22 UNL     1     -31.083   7.882   0.466  1.00 20.00     0.167 HD
ENDBRANCH   8  10
ENDBRANCH   2   8
TORSDOF 2
ENDMDL
MODEL 8
REMARK VINA RESULT:       0.4      2.786      4.432
REMARK  2 active torsions:
REMARK  status: ('A' for Active; 'I' for Inactive)
REMARK    1  A    between atoms: C2_2  and  C3_3 
REMARK    2  A    between atoms: C3_3  and  O10_10 
ROOT
HETATM    1  C1  UNL     1     -33.419   6.018   2.957  1.00 20.00    -0.067 C 
HETATM    2  C2  UNL     1     -34.197   5.342   3.808  1.00 20.00     0.014 C 
HETATM    3  C4  UNL     1     -33.624   7.457   2.573  1.00 20.00     0.035 C 
HETATM    4  C5  UNL     1     -32.223   5.444   2.252  1.00 20.00     0.035 C 
HETATM    5  C6  UNL     1     -32.326   7.808   1.854  1.00 20.00     0.005 C 
HETATM    6  C7  UNL     1     -31.907   6.499   1.198  1.00 20.00     0.005 C 
HETATM    7  C8  UNL     1     -35.382   5.959   4.487  1.00 20.00     0.056 C 
ENDROOT
BRANCH   2   8
HETATM    8  C3  UNL     1     -33.846   3.921   4.072  1.00 20.00     0.171 C 
HETATM    9  O9  UNL     1     -33.276   3.505   5.069  1.00 20.00    -0.646 OA
BRANCH   8  10
HETATM   10  O10 UNL     1     -34.247   3.130   3.050  1.00 20.00    -0.773 OA
HETATM   11  H22 UNL     1     -35.173   3.319   2.781  1.00 20.00     0.167 HD
ENDBRANCH   8  10
ENDBRANCH   2   8
TORSDOF 2
ENDMDL
MODEL 9
REMARK VINA RESULT:       0.5      2.432      3.697
REMARK  2 active torsions:
REMARK  status: ('A' for Active; 'I' for Inactive)
REMARK    1  A    between atoms: C2_2  and  C3_3 
REMARK    2  A    between atoms: C3_3  and  O10_10 
ROOT
HETATM    1  C1  UNL     1     -32.836   6.904   2.409  1.00 20.00    -0.067 C 
HETATM    2  C2  UNL     1     -33.447   5.716   2.350  1.00 20.00     0.014 C 
HETATM    3  C4  UNL     1     -31.939   7.456   1.338  1.00 20.00     0.035 C 
HETATM    4  C5  UNL     1     -32.950   7.867   3.557  1.00 20.00     0.035 C 
HETATM    5  C6  UNL     1     -31.771   8.915   1.749  1.00 20.00     0.005 C 
HETATM    6  C7  UNL     1     -31.845   8.875   3.270  1.00 20.00     0.005 C 
HETATM    7  C8  UNL     1     -33.301   4.788   1.182  1.00 20.00     0.056 C 
ENDROOT
BRANCH   2   8
HETATM    8  C3  UNL     1     -34.300   5.328   3.505  1.00 20.00     0.171 C 
HETATM    9  O9  UNL     1     -35.235   5.978   3.945  1.00 20.00    -0.646 OA
BRANCH   8  10
HETATM   10  O10 UNL     1     -33.902   4.140   4.017  1.00 20.00    -0.773 OA
HETATM   11  H22 UNL     1     -32.928   4.027   3.969  1.00 20.00     0.167 HD
ENDBRANCH   8  10
ENDBRANCH   2   8
TORSDOF 2
ENDMDL
