MODEL 1
REMARK VINA RESULT:      -1.2      0.000      0.000
REMARK  1 active torsions:
REMARK  status: ('A' for Active; 'I' for Inactive)
REMARK    1  A    between atoms: C6_6  and  N8_8 
ROOT
HETATM    1  C1  UNL     1     -32.203   8.219   2.541  1.00 20.00     0.137 A 
HETATM    2  C2  UNL     1     -33.165   7.661   3.349  1.00 20.00     0.113 A 
HETATM    3  C3  UNL     1     -32.617   6.310   1.696  1.00 20.00     0.203 A 
HETATM    4  N7  UNL     1     -31.866   7.373   1.514  1.00 20.00    -0.231 NA
HETATM    5  N8  UNL     1     -33.421   6.438   2.795  1.00 20.00    -0.327 N 
HETATM    6 CL9  UNL     1     -32.651   4.911   0.733  1.00 20.00    -0.043 Cl
ENDROOT
BRANCH   5   7
HETATM    7  C6  UNL     1     -34.390   5.464   3.313  1.00 20.00     0.083 C 
HETATM    8  C4  UNL     1     -35.438   6.122   4.213  1.00 20.00     0.032 C 
HETATM    9  C5  UNL     1     -33.703   4.290   4.014  1.00 20.00     0.032 C 
ENDBRANCH   5   7
TORSDOF 1
ENDMDL
MODEL 2
REMARK VINA RESULT:      -0.9      1.834      2.123
REMARK  1 active torsions:
REMARK  status: ('A' for Active; 'I' for Inactive)
REMARK    1  A    between atoms: C6_6  and  N8_8 
ROOT
HETATM    1  C1  UNL     1     -32.011   7.086   1.434  1.00 20.00     0.137 A 
HETATM    2  C2  UNL     1     -32.769   5.953   1.616  1.00 20.00     0.113 A 
HETATM    3  C3  UNL     1     -33.107   7.417   3.229  1.00 20.00     0.203 A 
HETATM    4  N7  UNL     1     -32.227   7.993   2.442  1.00 20.00    -0.231 NA
HETATM    5  N8  UNL     1     -33.465   6.179   2.770  1.00 20.00    -0.327 N 
HETATM    6 CL9  UNL     1     -33.768   8.056   4.658  1.00 20.00    -0.043 Cl
ENDROOT
BRANCH   5   7
HETATM    7  C6  UNL     1     -34.418   5.241   3.378  1.00 20.00     0.083 C 
HETATM    8  C4  UNL     1     -35.463   5.960   4.232  1.00 20.00     0.032 C 
HETATM    9  C5  UNL     1     -33.710   4.136   4.166  1.00 20.00     0.032 C 
ENDBRANCH   5   7
TORSDOF 1
ENDMDL
MODEL 3
REMARK VINA RESULT:      -0.8      1.747      3.371
REMARK  1 active torsions:
REMARK  status: ('A' for Active; 'I' for Inactive)
REMARK    1  A    between atoms: C6_6  and  N8_8 
ROOT
HETATM    1  C1  UNL     1     -35.552   6.332   4.211  1.00 20.00     0.137 A 
HETATM    2  C2  UNL     1     -34.651   6.849   3.310  1.00 20.00     0.113 A 
HETATM    3  C3  UNL     1     -34.162   4.765   3.834  1.00 20.00     0.203 A 
HETATM    4  N7  UNL     1     -35.241   5.034   4.532  1.00 20.00    -0.231 NA
HETATM    5  N8  UNL     1     -33.766   5.834   3.079  1.00 20.00    -0.327 N 
HETATM    6 CL9  UNL     1     -33.300   3.301   3.817  1.00 20.00    -0.043 Cl
ENDROOT
BRANCH   5   7
HETATM    7  C6  UNL     1     -32.610   5.912   2.175  1.00 20.00     0.083 C 
HETATM    8  C4  UNL     1     -32.181   7.358   1.919  1.00 20.00     0.032 C 
HETATM    9  C5  UNL     1     -32.854   5.156   0.867  1.00 20.00     0.032 C 
ENDBRANCH   5   7
TORSDOF 1
ENDMDL
MODEL 4
REMARK VINA RESULT:      -0.7      1.833      2.464
REMARK  1 active torsions:
REMARK  status: ('A' for Active; 'I' for Inactive)
REMARK    1  A    between atoms: C6_6  and  N8_8 
ROOT
HETATM    1  C1  UNL     1     -32.179   5.367   1.438  1.00 20.00     0.137 A 
HETATM    2  C2  UNL     1     -33.141   5.444   2.417  1.00 20.00     0.113 A 
HETATM    3  C3  UNL     1     -32.454   7.446   1.802  1.00 20.00     0.203 A 
HETATM    4  N7  UNL     1     -31.756   6.617   1.059  1.00 20.00    -0.231 NA
HETATM    5  N8  UNL     1     -33.306   6.782   2.641  1.00 20.00    -0.327 N 
HETATM    6 CL9  UNL     1     -32.369   9.143   1.789  1.00 20.00    -0.043 Cl
ENDROOT
BRANCH   5   7
HETATM    7  C6  UNL     1     -34.240   7.366   3.613  1.00 20.00     0.083 C 
HETATM    8  C4  UNL     1     -33.511   7.969   4.815  1.00 20.00     0.032 C 
HETATM    9  C5  UNL     1     -35.313   6.366   4.049  1.00 20.00     0.032 C 
ENDBRANCH   5   7
TORSDOF 1
ENDMDL
MODEL 5
REMARK VINA RESULT:      -0.3      1.234      3.341
REMARK  1 active torsions:
REMARK  status: ('A' for Active; 'I' for Inactive)
REMARK    1  A    between atoms: C6_6  and  N8_8 
ROOT
HETATM    1  C1  UNL     1     -34.563   6.559   3.898  1.00 20.00     0.137 A 
HETATM    2  C2  UNL     1     -33.801   7.658   3.578  1.00 20.00     0.113 A 
HETATM    3  C3  UNL     1     -33.266   5.917   2.337  1.00 20.00     0.203 A 
HETATM    4  N7  UNL     1     -34.224   5.479   3.121  1.00 20.00    -0.231 NA
HETATM    5  N8  UNL     1     -32.974   7.231   2.577  1.00 20.00    -0.327 N 
HETATM    6 CL9  UNL     1     -32.436   5.028   1.150  1.00 20.00    -0.043 Cl
ENDROOT
BRANCH   5   7
HETATM    7  C6  UNL     1     -31.967   8.062   1.903  1.00 20.00     0.083 C 
HETATM    8  C4  UNL     1     -31.054   8.776   2.901  1.00 20.00     0.032 C 
HETATM    9  C5  UNL     1     -32.602   9.045   0.917  1.00 20.00     0.032 C 
ENDBRANCH   5   7
TORSDOF 1
ENDMDL
MODEL 6
REMARK VINA RESULT:      -0.2      1.573      2.067
REMARK  1 active torsions:
REMARK  status: ('A' for Active; 'I' for Inactive)
REMARK    1  A    between atoms: C6_6  and  N8_8 
ROOT
HETATM    1  C1  UNL     1     -31.820   6.876   1.168  1.00 20.00     0.137 A 
HETATM    2  C2  UNL     1     -32.538   7.762   1.936  1.00 20.00     0.113 A 
HETATM    3  C3  UNL     1     -32.995   5.674   2.473  1.00 20.00     0.203 A 
HETATM    4  N7  UNL     1     -32.110   5.578   1.508  1.00 20.00    -0.231 NA
HETATM    5  N8  UNL     1     -33.287   6.977   2.768  1.00 20.00    -0.327 N 
HETATM    6 CL9  UNL     1     -33.739   4.391   3.304  1.00 20.00    -0.043 Cl
ENDROOT
BRANCH   5   7
HETATM    7  C6  UNL     1     -34.224   7.477   3.782  1.00 20.00     0.083 C 
HETATM    8  C4  UNL     1     -33.504   7.915   5.059  1.00 20.00     0.032 C 
HETATM    9  C5  UNL     1     -35.337   6.470   4.080  1.00 20.00     0.032 C 
ENDBRANCH   5   7
TORSDOF 1
ENDMDL
MODEL 7
REMARK VINA RESULT:       0.0      1.994      3.904
REMARK  1 active torsions:
REMARK  status: ('A' for Active; 'I' for Inactive)
REMARK    1  A    between atoms: C6_6  and  N8_8 
ROOT
HETATM    1  C1  UNL     1     -33.876   3.740   4.443  1.00 20.00     0.137 A 
HETATM    2  C2  UNL     1     -33.044   4.192   3.446  1.00 20.00     0.113 A 
HETATM    3  C3  UNL     1     -34.743   5.560   3.759  1.00 20.00     0.203 A 
HETATM    4  N7  UNL     1     -34.932   4.597   4.632  1.00 20.00    -0.231 NA
HETATM    5  N8  UNL     1     -33.612   5.358   3.017  1.00 20.00    -0.327 N 
HETATM    6 CL9  UNL     1     -35.732   6.919   3.512  1.00 20.00    -0.043 Cl
ENDROOT
BRANCH   5   7
HETATM    7  C6  UNL     1     -33.077   6.214   1.949  1.00 20.00     0.083 C 
HETATM    8  C4  UNL     1     -32.066   5.472   1.074  1.00 20.00     0.032 C 
HETATM    9  C5  UNL     1     -32.496   7.519   2.499  1.00 20.00     0.032 C 
ENDBRANCH   5   7
TORSDOF 1
ENDMDL
MODEL 8
REMARK VINA RESULT:       0.0      1.370      3.211
REMARK  1 active torsions:
REMARK  status: ('A' for Active; 'I' for Inactive)
REMARK    1  A    between atoms: C6_6  and  N8_8 
ROOT
HETATM    1  C1  UNL     1     -34.610   6.836   4.215  1.00 20.00     0.137 A 
HETATM    2  C2  UNL     1     -33.829   7.924   3.903  1.00 20.00     0.113 A 
HETATM    3  C3  UNL     1     -33.467   6.248   2.519  1.00 20.00     0.203 A 
HETATM    4  N7  UNL     1     -34.379   5.796   3.349  1.00 20.00    -0.231 NA
HETATM    5  N8  UNL     1     -33.102   7.532   2.815  1.00 20.00    -0.327 N 
HETATM    6 CL9  UNL     1     -32.770   5.408   1.217  1.00 20.00    -0.043 Cl
ENDROOT
BRANCH   5   7
HETATM    7  C6  UNL     1     -32.116   8.366   2.115  1.00 20.00     0.083 C 
HETATM    8  C4  UNL     1     -32.744   9.144   0.957  1.00 20.00     0.032 C 
HETATM    9  C5  UNL     1     -30.902   7.555   1.655  1.00 20.00     0.032 C 
ENDBRANCH   5   7
TORSDOF 1
ENDMDL
MODEL 9
REMARK VINA RESULT:       0.1      2.160      3.609
REMARK  1 active torsions:
REMARK  status: ('A' for Active; 'I' for Inactive)
REMARK    1  A    between atoms: C6_6  and  N8_8 
ROOT
HETATM    1  C1  UNL     1     -35.040   6.515   3.956  1.00 20.00     0.137 A 
HETATM    2  C2  UNL     1     -34.301   6.098   2.874  1.00 20.00     0.113 A 
HETATM    3  C3  UNL     1     -33.283   7.716   3.971  1.00 20.00     0.203 A 
HETATM    4  N7  UNL     1     -34.400   7.522   4.634  1.00 20.00    -0.231 NA
HETATM    5  N8  UNL     1     -33.178   6.877   2.896  1.00 20.00    -0.327 N 
HETATM    6 CL9  UNL     1     -32.068   8.848   4.331  1.00 20.00    -0.043 Cl
ENDROOT
BRANCH   5   7
HETATM    7  C6  UNL     1     -32.078   6.798   1.925  1.00 20.00     0.083 C 
HETATM    8  C4  UNL     1     -31.954   8.079   1.098  1.00 20.00     0.032 C 
HETATM    9  C5  UNL     1     -32.188   5.560   1.033  1.00 20.00     0.032 C 
ENDBRANCH   5   7
TORSDOF 1
ENDMDL
