MODEL 1
REMARK VINA RESULT:      -2.3      0.000      0.000
REMARK  1 active torsions:
REMARK  status: ('A' for Active; 'I' for Inactive)
REMARK    1  A    between atoms: C5_5  and  O7_7 
ROOT
HETATM    1  C1  UNL     1     -33.445   8.249   3.350  1.00 20.00     0.037 C 
HETATM    2  C2  UNL     1     -33.223   6.176   1.920  1.00 20.00     0.037 C 
HETATM    3  C3  UNL     1     -34.182   7.440   4.413  1.00 20.00     0.081 C 
HETATM    4  C4  UNL     1     -33.959   5.363   2.979  1.00 20.00     0.081 C 
HETATM    5  C5  UNL     1     -32.495   7.373   2.535  1.00 20.00     0.118 C 
HETATM    6  C6  UNL     1     -34.887   6.239   3.807  1.00 20.00     0.243 C 
HETATM    7  F8  UNL     1     -35.446   5.497   4.795  1.00 20.00    -0.206 F 
HETATM    8  F9  UNL     1     -35.909   6.670   3.023  1.00 20.00    -0.206 F 
ENDROOT
BRANCH   5   9
HETATM    9  O7  UNL     1     -31.922   8.166   1.500  1.00 20.00    -0.396 OA
HETATM   10  H19 UNL     1     -31.324   8.798   1.933  1.00 20.00     0.210 HD
ENDBRANCH   5   9
TORSDOF 1
ENDMDL
MODEL 2
REMARK VINA RESULT:      -2.0      2.799      3.762
REMARK  1 active torsions:
REMARK  status: ('A' for Active; 'I' for Inactive)
REMARK    1  A    between atoms: C5_5  and  O7_7 
ROOT
HETATM    1  C1  UNL     1     -33.957   5.823   2.297  1.00 20.00     0.037 C 
HETATM    2  C2  UNL     1     -33.932   7.769   3.911  1.00 20.00     0.037 C 
HETATM    3  C3  UNL     1     -32.535   6.162   1.861  1.00 20.00     0.081 C 
HETATM    4  C4  UNL     1     -32.510   8.113   3.479  1.00 20.00     0.081 C 
HETATM    5  C5  UNL     1     -34.230   6.280   3.730  1.00 20.00     0.118 C 
HETATM    6  C6  UNL     1     -32.230   7.637   2.062  1.00 20.00     0.243 C 
HETATM    7  F8  UNL     1     -30.931   7.875   1.755  1.00 20.00    -0.206 F 
HETATM    8  F9  UNL     1     -32.972   8.369   1.192  1.00 20.00    -0.206 F 
ENDROOT
BRANCH   5   9
HETATM    9  O7  UNL     1     -35.599   6.027   4.033  1.00 20.00    -0.396 OA
HETATM   10  H19 UNL     1     -35.608   5.418   4.789  1.00 20.00     0.210 HD
ENDBRANCH   5   9
TORSDOF 1
ENDMDL
MODEL 3
REMARK VINA RESULT:      -1.5      2.518      3.306
REMARK  1 active torsions:
REMARK  status: ('A' for Active; 'I' for Inactive)
REMARK    1  A    between atoms: C5_5  and  O7_7 
ROOT
HETATM    1  C1  UNL     1     -34.121   6.006   3.383  1.00 20.00     0.037 C 
HETATM    2  C2  UNL     1     -32.874   8.019   2.497  1.00 20.00     0.037 C 
HETATM    3  C3  UNL     1     -33.184   5.082   2.612  1.00 20.00     0.081 C 
HETATM    4  C4  UNL     1     -31.934   7.100   1.724  1.00 20.00     0.081 C 
HETATM    5  C5  UNL     1     -33.441   7.328   3.739  1.00 20.00     0.118 C 
HETATM    6  C6  UNL     1     -32.602   5.775   1.391  1.00 20.00     0.243 C 
HETATM    7  F8  UNL     1     -31.704   4.955   0.791  1.00 20.00    -0.206 F 
HETATM    8  F9  UNL     1     -33.592   5.990   0.486  1.00 20.00    -0.206 F 
ENDROOT
BRANCH   5   9
HETATM    9  O7  UNL     1     -34.399   8.178   4.362  1.00 20.00    -0.396 OA
HETATM   10  H19 UNL     1     -35.269   7.910   4.026  1.00 20.00     0.210 HD
ENDBRANCH   5   9
TORSDOF 1
ENDMDL
MODEL 4
REMARK VINA RESULT:      -1.5      2.956      3.567
REMARK  1 active torsions:
REMARK  status: ('A' for Active; 'I' for Inactive)
REMARK    1  A    between atoms: C5_5  and  O7_7 
ROOT
HETATM    1  C1  UNL     1     -33.835   7.266   3.802  1.00 20.00     0.037 C 
HETATM    2  C2  UNL     1     -32.919   5.489   2.255  1.00 20.00     0.037 C 
HETATM    3  C3  UNL     1     -33.488   8.342   2.778  1.00 20.00     0.081 C 
HETATM    4  C4  UNL     1     -32.569   6.560   1.228  1.00 20.00     0.081 C 
HETATM    5  C5  UNL     1     -34.095   5.917   3.135  1.00 20.00     0.118 C 
HETATM    6  C6  UNL     1     -32.334   7.909   1.889  1.00 20.00     0.243 C 
HETATM    7  F8  UNL     1     -32.122   8.849   0.935  1.00 20.00    -0.206 F 
HETATM    8  F9  UNL     1     -31.197   7.850   2.630  1.00 20.00    -0.206 F 
ENDROOT
BRANCH   5   9
HETATM    9  O7  UNL     1     -34.311   4.942   4.151  1.00 20.00    -0.396 OA
HETATM   10  H19 UNL     1     -35.238   5.027   4.425  1.00 20.00     0.210 HD
ENDBRANCH   5   9
TORSDOF 1
ENDMDL
MODEL 5
REMARK VINA RESULT:      -1.4      1.880      2.659
REMARK  1 active torsions:
REMARK  status: ('A' for Active; 'I' for Inactive)
REMARK    1  A    between atoms: C5_5  and  O7_7 
ROOT
HETATM    1  C1  UNL     1     -33.358   5.378   2.886  1.00 20.00     0.037 C 
HETATM    2  C2  UNL     1     -32.087   7.300   1.846  1.00 20.00     0.037 C 
HETATM    3  C3  UNL     1     -34.339   6.363   3.514  1.00 20.00     0.081 C 
HETATM    4  C4  UNL     1     -33.064   8.289   2.472  1.00 20.00     0.081 C 
HETATM    5  C5  UNL     1     -32.741   5.938   1.605  1.00 20.00     0.118 C 
HETATM    6  C6  UNL     1     -33.697   7.723   3.734  1.00 20.00     0.243 C 
HETATM    7  F8  UNL     1     -34.626   8.591   4.202  1.00 20.00    -0.206 F 
HETATM    8  F9  UNL     1     -32.747   7.617   4.699  1.00 20.00    -0.206 F 
ENDROOT
BRANCH   5   9
HETATM    9  O7  UNL     1     -31.765   5.017   1.131  1.00 20.00    -0.396 OA
HETATM   10  H19 UNL     1     -30.897   5.409   1.319  1.00 20.00     0.210 HD
ENDBRANCH   5   9
TORSDOF 1
ENDMDL
MODEL 6
REMARK VINA RESULT:      -1.3      0.916      2.038
REMARK  1 active torsions:
REMARK  status: ('A' for Active; 'I' for Inactive)
REMARK    1  A    between atoms: C5_5  and  O7_7 
ROOT
HETATM    1  C1  UNL     1     -32.853   6.265   1.727  1.00 20.00     0.037 C 
HETATM    2  C2  UNL     1     -32.691   7.961   3.595  1.00 20.00     0.037 C 
HETATM    3  C3  UNL     1     -34.277   5.924   2.157  1.00 20.00     0.081 C 
HETATM    4  C4  UNL     1     -34.114   7.624   4.029  1.00 20.00     0.081 C 
HETATM    5  C5  UNL     1     -32.481   7.699   2.102  1.00 20.00     0.118 C 
HETATM    6  C6  UNL     1     -34.493   6.205   3.634  1.00 20.00     0.243 C 
HETATM    7  F8  UNL     1     -35.792   5.980   3.951  1.00 20.00    -0.206 F 
HETATM    8  F9  UNL     1     -33.760   5.328   4.368  1.00 20.00    -0.206 F 
ENDROOT
BRANCH   5   9
HETATM    9  O7  UNL     1     -31.114   7.916   1.767  1.00 20.00    -0.396 OA
HETATM   10  H19 UNL     1     -31.044   7.813   0.805  1.00 20.00     0.210 HD
ENDBRANCH   5   9
TORSDOF 1
ENDMDL
MODEL 7
REMARK VINA RESULT:      -1.1      2.504      3.250
REMARK  1 active torsions:
REMARK  status: ('A' for Active; 'I' for Inactive)
REMARK    1  A    between atoms: C5_5  and  O7_7 
ROOT
HETATM    1  C1  UNL     1     -35.038   5.124   4.626  1.00 20.00     0.037 C 
HETATM    2  C2  UNL     1     -32.920   5.113   3.247  1.00 20.00     0.037 C 
HETATM    3  C3  UNL     1     -35.420   6.477   4.035  1.00 20.00     0.081 C 
HETATM    4  C4  UNL     1     -33.297   6.466   2.652  1.00 20.00     0.081 C 
HETATM    5  C5  UNL     1     -34.158   4.320   3.670  1.00 20.00     0.118 C 
HETATM    6  C6  UNL     1     -34.193   7.256   3.593  1.00 20.00     0.243 C 
HETATM    7  F8  UNL     1     -34.581   8.405   2.988  1.00 20.00    -0.206 F 
HETATM    8  F9  UNL     1     -33.477   7.620   4.689  1.00 20.00    -0.206 F 
ENDROOT
BRANCH   5   9
HETATM    9  O7  UNL     1     -33.755   3.120   4.324  1.00 20.00    -0.396 OA
HETATM   10  H19 UNL     1     -32.931   2.835   3.898  1.00 20.00     0.210 HD
ENDBRANCH   5   9
TORSDOF 1
ENDMDL
MODEL 8
REMARK VINA RESULT:      -1.1      1.725      2.154
REMARK  1 active torsions:
REMARK  status: ('A' for Active; 'I' for Inactive)
REMARK    1  A    between atoms: C5_5  and  O7_7 
ROOT
HETATM    1  C1  UNL     1     -32.450   7.353   1.803  1.00 20.00     0.037 C 
HETATM    2  C2  UNL     1     -34.012   5.533   2.602  1.00 20.00     0.037 C 
HETATM    3  C3  UNL     1     -32.509   8.011   3.178  1.00 20.00     0.081 C 
HETATM    4  C4  UNL     1     -34.075   6.188   3.979  1.00 20.00     0.081 C 
HETATM    5  C5  UNL     1     -32.695   5.847   1.890  1.00 20.00     0.118 C 
HETATM    6  C6  UNL     1     -33.806   7.682   3.896  1.00 20.00     0.243 C 
HETATM    7  F8  UNL     1     -33.776   8.205   5.147  1.00 20.00    -0.206 F 
HETATM    8  F9  UNL     1     -34.839   8.285   3.251  1.00 20.00    -0.206 F 
ENDROOT
BRANCH   5   9
HETATM    9  O7  UNL     1     -32.729   5.316   0.569  1.00 20.00    -0.396 OA
HETATM   10  H19 UNL     1     -31.806   5.200   0.292  1.00 20.00     0.210 HD
ENDBRANCH   5   9
TORSDOF 1
ENDMDL
MODEL 9
REMARK VINA RESULT:      -0.8      2.577      3.233
REMARK  1 active torsions:
REMARK  status: ('A' for Active; 'I' for Inactive)
REMARK    1  A    between atoms: C5_5  and  O7_7 
ROOT
HETATM    1  C1  UNL     1     -32.398   7.898   2.765  1.00 20.00     0.037 C 
HETATM    2  C2  UNL     1     -33.883   6.079   3.700  1.00 20.00     0.037 C 
HETATM    3  C3  UNL     1     -32.413   7.214   1.402  1.00 20.00     0.081 C 
HETATM    4  C4  UNL     1     -33.901   5.390   2.339  1.00 20.00     0.081 C 
HETATM    5  C5  UNL     1     -33.662   7.586   3.565  1.00 20.00     0.118 C 
HETATM    6  C6  UNL     1     -32.655   5.719   1.533  1.00 20.00     0.243 C 
HETATM    7  F8  UNL     1     -32.756   5.168   0.299  1.00 20.00    -0.206 F 
HETATM    8  F9  UNL     1     -31.576   5.143   2.125  1.00 20.00    -0.206 F 
ENDROOT
BRANCH   5   9
HETATM    9  O7  UNL     1     -33.536   8.168   4.858  1.00 20.00    -0.396 OA
HETATM   10  H19 UNL     1     -33.347   9.111   4.722  1.00 20.00     0.210 HD
ENDBRANCH   5   9
TORSDOF 1
ENDMDL
