MODEL 1
REMARK VINA RESULT:      -2.7      0.000      0.000
REMARK  3 active torsions:
REMARK  status: ('A' for Active; 'I' for Inactive)
REMARK    1  A    between atoms: C1_1  and  C3_3 
REMARK    2  A    between atoms: C2_2  and  C5_5 
REMARK    3  A    between atoms: C4_4  and  C7_7 
ROOT
HETATM    1  C1  UNL     1     -32.971   7.556   2.099  1.00 20.00     0.000 C 
HETATM    2  C2  UNL     1     -33.319   7.510   3.394  1.00 20.00    -0.000 C 
ENDROOT
BRANCH   1   3
HETATM    3  C3  UNL     1     -31.625   7.842   1.653  1.00 20.00     0.004 C 
HETATM    4  C4  UNL     1     -31.345   8.810   0.769  1.00 20.00     0.049 C 
BRANCH   4   5
HETATM    5  C7  UNL     1     -32.435   9.650   0.197  1.00 20.00     0.145 C 
HETATM    6  C9  UNL     1     -32.836  10.864   0.993  1.00 20.00     0.096 C 
HETATM    7  O10 UNL     1     -32.965   9.391  -0.880  1.00 20.00    -0.294 OA
ENDBRANCH   4   5
ENDBRANCH   1   3
BRANCH   2   8
HETATM    8  C5  UNL     1     -34.667   7.223   3.832  1.00 20.00    -0.004 C 
HETATM    9  C6  UNL     1     -35.173   6.021   4.148  1.00 20.00    -0.031 C 
HETATM   10  C8  UNL     1     -34.491   4.691   4.131  1.00 20.00     0.036 C 
ENDBRANCH   2   8
TORSDOF 3
ENDMDL
MODEL 2
REMARK VINA RESULT:      -2.1      2.021      5.419
REMARK  3 active torsions:
REMARK  status: ('A' for Active; 'I' for Inactive)
REMARK    1  A    between atoms: C1_1  and  C3_3 
REMARK    2  A    between atoms: C2_2  and  C5_5 
REMARK    3  A    between atoms: C4_4  and  C7_7 
ROOT
HETATM    1  C1  UNL     1     -33.427   7.327   3.536  1.00 20.00     0.000 C 
HETATM    2  C2  UNL     1     -33.168   7.599   2.248  1.00 20.00    -0.000 C 
ENDROOT
BRANCH   1   3
HETATM    3  C3  UNL     1     -34.705   6.828   3.996  1.00 20.00     0.004 C 
HETATM    4  C4  UNL     1     -34.975   5.520   4.105  1.00 20.00     0.049 C 
BRANCH   4   5
HETATM    5  C7  UNL     1     -33.947   4.503   3.748  1.00 20.00     0.145 C 
HETATM    6  C9  UNL     1     -33.648   3.455   4.788  1.00 20.00     0.096 C 
HETATM    7  O10 UNL     1     -33.387   4.493   2.656  1.00 20.00    -0.294 OA
ENDBRANCH   4   5
ENDBRANCH   1   3
BRANCH   2   8
HETATM    8  C5  UNL     1     -31.887   8.095   1.795  1.00 20.00    -0.004 C 
HETATM    9  C6  UNL     1     -31.671   9.068   0.896  1.00 20.00    -0.031 C 
HETATM   10  C8  UNL     1     -32.676   9.877   0.143  1.00 20.00     0.036 C 
ENDBRANCH   2   8
TORSDOF 3
ENDMDL
MODEL 3
REMARK VINA RESULT:      -1.7      2.506      5.321
REMARK  3 active torsions:
REMARK  status: ('A' for Active; 'I' for Inactive)
REMARK    1  A    between atoms: C1_1  and  C3_3 
REMARK    2  A    between atoms: C2_2  and  C5_5 
REMARK    3  A    between atoms: C4_4  and  C7_7 
ROOT
HETATM    1  C1  UNL     1     -34.457   6.784   3.383  1.00 20.00     0.000 C 
HETATM    2  C2  UNL     1     -33.442   7.562   3.789  1.00 20.00    -0.000 C 
ENDROOT
BRANCH   1   3
HETATM    3  C3  UNL     1     -35.302   6.048   4.298  1.00 20.00     0.004 C 
HETATM    4  C4  UNL     1     -35.071   4.770   4.628  1.00 20.00     0.049 C 
BRANCH   4   5
HETATM    5  C7  UNL     1     -33.907   4.039   4.054  1.00 20.00     0.145 C 
HETATM    6  C9  UNL     1     -33.210   3.061   4.963  1.00 20.00     0.096 C 
HETATM    7  O10 UNL     1     -33.542   4.198   2.892  1.00 20.00    -0.294 OA
ENDBRANCH   4   5
ENDBRANCH   1   3
BRANCH   2   8
HETATM    8  C5  UNL     1     -32.602   8.297   2.869  1.00 20.00    -0.004 C 
HETATM    9  C6  UNL     1     -31.967   7.809   1.792  1.00 20.00    -0.031 C 
HETATM   10  C8  UNL     1     -31.962   6.408   1.271  1.00 20.00     0.036 C 
ENDBRANCH   2   8
TORSDOF 3
ENDMDL
MODEL 4
REMARK VINA RESULT:      -1.6      2.051      5.220
REMARK  3 active torsions:
REMARK  status: ('A' for Active; 'I' for Inactive)
REMARK    1  A    between atoms: C1_1  and  C3_3 
REMARK    2  A    between atoms: C2_2  and  C5_5 
REMARK    3  A    between atoms: C4_4  and  C7_7 
ROOT
HETATM    1  C1  UNL     1     -33.175   7.897   2.755  1.00 20.00     0.000 C 
HETATM    2  C2  UNL     1     -32.008   8.280   2.215  1.00 20.00    -0.000 C 
ENDROOT
BRANCH   1   3
HETATM    3  C3  UNL     1     -33.448   7.964   4.175  1.00 20.00     0.004 C 
HETATM    4  C4  UNL     1     -34.320   7.149   4.783  1.00 20.00     0.049 C 
BRANCH   4   5
HETATM    5  C7  UNL     1     -35.061   6.117   4.006  1.00 20.00     0.145 C 
HETATM    6  C9  UNL     1     -34.500   4.719   4.037  1.00 20.00     0.096 C 
HETATM    7  O10 UNL     1     -36.091   6.375   3.390  1.00 20.00    -0.294 OA
ENDBRANCH   4   5
ENDBRANCH   1   3
BRANCH   2   8
HETATM    8  C5  UNL     1     -31.744   8.211   0.795  1.00 20.00    -0.004 C 
HETATM    9  C6  UNL     1     -32.023   9.148  -0.124  1.00 20.00    -0.031 C 
HETATM   10  C8  UNL     1     -32.667  10.482   0.075  1.00 20.00     0.036 C 
ENDBRANCH   2   8
TORSDOF 3
ENDMDL
MODEL 5
REMARK VINA RESULT:      -1.4      2.201      2.870
REMARK  3 active torsions:
REMARK  status: ('A' for Active; 'I' for Inactive)
REMARK    1  A    between atoms: C1_1  and  C3_3 
REMARK    2  A    between atoms: C2_2  and  C5_5 
REMARK    3  A    between atoms: C4_4  and  C7_7 
ROOT
HETATM    1  C1  UNL     1     -33.336   7.288   3.572  1.00 20.00     0.000 C 
HETATM    2  C2  UNL     1     -34.581   6.850   3.333  1.00 20.00    -0.000 C 
ENDROOT
BRANCH   1   3
HETATM    3  C3  UNL     1     -32.575   8.065   2.617  1.00 20.00     0.004 C 
HETATM    4  C4  UNL     1     -31.991   7.519   1.542  1.00 20.00     0.049 C 
BRANCH   4   5
HETATM    5  C7  UNL     1     -32.104   6.057   1.280  1.00 20.00     0.145 C 
HETATM    6  C9  UNL     1     -33.292   5.609   0.470  1.00 20.00     0.096 C 
HETATM    7  O10 UNL     1     -31.263   5.254   1.675  1.00 20.00    -0.294 OA
ENDBRANCH   4   5
ENDBRANCH   1   3
BRANCH   2   8
HETATM    8  C5  UNL     1     -35.336   6.075   4.293  1.00 20.00    -0.004 C 
HETATM    9  C6  UNL     1     -35.089   4.815   4.685  1.00 20.00    -0.031 C 
HETATM   10  C8  UNL     1     -33.993   3.902   4.242  1.00 20.00     0.036 C 
ENDBRANCH   2   8
TORSDOF 3
ENDMDL
MODEL 6
REMARK VINA RESULT:      -1.0      2.516      5.078
REMARK  3 active torsions:
REMARK  status: ('A' for Active; 'I' for Inactive)
REMARK    1  A    between atoms: C1_1  and  C3_3 
REMARK    2  A    between atoms: C2_2  and  C5_5 
REMARK    3  A    between atoms: C4_4  and  C7_7 
ROOT
HETATM    1  C1  UNL     1     -32.984   7.230   2.022  1.00 20.00     0.000 C 
HETATM    2  C2  UNL     1     -31.981   8.001   1.576  1.00 20.00    -0.000 C 
ENDROOT
BRANCH   1   3
HETATM    3  C3  UNL     1     -32.921   5.785   2.044  1.00 20.00     0.004 C 
HETATM    4  C4  UNL     1     -33.639   5.042   2.897  1.00 20.00     0.049 C 
BRANCH   4   5
HETATM    5  C7  UNL     1     -34.554   5.688   3.879  1.00 20.00     0.145 C 
HETATM    6  C9  UNL     1     -34.395   7.174   4.070  1.00 20.00     0.096 C 
HETATM    7  O10 UNL     1     -35.415   5.058   4.487  1.00 20.00    -0.294 OA
ENDBRANCH   4   5
ENDBRANCH   1   3
BRANCH   2   8
HETATM    8  C5  UNL     1     -32.052   9.445   1.558  1.00 20.00    -0.004 C 
HETATM    9  C6  UNL     1     -32.394  10.223   0.520  1.00 20.00    -0.031 C 
HETATM   10  C8  UNL     1     -32.786   9.810  -0.862  1.00 20.00     0.036 C 
ENDBRANCH   2   8
TORSDOF 3
ENDMDL
MODEL 7
REMARK VINA RESULT:      -0.9      1.817      2.861
REMARK  3 active torsions:
REMARK  status: ('A' for Active; 'I' for Inactive)
REMARK    1  A    between atoms: C1_1  and  C3_3 
REMARK    2  A    between atoms: C2_2  and  C5_5 
REMARK    3  A    between atoms: C4_4  and  C7_7 
ROOT
HETATM    1  C1  UNL     1     -33.687   6.199   3.304  1.00 20.00     0.000 C 
HETATM    2  C2  UNL     1     -34.207   5.263   4.113  1.00 20.00    -0.000 C 
ENDROOT
BRANCH   1   3
HETATM    3  C3  UNL     1     -33.774   7.617   3.579  1.00 20.00     0.004 C 
HETATM    4  C4  UNL     1     -33.108   8.535   2.865  1.00 20.00     0.049 C 
BRANCH   4   5
HETATM    5  C7  UNL     1     -32.233   8.123   1.733  1.00 20.00     0.145 C 
HETATM    6  C9  UNL     1     -32.099   9.100   0.595  1.00 20.00     0.096 C 
HETATM    7  O10 UNL     1     -31.624   7.056   1.729  1.00 20.00    -0.294 OA
ENDBRANCH   4   5
ENDBRANCH   1   3
BRANCH   2   8
HETATM    8  C5  UNL     1     -34.116   3.847   3.831  1.00 20.00    -0.004 C 
HETATM    9  C6  UNL     1     -33.422   2.931   4.524  1.00 20.00    -0.031 C 
HETATM   10  C8  UNL     1     -32.582   3.127   5.744  1.00 20.00     0.036 C 
ENDBRANCH   2   8
TORSDOF 3
ENDMDL
MODEL 8
REMARK VINA RESULT:      -0.7      1.769      2.398
REMARK  3 active torsions:
REMARK  status: ('A' for Active; 'I' for Inactive)
REMARK    1  A    between atoms: C1_1  and  C3_3 
REMARK    2  A    between atoms: C2_2  and  C5_5 
REMARK    3  A    between atoms: C4_4  and  C7_7 
ROOT
HETATM    1  C1  UNL     1     -33.183   5.511   2.052  1.00 20.00     0.000 C 
HETATM    2  C2  UNL     1     -33.156   4.752   3.158  1.00 20.00    -0.000 C 
ENDROOT
BRANCH   1   3
HETATM    3  C3  UNL     1     -32.022   5.732   1.217  1.00 20.00     0.004 C 
HETATM    4  C4  UNL     1     -31.476   6.943   1.042  1.00 20.00     0.049 C 
BRANCH   4   5
HETATM    5  C7  UNL     1     -32.054   8.138   1.716  1.00 20.00     0.145 C 
HETATM    6  C9  UNL     1     -32.465   9.281   0.826  1.00 20.00     0.096 C 
HETATM    7  O10 UNL     1     -32.219   8.189   2.932  1.00 20.00    -0.294 OA
ENDBRANCH   4   5
ENDBRANCH   1   3
BRANCH   2   8
HETATM    8  C5  UNL     1     -34.321   4.535   3.987  1.00 20.00    -0.004 C 
HETATM    9  C6  UNL     1     -35.236   5.448   4.346  1.00 20.00    -0.031 C 
HETATM   10  C8  UNL     1     -35.292   6.898   3.990  1.00 20.00     0.036 C 
ENDBRANCH   2   8
TORSDOF 3
ENDMDL
MODEL 9
REMARK VINA RESULT:      -0.4      2.349      4.852
REMARK  3 active torsions:
REMARK  status: ('A' for Active; 'I' for Inactive)
REMARK    1  A    between atoms: C1_1  and  C3_3 
REMARK    2  A    between atoms: C2_2  and  C5_5 
REMARK    3  A    between atoms: C4_4  and  C7_7 
ROOT
HETATM    1  C1  UNL     1     -33.014   4.839   3.210  1.00 20.00     0.000 C 
HETATM    2  C2  UNL     1     -33.227   5.280   1.960  1.00 20.00    -0.000 C 
ENDROOT
BRANCH   1   3
HETATM    3  C3  UNL     1     -34.063   4.297   4.046  1.00 20.00     0.004 C 
HETATM    4  C4  UNL     1     -35.125   5.017   4.432  1.00 20.00     0.049 C 
BRANCH   4   5
HETATM    5  C7  UNL     1     -35.273   6.436   4.005  1.00 20.00     0.145 C 
HETATM    6  C9  UNL     1     -34.295   7.421   4.591  1.00 20.00     0.096 C 
HETATM    7  O10 UNL     1     -36.127   6.792   3.197  1.00 20.00    -0.294 OA
ENDBRANCH   4   5
ENDBRANCH   1   3
BRANCH   2   8
HETATM    8  C5  UNL     1     -32.173   5.819   1.130  1.00 20.00    -0.004 C 
HETATM    9  C6  UNL     1     -31.698   7.073   1.144  1.00 20.00    -0.031 C 
HETATM   10  C8  UNL     1     -32.122   8.219   2.005  1.00 20.00     0.036 C 
ENDBRANCH   2   8
TORSDOF 3
ENDMDL
