MODEL 1
REMARK VINA RESULT:      -3.1      0.000      0.000
REMARK  3 active torsions:
REMARK  status: ('A' for Active; 'I' for Inactive)
REMARK    1  A    between atoms: C1_1  and  C3_3 
REMARK    2  A    between atoms: C2_2  and  C5_5 
REMARK    3  A    between atoms: C4_4  and  C7_7 
ROOT
HETATM    1  C1  UNL     1     -32.957   6.612   2.589  1.00 20.00     0.000 C 
HETATM    2  C2  UNL     1     -32.249   7.104   1.561  1.00 20.00    -0.000 C 
ENDROOT
BRANCH   1   3
HETATM    3  C3  UNL     1     -33.555   7.448   3.607  1.00 20.00     0.003 C 
HETATM    4  C4  UNL     1     -34.694   7.124   4.231  1.00 20.00     0.041 C 
BRANCH   4   5
HETATM    5  C7  UNL     1     -35.373   5.864   3.872  1.00 20.00     0.258 C 
HETATM    6  O9  UNL     1     -35.299   4.865   4.577  1.00 20.00    -0.302 OA
ENDBRANCH   4   5
ENDBRANCH   1   3
BRANCH   2   7
HETATM    7  C5  UNL     1     -32.015   8.519   1.371  1.00 20.00    -0.004 C 
HETATM    8  C6  UNL     1     -32.614   9.240   0.413  1.00 20.00    -0.031 C 
HETATM    9  C8  UNL     1     -32.382  10.701   0.207  1.00 20.00     0.036 C 
ENDBRANCH   2   7
TORSDOF 3
ENDMDL
MODEL 2
REMARK VINA RESULT:      -2.7      2.305      4.920
REMARK  3 active torsions:
REMARK  status: ('A' for Active; 'I' for Inactive)
REMARK    1  A    between atoms: C1_1  and  C3_3 
REMARK    2  A    between atoms: C2_2  and  C5_5 
REMARK    3  A    between atoms: C4_4  and  C7_7 
ROOT
HETATM    1  C1  UNL     1     -35.098   6.917   3.657  1.00 20.00     0.000 C 
HETATM    2  C2  UNL     1     -35.457   5.669   3.995  1.00 20.00    -0.000 C 
ENDROOT
BRANCH   1   3
HETATM    3  C3  UNL     1     -33.801   7.476   3.968  1.00 20.00     0.003 C 
HETATM    4  C4  UNL     1     -32.785   7.477   3.096  1.00 20.00     0.041 C 
BRANCH   4   5
HETATM    5  C7  UNL     1     -32.990   6.886   1.759  1.00 20.00     0.258 C 
HETATM    6  O9  UNL     1     -32.679   5.728   1.509  1.00 20.00    -0.302 OA
ENDBRANCH   4   5
ENDBRANCH   1   3
BRANCH   2   7
HETATM    7  C5  UNL     1     -34.582   4.762   4.705  1.00 20.00    -0.004 C 
HETATM    8  C6  UNL     1     -33.894   3.783   4.101  1.00 20.00    -0.031 C 
HETATM    9  C8  UNL     1     -32.987   2.841   4.823  1.00 20.00     0.036 C 
ENDBRANCH   2   7
TORSDOF 3
ENDMDL
MODEL 3
REMARK VINA RESULT:      -2.7      1.040      1.101
REMARK  3 active torsions:
REMARK  status: ('A' for Active; 'I' for Inactive)
REMARK    1  A    between atoms: C1_1  and  C3_3 
REMARK    2  A    between atoms: C2_2  and  C5_5 
REMARK    3  A    between atoms: C4_4  and  C7_7 
ROOT
HETATM    1  C1  UNL     1     -32.806   6.172   2.186  1.00 20.00     0.000 C 
HETATM    2  C2  UNL     1     -32.086   7.010   1.425  1.00 20.00    -0.000 C 
ENDROOT
BRANCH   1   3
HETATM    3  C3  UNL     1     -33.816   6.623   3.118  1.00 20.00     0.003 C 
HETATM    4  C4  UNL     1     -34.509   5.783   3.896  1.00 20.00     0.041 C 
BRANCH   4   5
HETATM    5  C7  UNL     1     -34.236   4.335   3.806  1.00 20.00     0.258 C 
HETATM    6  O9  UNL     1     -33.764   3.706   4.745  1.00 20.00    -0.302 OA
ENDBRANCH   4   5
ENDBRANCH   1   3
BRANCH   2   7
HETATM    7  C5  UNL     1     -32.249   8.447   1.463  1.00 20.00    -0.004 C 
HETATM    8  C6  UNL     1     -32.376   9.201   0.362  1.00 20.00    -0.031 C 
HETATM    9  C8  UNL     1     -32.545  10.685   0.389  1.00 20.00     0.036 C 
ENDBRANCH   2   7
TORSDOF 3
ENDMDL
MODEL 4
REMARK VINA RESULT:      -2.6      2.780      5.358
REMARK  3 active torsions:
REMARK  status: ('A' for Active; 'I' for Inactive)
REMARK    1  A    between atoms: C1_1  and  C3_3 
REMARK    2  A    between atoms: C2_2  and  C5_5 
REMARK    3  A    between atoms: C4_4  and  C7_7 
ROOT
HETATM    1  C1  UNL     1     -33.953   6.732   3.073  1.00 20.00     0.000 C 
HETATM    2  C2  UNL     1     -34.626   6.030   3.997  1.00 20.00    -0.000 C 
ENDROOT
BRANCH   1   3
HETATM    3  C3  UNL     1     -33.083   6.117   2.094  1.00 20.00     0.003 C 
HETATM    4  C4  UNL     1     -32.132   6.798   1.443  1.00 20.00     0.041 C 
BRANCH   4   5
HETATM    5  C7  UNL     1     -31.958   8.236   1.730  1.00 20.00     0.258 C 
HETATM    6  O9  UNL     1     -32.245   9.099   0.910  1.00 20.00    -0.302 OA
ENDBRANCH   4   5
ENDBRANCH   1   3
BRANCH   2   7
HETATM    7  C5  UNL     1     -34.545   4.590   4.106  1.00 20.00    -0.004 C 
HETATM    8  C6  UNL     1     -33.438   3.945   4.501  1.00 20.00    -0.031 C 
HETATM    9  C8  UNL     1     -33.342   2.459   4.618  1.00 20.00     0.036 C 
ENDBRANCH   2   7
TORSDOF 3
ENDMDL
MODEL 5
REMARK VINA RESULT:      -2.2      2.758      4.758
REMARK  3 active torsions:
REMARK  status: ('A' for Active; 'I' for Inactive)
REMARK    1  A    between atoms: C1_1  and  C3_3 
REMARK    2  A    between atoms: C2_2  and  C5_5 
REMARK    3  A    between atoms: C4_4  and  C7_7 
ROOT
HETATM    1  C1  UNL     1     -31.743   7.183   1.483  1.00 20.00     0.000 C 
HETATM    2  C2  UNL     1     -32.492   6.070   1.529  1.00 20.00    -0.000 C 
ENDROOT
BRANCH   1   3
HETATM    3  C3  UNL     1     -32.165   8.441   2.059  1.00 20.00     0.003 C 
HETATM    4  C4  UNL     1     -32.402   9.532   1.319  1.00 20.00     0.041 C 
BRANCH   4   5
HETATM    5  C7  UNL     1     -32.229   9.454  -0.145  1.00 20.00     0.258 C 
HETATM    6  O9  UNL     1     -33.041   9.944  -0.920  1.00 20.00    -0.302 OA
ENDBRANCH   4   5
ENDBRANCH   1   3
BRANCH   2   7
HETATM    7  C5  UNL     1     -33.794   6.021   2.158  1.00 20.00    -0.004 C 
HETATM    8  C6  UNL     1     -33.984   6.232   3.468  1.00 20.00    -0.031 C 
HETATM    9  C8  UNL     1     -35.324   6.185   4.128  1.00 20.00     0.036 C 
ENDBRANCH   2   7
TORSDOF 3
ENDMDL
MODEL 6
REMARK VINA RESULT:      -1.7      2.101      2.908
REMARK  3 active torsions:
REMARK  status: ('A' for Active; 'I' for Inactive)
REMARK    1  A    between atoms: C1_1  and  C3_3 
REMARK    2  A    between atoms: C2_2  and  C5_5 
REMARK    3  A    between atoms: C4_4  and  C7_7 
ROOT
HETATM    1  C1  UNL     1     -34.053   7.392   4.051  1.00 20.00     0.000 C 
HETATM    2  C2  UNL     1     -33.033   7.399   3.178  1.00 20.00    -0.000 C 
ENDROOT
BRANCH   1   3
HETATM    3  C3  UNL     1     -35.285   6.671   3.818  1.00 20.00     0.003 C 
HETATM    4  C4  UNL     1     -35.421   5.366   4.085  1.00 20.00     0.041 C 
BRANCH   4   5
HETATM    5  C7  UNL     1     -34.271   4.626   4.640  1.00 20.00     0.258 C 
HETATM    6  O9  UNL     1     -33.944   3.524   4.216  1.00 20.00    -0.302 OA
ENDBRANCH   4   5
ENDBRANCH   1   3
BRANCH   2   7
HETATM    7  C5  UNL     1     -33.069   6.687   1.919  1.00 20.00    -0.004 C 
HETATM    8  C6  UNL     1     -32.363   5.571   1.688  1.00 20.00    -0.031 C 
HETATM    9  C8  UNL     1     -32.391   4.826   0.393  1.00 20.00     0.036 C 
ENDBRANCH   2   7
TORSDOF 3
ENDMDL
MODEL 7
REMARK VINA RESULT:      -1.5      1.389      1.737
REMARK  3 active torsions:
REMARK  status: ('A' for Active; 'I' for Inactive)
REMARK    1  A    between atoms: C1_1  and  C3_3 
REMARK    2  A    between atoms: C2_2  and  C5_5 
REMARK    3  A    between atoms: C4_4  and  C7_7 
ROOT
HETATM    1  C1  UNL     1     -31.818   6.504   1.928  1.00 20.00     0.000 C 
HETATM    2  C2  UNL     1     -31.475   7.791   1.761  1.00 20.00    -0.000 C 
ENDROOT
BRANCH   1   3
HETATM    3  C3  UNL     1     -33.128   5.987   1.594  1.00 20.00     0.003 C 
HETATM    4  C4  UNL     1     -34.151   5.998   2.457  1.00 20.00     0.041 C 
BRANCH   4   5
HETATM    5  C7  UNL     1     -33.944   6.560   3.806  1.00 20.00     0.258 C 
HETATM    6  O9  UNL     1     -34.303   7.694   4.098  1.00 20.00    -0.302 OA
ENDBRANCH   4   5
ENDBRANCH   1   3
BRANCH   2   7
HETATM    7  C5  UNL     1     -32.382   8.786   1.231  1.00 20.00    -0.004 C 
HETATM    8  C6  UNL     1     -32.108   9.523   0.145  1.00 20.00    -0.031 C 
HETATM    9  C8  UNL     1     -33.036  10.553  -0.412  1.00 20.00     0.036 C 
ENDBRANCH   2   7
TORSDOF 3
ENDMDL
MODEL 8
REMARK VINA RESULT:      -1.5      1.264      1.993
REMARK  3 active torsions:
REMARK  status: ('A' for Active; 'I' for Inactive)
REMARK    1  A    between atoms: C1_1  and  C3_3 
REMARK    2  A    between atoms: C2_2  and  C5_5 
REMARK    3  A    between atoms: C4_4  and  C7_7 
ROOT
HETATM    1  C1  UNL     1     -34.033   7.376   4.519  1.00 20.00     0.000 C 
HETATM    2  C2  UNL     1     -32.946   7.861   3.900  1.00 20.00    -0.000 C 
ENDROOT
BRANCH   1   3
HETATM    3  C3  UNL     1     -35.096   6.685   3.821  1.00 20.00     0.003 C 
HETATM    4  C4  UNL     1     -35.200   5.351   3.802  1.00 20.00     0.041 C 
BRANCH   4   5
HETATM    5  C7  UNL     1     -34.194   4.543   4.520  1.00 20.00     0.258 C 
HETATM    6  O9  UNL     1     -33.933   3.393   4.191  1.00 20.00    -0.302 OA
ENDBRANCH   4   5
ENDBRANCH   1   3
BRANCH   2   7
HETATM    7  C5  UNL     1     -32.733   7.743   2.474  1.00 20.00    -0.004 C 
HETATM    8  C6  UNL     1     -32.119   8.685   1.743  1.00 20.00    -0.031 C 
HETATM    9  C8  UNL     1     -31.892   8.575   0.271  1.00 20.00     0.036 C 
ENDBRANCH   2   7
TORSDOF 3
ENDMDL
MODEL 9
REMARK VINA RESULT:      -1.3      1.408      1.541
REMARK  3 active torsions:
REMARK  status: ('A' for Active; 'I' for Inactive)
REMARK    1  A    between atoms: C1_1  and  C3_3 
REMARK    2  A    between atoms: C2_2  and  C5_5 
REMARK    3  A    between atoms: C4_4  and  C7_7 
ROOT
HETATM    1  C1  UNL     1     -32.511   7.978   3.823  1.00 20.00     0.000 C 
HETATM    2  C2  UNL     1     -31.804   8.283   2.725  1.00 20.00    -0.000 C 
ENDROOT
BRANCH   1   3
HETATM    3  C3  UNL     1     -33.953   7.858   3.825  1.00 20.00     0.003 C 
HETATM    4  C4  UNL     1     -34.582   6.694   3.618  1.00 20.00     0.041 C 
BRANCH   4   5
HETATM    5  C7  UNL     1     -33.779   5.479   3.377  1.00 20.00     0.258 C 
HETATM    6  O9  UNL     1     -33.469   5.121   2.247  1.00 20.00    -0.302 OA
ENDBRANCH   4   5
ENDBRANCH   1   3
BRANCH   2   7
HETATM    7  C5  UNL     1     -32.415   8.525   1.436  1.00 20.00    -0.004 C 
HETATM    8  C6  UNL     1     -32.179   9.624   0.706  1.00 20.00    -0.031 C 
HETATM    9  C8  UNL     1     -32.803   9.884  -0.626  1.00 20.00     0.036 C 
ENDBRANCH   2   7
TORSDOF 3
ENDMDL
