MODEL 1
REMARK VINA RESULT:      -0.9      0.000      0.000
REMARK  1 active torsions:
REMARK  status: ('A' for Active; 'I' for Inactive)
REMARK    1  A    between atoms: C2_2  and  C10_10 
ROOT
HETATM    1  C1  UNL     1     -32.304   6.539   1.270  1.00 20.00    -0.022 C 
HETATM    2  C2  UNL     1     -32.471   7.763   1.800  1.00 20.00    -0.073 C 
HETATM    3  C3  UNL     1     -34.032   6.767   3.497  1.00 20.00     0.134 C 
HETATM    4  C4  UNL     1     -32.893   5.292   1.855  1.00 20.00     0.039 C 
HETATM    5  C5  UNL     1     -33.301   8.014   3.029  1.00 20.00     0.113 C 
HETATM    6  C6  UNL     1     -33.294   5.449   3.325  1.00 20.00     0.055 C 
HETATM    7  C7  UNL     1     -34.122   4.257   3.796  1.00 20.00     0.018 C 
HETATM    8  O11 UNL     1     -35.120   6.853   4.068  1.00 20.00    -0.297 OA
ENDROOT
BRANCH   2   9
HETATM    9  C10 UNL     1     -31.843   8.979   1.181  1.00 20.00     0.006 C 
HETATM   10  C8  UNL     1     -31.154   8.606  -0.127  1.00 20.00     0.014 C 
HETATM   11  C9  UNL     1     -32.885  10.070   0.959  1.00 20.00     0.014 C 
ENDBRANCH   2   9
TORSDOF 1
ENDMDL
MODEL 2
REMARK VINA RESULT:      -0.7      1.276      2.011
REMARK  1 active torsions:
REMARK  status: ('A' for Active; 'I' for Inactive)
REMARK    1  A    between atoms: C2_2  and  C10_10 
ROOT
HETATM    1  C1  UNL     1     -33.270   8.376   3.306  1.00 20.00    -0.022 C 
HETATM    2  C2  UNL     1     -32.681   7.900   2.196  1.00 20.00    -0.073 C 
HETATM    3  C3  UNL     1     -33.537   5.611   2.775  1.00 20.00     0.134 C 
HETATM    4  C4  UNL     1     -34.138   7.550   4.206  1.00 20.00     0.039 C 
HETATM    5  C5  UNL     1     -32.806   6.468   1.755  1.00 20.00     0.113 C 
HETATM    6  C6  UNL     1     -34.673   6.285   3.530  1.00 20.00     0.055 C 
HETATM    7  C7  UNL     1     -35.321   5.353   4.549  1.00 20.00     0.018 C 
HETATM    8  O11 UNL     1     -33.271   4.415   2.898  1.00 20.00    -0.297 OA
ENDROOT
BRANCH   2   9
HETATM    9  C10 UNL     1     -31.834   8.778   1.319  1.00 20.00     0.006 C 
HETATM   10  C8  UNL     1     -31.238   7.962   0.178  1.00 20.00     0.014 C 
HETATM   11  C9  UNL     1     -32.647   9.952   0.786  1.00 20.00     0.014 C 
ENDBRANCH   2   9
TORSDOF 1
ENDMDL
MODEL 3
REMARK VINA RESULT:      -0.7      1.404      4.286
REMARK  1 active torsions:
REMARK  status: ('A' for Active; 'I' for Inactive)
REMARK    1  A    between atoms: C2_2  and  C10_10 
ROOT
HETATM    1  C1  UNL     1     -32.983   5.451   1.850  1.00 20.00    -0.022 C 
HETATM    2  C2  UNL     1     -33.637   5.741   2.988  1.00 20.00    -0.073 C 
HETATM    3  C3  UNL     1     -32.529   7.996   2.999  1.00 20.00     0.134 C 
HETATM    4  C4  UNL     1     -32.122   6.431   1.113  1.00 20.00     0.039 C 
HETATM    5  C5  UNL     1     -33.546   7.082   3.663  1.00 20.00     0.113 C 
HETATM    6  C6  UNL     1     -32.414   7.887   1.486  1.00 20.00     0.055 C 
HETATM    7  C7  UNL     1     -31.348   8.821   0.920  1.00 20.00     0.018 C 
HETATM    8  O11 UNL     1     -31.914   8.835   3.656  1.00 20.00    -0.297 OA
ENDROOT
BRANCH   2   9
HETATM    9  C10 UNL     1     -34.502   4.725   3.677  1.00 20.00     0.006 C 
HETATM   10  C8  UNL     1     -33.635   3.678   4.366  1.00 20.00     0.014 C 
HETATM   11  C9  UNL     1     -35.439   5.400   4.673  1.00 20.00     0.014 C 
ENDBRANCH   2   9
TORSDOF 1
ENDMDL
MODEL 4
REMARK VINA RESULT:      -0.3      1.434      2.332
REMARK  1 active torsions:
REMARK  status: ('A' for Active; 'I' for Inactive)
REMARK    1  A    between atoms: C2_2  and  C10_10 
ROOT
HETATM    1  C1  UNL     1     -33.460   8.002   3.224  1.00 20.00    -0.022 C 
HETATM    2  C2  UNL     1     -32.832   7.345   2.233  1.00 20.00    -0.073 C 
HETATM    3  C3  UNL     1     -33.748   5.189   3.140  1.00 20.00     0.134 C 
HETATM    4  C4  UNL     1     -34.377   7.342   4.208  1.00 20.00     0.039 C 
HETATM    5  C5  UNL     1     -32.961   5.861   2.026  1.00 20.00     0.113 C 
HETATM    6  C6  UNL     1     -34.903   5.987   3.724  1.00 20.00     0.055 C 
HETATM    7  C7  UNL     1     -35.608   5.241   4.852  1.00 20.00     0.018 C 
HETATM    8  O11 UNL     1     -33.506   4.028   3.468  1.00 20.00    -0.297 OA
ENDROOT
BRANCH   2   9
HETATM    9  C10 UNL     1     -31.936   8.060   1.263  1.00 20.00     0.006 C 
HETATM   10  C8  UNL     1     -32.609   9.333   0.764  1.00 20.00     0.014 C 
HETATM   11  C9  UNL     1     -30.587   8.370   1.903  1.00 20.00     0.014 C 
ENDBRANCH   2   9
TORSDOF 1
ENDMDL
MODEL 5
REMARK VINA RESULT:       0.7      1.700      4.762
REMARK  1 active torsions:
REMARK  status: ('A' for Active; 'I' for Inactive)
REMARK    1  A    between atoms: C2_2  and  C10_10 
ROOT
HETATM    1  C1  UNL     1     -34.216   6.767   3.574  1.00 20.00    -0.022 C 
HETATM    2  C2  UNL     1     -33.849   5.495   3.341  1.00 20.00    -0.073 C 
HETATM    3  C3  UNL     1     -32.291   6.319   1.551  1.00 20.00     0.134 C 
HETATM    4  C4  UNL     1     -33.588   7.951   2.902  1.00 20.00     0.039 C 
HETATM    5  C5  UNL     1     -32.783   5.122   2.348  1.00 20.00     0.113 C 
HETATM    6  C6  UNL     1     -32.215   7.641   2.300  1.00 20.00     0.055 C 
HETATM    7  C7  UNL     1     -31.739   8.783   1.407  1.00 20.00     0.018 C 
HETATM    8  O11 UNL     1     -31.891   6.183   0.395  1.00 20.00    -0.297 OA
ENDROOT
BRANCH   2   9
HETATM    9  C10 UNL     1     -34.501   4.347   4.056  1.00 20.00     0.006 C 
HETATM   10  C8  UNL     1     -33.444   3.470   4.716  1.00 20.00     0.014 C 
HETATM   11  C9  UNL     1     -35.510   4.853   5.082  1.00 20.00     0.014 C 
ENDBRANCH   2   9
TORSDOF 1
ENDMDL
MODEL 6
REMARK VINA RESULT:       1.1      1.621      4.788
REMARK  1 active torsions:
REMARK  status: ('A' for Active; 'I' for Inactive)
REMARK    1  A    between atoms: C2_2  and  C10_10 
ROOT
HETATM    1  C1  UNL     1     -33.869   7.234   3.873  1.00 20.00    -0.022 C 
HETATM    2  C2  UNL     1     -33.731   5.915   3.650  1.00 20.00    -0.073 C 
HETATM    3  C3  UNL     1     -32.701   6.445   1.420  1.00 20.00     0.134 C 
HETATM    4  C4  UNL     1     -33.347   8.293   2.951  1.00 20.00     0.039 C 
HETATM    5  C5  UNL     1     -33.059   5.361   2.423  1.00 20.00     0.113 C 
HETATM    6  C6  UNL     1     -32.260   7.780   2.001  1.00 20.00     0.055 C 
HETATM    7  C7  UNL     1     -31.952   8.808   0.917  1.00 20.00     0.018 C 
HETATM    8  O11 UNL     1     -32.684   6.205   0.213  1.00 20.00    -0.297 OA
ENDROOT
BRANCH   2   9
HETATM    9  C10 UNL     1     -34.259   4.896   4.617  1.00 20.00     0.006 C 
HETATM   10  C8  UNL     1     -35.781   4.953   4.662  1.00 20.00     0.014 C 
HETATM   11  C9  UNL     1     -33.775   3.498   4.246  1.00 20.00     0.014 C 
ENDBRANCH   2   9
TORSDOF 1
ENDMDL
