MODEL 1
REMARK VINA RESULT:      -3.2      0.000      0.000
REMARK  3 active torsions:
REMARK  status: ('A' for Active; 'I' for Inactive)
REMARK    1  A    between atoms: C1_1  and  C3_3 
REMARK    2  A    between atoms: C2_2  and  C5_5 
REMARK    3  A    between atoms: C4_4  and  C7_7 
ROOT
HETATM    1  C1  UNL     1     -33.164   7.561   2.206  1.00 20.00     0.000 C 
HETATM    2  C2  UNL     1     -33.446   7.241   3.478  1.00 20.00    -0.000 C 
ENDROOT
BRANCH   1   3
HETATM    3  C3  UNL     1     -31.822   7.847   1.745  1.00 20.00     0.003 C 
HETATM    4  C4  UNL     1     -31.546   8.854   0.908  1.00 20.00     0.041 C 
BRANCH   4   5
HETATM    5  C7  UNL     1     -32.648   9.712   0.431  1.00 20.00     0.258 C 
HETATM    6  O9  UNL     1     -32.900   9.838  -0.762  1.00 20.00    -0.302 OA
ENDBRANCH   4   5
ENDBRANCH   1   3
BRANCH   2   7
HETATM    7  C5  UNL     1     -34.788   6.957   3.938  1.00 20.00    -0.004 C 
HETATM    8  C6  UNL     1     -35.214   5.719   4.233  1.00 20.00    -0.031 C 
HETATM    9  C8  UNL     1     -34.360   4.500   4.123  1.00 20.00     0.036 C 
ENDBRANCH   2   7
TORSDOF 3
ENDMDL
MODEL 2
REMARK VINA RESULT:      -3.2      2.747      5.313
REMARK  3 active torsions:
REMARK  status: ('A' for Active; 'I' for Inactive)
REMARK    1  A    between atoms: C1_1  and  C3_3 
REMARK    2  A    between atoms: C2_2  and  C5_5 
REMARK    3  A    between atoms: C4_4  and  C7_7 
ROOT
HETATM    1  C1  UNL     1     -33.379   7.335   3.473  1.00 20.00     0.000 C 
HETATM    2  C2  UNL     1     -33.136   7.639   2.190  1.00 20.00    -0.000 C 
ENDROOT
BRANCH   1   3
HETATM    3  C3  UNL     1     -34.700   7.016   3.971  1.00 20.00     0.003 C 
HETATM    4  C4  UNL     1     -35.124   5.757   4.138  1.00 20.00     0.041 C 
BRANCH   4   5
HETATM    5  C7  UNL     1     -34.214   4.644   3.804  1.00 20.00     0.258 C 
HETATM    6  O9  UNL     1     -34.132   3.642   4.505  1.00 20.00    -0.302 OA
ENDBRANCH   4   5
ENDBRANCH   1   3
BRANCH   2   7
HETATM    7  C5  UNL     1     -31.815   7.960   1.694  1.00 20.00    -0.004 C 
HETATM    8  C6  UNL     1     -31.580   8.957   0.828  1.00 20.00    -0.031 C 
HETATM    9  C8  UNL     1     -32.645   9.847   0.279  1.00 20.00     0.036 C 
ENDBRANCH   2   7
TORSDOF 3
ENDMDL
MODEL 3
REMARK VINA RESULT:      -2.6      3.102      5.087
REMARK  3 active torsions:
REMARK  status: ('A' for Active; 'I' for Inactive)
REMARK    1  A    between atoms: C1_1  and  C3_3 
REMARK    2  A    between atoms: C2_2  and  C5_5 
REMARK    3  A    between atoms: C4_4  and  C7_7 
ROOT
HETATM    1  C1  UNL     1     -34.360   6.719   3.233  1.00 20.00     0.000 C 
HETATM    2  C2  UNL     1     -33.377   7.560   3.587  1.00 20.00    -0.000 C 
ENDROOT
BRANCH   1   3
HETATM    3  C3  UNL     1     -35.246   6.093   4.191  1.00 20.00     0.003 C 
HETATM    4  C4  UNL     1     -35.089   4.828   4.601  1.00 20.00     0.041 C 
BRANCH   4   5
HETATM    5  C7  UNL     1     -33.969   4.033   4.061  1.00 20.00     0.258 C 
HETATM    6  O9  UNL     1     -33.403   3.176   4.727  1.00 20.00    -0.302 OA
ENDBRANCH   4   5
ENDBRANCH   1   3
BRANCH   2   7
HETATM    7  C5  UNL     1     -32.491   8.184   2.629  1.00 20.00    -0.004 C 
HETATM    8  C6  UNL     1     -31.898   7.509   1.632  1.00 20.00    -0.031 C 
HETATM    9  C8  UNL     1     -32.083   6.046   1.398  1.00 20.00     0.036 C 
ENDBRANCH   2   7
TORSDOF 3
ENDMDL
MODEL 4
REMARK VINA RESULT:      -2.2      1.920      2.294
REMARK  3 active torsions:
REMARK  status: ('A' for Active; 'I' for Inactive)
REMARK    1  A    between atoms: C1_1  and  C3_3 
REMARK    2  A    between atoms: C2_2  and  C5_5 
REMARK    3  A    between atoms: C4_4  and  C7_7 
ROOT
HETATM    1  C1  UNL     1     -33.409   7.402   3.602  1.00 20.00     0.000 C 
HETATM    2  C2  UNL     1     -34.587   6.824   3.327  1.00 20.00    -0.000 C 
ENDROOT
BRANCH   1   3
HETATM    3  C3  UNL     1     -32.645   8.142   2.620  1.00 20.00     0.003 C 
HETATM    4  C4  UNL     1     -31.931   7.543   1.659  1.00 20.00     0.041 C 
BRANCH   4   5
HETATM    5  C7  UNL     1     -31.917   6.069   1.591  1.00 20.00     0.258 C 
HETATM    6  O9  UNL     1     -32.710   5.445   0.896  1.00 20.00    -0.302 OA
ENDBRANCH   4   5
ENDBRANCH   1   3
BRANCH   2   7
HETATM    7  C5  UNL     1     -35.349   6.083   4.308  1.00 20.00    -0.004 C 
HETATM    8  C6  UNL     1     -35.072   4.814   4.645  1.00 20.00    -0.031 C 
HETATM    9  C8  UNL     1     -33.954   4.024   4.049  1.00 20.00     0.036 C 
ENDBRANCH   2   7
TORSDOF 3
ENDMDL
MODEL 5
REMARK VINA RESULT:      -2.1      0.932      1.407
REMARK  3 active torsions:
REMARK  status: ('A' for Active; 'I' for Inactive)
REMARK    1  A    between atoms: C1_1  and  C3_3 
REMARK    2  A    between atoms: C2_2  and  C5_5 
REMARK    3  A    between atoms: C4_4  and  C7_7 
ROOT
HETATM    1  C1  UNL     1     -32.702   7.584   1.898  1.00 20.00     0.000 C 
HETATM    2  C2  UNL     1     -32.959   6.329   2.297  1.00 20.00    -0.000 C 
ENDROOT
BRANCH   1   3
HETATM    3  C3  UNL     1     -31.453   7.973   1.277  1.00 20.00     0.003 C 
HETATM    4  C4  UNL     1     -31.342   9.054   0.496  1.00 20.00     0.041 C 
BRANCH   4   5
HETATM    5  C7  UNL     1     -32.535   9.888   0.252  1.00 20.00     0.258 C 
HETATM    6  O9  UNL     1     -33.104   9.904  -0.833  1.00 20.00    -0.302 OA
ENDBRANCH   4   5
ENDBRANCH   1   3
BRANCH   2   7
HETATM    7  C5  UNL     1     -34.206   5.942   2.919  1.00 20.00    -0.004 C 
HETATM    8  C6  UNL     1     -34.720   6.573   3.985  1.00 20.00    -0.031 C 
HETATM    9  C8  UNL     1     -34.070   7.741   4.650  1.00 20.00     0.036 C 
ENDBRANCH   2   7
TORSDOF 3
ENDMDL
MODEL 6
REMARK VINA RESULT:      -1.5      2.278      4.801
REMARK  3 active torsions:
REMARK  status: ('A' for Active; 'I' for Inactive)
REMARK    1  A    between atoms: C1_1  and  C3_3 
REMARK    2  A    between atoms: C2_2  and  C5_5 
REMARK    3  A    between atoms: C4_4  and  C7_7 
ROOT
HETATM    1  C1  UNL     1     -32.882   6.292   2.211  1.00 20.00     0.000 C 
HETATM    2  C2  UNL     1     -32.748   7.554   1.777  1.00 20.00    -0.000 C 
ENDROOT
BRANCH   1   3
HETATM    3  C3  UNL     1     -34.048   5.825   2.930  1.00 20.00     0.003 C 
HETATM    4  C4  UNL     1     -34.640   6.544   3.892  1.00 20.00     0.041 C 
BRANCH   4   5
HETATM    5  C7  UNL     1     -34.087   7.867   4.240  1.00 20.00     0.258 C 
HETATM    6  O9  UNL     1     -33.367   8.031   5.218  1.00 20.00    -0.302 OA
ENDBRANCH   4   5
ENDBRANCH   1   3
BRANCH   2   7
HETATM    7  C5  UNL     1     -31.581   8.020   1.061  1.00 20.00    -0.004 C 
HETATM    8  C6  UNL     1     -31.552   9.176   0.380  1.00 20.00    -0.031 C 
HETATM    9  C8  UNL     1     -32.713  10.109   0.283  1.00 20.00     0.036 C 
ENDBRANCH   2   7
TORSDOF 3
ENDMDL
MODEL 7
REMARK VINA RESULT:      -1.5      1.729      2.999
REMARK  3 active torsions:
REMARK  status: ('A' for Active; 'I' for Inactive)
REMARK    1  A    between atoms: C1_1  and  C3_3 
REMARK    2  A    between atoms: C2_2  and  C5_5 
REMARK    3  A    between atoms: C4_4  and  C7_7 
ROOT
HETATM    1  C1  UNL     1     -33.909   5.839   3.392  1.00 20.00     0.000 C 
HETATM    2  C2  UNL     1     -34.209   4.849   4.245  1.00 20.00    -0.000 C 
ENDROOT
BRANCH   1   3
HETATM    3  C3  UNL     1     -34.219   7.228   3.656  1.00 20.00     0.003 C 
HETATM    4  C4  UNL     1     -33.451   8.235   3.222  1.00 20.00     0.041 C 
BRANCH   4   5
HETATM    5  C7  UNL     1     -32.237   7.925   2.442  1.00 20.00     0.258 C 
HETATM    6  O9  UNL     1     -32.071   8.353   1.305  1.00 20.00    -0.302 OA
ENDBRANCH   4   5
ENDBRANCH   1   3
BRANCH   2   7
HETATM    7  C5  UNL     1     -33.900   3.461   3.979  1.00 20.00    -0.004 C 
HETATM    8  C6  UNL     1     -33.140   2.711   4.792  1.00 20.00    -0.031 C 
HETATM    9  C8  UNL     1     -32.530   3.217   6.057  1.00 20.00     0.036 C 
ENDBRANCH   2   7
TORSDOF 3
ENDMDL
MODEL 8
REMARK VINA RESULT:      -1.4      2.704      5.158
REMARK  3 active torsions:
REMARK  status: ('A' for Active; 'I' for Inactive)
REMARK    1  A    between atoms: C1_1  and  C3_3 
REMARK    2  A    between atoms: C2_2  and  C5_5 
REMARK    3  A    between atoms: C4_4  and  C7_7 
ROOT
HETATM    1  C1  UNL     1     -32.888   7.267   2.166  1.00 20.00     0.000 C 
HETATM    2  C2  UNL     1     -32.052   8.024   1.442  1.00 20.00    -0.000 C 
ENDROOT
BRANCH   1   3
HETATM    3  C3  UNL     1     -32.902   5.821   2.098  1.00 20.00     0.003 C 
HETATM    4  C4  UNL     1     -33.711   5.070   2.854  1.00 20.00     0.041 C 
BRANCH   4   5
HETATM    5  C7  UNL     1     -34.630   5.734   3.799  1.00 20.00     0.258 C 
HETATM    6  O9  UNL     1     -35.404   5.099   4.504  1.00 20.00    -0.302 OA
ENDBRANCH   4   5
ENDBRANCH   1   3
BRANCH   2   7
HETATM    7  C5  UNL     1     -32.040   9.469   1.510  1.00 20.00    -0.004 C 
HETATM    8  C6  UNL     1     -32.391  10.254   0.479  1.00 20.00    -0.031 C 
HETATM    9  C8  UNL     1     -32.830   9.732  -0.848  1.00 20.00     0.036 C 
ENDBRANCH   2   7
TORSDOF 3
ENDMDL
MODEL 9
REMARK VINA RESULT:      -1.0      1.324      2.035
REMARK  3 active torsions:
REMARK  status: ('A' for Active; 'I' for Inactive)
REMARK    1  A    between atoms: C1_1  and  C3_3 
REMARK    2  A    between atoms: C2_2  and  C5_5 
REMARK    3  A    between atoms: C4_4  and  C7_7 
ROOT
HETATM    1  C1  UNL     1     -33.237   5.670   2.030  1.00 20.00     0.000 C 
HETATM    2  C2  UNL     1     -33.311   4.974   3.175  1.00 20.00    -0.000 C 
ENDROOT
BRANCH   1   3
HETATM    3  C3  UNL     1     -32.007   5.830   1.284  1.00 20.00     0.003 C 
HETATM    4  C4  UNL     1     -31.421   7.021   1.104  1.00 20.00     0.041 C 
BRANCH   4   5
HETATM    5  C7  UNL     1     -32.048   8.223   1.686  1.00 20.00     0.258 C 
HETATM    6  O9  UNL     1     -32.351   9.192   1.000  1.00 20.00    -0.302 OA
ENDBRANCH   4   5
ENDBRANCH   1   3
BRANCH   2   7
HETATM    7  C5  UNL     1     -34.540   4.816   3.921  1.00 20.00    -0.004 C 
HETATM    8  C6  UNL     1     -35.272   5.854   4.355  1.00 20.00    -0.031 C 
HETATM    9  C8  UNL     1     -34.906   7.282   4.121  1.00 20.00     0.036 C 
ENDBRANCH   2   7
TORSDOF 3
ENDMDL
