MODEL 1
REMARK VINA RESULT:      -2.5      0.000      0.000
REMARK  1 active torsions:
REMARK  status: ('A' for Active; 'I' for Inactive)
REMARK    1  A    between atoms: C1_1  and  C2_2 
ROOT
HETATM    1  C1  UNL     1     -35.252   6.136   3.902  1.00 20.00     0.326 C 
HETATM    2  O3  UNL     1     -35.252   5.047   4.456  1.00 20.00    -0.257 OA
HETATM    3  F4  UNL     1     -36.400   6.539   3.340  1.00 20.00    -0.162 F 
ENDROOT
BRANCH   1   4
HETATM    4  C2  UNL     1     -34.078   7.051   3.800  1.00 20.00     0.338 C 
HETATM    5  F5  UNL     1     -34.097   7.994   4.779  1.00 20.00    -0.245 F 
ENDBRANCH   1   4
TORSDOF 1
ENDMDL
MODEL 2
REMARK VINA RESULT:      -2.5      1.756      2.640
REMARK  1 active torsions:
REMARK  status: ('A' for Active; 'I' for Inactive)
REMARK    1  A    between atoms: C1_1  and  C2_2 
ROOT
HETATM    1  C1  UNL     1     -34.200   7.125   3.847  1.00 20.00     0.326 C 
HETATM    2  O3  UNL     1     -33.384   7.101   2.938  1.00 20.00    -0.257 OA
HETATM    3  F4  UNL     1     -34.013   8.033   4.814  1.00 20.00    -0.162 F 
ENDROOT
BRANCH   1   4
HETATM    4  C2  UNL     1     -35.384   6.226   3.967  1.00 20.00     0.338 C 
HETATM    5  F5  UNL     1     -35.016   4.965   4.317  1.00 20.00    -0.245 F 
ENDBRANCH   1   4
TORSDOF 1
ENDMDL
MODEL 3
REMARK VINA RESULT:      -2.5      1.486      1.997
REMARK  1 active torsions:
REMARK  status: ('A' for Active; 'I' for Inactive)
REMARK    1  A    between atoms: C1_1  and  C2_2 
ROOT
HETATM    1  C1  UNL     1     -34.467   6.809   3.817  1.00 20.00     0.326 C 
HETATM    2  O3  UNL     1     -35.467   6.157   4.079  1.00 20.00    -0.257 OA
HETATM    3  F4  UNL     1     -34.220   7.885   4.577  1.00 20.00    -0.162 F 
ENDROOT
BRANCH   1   4
HETATM    4  C2  UNL     1     -33.502   6.506   2.720  1.00 20.00     0.338 C 
HETATM    5  F5  UNL     1     -32.717   7.579   2.439  1.00 20.00    -0.245 F 
ENDBRANCH   1   4
TORSDOF 1
ENDMDL
MODEL 4
REMARK VINA RESULT:      -2.4      2.221      2.640
REMARK  1 active torsions:
REMARK  status: ('A' for Active; 'I' for Inactive)
REMARK    1  A    between atoms: C1_1  and  C2_2 
ROOT
HETATM    1  C1  UNL     1     -34.192   6.721   3.587  1.00 20.00     0.326 C 
HETATM    2  O3  UNL     1     -33.716   7.743   4.057  1.00 20.00    -0.257 OA
HETATM    3  F4  UNL     1     -33.562   6.180   2.535  1.00 20.00    -0.162 F 
ENDROOT
BRANCH   1   4
HETATM    4  C2  UNL     1     -35.415   6.029   4.087  1.00 20.00     0.338 C 
HETATM    5  F5  UNL     1     -35.146   4.746   4.447  1.00 20.00    -0.245 F 
ENDBRANCH   1   4
TORSDOF 1
ENDMDL
MODEL 5
REMARK VINA RESULT:      -2.4      1.493      1.493
REMARK  1 active torsions:
REMARK  status: ('A' for Active; 'I' for Inactive)
REMARK    1  A    between atoms: C1_1  and  C2_2 
ROOT
HETATM    1  C1  UNL     1     -34.477   6.307   3.762  1.00 20.00     0.326 C 
HETATM    2  O3  UNL     1     -35.622   6.075   4.121  1.00 20.00    -0.257 OA
HETATM    3  F4  UNL     1     -33.760   5.275   3.296  1.00 20.00    -0.162 F 
ENDROOT
BRANCH   1   4
HETATM    4  C2  UNL     1     -33.814   7.643   3.801  1.00 20.00     0.338 C 
HETATM    5  F5  UNL     1     -33.782   8.143   5.064  1.00 20.00    -0.245 F 
ENDBRANCH   1   4
TORSDOF 1
ENDMDL
MODEL 6
REMARK VINA RESULT:      -2.3      2.135      2.164
REMARK  1 active torsions:
REMARK  status: ('A' for Active; 'I' for Inactive)
REMARK    1  A    between atoms: C1_1  and  C2_2 
ROOT
HETATM    1  C1  UNL     1     -34.462   6.662   3.750  1.00 20.00     0.326 C 
HETATM    2  O3  UNL     1     -34.198   7.723   4.295  1.00 20.00    -0.257 OA
HETATM    3  F4  UNL     1     -35.622   6.076   4.078  1.00 20.00    -0.162 F 
ENDROOT
BRANCH   1   4
HETATM    4  C2  UNL     1     -33.598   5.967   2.752  1.00 20.00     0.338 C 
HETATM    5  F5  UNL     1     -32.839   6.851   2.052  1.00 20.00    -0.245 F 
ENDBRANCH   1   4
TORSDOF 1
ENDMDL
MODEL 7
REMARK VINA RESULT:      -2.3      5.133      5.626
REMARK  1 active torsions:
REMARK  status: ('A' for Active; 'I' for Inactive)
REMARK    1  A    between atoms: C1_1  and  C2_2 
ROOT
HETATM    1  C1  UNL     1     -32.460   9.843   0.256  1.00 20.00     0.326 C 
HETATM    2  O3  UNL     1     -32.975   9.821  -0.851  1.00 20.00    -0.257 OA
HETATM    3  F4  UNL     1     -32.454  11.015   0.906  1.00 20.00    -0.162 F 
ENDROOT
BRANCH   1   4
HETATM    4  C2  UNL     1     -31.838   8.673   0.941  1.00 20.00     0.338 C 
HETATM    5  F5  UNL     1     -32.520   8.338   2.068  1.00 20.00    -0.245 F 
ENDBRANCH   1   4
TORSDOF 1
ENDMDL
MODEL 8
REMARK VINA RESULT:      -2.3      2.828      2.980
REMARK  1 active torsions:
REMARK  status: ('A' for Active; 'I' for Inactive)
REMARK    1  A    between atoms: C1_1  and  C2_2 
ROOT
HETATM    1  C1  UNL     1     -33.120   6.850   2.386  1.00 20.00     0.326 C 
HETATM    2  O3  UNL     1     -32.440   7.852   2.231  1.00 20.00    -0.257 OA
HETATM    3  F4  UNL     1     -32.949   5.851   1.509  1.00 20.00    -0.162 F 
ENDROOT
BRANCH   1   4
HETATM    4  C2  UNL     1     -34.125   6.648   3.471  1.00 20.00     0.338 C 
HETATM    5  F5  UNL     1     -34.179   7.722   4.302  1.00 20.00    -0.245 F 
ENDBRANCH   1   4
TORSDOF 1
ENDMDL
MODEL 9
REMARK VINA RESULT:      -2.3      2.211      2.763
REMARK  1 active torsions:
REMARK  status: ('A' for Active; 'I' for Inactive)
REMARK    1  A    between atoms: C1_1  and  C2_2 
ROOT
HETATM    1  C1  UNL     1     -33.237   6.772   2.509  1.00 20.00     0.326 C 
HETATM    2  O3  UNL     1     -32.974   5.916   1.678  1.00 20.00    -0.257 OA
HETATM    3  F4  UNL     1     -32.532   7.911   2.459  1.00 20.00    -0.162 F 
ENDROOT
BRANCH   1   4
HETATM    4  C2  UNL     1     -34.276   6.652   3.573  1.00 20.00     0.338 C 
HETATM    5  F5  UNL     1     -34.274   7.737   4.392  1.00 20.00    -0.245 F 
ENDBRANCH   1   4
TORSDOF 1
ENDMDL
