MODEL 1
REMARK VINA RESULT:       0.7      0.000      0.000
REMARK  1 active torsions:
REMARK  status: ('A' for Active; 'I' for Inactive)
REMARK    1  A    between atoms: C4_4  and  O11_11 
ROOT
HETATM    1  C1  UNL     1     -32.202   8.412   3.317  1.00 20.00    -0.021 C 
HETATM    2  C2  UNL     1     -31.203   8.123   2.466  1.00 20.00    -0.025 C 
HETATM    3  C3  UNL     1     -33.363   6.332   2.734  1.00 20.00    -0.043 C 
HETATM    4  C4  UNL     1     -34.124   5.480   3.427  1.00 20.00     0.045 C 
HETATM    5  C5  UNL     1     -32.243   5.964   1.767  1.00 20.00     0.046 C 
HETATM    6  C6  UNL     1     -33.165   8.096   1.241  1.00 20.00     0.022 C 
HETATM    7  C7  UNL     1     -33.472   7.846   2.722  1.00 20.00     0.040 C 
HETATM    8  C8  UNL     1     -31.812   7.375   1.296  1.00 20.00     0.013 C 
HETATM    9  C9  UNL     1     -35.209   5.909   4.363  1.00 20.00     0.076 C 
ENDROOT
BRANCH   4  10
HETATM   10  O11 UNL     1     -33.932   4.117   3.304  1.00 20.00    -0.360 OA
HETATM   11  C10 UNL     1     -33.659   3.498   4.536  1.00 20.00     0.209 C 
ENDBRANCH   4  10
TORSDOF 1
ENDMDL
MODEL 2
REMARK VINA RESULT:       1.5      1.822      4.153
REMARK  1 active torsions:
REMARK  status: ('A' for Active; 'I' for Inactive)
REMARK    1  A    between atoms: C4_4  and  O11_11 
ROOT
HETATM    1  C1  UNL     1     -34.293   4.612   4.010  1.00 20.00    -0.021 C 
HETATM    2  C2  UNL     1     -34.723   5.416   4.997  1.00 20.00    -0.025 C 
HETATM    3  C3  UNL     1     -33.456   6.537   2.743  1.00 20.00    -0.043 C 
HETATM    4  C4  UNL     1     -32.410   6.719   1.933  1.00 20.00     0.045 C 
HETATM    5  C5  UNL     1     -33.921   7.480   3.846  1.00 20.00     0.046 C 
HETATM    6  C6  UNL     1     -35.723   6.147   3.043  1.00 20.00     0.022 C 
HETATM    7  C7  UNL     1     -34.437   5.378   2.715  1.00 20.00     0.040 C 
HETATM    8  C8  UNL     1     -35.168   6.715   4.355  1.00 20.00     0.013 C 
HETATM    9  C9  UNL     1     -32.006   5.749   0.867  1.00 20.00     0.076 C 
ENDROOT
BRANCH   4  10
HETATM   10  O11 UNL     1     -31.626   7.851   2.052  1.00 20.00    -0.360 OA
HETATM   11  C10 UNL     1     -31.958   8.838   1.109  1.00 20.00     0.209 C 
ENDBRANCH   4  10
TORSDOF 1
ENDMDL
MODEL 3
REMARK VINA RESULT:       1.8      1.499      3.656
REMARK  1 active torsions:
REMARK  status: ('A' for Active; 'I' for Inactive)
REMARK    1  A    between atoms: C4_4  and  O11_11 
ROOT
HETATM    1  C1  UNL     1     -35.608   7.346   3.038  1.00 20.00    -0.021 C 
HETATM    2  C2  UNL     1     -36.021   6.201   3.604  1.00 20.00    -0.025 C 
HETATM    3  C3  UNL     1     -33.332   6.465   2.803  1.00 20.00    -0.043 C 
HETATM    4  C4  UNL     1     -32.374   6.629   1.888  1.00 20.00     0.045 C 
HETATM    5  C5  UNL     1     -33.765   5.146   3.433  1.00 20.00     0.046 C 
HETATM    6  C6  UNL     1     -34.249   6.982   4.870  1.00 20.00     0.022 C 
HETATM    7  C7  UNL     1     -34.169   7.554   3.450  1.00 20.00     0.040 C 
HETATM    8  C8  UNL     1     -34.858   5.652   4.407  1.00 20.00     0.013 C 
HETATM    9  C9  UNL     1     -31.997   7.956   1.309  1.00 20.00     0.076 C 
ENDROOT
BRANCH   4  10
HETATM   10  O11 UNL     1     -31.665   5.540   1.419  1.00 20.00    -0.360 OA
HETATM   11  C10 UNL     1     -32.364   4.827   0.429  1.00 20.00     0.209 C 
ENDBRANCH   4  10
TORSDOF 1
ENDMDL
MODEL 4
REMARK VINA RESULT:       2.1      1.997      4.152
REMARK  1 active torsions:
REMARK  status: ('A' for Active; 'I' for Inactive)
REMARK    1  A    between atoms: C4_4  and  O11_11 
ROOT
HETATM    1  C1  UNL     1     -34.635   7.266   4.273  1.00 20.00    -0.021 C 
HETATM    2  C2  UNL     1     -35.392   6.409   3.568  1.00 20.00    -0.025 C 
HETATM    3  C3  UNL     1     -32.907   7.245   2.533  1.00 20.00    -0.043 C 
HETATM    4  C4  UNL     1     -32.062   8.169   2.068  1.00 20.00     0.045 C 
HETATM    5  C5  UNL     1     -33.742   6.281   1.699  1.00 20.00     0.046 C 
HETATM    6  C6  UNL     1     -33.332   5.400   3.873  1.00 20.00     0.022 C 
HETATM    7  C7  UNL     1     -33.190   6.923   3.989  1.00 20.00     0.040 C 
HETATM    8  C8  UNL     1     -34.448   5.484   2.824  1.00 20.00     0.013 C 
HETATM    9  C9  UNL     1     -31.271   9.087   2.945  1.00 20.00     0.076 C 
ENDROOT
BRANCH   4  10
HETATM   10  O11 UNL     1     -31.878   8.321   0.707  1.00 20.00    -0.360 OA
HETATM   11  C10 UNL     1     -32.309   9.575   0.241  1.00 20.00     0.209 C 
ENDBRANCH   4  10
TORSDOF 1
ENDMDL
MODEL 5
REMARK VINA RESULT:       2.2      2.000      3.304
REMARK  1 active torsions:
REMARK  status: ('A' for Active; 'I' for Inactive)
REMARK    1  A    between atoms: C4_4  and  O11_11 
ROOT
HETATM    1  C1  UNL     1     -32.757   8.828  -0.823  1.00 20.00    -0.021 C 
HETATM    2  C2  UNL     1     -32.912  10.129  -0.529  1.00 20.00    -0.025 C 
HETATM    3  C3  UNL     1     -32.550   8.265   1.554  1.00 20.00    -0.043 C 
HETATM    4  C4  UNL     1     -32.918   7.209   2.283  1.00 20.00     0.045 C 
HETATM    5  C5  UNL     1     -32.734   9.731   1.929  1.00 20.00     0.046 C 
HETATM    6  C6  UNL     1     -30.913   9.455   0.420  1.00 20.00     0.022 C 
HETATM    7  C7  UNL     1     -31.830   8.242   0.218  1.00 20.00     0.040 C 
HETATM    8  C8  UNL     1     -32.077  10.413   0.704  1.00 20.00     0.013 C 
HETATM    9  C9  UNL     1     -32.708   5.791   1.855  1.00 20.00     0.076 C 
ENDROOT
BRANCH   4  10
HETATM   10  O11 UNL     1     -33.533   7.388   3.508  1.00 20.00    -0.360 OA
HETATM   11  C10 UNL     1     -34.618   6.514   3.699  1.00 20.00     0.209 C 
ENDBRANCH   4  10
TORSDOF 1
ENDMDL
MODEL 6
REMARK VINA RESULT:       2.4      1.758      2.735
REMARK  1 active torsions:
REMARK  status: ('A' for Active; 'I' for Inactive)
REMARK    1  A    between atoms: C4_4  and  O11_11 
ROOT
HETATM    1  C1  UNL     1     -33.561   6.502   0.492  1.00 20.00    -0.021 C 
HETATM    2  C2  UNL     1     -32.634   7.430   0.204  1.00 20.00    -0.025 C 
HETATM    3  C3  UNL     1     -33.390   7.008   2.886  1.00 20.00    -0.043 C 
HETATM    4  C4  UNL     1     -34.272   7.013   3.888  1.00 20.00     0.045 C 
HETATM    5  C5  UNL     1     -32.343   8.077   2.597  1.00 20.00     0.046 C 
HETATM    6  C6  UNL     1     -31.678   5.966   1.718  1.00 20.00     0.022 C 
HETATM    7  C7  UNL     1     -33.205   5.921   1.842  1.00 20.00     0.040 C 
HETATM    8  C8  UNL     1     -31.651   7.457   1.358  1.00 20.00     0.013 C 
HETATM    9  C9  UNL     1     -35.277   5.928   4.115  1.00 20.00     0.076 C 
ENDROOT
BRANCH   4  10
HETATM   10  O11 UNL     1     -34.295   8.060   4.790  1.00 20.00    -0.360 OA
HETATM   11  C10 UNL     1     -33.074   8.213   5.469  1.00 20.00     0.209 C 
ENDBRANCH   4  10
TORSDOF 1
ENDMDL
MODEL 7
REMARK VINA RESULT:       2.5      1.190      2.436
REMARK  1 active torsions:
REMARK  status: ('A' for Active; 'I' for Inactive)
REMARK    1  A    between atoms: C4_4  and  O11_11 
ROOT
HETATM    1  C1  UNL     1     -32.215   8.628   0.326  1.00 20.00    -0.021 C 
HETATM    2  C2  UNL     1     -32.666   9.638   1.089  1.00 20.00    -0.025 C 
HETATM    3  C3  UNL     1     -32.699   7.008   2.103  1.00 20.00    -0.043 C 
HETATM    4  C4  UNL     1     -33.107   5.737   2.099  1.00 20.00     0.045 C 
HETATM    5  C5  UNL     1     -33.228   8.126   2.994  1.00 20.00     0.046 C 
HETATM    6  C6  UNL     1     -30.998   8.574   2.289  1.00 20.00     0.022 C 
HETATM    7  C7  UNL     1     -31.593   7.611   1.255  1.00 20.00     0.040 C 
HETATM    8  C8  UNL     1     -32.329   9.298   2.528  1.00 20.00     0.013 C 
HETATM    9  C9  UNL     1     -32.544   4.687   1.195  1.00 20.00     0.076 C 
ENDROOT
BRANCH   4  10
HETATM   10  O11 UNL     1     -34.105   5.324   2.962  1.00 20.00    -0.360 OA
HETATM   11  C10 UNL     1     -33.712   4.234   3.758  1.00 20.00     0.209 C 
ENDBRANCH   4  10
TORSDOF 1
ENDMDL
MODEL 8
REMARK VINA RESULT:       2.5      1.360      1.624
REMARK  1 active torsions:
REMARK  status: ('A' for Active; 'I' for Inactive)
REMARK    1  A    between atoms: C4_4  and  O11_11 
ROOT
HETATM    1  C1  UNL     1     -31.028   7.844   2.607  1.00 20.00    -0.021 C 
HETATM    2  C2  UNL     1     -31.020   7.170   1.445  1.00 20.00    -0.025 C 
HETATM    3  C3  UNL     1     -33.425   7.412   2.894  1.00 20.00    -0.043 C 
HETATM    4  C4  UNL     1     -34.198   7.198   3.962  1.00 20.00     0.045 C 
HETATM    5  C5  UNL     1     -33.453   6.631   1.585  1.00 20.00     0.046 C 
HETATM    6  C6  UNL     1     -32.614   8.834   1.250  1.00 20.00     0.022 C 
HETATM    7  C7  UNL     1     -32.382   8.504   2.730  1.00 20.00     0.040 C 
HETATM    8  C8  UNL     1     -32.367   7.393   0.786  1.00 20.00     0.013 C 
HETATM    9  C9  UNL     1     -34.118   8.004   5.219  1.00 20.00     0.076 C 
ENDROOT
BRANCH   4  10
HETATM   10  O11 UNL     1     -35.136   6.184   3.949  1.00 20.00    -0.360 OA
HETATM   11  C10 UNL     1     -34.573   4.925   4.221  1.00 20.00     0.209 C 
ENDBRANCH   4  10
TORSDOF 1
ENDMDL
MODEL 9
REMARK VINA RESULT:       2.7      1.330      2.355
REMARK  1 active torsions:
REMARK  status: ('A' for Active; 'I' for Inactive)
REMARK    1  A    between atoms: C4_4  and  O11_11 
ROOT
HETATM    1  C1  UNL     1     -32.086   7.788   0.499  1.00 20.00    -0.021 C 
HETATM    2  C2  UNL     1     -32.365   9.096   0.622  1.00 20.00    -0.025 C 
HETATM    3  C3  UNL     1     -33.155   7.310   2.654  1.00 20.00    -0.043 C 
HETATM    4  C4  UNL     1     -33.856   6.274   3.121  1.00 20.00     0.045 C 
HETATM    5  C5  UNL     1     -33.498   8.785   2.824  1.00 20.00     0.046 C 
HETATM    6  C6  UNL     1     -31.159   8.482   2.498  1.00 20.00     0.022 C 
HETATM    7  C7  UNL     1     -31.843   7.251   1.891  1.00 20.00     0.040 C 
HETATM    8  C8  UNL     1     -32.293   9.434   2.098  1.00 20.00     0.013 C 
HETATM    9  C9  UNL     1     -33.462   4.845   2.917  1.00 20.00     0.076 C 
ENDROOT
BRANCH   4  10
HETATM   10  O11 UNL     1     -35.019   6.487   3.837  1.00 20.00    -0.360 OA
HETATM   11  C10 UNL     1     -35.450   5.336   4.519  1.00 20.00     0.209 C 
ENDBRANCH   4  10
TORSDOF 1
ENDMDL
