MODEL 1
REMARK VINA RESULT:       1.5      0.000      0.000
REMARK  0 active torsions:
REMARK  status: ('A' for Active; 'I' for Inactive)
ROOT
HETATM    1  C1  UNL     1     -32.422   5.674   1.575  1.00 20.00     0.063 C 
HETATM    2  C2  UNL     1     -32.509   7.999   2.290  1.00 20.00     0.167 C 
HETATM    3  C3  UNL     1     -34.486   6.443   3.271  1.00 20.00     0.112 C 
HETATM    4  C4  UNL     1     -31.817   4.648   0.651  1.00 20.00     0.078 C 
HETATM    5  C5  UNL     1     -31.312   8.914   2.554  1.00 20.00     0.046 C 
HETATM    6  C6  UNL     1     -35.443   6.042   4.386  1.00 20.00     0.033 C 
HETATM    7  N7  UNL     1     -32.024   6.888   1.474  1.00 20.00    -0.272 NA
HETATM    8  S8  UNL     1     -33.584   4.987   2.693  1.00 20.00    -0.100 SA
HETATM    9  S9  UNL     1     -33.329   7.689   3.881  1.00 20.00    -0.127 SA
ENDROOT
TORSDOF 0
ENDMDL
MODEL 2
REMARK VINA RESULT:       2.2      1.606      3.748
REMARK  0 active torsions:
REMARK  status: ('A' for Active; 'I' for Inactive)
ROOT
HETATM    1  C1  UNL     1     -33.990   6.597   3.123  1.00 20.00     0.063 C 
HETATM    2  C2  UNL     1     -32.544   5.853   1.314  1.00 20.00     0.167 C 
HETATM    3  C3  UNL     1     -32.911   8.525   1.438  1.00 20.00     0.112 C 
HETATM    4  C4  UNL     1     -34.973   6.223   4.204  1.00 20.00     0.078 C 
HETATM    5  C5  UNL     1     -31.585   4.661   1.348  1.00 20.00     0.046 C 
HETATM    6  C6  UNL     1     -32.401   9.953   1.287  1.00 20.00     0.033 C 
HETATM    7  N7  UNL     1     -33.502   5.659   2.399  1.00 20.00    -0.272 NA
HETATM    8  S8  UNL     1     -33.652   8.316   3.073  1.00 20.00    -0.100 SA
HETATM    9  S9  UNL     1     -31.542   7.365   1.223  1.00 20.00    -0.127 SA
ENDROOT
TORSDOF 0
ENDMDL
MODEL 3
REMARK VINA RESULT:       2.2      0.814      2.898
REMARK  0 active torsions:
REMARK  status: ('A' for Active; 'I' for Inactive)
ROOT
HETATM    1  C1  UNL     1     -32.403   8.018   1.685  1.00 20.00     0.063 C 
HETATM    2  C2  UNL     1     -32.023   5.615   1.736  1.00 20.00     0.167 C 
HETATM    3  C3  UNL     1     -33.855   6.505   3.510  1.00 20.00     0.112 C 
HETATM    4  C4  UNL     1     -31.952   9.369   1.189  1.00 20.00     0.078 C 
HETATM    5  C5  UNL     1     -31.686   4.723   0.541  1.00 20.00     0.046 C 
HETATM    6  C6  UNL     1     -35.155   6.337   4.287  1.00 20.00     0.033 C 
HETATM    7  N7  UNL     1     -31.722   6.989   1.341  1.00 20.00    -0.272 NA
HETATM    8  S8  UNL     1     -33.859   8.099   2.658  1.00 20.00    -0.100 SA
HETATM    9  S9  UNL     1     -33.684   5.161   2.313  1.00 20.00    -0.127 SA
ENDROOT
TORSDOF 0
ENDMDL
MODEL 4
REMARK VINA RESULT:       2.5      2.110      4.307
REMARK  0 active torsions:
REMARK  status: ('A' for Active; 'I' for Inactive)
ROOT
HETATM    1  C1  UNL     1     -33.562   7.713   4.215  1.00 20.00     0.063 C 
HETATM    2  C2  UNL     1     -33.972   5.671   2.958  1.00 20.00     0.167 C 
HETATM    3  C3  UNL     1     -32.624   7.577   1.603  1.00 20.00     0.112 C 
HETATM    4  C4  UNL     1     -33.860   8.533   5.445  1.00 20.00     0.078 C 
HETATM    5  C5  UNL     1     -34.015   4.249   3.521  1.00 20.00     0.046 C 
HETATM    6  C6  UNL     1     -31.558   8.005   0.601  1.00 20.00     0.033 C 
HETATM    7  N7  UNL     1     -34.150   6.582   4.086  1.00 20.00    -0.272 NA
HETATM    8  S8  UNL     1     -32.390   8.472   3.156  1.00 20.00    -0.100 SA
HETATM    9  S9  UNL     1     -32.511   5.797   1.887  1.00 20.00    -0.127 SA
ENDROOT
TORSDOF 0
ENDMDL
MODEL 5
REMARK VINA RESULT:       2.5      1.644      3.284
REMARK  0 active torsions:
REMARK  status: ('A' for Active; 'I' for Inactive)
ROOT
HETATM    1  C1  UNL     1     -33.690   7.084   3.171  1.00 20.00     0.063 C 
HETATM    2  C2  UNL     1     -32.093   8.367   1.859  1.00 20.00     0.167 C 
HETATM    3  C3  UNL     1     -31.892   5.689   1.576  1.00 20.00     0.112 C 
HETATM    4  C4  UNL     1     -34.726   7.079   4.267  1.00 20.00     0.078 C 
HETATM    5  C5  UNL     1     -32.333   9.735   1.219  1.00 20.00     0.046 C 
HETATM    6  C6  UNL     1     -31.624   4.450   0.730  1.00 20.00     0.033 C 
HETATM    7  N7  UNL     1     -33.114   8.193   2.888  1.00 20.00    -0.272 NA
HETATM    8  S8  UNL     1     -33.477   5.512   2.426  1.00 20.00    -0.100 SA
HETATM    9  S9  UNL     1     -31.914   7.154   0.518  1.00 20.00    -0.127 SA
ENDROOT
TORSDOF 0
ENDMDL
MODEL 6
REMARK VINA RESULT:       2.5      1.475      3.154
REMARK  0 active torsions:
REMARK  status: ('A' for Active; 'I' for Inactive)
ROOT
HETATM    1  C1  UNL     1     -32.911   5.810   1.684  1.00 20.00     0.063 C 
HETATM    2  C2  UNL     1     -34.077   6.138   3.794  1.00 20.00     0.167 C 
HETATM    3  C3  UNL     1     -32.093   7.907   3.315  1.00 20.00     0.112 C 
HETATM    4  C4  UNL     1     -32.661   4.922   0.491  1.00 20.00     0.078 C 
HETATM    5  C5  UNL     1     -35.560   5.878   4.063  1.00 20.00     0.046 C 
HETATM    6  C6  UNL     1     -31.503   9.309   3.399  1.00 20.00     0.033 C 
HETATM    7  N7  UNL     1     -33.728   5.401   2.582  1.00 20.00    -0.272 NA
HETATM    8  S8  UNL     1     -32.027   7.322   1.606  1.00 20.00    -0.100 SA
HETATM    9  S9  UNL     1     -33.803   7.931   3.898  1.00 20.00    -0.127 SA
ENDROOT
TORSDOF 0
ENDMDL
MODEL 7
REMARK VINA RESULT:       3.3      2.004      3.127
REMARK  0 active torsions:
REMARK  status: ('A' for Active; 'I' for Inactive)
ROOT
HETATM    1  C1  UNL     1     -33.649   7.719   3.937  1.00 20.00     0.063 C 
HETATM    2  C2  UNL     1     -32.127   7.230   2.102  1.00 20.00     0.167 C 
HETATM    3  C3  UNL     1     -33.225   5.055   3.267  1.00 20.00     0.112 C 
HETATM    4  C4  UNL     1     -34.196   8.743   4.899  1.00 20.00     0.078 C 
HETATM    5  C5  UNL     1     -31.918   8.075   0.845  1.00 20.00     0.046 C 
HETATM    6  C6  UNL     1     -33.801   3.646   3.193  1.00 20.00     0.033 C 
HETATM    7  N7  UNL     1     -32.757   8.095   3.097  1.00 20.00    -0.272 NA
HETATM    8  S8  UNL     1     -34.388   6.141   4.126  1.00 20.00    -0.100 SA
HETATM    9  S9  UNL     1     -32.915   5.673   1.597  1.00 20.00    -0.127 SA
ENDROOT
TORSDOF 0
ENDMDL
MODEL 8
REMARK VINA RESULT:       3.4      1.709      3.521
REMARK  0 active torsions:
REMARK  status: ('A' for Active; 'I' for Inactive)
ROOT
HETATM    1  C1  UNL     1     -32.616   8.474   1.646  1.00 20.00     0.063 C 
HETATM    2  C2  UNL     1     -34.016   7.158   3.138  1.00 20.00     0.167 C 
HETATM    3  C3  UNL     1     -32.702   5.722   1.267  1.00 20.00     0.112 C 
HETATM    4  C4  UNL     1     -32.221   9.840   1.144  1.00 20.00     0.078 C 
HETATM    5  C5  UNL     1     -34.288   7.443   4.616  1.00 20.00     0.046 C 
HETATM    6  C6  UNL     1     -31.962   4.467   0.820  1.00 20.00     0.033 C 
HETATM    7  N7  UNL     1     -33.522   8.400   2.549  1.00 20.00    -0.272 NA
HETATM    8  S8  UNL     1     -31.701   7.181   0.895  1.00 20.00    -0.100 SA
HETATM    9  S9  UNL     1     -33.036   5.632   3.040  1.00 20.00    -0.127 SA
ENDROOT
TORSDOF 0
ENDMDL
MODEL 9
REMARK VINA RESULT:       3.5      2.156      4.334
REMARK  0 active torsions:
REMARK  status: ('A' for Active; 'I' for Inactive)
ROOT
HETATM    1  C1  UNL     1     -33.959   6.797   3.640  1.00 20.00     0.063 C 
HETATM    2  C2  UNL     1     -33.919   4.365   3.647  1.00 20.00     0.167 C 
HETATM    3  C3  UNL     1     -32.744   5.505   1.500  1.00 20.00     0.112 C 
HETATM    4  C4  UNL     1     -34.505   8.064   4.249  1.00 20.00     0.078 C 
HETATM    5  C5  UNL     1     -33.803   3.461   4.875  1.00 20.00     0.046 C 
HETATM    6  C6  UNL     1     -31.658   5.541   0.432  1.00 20.00     0.033 C 
HETATM    7  N7  UNL     1     -34.351   5.677   4.122  1.00 20.00    -0.272 NA
HETATM    8  S8  UNL     1     -32.813   7.100   2.349  1.00 20.00    -0.100 SA
HETATM    9  S9  UNL     1     -32.390   4.186   2.683  1.00 20.00    -0.127 SA
ENDROOT
TORSDOF 0
ENDMDL
