MODEL 1
REMARK VINA RESULT:       0.2      0.000      0.000
REMARK  0 active torsions:
REMARK  status: ('A' for Active; 'I' for Inactive)
ROOT
HETATM    1  C1  UNL     1     -33.341   5.921   2.768  1.00 20.00     0.302 C 
HETATM    2  C2  UNL     1     -32.612   5.669   1.468  1.00 20.00     0.201 C 
HETATM    3  C3  UNL     1     -32.297   7.859   2.086  1.00 20.00     0.253 C 
HETATM    4  C4  UNL     1     -32.645   8.974   1.096  1.00 20.00     0.081 C 
HETATM    5  C5  UNL     1     -31.206   8.340   3.052  1.00 20.00     0.081 C 
HETATM    6  C6  UNL     1     -33.922   7.939   3.977  1.00 20.00     0.314 C 
HETATM    7  N7  UNL     1     -33.537   7.364   2.700  1.00 20.00     0.120 N 
HETATM    8  O8  UNL     1     -31.714   6.777   1.324  1.00 20.00    -0.351 OA
ENDROOT
TORSDOF 0
ENDMDL
MODEL 2
REMARK VINA RESULT:       0.3      1.423      2.682
REMARK  0 active torsions:
REMARK  status: ('A' for Active; 'I' for Inactive)
ROOT
HETATM    1  C1  UNL     1     -33.263   7.507   3.449  1.00 20.00     0.302 C 
HETATM    2  C2  UNL     1     -34.246   6.371   3.630  1.00 20.00     0.201 C 
HETATM    3  C3  UNL     1     -32.980   5.969   1.755  1.00 20.00     0.253 C 
HETATM    4  C4  UNL     1     -33.681   5.701   0.420  1.00 20.00     0.081 C 
HETATM    5  C5  UNL     1     -31.603   5.291   1.766  1.00 20.00     0.081 C 
HETATM    6  C6  UNL     1     -31.826   8.177   1.617  1.00 20.00     0.314 C 
HETATM    7  N7  UNL     1     -32.996   7.415   2.019  1.00 20.00     0.120 N 
HETATM    8  O8  UNL     1     -33.758   5.319   2.786  1.00 20.00    -0.351 OA
ENDROOT
TORSDOF 0
ENDMDL
MODEL 3
REMARK VINA RESULT:       0.6      1.518      2.968
REMARK  0 active torsions:
REMARK  status: ('A' for Active; 'I' for Inactive)
ROOT
HETATM    1  C1  UNL     1     -32.646   7.801   2.616  1.00 20.00     0.302 C 
HETATM    2  C2  UNL     1     -32.590   6.621   1.671  1.00 20.00     0.201 C 
HETATM    3  C3  UNL     1     -34.099   6.164   3.343  1.00 20.00     0.253 C 
HETATM    4  C4  UNL     1     -33.944   4.879   4.161  1.00 20.00     0.081 C 
HETATM    5  C5  UNL     1     -35.570   6.601   3.327  1.00 20.00     0.081 C 
HETATM    6  C6  UNL     1     -33.600   8.111   4.822  1.00 20.00     0.314 C 
HETATM    7  N7  UNL     1     -33.130   7.158   3.831  1.00 20.00     0.120 N 
HETATM    8  O8  UNL     1     -33.757   5.845   1.974  1.00 20.00    -0.351 OA
ENDROOT
TORSDOF 0
ENDMDL
MODEL 4
REMARK VINA RESULT:       1.0      1.974      3.491
REMARK  0 active torsions:
REMARK  status: ('A' for Active; 'I' for Inactive)
ROOT
HETATM    1  C1  UNL     1     -32.520   7.545   2.949  1.00 20.00     0.302 C 
HETATM    2  C2  UNL     1     -33.242   8.272   4.061  1.00 20.00     0.201 C 
HETATM    3  C3  UNL     1     -34.397   6.351   3.554  1.00 20.00     0.253 C 
HETATM    4  C4  UNL     1     -35.885   6.441   3.205  1.00 20.00     0.081 C 
HETATM    5  C5  UNL     1     -34.080   4.969   4.141  1.00 20.00     0.081 C 
HETATM    6  C6  UNL     1     -33.136   5.702   1.501  1.00 20.00     0.314 C 
HETATM    7  N7  UNL     1     -33.607   6.757   2.382  1.00 20.00     0.120 N 
HETATM    8  O8  UNL     1     -34.146   7.305   4.612  1.00 20.00    -0.351 OA
ENDROOT
TORSDOF 0
ENDMDL
MODEL 5
REMARK VINA RESULT:       1.1      1.038      2.679
REMARK  0 active torsions:
REMARK  status: ('A' for Active; 'I' for Inactive)
ROOT
HETATM    1  C1  UNL     1     -33.278   7.855   3.144  1.00 20.00     0.302 C 
HETATM    2  C2  UNL     1     -32.066   8.249   2.330  1.00 20.00     0.201 C 
HETATM    3  C3  UNL     1     -32.785   6.178   1.642  1.00 20.00     0.253 C 
HETATM    4  C4  UNL     1     -31.796   5.009   1.624  1.00 20.00     0.081 C 
HETATM    5  C5  UNL     1     -33.888   5.944   0.601  1.00 20.00     0.081 C 
HETATM    6  C6  UNL     1     -34.470   5.766   3.434  1.00 20.00     0.314 C 
HETATM    7  N7  UNL     1     -33.231   6.403   3.024  1.00 20.00     0.120 N 
HETATM    8  O8  UNL     1     -32.064   7.355   1.209  1.00 20.00    -0.351 OA
ENDROOT
TORSDOF 0
ENDMDL
MODEL 6
REMARK VINA RESULT:       1.1      2.490      3.550
REMARK  0 active torsions:
REMARK  status: ('A' for Active; 'I' for Inactive)
ROOT
HETATM    1  C1  UNL     1     -33.688   4.434   3.117  1.00 20.00     0.302 C 
HETATM    2  C2  UNL     1     -34.319   4.290   4.484  1.00 20.00     0.201 C 
HETATM    3  C3  UNL     1     -34.595   6.454   3.762  1.00 20.00     0.253 C 
HETATM    4  C4  UNL     1     -34.122   7.606   4.652  1.00 20.00     0.081 C 
HETATM    5  C5  UNL     1     -35.740   6.927   2.858  1.00 20.00     0.081 C 
HETATM    6  C6  UNL     1     -33.126   6.352   1.747  1.00 20.00     0.314 C 
HETATM    7  N7  UNL     1     -33.429   5.868   3.083  1.00 20.00     0.120 N 
HETATM    8  O8  UNL     1     -35.157   5.444   4.631  1.00 20.00    -0.351 OA
ENDROOT
TORSDOF 0
ENDMDL
MODEL 7
REMARK VINA RESULT:       1.2      1.623      2.773
REMARK  0 active torsions:
REMARK  status: ('A' for Active; 'I' for Inactive)
ROOT
HETATM    1  C1  UNL     1     -33.057   5.895   1.994  1.00 20.00     0.302 C 
HETATM    2  C2  UNL     1     -33.697   5.143   3.140  1.00 20.00     0.201 C 
HETATM    3  C3  UNL     1     -33.717   7.390   3.620  1.00 20.00     0.253 C 
HETATM    4  C4  UNL     1     -33.110   7.880   4.938  1.00 20.00     0.081 C 
HETATM    5  C5  UNL     1     -34.802   8.367   3.149  1.00 20.00     0.081 C 
HETATM    6  C6  UNL     1     -32.277   8.174   1.740  1.00 20.00     0.314 C 
HETATM    7  N7  UNL     1     -32.631   7.115   2.669  1.00 20.00     0.120 N 
HETATM    8  O8  UNL     1     -34.392   6.141   3.899  1.00 20.00    -0.351 OA
ENDROOT
TORSDOF 0
ENDMDL
MODEL 8
REMARK VINA RESULT:       1.3      1.263      2.517
REMARK  0 active torsions:
REMARK  status: ('A' for Active; 'I' for Inactive)
ROOT
HETATM    1  C1  UNL     1     -33.920   6.149   2.751  1.00 20.00     0.302 C 
HETATM    2  C2  UNL     1     -34.061   7.230   3.799  1.00 20.00     0.201 C 
HETATM    3  C3  UNL     1     -32.438   7.856   2.298  1.00 20.00     0.253 C 
HETATM    4  C4  UNL     1     -31.046   8.234   2.813  1.00 20.00     0.081 C 
HETATM    5  C5  UNL     1     -32.715   8.570   0.969  1.00 20.00     0.081 C 
HETATM    6  C6  UNL     1     -32.263   5.709   1.039  1.00 20.00     0.314 C 
HETATM    7  N7  UNL     1     -32.559   6.391   2.287  1.00 20.00     0.120 N 
HETATM    8  O8  UNL     1     -33.401   8.375   3.244  1.00 20.00    -0.351 OA
ENDROOT
TORSDOF 0
ENDMDL
MODEL 9
REMARK VINA RESULT:       1.5      1.643      2.098
REMARK  0 active torsions:
REMARK  status: ('A' for Active; 'I' for Inactive)
ROOT
HETATM    1  C1  UNL     1     -33.400   5.574   2.667  1.00 20.00     0.302 C 
HETATM    2  C2  UNL     1     -32.642   6.614   1.872  1.00 20.00     0.201 C 
HETATM    3  C3  UNL     1     -33.764   7.657   3.585  1.00 20.00     0.253 C 
HETATM    4  C4  UNL     1     -34.706   8.821   3.264  1.00 20.00     0.081 C 
HETATM    5  C5  UNL     1     -33.227   7.799   5.015  1.00 20.00     0.081 C 
HETATM    6  C6  UNL     1     -35.132   5.718   4.355  1.00 20.00     0.314 C 
HETATM    7  N7  UNL     1     -34.446   6.393   3.268  1.00 20.00     0.120 N 
HETATM    8  O8  UNL     1     -32.620   7.778   2.709  1.00 20.00    -0.351 OA
ENDROOT
TORSDOF 0
ENDMDL
