MODEL 1
REMARK VINA RESULT:      -2.0      0.000      0.000
REMARK  1 active torsions:
REMARK  status: ('A' for Active; 'I' for Inactive)
REMARK    1  A    between atoms: C8_8  and  N9_9 
ROOT
HETATM    1  C1  UNL     1     -32.545  10.151  -0.123  1.00 20.00     0.013 C 
HETATM    2  C2  UNL     1     -32.191   9.301   0.647  1.00 20.00    -0.087 C 
HETATM    3  C8  UNL     1     -31.755   8.266   1.588  1.00 20.00     0.364 C 
ENDROOT
BRANCH   3   4
HETATM    4  N9  UNL     1     -32.898   7.488   2.066  1.00 20.00     0.099 N 
HETATM    5  C6  UNL     1     -33.234   7.862   3.446  1.00 20.00     0.273 C 
HETATM    6  C4  UNL     1     -34.458   7.092   3.944  1.00 20.00     0.030 C 
HETATM    7  C3  UNL     1     -34.253   5.587   3.822  1.00 20.00     0.003 C 
HETATM    8  C5  UNL     1     -33.825   5.220   2.406  1.00 20.00     0.030 C 
HETATM    9  C7  UNL     1     -32.620   6.049   1.957  1.00 20.00     0.273 C 
ENDBRANCH   3   4
TORSDOF 1
ENDMDL
MODEL 2
REMARK VINA RESULT:      -1.9      1.526      4.459
REMARK  1 active torsions:
REMARK  status: ('A' for Active; 'I' for Inactive)
REMARK    1  A    between atoms: C8_8  and  N9_9 
ROOT
HETATM    1  C1  UNL     1     -33.264   2.798   4.776  1.00 20.00     0.013 C 
HETATM    2  C2  UNL     1     -33.763   3.777   4.293  1.00 20.00    -0.087 C 
HETATM    3  C8  UNL     1     -34.377   4.971   3.706  1.00 20.00     0.364 C 
ENDROOT
BRANCH   3   4
HETATM    4  N9  UNL     1     -33.351   5.917   3.270  1.00 20.00     0.099 N 
HETATM    5  C6  UNL     1     -33.770   7.297   3.551  1.00 20.00     0.273 C 
HETATM    6  C4  UNL     1     -32.687   8.297   3.145  1.00 20.00     0.030 C 
HETATM    7  C3  UNL     1     -32.304   8.133   1.679  1.00 20.00     0.003 C 
HETATM    8  C5  UNL     1     -31.950   6.681   1.379  1.00 20.00     0.030 C 
HETATM    9  C7  UNL     1     -33.057   5.732   1.841  1.00 20.00     0.273 C 
ENDBRANCH   3   4
TORSDOF 1
ENDMDL
MODEL 3
REMARK VINA RESULT:      -1.9      0.624      1.740
REMARK  1 active torsions:
REMARK  status: ('A' for Active; 'I' for Inactive)
REMARK    1  A    between atoms: C8_8  and  N9_9 
ROOT
HETATM    1  C1  UNL     1     -32.671  10.094   0.393  1.00 20.00     0.013 C 
HETATM    2  C2  UNL     1     -32.155   9.091   0.803  1.00 20.00    -0.087 C 
HETATM    3  C8  UNL     1     -31.519   7.868   1.300  1.00 20.00     0.364 C 
ENDROOT
BRANCH   3   4
HETATM    4  N9  UNL     1     -32.307   7.282   2.385  1.00 20.00     0.099 N 
HETATM    5  C6  UNL     1     -33.111   6.157   1.887  1.00 20.00     0.273 C 
HETATM    6  C4  UNL     1     -33.904   5.502   3.020  1.00 20.00     0.030 C 
HETATM    7  C3  UNL     1     -34.778   6.518   3.743  1.00 20.00     0.003 C 
HETATM    8  C5  UNL     1     -33.949   7.719   4.182  1.00 20.00     0.030 C 
HETATM    9  C7  UNL     1     -33.155   8.305   3.013  1.00 20.00     0.273 C 
ENDBRANCH   3   4
TORSDOF 1
ENDMDL
MODEL 4
REMARK VINA RESULT:      -1.7      1.623      4.614
REMARK  1 active torsions:
REMARK  status: ('A' for Active; 'I' for Inactive)
REMARK    1  A    between atoms: C8_8  and  N9_9 
ROOT
HETATM    1  C1  UNL     1     -33.485   3.161   4.529  1.00 20.00     0.013 C 
HETATM    2  C2  UNL     1     -34.097   4.177   4.347  1.00 20.00    -0.087 C 
HETATM    3  C8  UNL     1     -34.847   5.417   4.129  1.00 20.00     0.364 C 
ENDROOT
BRANCH   3   4
HETATM    4  N9  UNL     1     -34.178   6.257   3.136  1.00 20.00     0.099 N 
HETATM    5  C6  UNL     1     -33.206   5.469   2.367  1.00 20.00     0.273 C 
HETATM    6  C4  UNL     1     -32.533   6.322   1.290  1.00 20.00     0.030 C 
HETATM    7  C3  UNL     1     -31.875   7.557   1.893  1.00 20.00     0.003 C 
HETATM    8  C5  UNL     1     -32.871   8.322   2.757  1.00 20.00     0.030 C 
HETATM    9  C7  UNL     1     -33.534   7.407   3.787  1.00 20.00     0.273 C 
ENDBRANCH   3   4
TORSDOF 1
ENDMDL
MODEL 5
REMARK VINA RESULT:      -0.6      1.355      2.381
REMARK  1 active torsions:
REMARK  status: ('A' for Active; 'I' for Inactive)
REMARK    1  A    between atoms: C8_8  and  N9_9 
ROOT
HETATM    1  C1  UNL     1     -31.666   8.685   1.420  1.00 20.00     0.013 C 
HETATM    2  C2  UNL     1     -32.019   7.541   1.507  1.00 20.00    -0.087 C 
HETATM    3  C8  UNL     1     -32.446   6.143   1.608  1.00 20.00     0.364 C 
ENDROOT
BRANCH   3   4
HETATM    4  N9  UNL     1     -33.142   5.906   2.873  1.00 20.00     0.099 N 
HETATM    5  C6  UNL     1     -33.466   4.481   3.023  1.00 20.00     0.273 C 
HETATM    6  C4  UNL     1     -34.151   4.209   4.363  1.00 20.00     0.030 C 
HETATM    7  C3  UNL     1     -35.396   5.071   4.534  1.00 20.00     0.003 C 
HETATM    8  C5  UNL     1     -35.065   6.540   4.294  1.00 20.00     0.030 C 
HETATM    9  C7  UNL     1     -34.351   6.738   2.956  1.00 20.00     0.273 C 
ENDBRANCH   3   4
TORSDOF 1
ENDMDL
MODEL 6
REMARK VINA RESULT:      -0.3      1.265      4.225
REMARK  1 active torsions:
REMARK  status: ('A' for Active; 'I' for Inactive)
REMARK    1  A    between atoms: C8_8  and  N9_9 
ROOT
HETATM    1  C1  UNL     1     -35.427   4.886   4.648  1.00 20.00     0.013 C 
HETATM    2  C2  UNL     1     -35.016   5.978   4.365  1.00 20.00    -0.087 C 
HETATM    3  C8  UNL     1     -34.515   7.312   4.026  1.00 20.00     0.364 C 
ENDROOT
BRANCH   3   4
HETATM    4  N9  UNL     1     -33.750   7.274   2.779  1.00 20.00     0.099 N 
HETATM    5  C6  UNL     1     -33.373   5.893   2.449  1.00 20.00     0.273 C 
HETATM    6  C4  UNL     1     -32.615   5.831   1.121  1.00 20.00     0.030 C 
HETATM    7  C3  UNL     1     -31.392   6.739   1.139  1.00 20.00     0.003 C 
HETATM    8  C5  UNL     1     -31.782   8.150   1.564  1.00 20.00     0.030 C 
HETATM    9  C7  UNL     1     -32.566   8.140   2.877  1.00 20.00     0.273 C 
ENDBRANCH   3   4
TORSDOF 1
ENDMDL
MODEL 7
REMARK VINA RESULT:      -0.2      1.358      3.993
REMARK  1 active torsions:
REMARK  status: ('A' for Active; 'I' for Inactive)
REMARK    1  A    between atoms: C8_8  and  N9_9 
ROOT
HETATM    1  C1  UNL     1     -35.565   5.077   4.567  1.00 20.00     0.013 C 
HETATM    2  C2  UNL     1     -35.033   6.124   4.316  1.00 20.00    -0.087 C 
HETATM    3  C8  UNL     1     -34.387   7.404   4.014  1.00 20.00     0.364 C 
ENDROOT
BRANCH   3   4
HETATM    4  N9  UNL     1     -33.181   7.197   3.212  1.00 20.00     0.099 N 
HETATM    5  C6  UNL     1     -32.793   8.442   2.536  1.00 20.00     0.273 C 
HETATM    6  C4  UNL     1     -31.505   8.255   1.732  1.00 20.00     0.030 C 
HETATM    7  C3  UNL     1     -31.637   7.113   0.733  1.00 20.00     0.003 C 
HETATM    8  C5  UNL     1     -32.121   5.847   1.431  1.00 20.00     0.030 C 
HETATM    9  C7  UNL     1     -33.389   6.110   2.245  1.00 20.00     0.273 C 
ENDBRANCH   3   4
TORSDOF 1
ENDMDL
MODEL 8
REMARK VINA RESULT:       0.3      2.510      5.023
REMARK  1 active torsions:
REMARK  status: ('A' for Active; 'I' for Inactive)
REMARK    1  A    between atoms: C8_8  and  N9_9 
ROOT
HETATM    1  C1  UNL     1     -32.497   3.162   6.228  1.00 20.00     0.013 C 
HETATM    2  C2  UNL     1     -32.989   3.143   5.133  1.00 20.00    -0.087 C 
HETATM    3  C8  UNL     1     -33.591   3.113   3.798  1.00 20.00     0.364 C 
ENDROOT
BRANCH   3   4
HETATM    4  N9  UNL     1     -34.054   4.446   3.411  1.00 20.00     0.099 N 
HETATM    5  C6  UNL     1     -32.913   5.319   3.106  1.00 20.00     0.273 C 
HETATM    6  C4  UNL     1     -33.382   6.703   2.653  1.00 20.00     0.030 C 
HETATM    7  C3  UNL     1     -34.297   7.344   3.689  1.00 20.00     0.003 C 
HETATM    8  C5  UNL     1     -35.431   6.396   4.059  1.00 20.00     0.030 C 
HETATM    9  C7  UNL     1     -34.897   5.022   4.469  1.00 20.00     0.273 C 
ENDBRANCH   3   4
TORSDOF 1
ENDMDL
MODEL 9
REMARK VINA RESULT:       0.6      1.784      3.026
REMARK  1 active torsions:
REMARK  status: ('A' for Active; 'I' for Inactive)
REMARK    1  A    between atoms: C8_8  and  N9_9 
ROOT
HETATM    1  C1  UNL     1     -31.515   4.338   0.338  1.00 20.00     0.013 C 
HETATM    2  C2  UNL     1     -31.777   5.389   0.856  1.00 20.00    -0.087 C 
HETATM    3  C8  UNL     1     -32.096   6.674   1.483  1.00 20.00     0.364 C 
ENDROOT
BRANCH   3   4
HETATM    4  N9  UNL     1     -32.869   6.472   2.709  1.00 20.00     0.099 N 
HETATM    5  C6  UNL     1     -33.711   5.273   2.594  1.00 20.00     0.273 C 
HETATM    6  C4  UNL     1     -34.489   5.020   3.887  1.00 20.00     0.030 C 
HETATM    7  C3  UNL     1     -35.323   6.234   4.278  1.00 20.00     0.003 C 
HETATM    8  C5  UNL     1     -34.456   7.488   4.312  1.00 20.00     0.030 C 
HETATM    9  C7  UNL     1     -33.679   7.663   3.007  1.00 20.00     0.273 C 
ENDBRANCH   3   4
TORSDOF 1
ENDMDL
