MODEL 1
REMARK VINA RESULT:      -1.5      0.000      0.000
REMARK  2 active torsions:
REMARK  status: ('A' for Active; 'I' for Inactive)
REMARK    1  A    between atoms: C8_8  and  C9_9 
REMARK    2  A    between atoms: C9_9  and  N11_11 
ROOT
HETATM    1  C1  UNL     1     -32.228   8.974   0.937  1.00 20.00     0.064 C 
HETATM    2  C2  UNL     1     -32.065   6.563   1.495  1.00 20.00     0.047 C 
HETATM    3  C3  UNL     1     -32.024   8.310   3.318  1.00 20.00     0.047 C 
HETATM    4  C4  UNL     1     -33.523   6.265   1.827  1.00 20.00     0.236 C 
HETATM    5  C5  UNL     1     -33.482   7.998   3.636  1.00 20.00     0.236 C 
HETATM    6  C6  UNL     1     -31.644   7.990   1.868  1.00 20.00     0.096 C 
HETATM    7  N10 UNL     1     -32.686   9.748   0.205  1.00 20.00    -0.197 NA
HETATM    8  N11 UNL     1     -33.777   6.561   3.285  1.00 20.00    -0.071 N 
HETATM    9  H28 UNL     1     -33.133   5.974   3.833  1.00 20.00     0.279 HD
ENDROOT
BRANCH   8  10
HETATM   10  C9  UNL     1     -35.168   6.164   3.696  1.00 20.00     0.234 C 
BRANCH  10  11
HETATM   11  C8  UNL     1     -35.090   4.951   4.609  1.00 20.00     0.023 C 
HETATM   12  C7  UNL     1     -33.953   4.028   4.201  1.00 20.00     0.007 C 
ENDBRANCH  10  11
ENDBRANCH   8  10
TORSDOF 2
ENDMDL
MODEL 2
REMARK VINA RESULT:      -0.3      1.376      4.707
REMARK  2 active torsions:
REMARK  status: ('A' for Active; 'I' for Inactive)
REMARK    1  A    between atoms: C8_8  and  C9_9 
REMARK    2  A    between atoms: C9_9  and  N11_11 
ROOT
HETATM    1  C1  UNL     1     -33.721   4.211   4.166  1.00 20.00     0.064 C 
HETATM    2  C2  UNL     1     -33.934   5.167   1.887  1.00 20.00     0.047 C 
HETATM    3  C3  UNL     1     -34.767   6.445   3.900  1.00 20.00     0.047 C 
HETATM    4  C4  UNL     1     -32.694   6.053   1.851  1.00 20.00     0.236 C 
HETATM    5  C5  UNL     1     -33.520   7.321   3.847  1.00 20.00     0.236 C 
HETATM    6  C6  UNL     1     -34.552   5.056   3.287  1.00 20.00     0.096 C 
HETATM    7  N10 UNL     1     -33.069   3.546   4.858  1.00 20.00    -0.197 NA
HETATM    8  N11 UNL     1     -33.026   7.408   2.425  1.00 20.00    -0.071 N 
HETATM    9  H28 UNL     1     -33.792   7.800   1.859  1.00 20.00     0.279 HD
ENDROOT
BRANCH   8  10
HETATM   10  C9  UNL     1     -31.872   8.363   2.295  1.00 20.00     0.234 C 
BRANCH  10  11
HETATM   11  C8  UNL     1     -31.659   8.692   0.827  1.00 20.00     0.023 C 
HETATM   12  C7  UNL     1     -32.475   9.905   0.411  1.00 20.00     0.007 C 
ENDBRANCH  10  11
ENDBRANCH   8  10
TORSDOF 2
ENDMDL
MODEL 3
REMARK VINA RESULT:       0.1      1.508      4.622
REMARK  2 active torsions:
REMARK  status: ('A' for Active; 'I' for Inactive)
REMARK    1  A    between atoms: C8_8  and  C9_9 
REMARK    2  A    between atoms: C9_9  and  N11_11 
ROOT
HETATM    1  C1  UNL     1     -35.680   6.553   3.408  1.00 20.00     0.064 C 
HETATM    2  C2  UNL     1     -33.602   7.603   4.261  1.00 20.00     0.047 C 
HETATM    3  C3  UNL     1     -33.510   5.431   2.976  1.00 20.00     0.047 C 
HETATM    4  C4  UNL     1     -33.146   8.349   3.013  1.00 20.00     0.236 C 
HETATM    5  C5  UNL     1     -33.055   6.195   1.737  1.00 20.00     0.236 C 
HETATM    6  C6  UNL     1     -34.331   6.292   3.944  1.00 20.00     0.096 C 
HETATM    7  N10 UNL     1     -36.741   6.757   2.986  1.00 20.00    -0.197 NA
HETATM    8  N11 UNL     1     -32.304   7.434   2.159  1.00 20.00    -0.071 N 
HETATM    9  H28 UNL     1     -31.506   7.128   2.733  1.00 20.00     0.279 HD
ENDROOT
BRANCH   8  10
HETATM   10  C9  UNL     1     -31.722   8.158   0.977  1.00 20.00     0.234 C 
BRANCH  10  11
HETATM   11  C8  UNL     1     -32.299   9.563   0.920  1.00 20.00     0.023 C 
HETATM   12  C7  UNL     1     -32.676   9.946  -0.503  1.00 20.00     0.007 C 
ENDBRANCH  10  11
ENDBRANCH   8  10
TORSDOF 2
ENDMDL
MODEL 4
REMARK VINA RESULT:       1.1      1.550      2.415
REMARK  2 active torsions:
REMARK  status: ('A' for Active; 'I' for Inactive)
REMARK    1  A    between atoms: C8_8  and  C9_9 
REMARK    2  A    between atoms: C9_9  and  N11_11 
ROOT
HETATM    1  C1  UNL     1     -31.796   8.168   2.513  1.00 20.00     0.064 C 
HETATM    2  C2  UNL     1     -34.244   8.001   2.876  1.00 20.00     0.047 C 
HETATM    3  C3  UNL     1     -33.044   6.327   1.415  1.00 20.00     0.047 C 
HETATM    4  C4  UNL     1     -34.279   6.976   4.004  1.00 20.00     0.236 C 
HETATM    5  C5  UNL     1     -33.089   5.315   2.555  1.00 20.00     0.236 C 
HETATM    6  C6  UNL     1     -33.081   7.781   1.901  1.00 20.00     0.096 C 
HETATM    7  N10 UNL     1     -30.786   8.473   2.994  1.00 20.00    -0.197 NA
HETATM    8  N11 UNL     1     -34.295   5.586   3.419  1.00 20.00    -0.071 N 
HETATM    9  H28 UNL     1     -35.126   5.517   2.816  1.00 20.00     0.279 HD
ENDROOT
BRANCH   8  10
HETATM   10  C9  UNL     1     -34.458   4.538   4.486  1.00 20.00     0.234 C 
BRANCH  10  11
HETATM   11  C8  UNL     1     -33.596   3.335   4.139  1.00 20.00     0.023 C 
HETATM   12  C7  UNL     1     -32.803   2.861   5.347  1.00 20.00     0.007 C 
ENDBRANCH  10  11
ENDBRANCH   8  10
TORSDOF 2
ENDMDL
MODEL 5
REMARK VINA RESULT:       1.2      2.330      3.515
REMARK  2 active torsions:
REMARK  status: ('A' for Active; 'I' for Inactive)
REMARK    1  A    between atoms: C8_8  and  C9_9 
REMARK    2  A    between atoms: C9_9  and  N11_11 
ROOT
HETATM    1  C1  UNL     1     -33.664   7.838   4.354  1.00 20.00     0.064 C 
HETATM    2  C2  UNL     1     -35.519   6.256   3.896  1.00 20.00     0.047 C 
HETATM    3  C3  UNL     1     -33.441   6.251   2.461  1.00 20.00     0.047 C 
HETATM    4  C4  UNL     1     -35.005   5.021   4.626  1.00 20.00     0.236 C 
HETATM    5  C5  UNL     1     -32.944   5.015   3.203  1.00 20.00     0.236 C 
HETATM    6  C6  UNL     1     -34.395   7.111   3.298  1.00 20.00     0.096 C 
HETATM    7  N10 UNL     1     -33.090   8.410   5.183  1.00 20.00    -0.197 NA
HETATM    8  N11 UNL     1     -34.124   4.219   3.701  1.00 20.00    -0.071 N 
HETATM    9  H28 UNL     1     -34.692   3.968   2.880  1.00 20.00     0.279 HD
ENDROOT
BRANCH   8  10
HETATM   10  C9  UNL     1     -33.693   2.923   4.331  1.00 20.00     0.234 C 
BRANCH  10  11
HETATM   11  C8  UNL     1     -32.331   3.113   4.979  1.00 20.00     0.023 C 
HETATM   12  C7  UNL     1     -32.455   3.254   6.488  1.00 20.00     0.007 C 
ENDBRANCH  10  11
ENDBRANCH   8  10
TORSDOF 2
ENDMDL
