MODEL 1
REMARK VINA RESULT:       0.4      0.000      0.000
REMARK  1 active torsions:
REMARK  status: ('A' for Active; 'I' for Inactive)
REMARK    1  A    between atoms: C9_9  and  N11_11 
ROOT
HETATM    1  C1  UNL     1     -33.576   7.630   4.613  1.00 20.00     0.102 C 
HETATM    2  C2  UNL     1     -35.553   5.333   4.451  1.00 20.00     0.007 C 
HETATM    3  C5  UNL     1     -34.067   5.183   4.049  1.00 20.00     0.058 C 
HETATM    4  C6  UNL     1     -35.622   6.561   3.515  1.00 20.00     0.058 C 
HETATM    5  C9  UNL     1     -34.088   6.679   3.660  1.00 20.00     0.246 C 
HETATM    6  N10 UNL     1     -33.164   8.397   5.380  1.00 20.00    -0.194 NA
ENDROOT
BRANCH   5   7
HETATM    7  N11 UNL     1     -33.486   6.847   2.332  1.00 20.00     0.112 N 
HETATM    8  C7  UNL     1     -32.506   7.935   2.340  1.00 20.00     0.275 C 
HETATM    9  C3  UNL     1     -31.688   7.664   1.086  1.00 20.00     0.032 C 
HETATM   10  C4  UNL     1     -31.834   6.167   0.829  1.00 20.00     0.032 C 
HETATM   11  C8  UNL     1     -32.724   5.656   1.951  1.00 20.00     0.275 C 
ENDBRANCH   5   7
TORSDOF 1
ENDMDL
MODEL 2
REMARK VINA RESULT:       0.9      1.336      3.740
REMARK  1 active torsions:
REMARK  status: ('A' for Active; 'I' for Inactive)
REMARK    1  A    between atoms: C9_9  and  N11_11 
ROOT
HETATM    1  C1  UNL     1     -32.163   7.695   1.311  1.00 20.00     0.102 C 
HETATM    2  C2  UNL     1     -32.001   4.807   0.395  1.00 20.00     0.007 C 
HETATM    3  C5  UNL     1     -33.335   5.481   0.791  1.00 20.00     0.058 C 
HETATM    4  C6  UNL     1     -31.424   5.288   1.746  1.00 20.00     0.058 C 
HETATM    5  C9  UNL     1     -32.524   6.374   1.757  1.00 20.00     0.246 C 
HETATM    6  N10 UNL     1     -31.872   8.761   0.953  1.00 20.00    -0.194 NA
ENDROOT
BRANCH   5   7
HETATM    7  N11 UNL     1     -33.176   6.392   3.071  1.00 20.00     0.112 N 
HETATM    8  C7  UNL     1     -33.286   7.761   3.578  1.00 20.00     0.275 C 
HETATM    9  C3  UNL     1     -34.351   7.639   4.658  1.00 20.00     0.032 C 
HETATM   10  C4  UNL     1     -35.185   6.424   4.261  1.00 20.00     0.032 C 
HETATM   11  C8  UNL     1     -34.557   5.915   2.973  1.00 20.00     0.275 C 
ENDBRANCH   5   7
TORSDOF 1
ENDMDL
MODEL 3
REMARK VINA RESULT:       0.9      1.278      4.299
REMARK  1 active torsions:
REMARK  status: ('A' for Active; 'I' for Inactive)
REMARK    1  A    between atoms: C9_9  and  N11_11 
ROOT
HETATM    1  C1  UNL     1     -32.075   6.117   1.390  1.00 20.00     0.102 C 
HETATM    2  C2  UNL     1     -31.244   8.960   0.728  1.00 20.00     0.007 C 
HETATM    3  C5  UNL     1     -31.311   8.428   2.178  1.00 20.00     0.058 C 
HETATM    4  C6  UNL     1     -32.689   8.445   0.534  1.00 20.00     0.058 C 
HETATM    5  C9  UNL     1     -32.433   7.474   1.709  1.00 20.00     0.246 C 
HETATM    6  N10 UNL     1     -31.786   5.022   1.132  1.00 20.00    -0.194 NA
ENDROOT
BRANCH   5   7
HETATM    7  N11 UNL     1     -33.558   7.543   2.650  1.00 20.00     0.112 N 
HETATM    8  C7  UNL     1     -34.158   6.221   2.840  1.00 20.00     0.275 C 
HETATM    9  C3  UNL     1     -34.947   6.388   4.130  1.00 20.00     0.032 C 
HETATM   10  C4  UNL     1     -34.253   7.522   4.879  1.00 20.00     0.032 C 
HETATM   11  C8  UNL     1     -33.099   7.943   3.981  1.00 20.00     0.275 C 
ENDBRANCH   5   7
TORSDOF 1
ENDMDL
MODEL 4
REMARK VINA RESULT:       1.0      1.466      3.942
REMARK  1 active torsions:
REMARK  status: ('A' for Active; 'I' for Inactive)
REMARK    1  A    between atoms: C9_9  and  N11_11 
ROOT
HETATM    1  C1  UNL     1     -32.287   7.314   1.843  1.00 20.00     0.102 C 
HETATM    2  C2  UNL     1     -31.626   4.671   0.504  1.00 20.00     0.007 C 
HETATM    3  C5  UNL     1     -33.000   5.364   0.348  1.00 20.00     0.058 C 
HETATM    4  C6  UNL     1     -31.794   4.814   2.034  1.00 20.00     0.058 C 
HETATM    5  C9  UNL     1     -32.785   5.965   1.755  1.00 20.00     0.246 C 
HETATM    6  N10 UNL     1     -31.884   8.400   1.914  1.00 20.00    -0.194 NA
ENDROOT
BRANCH   5   7
HETATM    7  N11 UNL     1     -33.996   5.770   2.561  1.00 20.00     0.112 N 
HETATM    8  C7  UNL     1     -33.820   4.668   3.507  1.00 20.00     0.275 C 
HETATM    9  C3  UNL     1     -34.927   4.909   4.522  1.00 20.00     0.032 C 
HETATM   10  C4  UNL     1     -35.220   6.405   4.445  1.00 20.00     0.032 C 
HETATM   11  C8  UNL     1     -34.261   6.944   3.394  1.00 20.00     0.275 C 
ENDBRANCH   5   7
TORSDOF 1
ENDMDL
MODEL 5
REMARK VINA RESULT:       1.4      1.001      3.689
REMARK  1 active torsions:
REMARK  status: ('A' for Active; 'I' for Inactive)
REMARK    1  A    between atoms: C9_9  and  N11_11 
ROOT
HETATM    1  C1  UNL     1     -32.365   8.283   3.837  1.00 20.00     0.102 C 
HETATM    2  C2  UNL     1     -31.696   8.364   0.877  1.00 20.00     0.007 C 
HETATM    3  C5  UNL     1     -33.135   8.550   1.412  1.00 20.00     0.058 C 
HETATM    4  C6  UNL     1     -31.615   7.068   1.717  1.00 20.00     0.058 C 
HETATM    5  C9  UNL     1     -32.742   7.646   2.601  1.00 20.00     0.246 C 
HETATM    6  N10 UNL     1     -32.060   8.796   4.832  1.00 20.00    -0.194 NA
ENDROOT
BRANCH   5   7
HETATM    7  N11 UNL     1     -33.776   6.623   2.800  1.00 20.00     0.112 N 
HETATM    8  C7  UNL     1     -33.183   5.367   3.262  1.00 20.00     0.275 C 
HETATM    9  C3  UNL     1     -34.376   4.620   3.840  1.00 20.00     0.032 C 
HETATM   10  C4  UNL     1     -35.375   5.705   4.232  1.00 20.00     0.032 C 
HETATM   11  C8  UNL     1     -34.701   7.017   3.864  1.00 20.00     0.275 C 
ENDBRANCH   5   7
TORSDOF 1
ENDMDL
MODEL 6
REMARK VINA RESULT:       2.0      1.918      3.240
REMARK  1 active torsions:
REMARK  status: ('A' for Active; 'I' for Inactive)
REMARK    1  A    between atoms: C9_9  and  N11_11 
ROOT
HETATM    1  C1  UNL     1     -33.379   7.404   3.022  1.00 20.00     0.102 C 
HETATM    2  C2  UNL     1     -32.470   5.136   1.223  1.00 20.00     0.007 C 
HETATM    3  C5  UNL     1     -31.491   6.180   1.806  1.00 20.00     0.058 C 
HETATM    4  C6  UNL     1     -33.330   6.315   0.712  1.00 20.00     0.058 C 
HETATM    5  C9  UNL     1     -32.659   7.191   1.794  1.00 20.00     0.246 C 
HETATM    6  N10 UNL     1     -33.960   7.577   4.013  1.00 20.00    -0.194 NA
ENDROOT
BRANCH   5   7
HETATM    7  N11 UNL     1     -32.210   8.451   1.190  1.00 20.00     0.112 N 
HETATM    8  C7  UNL     1     -32.644   8.542  -0.205  1.00 20.00     0.275 C 
HETATM    9  C3  UNL     1     -32.514  10.028  -0.505  1.00 20.00     0.032 C 
HETATM   10  C4  UNL     1     -32.633  10.721   0.849  1.00 20.00     0.032 C 
HETATM   11  C8  UNL     1     -32.832   9.597   1.854  1.00 20.00     0.275 C 
ENDBRANCH   5   7
TORSDOF 1
ENDMDL
MODEL 7
REMARK VINA RESULT:       2.0      1.345      2.110
REMARK  1 active torsions:
REMARK  status: ('A' for Active; 'I' for Inactive)
REMARK    1  A    between atoms: C9_9  and  N11_11 
ROOT
HETATM    1  C1  UNL     1     -33.917   4.704   3.838  1.00 20.00     0.102 C 
HETATM    2  C2  UNL     1     -35.259   7.276   4.728  1.00 20.00     0.007 C 
HETATM    3  C5  UNL     1     -35.522   6.635   3.346  1.00 20.00     0.058 C 
HETATM    4  C6  UNL     1     -33.747   7.187   4.416  1.00 20.00     0.058 C 
HETATM    5  C9  UNL     1     -34.086   6.068   3.406  1.00 20.00     0.246 C 
HETATM    6  N10 UNL     1     -33.781   3.605   4.185  1.00 20.00    -0.194 NA
ENDROOT
BRANCH   5   7
HETATM    7  N11 UNL     1     -33.401   6.335   2.137  1.00 20.00     0.112 N 
HETATM    8  C7  UNL     1     -32.489   7.473   2.267  1.00 20.00     0.275 C 
HETATM    9  C3  UNL     1     -31.568   7.311   1.067  1.00 20.00     0.032 C 
HETATM   10  C4  UNL     1     -31.608   5.822   0.731  1.00 20.00     0.032 C 
HETATM   11  C8  UNL     1     -32.545   5.208   1.760  1.00 20.00     0.275 C 
ENDBRANCH   5   7
TORSDOF 1
ENDMDL
MODEL 8
REMARK VINA RESULT:       2.1      1.841      3.154
REMARK  1 active torsions:
REMARK  status: ('A' for Active; 'I' for Inactive)
REMARK    1  A    between atoms: C9_9  and  N11_11 
ROOT
HETATM    1  C1  UNL     1     -32.797   6.254   1.956  1.00 20.00     0.102 C 
HETATM    2  C2  UNL     1     -34.191   7.454   4.370  1.00 20.00     0.007 C 
HETATM    3  C5  UNL     1     -34.443   7.954   2.929  1.00 20.00     0.058 C 
HETATM    4  C6  UNL     1     -32.679   7.632   4.104  1.00 20.00     0.058 C 
HETATM    5  C9  UNL     1     -32.996   7.529   2.596  1.00 20.00     0.246 C 
HETATM    6  N10 UNL     1     -32.636   5.227   1.440  1.00 20.00    -0.194 NA
ENDROOT
BRANCH   5   7
HETATM    7  N11 UNL     1     -32.319   8.618   1.881  1.00 20.00     0.112 N 
HETATM    8  C7  UNL     1     -31.500   8.092   0.788  1.00 20.00     0.275 C 
HETATM    9  C3  UNL     1     -31.272   9.317  -0.085  1.00 20.00     0.032 C 
HETATM   10  C4  UNL     1     -32.448  10.244   0.211  1.00 20.00     0.032 C 
HETATM   11  C8  UNL     1     -33.292   9.500   1.234  1.00 20.00     0.275 C 
ENDBRANCH   5   7
TORSDOF 1
ENDMDL
MODEL 9
REMARK VINA RESULT:       2.5      1.871      3.176
REMARK  1 active torsions:
REMARK  status: ('A' for Active; 'I' for Inactive)
REMARK    1  A    between atoms: C9_9  and  N11_11 
ROOT
HETATM    1  C1  UNL     1     -33.388   7.535   3.146  1.00 20.00     0.102 C 
HETATM    2  C2  UNL     1     -31.802   5.464   1.594  1.00 20.00     0.007 C 
HETATM    3  C5  UNL     1     -31.304   6.913   1.798  1.00 20.00     0.058 C 
HETATM    4  C6  UNL     1     -33.133   6.057   1.077  1.00 20.00     0.058 C 
HETATM    5  C9  UNL     1     -32.786   7.348   1.851  1.00 20.00     0.246 C 
HETATM    6  N10 UNL     1     -33.874   7.686   4.189  1.00 20.00    -0.194 NA
ENDROOT
BRANCH   5   7
HETATM    7  N11 UNL     1     -32.986   8.509   0.975  1.00 20.00     0.112 N 
HETATM    8  C7  UNL     1     -33.029   9.747   1.755  1.00 20.00     0.275 C 
HETATM    9  C3  UNL     1     -32.775  10.819   0.705  1.00 20.00     0.032 C 
HETATM   10  C4  UNL     1     -32.004  10.114  -0.407  1.00 20.00     0.032 C 
HETATM   11  C8  UNL     1     -31.852   8.676   0.065  1.00 20.00     0.275 C 
ENDBRANCH   5   7
TORSDOF 1
ENDMDL
