MODEL 1
REMARK VINA RESULT:       0.2      0.000      0.000
REMARK  1 active torsions:
REMARK  status: ('A' for Active; 'I' for Inactive)
REMARK    1  A    between atoms: C3_3  and  C4_4 
ROOT
HETATM    1  C1  UNL     1     -31.316   7.861   1.563  1.00 20.00    -0.018 A 
HETATM    2  C2  UNL     1     -31.752   6.619   1.830  1.00 20.00    -0.024 A 
HETATM    3  C4  UNL     1     -32.459   8.836   1.711  1.00 20.00     0.082 A 
HETATM    4  C5  UNL     1     -33.186   6.544   2.157  1.00 20.00     0.022 A 
HETATM    5  C6  UNL     1     -33.664   7.989   2.085  1.00 20.00     0.017 A 
HETATM    6  C7  UNL     1     -33.789   7.203   3.381  1.00 20.00    -0.035 A 
HETATM    7  C9  UNL     1     -35.178   6.758   3.775  1.00 20.00     0.016 C 
HETATM    8  C10 UNL     1     -32.927   7.552   4.569  1.00 20.00     0.016 C 
ENDROOT
BRANCH   3   9
HETATM    9  C3  UNL     1     -32.622   9.513   0.390  1.00 20.00     0.131 C 
HETATM   10  C8  UNL     1     -32.526  11.014   0.382  1.00 20.00     0.091 C 
HETATM   11  O11 UNL     1     -32.822   8.874  -0.643  1.00 20.00    -0.298 OA
ENDBRANCH   3   9
TORSDOF 1
ENDMDL
MODEL 2
REMARK VINA RESULT:       0.3      1.879      3.922
REMARK  1 active torsions:
REMARK  status: ('A' for Active; 'I' for Inactive)
REMARK    1  A    between atoms: C3_3  and  C4_4 
ROOT
HETATM    1  C1  UNL     1     -32.304   6.166   1.673  1.00 20.00    -0.018 A 
HETATM    2  C2  UNL     1     -31.230   6.954   1.499  1.00 20.00    -0.024 A 
HETATM    3  C4  UNL     1     -33.505   7.019   1.998  1.00 20.00     0.082 A 
HETATM    4  C5  UNL     1     -31.503   8.388   1.694  1.00 20.00     0.022 A 
HETATM    5  C6  UNL     1     -32.990   8.448   2.020  1.00 20.00     0.017 A 
HETATM    6  C7  UNL     1     -32.440   9.179   0.805  1.00 20.00    -0.035 A 
HETATM    7  C9  UNL     1     -32.355  10.684   0.898  1.00 20.00     0.016 C 
HETATM    8  C10 UNL     1     -32.769   8.696  -0.587  1.00 20.00     0.016 C 
ENDROOT
BRANCH   3   9
HETATM    9  C3  UNL     1     -34.005   6.569   3.332  1.00 20.00     0.131 C 
HETATM   10  C8  UNL     1     -34.230   7.638   4.366  1.00 20.00     0.091 C 
HETATM   11  O11 UNL     1     -34.225   5.382   3.572  1.00 20.00    -0.298 OA
ENDBRANCH   3   9
TORSDOF 1
ENDMDL
MODEL 3
REMARK VINA RESULT:       0.7      2.258      3.907
REMARK  1 active torsions:
REMARK  status: ('A' for Active; 'I' for Inactive)
REMARK    1  A    between atoms: C3_3  and  C4_4 
ROOT
HETATM    1  C1  UNL     1     -32.236   7.876   2.865  1.00 20.00    -0.018 A 
HETATM    2  C2  UNL     1     -32.159   7.909   1.524  1.00 20.00    -0.024 A 
HETATM    3  C4  UNL     1     -33.046   6.677   3.292  1.00 20.00     0.082 A 
HETATM    4  C5  UNL     1     -32.885   6.816   0.856  1.00 20.00     0.022 A 
HETATM    5  C6  UNL     1     -33.471   5.998   2.000  1.00 20.00     0.017 A 
HETATM    6  C7  UNL     1     -32.508   5.357   1.013  1.00 20.00    -0.035 A 
HETATM    7  C9  UNL     1     -33.102   4.392   0.014  1.00 20.00     0.016 C 
HETATM    8  C10 UNL     1     -31.118   4.965   1.451  1.00 20.00     0.016 C 
ENDROOT
BRANCH   3   9
HETATM    9  C3  UNL     1     -34.207   7.197   4.075  1.00 20.00     0.131 C 
HETATM   10  C8  UNL     1     -35.491   6.420   3.978  1.00 20.00     0.091 C 
HETATM   11  O11 UNL     1     -34.116   8.210   4.768  1.00 20.00    -0.298 OA
ENDBRANCH   3   9
TORSDOF 1
ENDMDL
MODEL 4
REMARK VINA RESULT:       1.0      2.953      5.063
REMARK  1 active torsions:
REMARK  status: ('A' for Active; 'I' for Inactive)
REMARK    1  A    between atoms: C3_3  and  C4_4 
ROOT
HETATM    1  C1  UNL     1     -35.262   5.434   4.551  1.00 20.00    -0.018 A 
HETATM    2  C2  UNL     1     -35.592   6.347   3.622  1.00 20.00    -0.024 A 
HETATM    3  C4  UNL     1     -33.792   5.113   4.438  1.00 20.00     0.082 A 
HETATM    4  C5  UNL     1     -34.472   6.753   2.757  1.00 20.00     0.022 A 
HETATM    5  C6  UNL     1     -33.284   5.955   3.280  1.00 20.00     0.017 A 
HETATM    6  C7  UNL     1     -33.246   7.476   3.278  1.00 20.00    -0.035 A 
HETATM    7  C9  UNL     1     -32.358   8.132   2.248  1.00 20.00     0.016 C 
HETATM    8  C10 UNL     1     -33.299   8.240   4.578  1.00 20.00     0.016 C 
ENDROOT
BRANCH   3   9
HETATM    9  C3  UNL     1     -33.689   3.648   4.171  1.00 20.00     0.131 C 
HETATM   10  C8  UNL     1     -32.963   2.821   5.198  1.00 20.00     0.091 C 
HETATM   11  O11 UNL     1     -34.176   3.140   3.161  1.00 20.00    -0.298 OA
ENDBRANCH   3   9
TORSDOF 1
ENDMDL
MODEL 5
REMARK VINA RESULT:       1.1      1.826      3.117
REMARK  1 active torsions:
REMARK  status: ('A' for Active; 'I' for Inactive)
REMARK    1  A    between atoms: C3_3  and  C4_4 
ROOT
HETATM    1  C1  UNL     1     -33.327   8.358   2.635  1.00 20.00    -0.018 A 
HETATM    2  C2  UNL     1     -33.682   8.317   3.930  1.00 20.00    -0.024 A 
HETATM    3  C4  UNL     1     -33.367   6.964   2.059  1.00 20.00     0.082 A 
HETATM    4  C5  UNL     1     -33.977   6.963   4.427  1.00 20.00     0.022 A 
HETATM    5  C6  UNL     1     -33.777   6.064   3.213  1.00 20.00     0.017 A 
HETATM    6  C7  UNL     1     -35.128   6.125   3.908  1.00 20.00    -0.035 A 
HETATM    7  C9  UNL     1     -35.521   4.925   4.737  1.00 20.00     0.016 C 
HETATM    8  C10 UNL     1     -36.306   6.777   3.226  1.00 20.00     0.016 C 
ENDROOT
BRANCH   3   9
HETATM    9  C3  UNL     1     -31.992   6.664   1.559  1.00 20.00     0.131 C 
HETATM   10  C8  UNL     1     -31.726   5.252   1.114  1.00 20.00     0.091 C 
HETATM   11  O11 UNL     1     -31.119   7.531   1.510  1.00 20.00    -0.298 OA
ENDBRANCH   3   9
TORSDOF 1
ENDMDL
MODEL 6
REMARK VINA RESULT:       1.2      1.526      2.559
REMARK  1 active torsions:
REMARK  status: ('A' for Active; 'I' for Inactive)
REMARK    1  A    between atoms: C3_3  and  C4_4 
ROOT
HETATM    1  C1  UNL     1     -33.625   8.715   3.403  1.00 20.00    -0.018 A 
HETATM    2  C2  UNL     1     -33.604   8.082   4.588  1.00 20.00    -0.024 A 
HETATM    3  C4  UNL     1     -33.453   7.708   2.293  1.00 20.00     0.082 A 
HETATM    4  C5  UNL     1     -33.398   6.628   4.486  1.00 20.00     0.022 A 
HETATM    5  C6  UNL     1     -33.299   6.365   2.989  1.00 20.00     0.017 A 
HETATM    6  C7  UNL     1     -34.388   5.698   3.814  1.00 20.00    -0.035 A 
HETATM    7  C9  UNL     1     -34.225   4.222   4.089  1.00 20.00     0.016 C 
HETATM    8  C10 UNL     1     -35.830   6.107   3.643  1.00 20.00     0.016 C 
ENDROOT
BRANCH   3   9
HETATM    9  C3  UNL     1     -32.229   8.105   1.535  1.00 20.00     0.131 C 
HETATM   10  C8  UNL     1     -32.335   9.335   0.675  1.00 20.00     0.091 C 
HETATM   11  O11 UNL     1     -31.184   7.460   1.612  1.00 20.00    -0.298 OA
ENDBRANCH   3   9
TORSDOF 1
ENDMDL
MODEL 7
REMARK VINA RESULT:       1.5      1.799      2.355
REMARK  1 active torsions:
REMARK  status: ('A' for Active; 'I' for Inactive)
REMARK    1  A    between atoms: C3_3  and  C4_4 
ROOT
HETATM    1  C1  UNL     1     -32.176   6.020   1.274  1.00 20.00    -0.018 A 
HETATM    2  C2  UNL     1     -33.416   5.552   1.056  1.00 20.00    -0.024 A 
HETATM    3  C4  UNL     1     -32.162   6.833   2.544  1.00 20.00     0.082 A 
HETATM    4  C5  UNL     1     -34.400   5.969   2.069  1.00 20.00     0.022 A 
HETATM    5  C6  UNL     1     -33.594   6.808   3.054  1.00 20.00     0.017 A 
HETATM    6  C7  UNL     1     -34.314   5.554   3.524  1.00 20.00    -0.035 A 
HETATM    7  C9  UNL     1     -35.555   5.756   4.361  1.00 20.00     0.016 C 
HETATM    8  C10 UNL     1     -33.528   4.331   3.928  1.00 20.00     0.016 C 
ENDROOT
BRANCH   3   9
HETATM    9  C3  UNL     1     -31.709   8.207   2.173  1.00 20.00     0.131 C 
HETATM   10  C8  UNL     1     -32.008   8.663   0.771  1.00 20.00     0.091 C 
HETATM   11  O11 UNL     1     -31.122   8.931   2.976  1.00 20.00    -0.298 OA
ENDBRANCH   3   9
TORSDOF 1
ENDMDL
MODEL 8
REMARK VINA RESULT:       1.6      2.743      4.741
REMARK  1 active torsions:
REMARK  status: ('A' for Active; 'I' for Inactive)
REMARK    1  A    between atoms: C3_3  and  C4_4 
ROOT
HETATM    1  C1  UNL     1     -34.629   7.071   4.414  1.00 20.00    -0.018 A 
HETATM    2  C2  UNL     1     -34.757   7.863   3.337  1.00 20.00    -0.024 A 
HETATM    3  C4  UNL     1     -33.625   5.984   4.120  1.00 20.00     0.082 A 
HETATM    4  C5  UNL     1     -33.930   7.454   2.190  1.00 20.00     0.022 A 
HETATM    5  C6  UNL     1     -33.179   6.224   2.687  1.00 20.00     0.017 A 
HETATM    6  C7  UNL     1     -32.415   7.454   2.222  1.00 20.00    -0.035 A 
HETATM    7  C9  UNL     1     -31.708   7.352   0.892  1.00 20.00     0.016 C 
HETATM    8  C10 UNL     1     -31.668   8.307   3.218  1.00 20.00     0.016 C 
ENDROOT
BRANCH   3   9
HETATM    9  C3  UNL     1     -34.336   4.682   4.289  1.00 20.00     0.131 C 
HETATM   10  C8  UNL     1     -33.509   3.434   4.137  1.00 20.00     0.091 C 
HETATM   11  O11 UNL     1     -35.539   4.632   4.543  1.00 20.00    -0.298 OA
ENDBRANCH   3   9
TORSDOF 1
ENDMDL
MODEL 9
REMARK VINA RESULT:       1.9      1.142      1.940
REMARK  1 active torsions:
REMARK  status: ('A' for Active; 'I' for Inactive)
REMARK    1  A    between atoms: C3_3  and  C4_4 
ROOT
HETATM    1  C1  UNL     1     -32.061   9.242   2.370  1.00 20.00    -0.018 A 
HETATM    2  C2  UNL     1     -31.260   8.203   2.660  1.00 20.00    -0.024 A 
HETATM    3  C4  UNL     1     -32.959   8.875   1.215  1.00 20.00     0.082 A 
HETATM    4  C5  UNL     1     -31.451   7.037   1.782  1.00 20.00     0.022 A 
HETATM    5  C6  UNL     1     -32.563   7.459   0.830  1.00 20.00     0.017 A 
HETATM    6  C7  UNL     1     -32.742   6.246   1.728  1.00 20.00    -0.035 A 
HETATM    7  C9  UNL     1     -32.680   4.892   1.061  1.00 20.00     0.016 C 
HETATM    8  C10 UNL     1     -33.717   6.288   2.879  1.00 20.00     0.016 C 
ENDROOT
BRANCH   3   9
HETATM    9  C3  UNL     1     -32.689   9.863   0.127  1.00 20.00     0.131 C 
HETATM   10  C8  UNL     1     -32.272  11.244   0.555  1.00 20.00     0.091 C 
HETATM   11  O11 UNL     1     -32.799   9.561  -1.061  1.00 20.00    -0.298 OA
ENDBRANCH   3   9
TORSDOF 1
ENDMDL
