MODEL 1
REMARK VINA RESULT:      -0.2      0.000      0.000
REMARK  2 active torsions:
REMARK  status: ('A' for Active; 'I' for Inactive)
REMARK    1  A    between atoms: C3_3  and  C8_8 
REMARK    2  A    between atoms: C4_4  and  O9_9 
ROOT
HETATM    1  C1  UNL     1     -33.938   7.460   4.021  1.00 20.00     0.037 C 
HETATM    2  C2  UNL     1     -34.117   6.146   2.350  1.00 20.00     0.037 C 
HETATM    3  C3  UNL     1     -33.692   7.626   2.503  1.00 20.00    -0.002 C 
HETATM    4  C4  UNL     1     -34.899   6.299   3.676  1.00 20.00     0.118 C 
ENDROOT
BRANCH   3   5
HETATM    5  C8  UNL     1     -32.280   7.973   2.079  1.00 20.00    -0.048 C 
HETATM    6  C5  UNL     1     -31.508   8.536   3.280  1.00 20.00     0.015 C 
HETATM    7  C6  UNL     1     -32.324   9.024   0.960  1.00 20.00     0.015 C 
HETATM    8  C7  UNL     1     -31.575   6.709   1.566  1.00 20.00     0.015 C 
ENDBRANCH   3   5
BRANCH   4   9
HETATM    9  O9  UNL     1     -34.864   5.170   4.565  1.00 20.00    -0.396 OA
HETATM   10  H25 UNL     1     -33.965   5.138   4.916  1.00 20.00     0.210 HD
ENDBRANCH   4   9
TORSDOF 2
ENDMDL
MODEL 2
REMARK VINA RESULT:      -0.2      0.005      1.447
REMARK  2 active torsions:
REMARK  status: ('A' for Active; 'I' for Inactive)
REMARK    1  A    between atoms: C3_3  and  C8_8 
REMARK    2  A    between atoms: C4_4  and  O9_9 
ROOT
HETATM    1  C1  UNL     1     -33.941   7.459   4.025  1.00 20.00     0.037 C 
HETATM    2  C2  UNL     1     -34.122   6.147   2.352  1.00 20.00     0.037 C 
HETATM    3  C3  UNL     1     -33.695   7.627   2.507  1.00 20.00    -0.002 C 
HETATM    4  C4  UNL     1     -34.903   6.299   3.679  1.00 20.00     0.118 C 
ENDROOT
BRANCH   3   5
HETATM    5  C8  UNL     1     -32.283   7.973   2.082  1.00 20.00    -0.048 C 
HETATM    6  C5  UNL     1     -31.578   6.709   1.569  1.00 20.00     0.015 C 
HETATM    7  C6  UNL     1     -31.511   8.538   3.283  1.00 20.00     0.015 C 
HETATM    8  C7  UNL     1     -32.328   9.023   0.962  1.00 20.00     0.015 C 
ENDBRANCH   3   5
BRANCH   4   9
HETATM    9  O9  UNL     1     -34.869   5.169   4.566  1.00 20.00    -0.396 OA
HETATM   10  H25 UNL     1     -34.260   5.410   5.276  1.00 20.00     0.210 HD
ENDBRANCH   4   9
TORSDOF 2
ENDMDL
MODEL 3
REMARK VINA RESULT:      -0.1      1.273      2.366
REMARK  2 active torsions:
REMARK  status: ('A' for Active; 'I' for Inactive)
REMARK    1  A    between atoms: C3_3  and  C8_8 
REMARK    2  A    between atoms: C4_4  and  O9_9 
ROOT
HETATM    1  C1  UNL     1     -33.614   4.809   3.530  1.00 20.00     0.037 C 
HETATM    2  C2  UNL     1     -34.480   6.759   3.516  1.00 20.00     0.037 C 
HETATM    3  C3  UNL     1     -33.091   6.205   3.117  1.00 20.00    -0.002 C 
HETATM    4  C4  UNL     1     -34.635   5.528   4.442  1.00 20.00     0.118 C 
ENDROOT
BRANCH   3   5
HETATM    5  C8  UNL     1     -32.686   6.375   1.668  1.00 20.00    -0.048 C 
HETATM    6  C5  UNL     1     -33.933   6.312   0.775  1.00 20.00     0.015 C 
HETATM    7  C6  UNL     1     -31.715   5.253   1.272  1.00 20.00     0.015 C 
HETATM    8  C7  UNL     1     -31.996   7.736   1.486  1.00 20.00     0.015 C 
ENDBRANCH   3   5
BRANCH   4   9
HETATM    9  O9  UNL     1     -35.946   4.942   4.502  1.00 20.00    -0.396 OA
HETATM   10  H25 UNL     1     -36.160   4.869   5.441  1.00 20.00     0.210 HD
ENDBRANCH   4   9
TORSDOF 2
ENDMDL
MODEL 4
REMARK VINA RESULT:       0.1      2.307      3.786
REMARK  2 active torsions:
REMARK  status: ('A' for Active; 'I' for Inactive)
REMARK    1  A    between atoms: C3_3  and  C8_8 
REMARK    2  A    between atoms: C4_4  and  O9_9 
ROOT
HETATM    1  C1  UNL     1     -32.312   8.027   2.874  1.00 20.00     0.037 C 
HETATM    2  C2  UNL     1     -33.198   6.820   1.354  1.00 20.00     0.037 C 
HETATM    3  C3  UNL     1     -33.027   6.656   2.883  1.00 20.00    -0.002 C 
HETATM    4  C4  UNL     1     -31.982   7.776   1.384  1.00 20.00     0.118 C 
ENDROOT
BRANCH   3   5
HETATM    5  C8  UNL     1     -34.299   6.559   3.700  1.00 20.00    -0.048 C 
HETATM    6  C5  UNL     1     -34.461   5.127   4.229  1.00 20.00     0.015 C 
HETATM    7  C6  UNL     1     -35.504   6.920   2.819  1.00 20.00     0.015 C 
HETATM    8  C7  UNL     1     -34.221   7.535   4.884  1.00 20.00     0.015 C 
ENDBRANCH   3   5
BRANCH   4   9
HETATM    9  O9  UNL     1     -32.058   8.924   0.523  1.00 20.00    -0.396 OA
HETATM   10  H25 UNL     1     -32.189   9.683   1.105  1.00 20.00     0.210 HD
ENDBRANCH   4   9
TORSDOF 2
ENDMDL
MODEL 5
REMARK VINA RESULT:       0.1      2.305      3.793
REMARK  2 active torsions:
REMARK  status: ('A' for Active; 'I' for Inactive)
REMARK    1  A    between atoms: C3_3  and  C8_8 
REMARK    2  A    between atoms: C4_4  and  O9_9 
ROOT
HETATM    1  C1  UNL     1     -32.306   8.017   2.874  1.00 20.00     0.037 C 
HETATM    2  C2  UNL     1     -33.218   6.828   1.355  1.00 20.00     0.037 C 
HETATM    3  C3  UNL     1     -33.034   6.652   2.881  1.00 20.00    -0.002 C 
HETATM    4  C4  UNL     1     -31.992   7.772   1.379  1.00 20.00     0.118 C 
ENDROOT
BRANCH   3   5
HETATM    5  C8  UNL     1     -34.299   6.562   3.710  1.00 20.00    -0.048 C 
HETATM    6  C5  UNL     1     -34.208   7.538   4.891  1.00 20.00     0.015 C 
HETATM    7  C6  UNL     1     -34.463   5.130   4.241  1.00 20.00     0.015 C 
HETATM    8  C7  UNL     1     -35.509   6.927   2.838  1.00 20.00     0.015 C 
ENDBRANCH   3   5
BRANCH   4   9
HETATM    9  O9  UNL     1     -32.066   8.926   0.526  1.00 20.00    -0.396 OA
HETATM   10  H25 UNL     1     -32.521   8.634  -0.274  1.00 20.00     0.210 HD
ENDBRANCH   4   9
TORSDOF 2
ENDMDL
MODEL 6
REMARK VINA RESULT:       0.1      2.307      3.786
REMARK  2 active torsions:
REMARK  status: ('A' for Active; 'I' for Inactive)
REMARK    1  A    between atoms: C3_3  and  C8_8 
REMARK    2  A    between atoms: C4_4  and  O9_9 
ROOT
HETATM    1  C1  UNL     1     -32.310   8.024   2.873  1.00 20.00     0.037 C 
HETATM    2  C2  UNL     1     -33.202   6.818   1.355  1.00 20.00     0.037 C 
HETATM    3  C3  UNL     1     -33.030   6.654   2.884  1.00 20.00    -0.002 C 
HETATM    4  C4  UNL     1     -31.983   7.771   1.383  1.00 20.00     0.118 C 
ENDROOT
BRANCH   3   5
HETATM    5  C8  UNL     1     -34.300   6.562   3.703  1.00 20.00    -0.048 C 
HETATM    6  C5  UNL     1     -35.505   6.921   2.822  1.00 20.00     0.015 C 
HETATM    7  C6  UNL     1     -34.220   7.539   4.885  1.00 20.00     0.015 C 
HETATM    8  C7  UNL     1     -34.464   5.130   4.233  1.00 20.00     0.015 C 
ENDBRANCH   3   5
BRANCH   4   9
HETATM    9  O9  UNL     1     -32.057   8.918   0.521  1.00 20.00    -0.396 OA
HETATM   10  H25 UNL     1     -32.694   8.690  -0.169  1.00 20.00     0.210 HD
ENDBRANCH   4   9
TORSDOF 2
ENDMDL
MODEL 7
REMARK VINA RESULT:       0.5      2.172      3.820
REMARK  2 active torsions:
REMARK  status: ('A' for Active; 'I' for Inactive)
REMARK    1  A    between atoms: C3_3  and  C8_8 
REMARK    2  A    between atoms: C4_4  and  O9_9 
ROOT
HETATM    1  C1  UNL     1     -32.603   6.165   1.851  1.00 20.00     0.037 C 
HETATM    2  C2  UNL     1     -32.933   8.186   2.448  1.00 20.00     0.037 C 
HETATM    3  C3  UNL     1     -33.841   6.936   2.367  1.00 20.00    -0.002 C 
HETATM    4  C4  UNL     1     -32.030   7.522   1.382  1.00 20.00     0.118 C 
ENDROOT
BRANCH   3   5
HETATM    5  C8  UNL     1     -34.447   6.453   3.669  1.00 20.00    -0.048 C 
HETATM    6  C5  UNL     1     -35.977   6.446   3.551  1.00 20.00     0.015 C 
HETATM    7  C6  UNL     1     -34.025   7.392   4.809  1.00 20.00     0.015 C 
HETATM    8  C7  UNL     1     -33.950   5.031   3.968  1.00 20.00     0.015 C 
ENDBRANCH   3   5
BRANCH   4   9
HETATM    9  O9  UNL     1     -30.614   7.698   1.554  1.00 20.00    -0.396 OA
HETATM   10  H25 UNL     1     -30.226   7.598   0.675  1.00 20.00     0.210 HD
ENDBRANCH   4   9
TORSDOF 2
ENDMDL
MODEL 8
REMARK VINA RESULT:       0.5      2.172      3.849
REMARK  2 active torsions:
REMARK  status: ('A' for Active; 'I' for Inactive)
REMARK    1  A    between atoms: C3_3  and  C8_8 
REMARK    2  A    between atoms: C4_4  and  O9_9 
ROOT
HETATM    1  C1  UNL     1     -32.609   6.159   1.850  1.00 20.00     0.037 C 
HETATM    2  C2  UNL     1     -32.935   8.182   2.446  1.00 20.00     0.037 C 
HETATM    3  C3  UNL     1     -33.845   6.932   2.368  1.00 20.00    -0.002 C 
HETATM    4  C4  UNL     1     -32.034   7.515   1.379  1.00 20.00     0.118 C 
ENDROOT
BRANCH   3   5
HETATM    5  C8  UNL     1     -34.450   6.451   3.670  1.00 20.00    -0.048 C 
HETATM    6  C5  UNL     1     -34.028   7.391   4.809  1.00 20.00     0.015 C 
HETATM    7  C6  UNL     1     -33.955   5.029   3.971  1.00 20.00     0.015 C 
HETATM    8  C7  UNL     1     -35.981   6.446   3.553  1.00 20.00     0.015 C 
ENDBRANCH   3   5
BRANCH   4   9
HETATM    9  O9  UNL     1     -30.618   7.689   1.550  1.00 20.00    -0.396 OA
HETATM   10  H25 UNL     1     -30.435   7.481   2.475  1.00 20.00     0.210 HD
ENDBRANCH   4   9
TORSDOF 2
ENDMDL
MODEL 9
REMARK VINA RESULT:       0.5      2.171      3.869
REMARK  2 active torsions:
REMARK  status: ('A' for Active; 'I' for Inactive)
REMARK    1  A    between atoms: C3_3  and  C8_8 
REMARK    2  A    between atoms: C4_4  and  O9_9 
ROOT
HETATM    1  C1  UNL     1     -32.605   6.143   1.864  1.00 20.00     0.037 C 
HETATM    2  C2  UNL     1     -32.946   8.170   2.437  1.00 20.00     0.037 C 
HETATM    3  C3  UNL     1     -33.848   6.914   2.367  1.00 20.00    -0.002 C 
HETATM    4  C4  UNL     1     -32.036   7.498   1.381  1.00 20.00     0.118 C 
ENDROOT
BRANCH   3   5
HETATM    5  C8  UNL     1     -34.456   6.443   3.672  1.00 20.00    -0.048 C 
HETATM    6  C5  UNL     1     -33.965   5.022   3.983  1.00 20.00     0.015 C 
HETATM    7  C6  UNL     1     -35.987   6.442   3.554  1.00 20.00     0.015 C 
HETATM    8  C7  UNL     1     -34.032   7.389   4.805  1.00 20.00     0.015 C 
ENDBRANCH   3   5
BRANCH   4   9
HETATM    9  O9  UNL     1     -30.622   7.682   1.556  1.00 20.00    -0.396 OA
HETATM   10  H25 UNL     1     -30.505   8.609   1.803  1.00 20.00     0.210 HD
ENDBRANCH   4   9
TORSDOF 2
ENDMDL
