MODEL 1
REMARK VINA RESULT:      -2.3      0.000      0.000
REMARK  2 active torsions:
REMARK  status: ('A' for Active; 'I' for Inactive)
REMARK    1  A    between atoms: C1_1  and  O6_6 
REMARK    2  A    between atoms: C4_4  and  O6_6 
ROOT
HETATM    1  O6  UNL     1     -33.314   6.145   3.163  1.00 20.00    -0.301 OA
ENDROOT
BRANCH   1   2
HETATM    2  C1  UNL     1     -34.228   6.893   3.845  1.00 20.00     0.256 C 
HETATM    3  C2  UNL     1     -35.527   6.149   3.915  1.00 20.00     0.126 C 
HETATM    4  O5  UNL     1     -34.047   8.000   4.334  1.00 20.00    -0.266 OA
ENDBRANCH   1   2
BRANCH   1   5
HETATM    5  C4  UNL     1     -33.054   6.514   1.798  1.00 20.00     0.223 C 
HETATM    6  C3  UNL     1     -32.405   5.355   1.059  1.00 20.00     0.057 C 
HETATM    7 CL7  UNL     1     -31.945   7.911   1.813  1.00 20.00    -0.095 Cl
ENDBRANCH   1   5
TORSDOF 2
ENDMDL
MODEL 2
REMARK VINA RESULT:      -2.2      1.323      1.539
REMARK  2 active torsions:
REMARK  status: ('A' for Active; 'I' for Inactive)
REMARK    1  A    between atoms: C1_1  and  O6_6 
REMARK    2  A    between atoms: C4_4  and  O6_6 
ROOT
HETATM    1  O6  UNL     1     -33.828   6.778   2.484  1.00 20.00    -0.301 OA
ENDROOT
BRANCH   1   2
HETATM    2  C1  UNL     1     -34.236   7.011   3.764  1.00 20.00     0.256 C 
HETATM    3  C2  UNL     1     -35.318   6.039   4.126  1.00 20.00     0.126 C 
HETATM    4  O5  UNL     1     -33.806   7.869   4.523  1.00 20.00    -0.266 OA
ENDBRANCH   1   2
BRANCH   1   5
HETATM    5  C4  UNL     1     -32.414   6.810   2.231  1.00 20.00     0.223 C 
HETATM    6  C3  UNL     1     -32.035   8.112   1.546  1.00 20.00     0.057 C 
HETATM    7 CL7  UNL     1     -32.021   5.435   1.164  1.00 20.00    -0.095 Cl
ENDBRANCH   1   5
TORSDOF 2
ENDMDL
MODEL 3
REMARK VINA RESULT:      -2.2      1.020      1.289
REMARK  2 active torsions:
REMARK  status: ('A' for Active; 'I' for Inactive)
REMARK    1  A    between atoms: C1_1  and  O6_6 
REMARK    2  A    between atoms: C4_4  and  O6_6 
ROOT
HETATM    1  O6  UNL     1     -33.387   6.046   3.145  1.00 20.00    -0.301 OA
ENDROOT
BRANCH   1   2
HETATM    2  C1  UNL     1     -34.438   6.670   3.750  1.00 20.00     0.256 C 
HETATM    3  C2  UNL     1     -33.947   7.894   4.463  1.00 20.00     0.126 C 
HETATM    4  O5  UNL     1     -35.608   6.313   3.732  1.00 20.00    -0.266 OA
ENDBRANCH   1   2
BRANCH   1   5
HETATM    5  C4  UNL     1     -33.101   6.414   1.786  1.00 20.00     0.223 C 
HETATM    6  C3  UNL     1     -32.412   5.266   1.067  1.00 20.00     0.057 C 
HETATM    7 CL7  UNL     1     -32.018   7.832   1.823  1.00 20.00    -0.095 Cl
ENDBRANCH   1   5
TORSDOF 2
ENDMDL
MODEL 4
REMARK VINA RESULT:      -2.1      1.718      3.417
REMARK  2 active torsions:
REMARK  status: ('A' for Active; 'I' for Inactive)
REMARK    1  A    between atoms: C1_1  and  O6_6 
REMARK    2  A    between atoms: C4_4  and  O6_6 
ROOT
HETATM    1  O6  UNL     1     -33.824   6.768   2.317  1.00 20.00    -0.301 OA
ENDROOT
BRANCH   1   2
HETATM    2  C1  UNL     1     -32.587   6.551   1.784  1.00 20.00     0.256 C 
HETATM    3  C2  UNL     1     -31.865   7.859   1.652  1.00 20.00     0.126 C 
HETATM    4  O5  UNL     1     -32.112   5.472   1.455  1.00 20.00    -0.266 OA
ENDBRANCH   1   2
BRANCH   1   5
HETATM    5  C4  UNL     1     -33.988   6.502   3.719  1.00 20.00     0.223 C 
HETATM    6  C3  UNL     1     -35.408   6.038   4.000  1.00 20.00     0.057 C 
HETATM    7 CL7  UNL     1     -33.668   8.019   4.602  1.00 20.00    -0.095 Cl
ENDBRANCH   1   5
TORSDOF 2
ENDMDL
MODEL 5
REMARK VINA RESULT:      -2.1      2.454      2.695
REMARK  2 active torsions:
REMARK  status: ('A' for Active; 'I' for Inactive)
REMARK    1  A    between atoms: C1_1  and  O6_6 
REMARK    2  A    between atoms: C4_4  and  O6_6 
ROOT
HETATM    1  O6  UNL     1     -33.233   4.969   3.500  1.00 20.00    -0.301 OA
ENDROOT
BRANCH   1   2
HETATM    2  C1  UNL     1     -34.072   4.211   4.261  1.00 20.00     0.256 C 
HETATM    3  C2  UNL     1     -33.368   2.954   4.677  1.00 20.00     0.126 C 
HETATM    4  O5  UNL     1     -35.223   4.485   4.573  1.00 20.00    -0.266 OA
ENDBRANCH   1   2
BRANCH   1   5
HETATM    5  C4  UNL     1     -33.812   6.078   2.794  1.00 20.00     0.223 C 
HETATM    6  C3  UNL     1     -32.901   6.507   1.656  1.00 20.00     0.057 C 
HETATM    7 CL7  UNL     1     -33.996   7.424   3.951  1.00 20.00    -0.095 Cl
ENDBRANCH   1   5
TORSDOF 2
ENDMDL
MODEL 6
REMARK VINA RESULT:      -2.1      2.172      3.636
REMARK  2 active torsions:
REMARK  status: ('A' for Active; 'I' for Inactive)
REMARK    1  A    between atoms: C1_1  and  O6_6 
REMARK    2  A    between atoms: C4_4  and  O6_6 
ROOT
HETATM    1  O6  UNL     1     -33.244   6.518   3.150  1.00 20.00    -0.301 OA
ENDROOT
BRANCH   1   2
HETATM    2  C1  UNL     1     -32.593   6.496   1.952  1.00 20.00     0.256 C 
HETATM    3  C2  UNL     1     -32.014   7.851   1.674  1.00 20.00     0.126 C 
HETATM    4  O5  UNL     1     -32.481   5.538   1.199  1.00 20.00    -0.266 OA
ENDBRANCH   1   2
BRANCH   1   5
HETATM    5  C4  UNL     1     -34.395   5.669   3.284  1.00 20.00     0.223 C 
HETATM    6  C3  UNL     1     -35.451   6.351   4.139  1.00 20.00     0.057 C 
HETATM    7 CL7  UNL     1     -33.868   4.159   4.076  1.00 20.00    -0.095 Cl
ENDBRANCH   1   5
TORSDOF 2
ENDMDL
MODEL 7
REMARK VINA RESULT:      -2.1      1.700      3.206
REMARK  2 active torsions:
REMARK  status: ('A' for Active; 'I' for Inactive)
REMARK    1  A    between atoms: C1_1  and  O6_6 
REMARK    2  A    between atoms: C4_4  and  O6_6 
ROOT
HETATM    1  O6  UNL     1     -33.782   6.913   2.306  1.00 20.00    -0.301 OA
ENDROOT
BRANCH   1   2
HETATM    2  C1  UNL     1     -32.515   6.855   1.806  1.00 20.00     0.256 C 
HETATM    3  C2  UNL     1     -32.240   5.469   1.304  1.00 20.00     0.126 C 
HETATM    4  O5  UNL     1     -31.706   7.772   1.759  1.00 20.00    -0.266 OA
ENDBRANCH   1   2
BRANCH   1   5
HETATM    5  C4  UNL     1     -33.953   6.592   3.696  1.00 20.00     0.223 C 
HETATM    6  C3  UNL     1     -35.382   6.145   3.957  1.00 20.00     0.057 C 
HETATM    7 CL7  UNL     1     -33.604   8.065   4.641  1.00 20.00    -0.095 Cl
ENDBRANCH   1   5
TORSDOF 2
ENDMDL
MODEL 8
REMARK VINA RESULT:      -2.0      2.133      3.660
REMARK  2 active torsions:
REMARK  status: ('A' for Active; 'I' for Inactive)
REMARK    1  A    between atoms: C1_1  and  O6_6 
REMARK    2  A    between atoms: C4_4  and  O6_6 
ROOT
HETATM    1  O6  UNL     1     -33.111   6.314   3.161  1.00 20.00    -0.301 OA
ENDROOT
BRANCH   1   2
HETATM    2  C1  UNL     1     -32.726   6.412   1.856  1.00 20.00     0.256 C 
HETATM    3  C2  UNL     1     -32.025   7.719   1.640  1.00 20.00     0.126 C 
HETATM    4  O5  UNL     1     -32.910   5.581   0.977  1.00 20.00    -0.266 OA
ENDBRANCH   1   2
BRANCH   1   5
HETATM    5  C4  UNL     1     -34.191   7.158   3.590  1.00 20.00     0.223 C 
HETATM    6  C3  UNL     1     -33.752   8.012   4.768  1.00 20.00     0.057 C 
HETATM    7 CL7  UNL     1     -35.542   6.103   4.086  1.00 20.00    -0.095 Cl
ENDBRANCH   1   5
TORSDOF 2
ENDMDL
MODEL 9
REMARK VINA RESULT:      -1.9      2.314      3.469
REMARK  2 active torsions:
REMARK  status: ('A' for Active; 'I' for Inactive)
REMARK    1  A    between atoms: C1_1  and  O6_6 
REMARK    2  A    between atoms: C4_4  and  O6_6 
ROOT
HETATM    1  O6  UNL     1     -33.719   6.057   2.130  1.00 20.00    -0.301 OA
ENDROOT
BRANCH   1   2
HETATM    2  C1  UNL     1     -32.442   6.251   1.692  1.00 20.00     0.256 C 
HETATM    3  C2  UNL     1     -32.079   7.698   1.839  1.00 20.00     0.126 C 
HETATM    4  O5  UNL     1     -31.687   5.399   1.245  1.00 20.00    -0.266 OA
ENDBRANCH   1   2
BRANCH   1   5
HETATM    5  C4  UNL     1     -33.899   5.805   3.532  1.00 20.00     0.223 C 
HETATM    6  C3  UNL     1     -33.919   4.309   3.797  1.00 20.00     0.057 C 
HETATM    7 CL7  UNL     1     -35.461   6.519   4.018  1.00 20.00    -0.095 Cl
ENDBRANCH   1   5
TORSDOF 2
ENDMDL
