MODEL 1
REMARK VINA RESULT:       3.5      0.000      0.000
REMARK  1 active torsions:
REMARK  status: ('A' for Active; 'I' for Inactive)
REMARK    1  A    between atoms: C5_5  and  N10_10 
ROOT
HETATM    1  C1  UNL     1     -32.966   7.958   4.110  1.00 20.00    -0.026 C 
HETATM    2  C2  UNL     1     -31.840   5.754   1.513  1.00 20.00    -0.026 C 
HETATM    3  C3  UNL     1     -33.918   7.450   3.309  1.00 20.00    -0.005 C 
HETATM    4  C4  UNL     1     -30.997   6.742   1.859  1.00 20.00    -0.005 C 
HETATM    5  C6  UNL     1     -31.649   8.473   3.580  1.00 20.00     0.056 C 
HETATM    6  C7  UNL     1     -33.325   5.973   1.347  1.00 20.00     0.056 C 
HETATM    7  C8  UNL     1     -33.770   7.375   1.802  1.00 20.00     0.113 C 
HETATM    8  C9  UNL     1     -31.455   8.170   2.083  1.00 20.00     0.113 C 
HETATM    9  N10 UNL     1     -32.743   8.343   1.402  1.00 20.00    -0.343 N 
ENDROOT
BRANCH   9  10
HETATM   10  C5  UNL     1     -32.966   9.324   0.456  1.00 20.00     0.352 C 
HETATM   11  O11 UNL     1     -32.429  10.425   0.387  1.00 20.00    -0.283 OA
ENDBRANCH   9  10
TORSDOF 1
ENDMDL
MODEL 2
REMARK VINA RESULT:       3.5      0.050      2.833
REMARK  1 active torsions:
REMARK  status: ('A' for Active; 'I' for Inactive)
REMARK    1  A    between atoms: C5_5  and  N10_10 
ROOT
HETATM    1  C1  UNL     1     -31.840   5.738   1.505  1.00 20.00    -0.026 C 
HETATM    2  C2  UNL     1     -33.009   7.928   4.095  1.00 20.00    -0.026 C 
HETATM    3  C3  UNL     1     -31.011   6.734   1.859  1.00 20.00    -0.005 C 
HETATM    4  C4  UNL     1     -33.950   7.412   3.286  1.00 20.00    -0.005 C 
HETATM    5  C6  UNL     1     -33.326   5.943   1.326  1.00 20.00     0.056 C 
HETATM    6  C7  UNL     1     -31.692   8.456   3.578  1.00 20.00     0.056 C 
HETATM    7  C8  UNL     1     -31.483   8.157   2.081  1.00 20.00     0.113 C 
HETATM    8  C9  UNL     1     -33.788   7.341   1.781  1.00 20.00     0.113 C 
HETATM    9  N10 UNL     1     -32.767   8.319   1.390  1.00 20.00    -0.343 N 
ENDROOT
BRANCH   9  10
HETATM   10  C5  UNL     1     -32.997   9.314   0.461  1.00 20.00     0.352 C 
HETATM   11  O11 UNL     1     -32.371  10.358   0.320  1.00 20.00    -0.283 OA
ENDBRANCH   9  10
TORSDOF 1
ENDMDL
MODEL 3
REMARK VINA RESULT:       5.2      3.047      4.069
REMARK  1 active torsions:
REMARK  status: ('A' for Active; 'I' for Inactive)
REMARK    1  A    between atoms: C5_5  and  N10_10 
ROOT
HETATM    1  C1  UNL     1     -32.506   8.037   3.285  1.00 20.00    -0.026 C 
HETATM    2  C2  UNL     1     -35.513   6.656   1.899  1.00 20.00    -0.026 C 
HETATM    3  C3  UNL     1     -32.356   7.255   2.203  1.00 20.00    -0.005 C 
HETATM    4  C4  UNL     1     -35.502   6.837   3.231  1.00 20.00    -0.005 C 
HETATM    5  C6  UNL     1     -33.439   7.684   4.419  1.00 20.00     0.056 C 
HETATM    6  C7  UNL     1     -34.334   6.090   1.146  1.00 20.00     0.056 C 
HETATM    7  C8  UNL     1     -33.085   5.936   2.035  1.00 20.00     0.113 C 
HETATM    8  C9  UNL     1     -34.319   6.460   4.100  1.00 20.00     0.113 C 
HETATM    9  N10 UNL     1     -33.510   5.484   3.363  1.00 20.00    -0.343 N 
ENDROOT
BRANCH   9  10
HETATM   10  C5  UNL     1     -33.187   4.241   3.871  1.00 20.00     0.352 C 
HETATM   11  O11 UNL     1     -33.926   3.469   4.472  1.00 20.00    -0.283 OA
ENDBRANCH   9  10
TORSDOF 1
ENDMDL
MODEL 4
REMARK VINA RESULT:       5.2      3.074      4.192
REMARK  1 active torsions:
REMARK  status: ('A' for Active; 'I' for Inactive)
REMARK    1  A    between atoms: C5_5  and  N10_10 
ROOT
HETATM    1  C1  UNL     1     -35.575   6.694   1.978  1.00 20.00    -0.026 C 
HETATM    2  C2  UNL     1     -32.654   8.102   3.513  1.00 20.00    -0.026 C 
HETATM    3  C3  UNL     1     -35.609   6.819   3.316  1.00 20.00    -0.005 C 
HETATM    4  C4  UNL     1     -32.447   7.371   2.404  1.00 20.00    -0.005 C 
HETATM    5  C6  UNL     1     -34.356   6.193   1.240  1.00 20.00     0.056 C 
HETATM    6  C7  UNL     1     -33.610   7.675   4.601  1.00 20.00     0.056 C 
HETATM    7  C8  UNL     1     -34.442   6.441   4.206  1.00 20.00     0.113 C 
HETATM    8  C9  UNL     1     -33.130   6.040   2.160  1.00 20.00     0.113 C 
HETATM    9  N10 UNL     1     -33.582   5.520   3.455  1.00 20.00    -0.343 N 
ENDROOT
BRANCH   9  10
HETATM   10  C5  UNL     1     -33.219   4.276   3.932  1.00 20.00     0.352 C 
HETATM   11  O11 UNL     1     -33.955   3.419   4.408  1.00 20.00    -0.283 OA
ENDBRANCH   9  10
TORSDOF 1
ENDMDL
MODEL 5
REMARK VINA RESULT:       5.4      2.343      2.818
REMARK  1 active torsions:
REMARK  status: ('A' for Active; 'I' for Inactive)
REMARK    1  A    between atoms: C5_5  and  N10_10 
ROOT
HETATM    1  C1  UNL     1     -32.408   7.965   2.799  1.00 20.00    -0.026 C 
HETATM    2  C2  UNL     1     -32.842   4.452   3.384  1.00 20.00    -0.026 C 
HETATM    3  C3  UNL     1     -33.622   7.580   3.225  1.00 20.00    -0.005 C 
HETATM    4  C4  UNL     1     -31.993   4.789   2.397  1.00 20.00    -0.005 C 
HETATM    5  C6  UNL     1     -31.638   7.204   1.745  1.00 20.00     0.056 C 
HETATM    6  C7  UNL     1     -34.171   5.140   3.582  1.00 20.00     0.056 C 
HETATM    7  C8  UNL     1     -34.342   6.368   2.669  1.00 20.00     0.113 C 
HETATM    8  C9  UNL     1     -32.306   5.866   1.378  1.00 20.00     0.113 C 
HETATM    9  N10 UNL     1     -33.760   6.060   1.358  1.00 20.00    -0.343 N 
ENDROOT
BRANCH   9  10
HETATM   10  C5  UNL     1     -34.517   5.950   0.209  1.00 20.00     0.352 C 
HETATM   11  O11 UNL     1     -34.452   5.070  -0.642  1.00 20.00    -0.283 OA
ENDBRANCH   9  10
TORSDOF 1
ENDMDL
MODEL 6
REMARK VINA RESULT:       5.5      2.345      3.465
REMARK  1 active torsions:
REMARK  status: ('A' for Active; 'I' for Inactive)
REMARK    1  A    between atoms: C5_5  and  N10_10 
ROOT
HETATM    1  C1  UNL     1     -32.929   4.479   3.442  1.00 20.00    -0.026 C 
HETATM    2  C2  UNL     1     -32.369   7.960   2.780  1.00 20.00    -0.026 C 
HETATM    3  C3  UNL     1     -32.059   4.764   2.458  1.00 20.00    -0.005 C 
HETATM    4  C4  UNL     1     -33.601   7.627   3.201  1.00 20.00    -0.005 C 
HETATM    5  C6  UNL     1     -34.237   5.216   3.607  1.00 20.00     0.056 C 
HETATM    6  C7  UNL     1     -31.614   7.149   1.754  1.00 20.00     0.056 C 
HETATM    7  C8  UNL     1     -32.323   5.826   1.410  1.00 20.00     0.113 C 
HETATM    8  C9  UNL     1     -34.356   6.428   2.664  1.00 20.00     0.113 C 
HETATM    9  N10 UNL     1     -33.769   6.068   1.368  1.00 20.00    -0.343 N 
ENDROOT
BRANCH   9  10
HETATM   10  C5  UNL     1     -34.511   5.979   0.207  1.00 20.00     0.352 C 
HETATM   11  O11 UNL     1     -34.495   5.072  -0.617  1.00 20.00    -0.283 OA
ENDBRANCH   9  10
TORSDOF 1
ENDMDL
MODEL 7
REMARK VINA RESULT:       5.6      2.060      3.249
REMARK  1 active torsions:
REMARK  status: ('A' for Active; 'I' for Inactive)
REMARK    1  A    between atoms: C5_5  and  N10_10 
ROOT
HETATM    1  C1  UNL     1     -32.554   5.207   0.640  1.00 20.00    -0.026 C 
HETATM    2  C2  UNL     1     -31.667   8.675   0.880  1.00 20.00    -0.026 C 
HETATM    3  C3  UNL     1     -33.521   6.090   0.334  1.00 20.00    -0.005 C 
HETATM    4  C4  UNL     1     -31.062   7.847   1.749  1.00 20.00    -0.005 C 
HETATM    5  C6  UNL     1     -31.637   5.388   1.826  1.00 20.00     0.056 C 
HETATM    6  C7  UNL     1     -33.138   8.578   0.553  1.00 20.00     0.056 C 
HETATM    7  C8  UNL     1     -33.797   7.327   1.165  1.00 20.00     0.113 C 
HETATM    8  C9  UNL     1     -31.806   6.762   2.501  1.00 20.00     0.113 C 
HETATM    9  N10 UNL     1     -33.232   7.108   2.501  1.00 20.00    -0.343 N 
ENDROOT
BRANCH   9  10
HETATM   10  C5  UNL     1     -33.974   7.230   3.658  1.00 20.00     0.352 C 
HETATM   11  O11 UNL     1     -34.985   6.605   3.962  1.00 20.00    -0.283 OA
ENDBRANCH   9  10
TORSDOF 1
ENDMDL
MODEL 8
REMARK VINA RESULT:       5.6      2.043      3.191
REMARK  1 active torsions:
REMARK  status: ('A' for Active; 'I' for Inactive)
REMARK    1  A    between atoms: C5_5  and  N10_10 
ROOT
HETATM    1  C1  UNL     1     -31.623   8.720   0.919  1.00 20.00    -0.026 C 
HETATM    2  C2  UNL     1     -32.616   5.284   0.630  1.00 20.00    -0.026 C 
HETATM    3  C3  UNL     1     -31.036   7.858   1.768  1.00 20.00    -0.005 C 
HETATM    4  C4  UNL     1     -33.559   6.200   0.348  1.00 20.00    -0.005 C 
HETATM    5  C6  UNL     1     -33.100   8.671   0.606  1.00 20.00     0.056 C 
HETATM    6  C7  UNL     1     -31.682   5.416   1.809  1.00 20.00     0.056 C 
HETATM    7  C8  UNL     1     -31.804   6.783   2.509  1.00 20.00     0.113 C 
HETATM    8  C9  UNL     1     -33.790   7.430   1.203  1.00 20.00     0.113 C 
HETATM    9  N10 UNL     1     -33.218   7.172   2.529  1.00 20.00    -0.343 N 
ENDROOT
BRANCH   9  10
HETATM   10  C5  UNL     1     -33.952   7.273   3.695  1.00 20.00     0.352 C 
HETATM   11  O11 UNL     1     -34.969   6.655   3.989  1.00 20.00    -0.283 OA
ENDBRANCH   9  10
TORSDOF 1
ENDMDL
MODEL 9
REMARK VINA RESULT:       5.6      3.117      4.087
REMARK  1 active torsions:
REMARK  status: ('A' for Active; 'I' for Inactive)
REMARK    1  A    between atoms: C5_5  and  N10_10 
ROOT
HETATM    1  C1  UNL     1     -34.602   7.739   4.079  1.00 20.00    -0.026 C 
HETATM    2  C2  UNL     1     -33.130   6.595   1.013  1.00 20.00    -0.026 C 
HETATM    3  C3  UNL     1     -33.259   7.692   4.046  1.00 20.00    -0.005 C 
HETATM    4  C4  UNL     1     -34.318   6.057   1.337  1.00 20.00    -0.005 C 
HETATM    5  C6  UNL     1     -35.466   6.637   3.512  1.00 20.00     0.056 C 
HETATM    6  C7  UNL     1     -32.029   6.804   2.026  1.00 20.00     0.056 C 
HETATM    7  C8  UNL     1     -32.492   6.521   3.467  1.00 20.00     0.113 C 
HETATM    8  C9  UNL     1     -34.650   5.585   2.739  1.00 20.00     0.113 C 
HETATM    9  N10 UNL     1     -33.387   5.359   3.450  1.00 20.00    -0.343 N 
ENDROOT
BRANCH   9  10
HETATM   10  C5  UNL     1     -33.064   4.154   4.041  1.00 20.00     0.352 C 
HETATM   11  O11 UNL     1     -33.838   3.290   4.438  1.00 20.00    -0.283 OA
ENDBRANCH   9  10
TORSDOF 1
ENDMDL
