MODEL 1
REMARK VINA RESULT:       1.3      0.000      0.000
REMARK  0 active torsions:
REMARK  status: ('A' for Active; 'I' for Inactive)
ROOT
HETATM    1  C1  UNL     1     -32.834   5.498   1.726  1.00 20.00     0.085 C 
HETATM    2  C2  UNL     1     -33.811   4.770   3.772  1.00 20.00     0.085 C 
HETATM    3  C3  UNL     1     -34.704   6.904   2.680  1.00 20.00     0.030 A 
HETATM    4  C4  UNL     1     -33.601   5.878   2.883  1.00 20.00     0.148 A 
HETATM    5  C5  UNL     1     -33.456   7.298   3.453  1.00 20.00    -0.007 A 
HETATM    6  C6  UNL     1     -36.047   6.789   3.323  1.00 20.00     0.014 C 
HETATM    7  C7  UNL     1     -32.524   8.282   2.779  1.00 20.00     0.018 C 
HETATM    8  C8  UNL     1     -33.532   7.518   4.949  1.00 20.00     0.018 C 
HETATM    9  N9  UNL     1     -32.215   5.192   0.794  1.00 20.00    -0.195 NA
HETATM   10  N10 UNL     1     -33.981   3.875   4.491  1.00 20.00    -0.195 NA
ENDROOT
TORSDOF 0
ENDMDL
MODEL 2
REMARK VINA RESULT:       2.2      1.780      3.442
REMARK  0 active torsions:
REMARK  status: ('A' for Active; 'I' for Inactive)
ROOT
HETATM    1  C1  UNL     1     -32.499   6.171   1.711  1.00 20.00     0.085 C 
HETATM    2  C2  UNL     1     -32.553   8.532   1.394  1.00 20.00     0.085 C 
HETATM    3  C3  UNL     1     -32.492   7.617   3.783  1.00 20.00     0.030 A 
HETATM    4  C4  UNL     1     -32.800   7.448   2.304  1.00 20.00     0.148 A 
HETATM    5  C5  UNL     1     -33.940   7.556   3.329  1.00 20.00    -0.007 A 
HETATM    6  C6  UNL     1     -31.876   8.855   4.347  1.00 20.00     0.014 C 
HETATM    7  C7  UNL     1     -34.719   6.315   3.713  1.00 20.00     0.018 C 
HETATM    8  C8  UNL     1     -34.799   8.802   3.369  1.00 20.00     0.018 C 
HETATM    9  N9  UNL     1     -32.258   5.143   1.232  1.00 20.00    -0.195 NA
HETATM   10  N10 UNL     1     -32.353   9.408   0.660  1.00 20.00    -0.195 NA
ENDROOT
TORSDOF 0
ENDMDL
MODEL 3
REMARK VINA RESULT:       2.6      1.084      3.158
REMARK  0 active torsions:
REMARK  status: ('A' for Active; 'I' for Inactive)
ROOT
HETATM    1  C1  UNL     1     -33.427   4.176   4.007  1.00 20.00     0.085 C 
HETATM    2  C2  UNL     1     -33.304   5.619   2.116  1.00 20.00     0.085 C 
HETATM    3  C3  UNL     1     -33.801   6.643   4.407  1.00 20.00     0.030 A 
HETATM    4  C4  UNL     1     -33.790   5.456   3.457  1.00 20.00     0.148 A 
HETATM    5  C5  UNL     1     -35.119   6.107   3.873  1.00 20.00    -0.007 A 
HETATM    6  C6  UNL     1     -33.267   7.986   4.033  1.00 20.00     0.014 C 
HETATM    7  C7  UNL     1     -36.017   5.403   4.867  1.00 20.00     0.018 C 
HETATM    8  C8  UNL     1     -35.908   6.912   2.863  1.00 20.00     0.018 C 
HETATM    9  N9  UNL     1     -33.134   3.145   4.449  1.00 20.00    -0.195 NA
HETATM   10  N10 UNL     1     -32.911   5.752   1.032  1.00 20.00    -0.195 NA
ENDROOT
TORSDOF 0
ENDMDL
MODEL 4
REMARK VINA RESULT:       2.6      1.998      3.883
REMARK  0 active torsions:
REMARK  status: ('A' for Active; 'I' for Inactive)
ROOT
HETATM    1  C1  UNL     1     -33.778   7.299   3.522  1.00 20.00     0.085 C 
HETATM    2  C2  UNL     1     -32.276   7.768   1.734  1.00 20.00     0.085 C 
HETATM    3  C3  UNL     1     -33.970   5.873   1.446  1.00 20.00     0.030 A 
HETATM    4  C4  UNL     1     -33.148   6.795   2.331  1.00 20.00     0.148 A 
HETATM    5  C5  UNL     1     -32.804   5.300   2.233  1.00 20.00    -0.007 A 
HETATM    6  C6  UNL     1     -33.968   5.964  -0.045  1.00 20.00     0.014 C 
HETATM    7  C7  UNL     1     -33.150   4.377   3.382  1.00 20.00     0.018 C 
HETATM    8  C8  UNL     1     -31.546   4.864   1.512  1.00 20.00     0.018 C 
HETATM    9  N9  UNL     1     -34.286   7.706   4.482  1.00 20.00    -0.195 NA
HETATM   10  N10 UNL     1     -31.573   8.554   1.251  1.00 20.00    -0.195 NA
ENDROOT
TORSDOF 0
ENDMDL
MODEL 5
REMARK VINA RESULT:       2.7      1.744      3.068
REMARK  0 active torsions:
REMARK  status: ('A' for Active; 'I' for Inactive)
ROOT
HETATM    1  C1  UNL     1     -33.575   4.352   3.562  1.00 20.00     0.085 C 
HETATM    2  C2  UNL     1     -34.118   6.665   3.389  1.00 20.00     0.085 C 
HETATM    3  C3  UNL     1     -33.614   5.361   1.246  1.00 20.00     0.030 A 
HETATM    4  C4  UNL     1     -33.496   5.539   2.751  1.00 20.00     0.148 A 
HETATM    5  C5  UNL     1     -32.273   5.754   1.844  1.00 20.00    -0.007 A 
HETATM    6  C6  UNL     1     -34.410   6.282   0.381  1.00 20.00     0.014 C 
HETATM    7  C7  UNL     1     -31.180   4.707   1.803  1.00 20.00     0.018 C 
HETATM    8  C8  UNL     1     -31.731   7.151   1.634  1.00 20.00     0.018 C 
HETATM    9  N9  UNL     1     -33.639   3.396   4.216  1.00 20.00    -0.195 NA
HETATM   10  N10 UNL     1     -34.622   7.575   3.903  1.00 20.00    -0.195 NA
ENDROOT
TORSDOF 0
ENDMDL
MODEL 6
REMARK VINA RESULT:       2.8      2.321      3.644
REMARK  0 active torsions:
REMARK  status: ('A' for Active; 'I' for Inactive)
ROOT
HETATM    1  C1  UNL     1     -34.355   6.870   3.475  1.00 20.00     0.085 C 
HETATM    2  C2  UNL     1     -32.498   8.284   3.954  1.00 20.00     0.085 C 
HETATM    3  C3  UNL     1     -33.291   8.083   1.530  1.00 20.00     0.030 A 
HETATM    4  C4  UNL     1     -33.193   7.535   2.944  1.00 20.00     0.148 A 
HETATM    5  C5  UNL     1     -32.403   6.879   1.801  1.00 20.00    -0.007 A 
HETATM    6  C6  UNL     1     -32.743   9.415   1.136  1.00 20.00     0.014 C 
HETATM    7  C7  UNL     1     -32.868   5.554   1.236  1.00 20.00     0.018 C 
HETATM    8  C8  UNL     1     -30.897   7.024   1.749  1.00 20.00     0.018 C 
HETATM    9  N9  UNL     1     -35.290   6.334   3.903  1.00 20.00    -0.195 NA
HETATM   10  N10 UNL     1     -31.937   8.890   4.769  1.00 20.00    -0.195 NA
ENDROOT
TORSDOF 0
ENDMDL
MODEL 7
REMARK VINA RESULT:       2.8      2.220      3.256
REMARK  0 active torsions:
REMARK  status: ('A' for Active; 'I' for Inactive)
ROOT
HETATM    1  C1  UNL     1     -33.391   7.641   4.204  1.00 20.00     0.085 C 
HETATM    2  C2  UNL     1     -35.328   6.518   3.391  1.00 20.00     0.085 C 
HETATM    3  C3  UNL     1     -33.112   5.241   3.467  1.00 20.00     0.030 A 
HETATM    4  C4  UNL     1     -33.892   6.545   3.418  1.00 20.00     0.148 A 
HETATM    5  C5  UNL     1     -33.097   6.068   2.192  1.00 20.00    -0.007 A 
HETATM    6  C6  UNL     1     -33.772   3.904   3.551  1.00 20.00     0.014 C 
HETATM    7  C7  UNL     1     -31.789   6.746   1.840  1.00 20.00     0.018 C 
HETATM    8  C8  UNL     1     -33.832   5.578   0.964  1.00 20.00     0.018 C 
HETATM    9  N9  UNL     1     -32.988   8.526   4.837  1.00 20.00    -0.195 NA
HETATM   10  N10 UNL     1     -36.488   6.495   3.370  1.00 20.00    -0.195 NA
ENDROOT
TORSDOF 0
ENDMDL
MODEL 8
REMARK VINA RESULT:       3.5      1.777      3.629
REMARK  0 active torsions:
REMARK  status: ('A' for Active; 'I' for Inactive)
ROOT
HETATM    1  C1  UNL     1     -34.194   6.299   2.981  1.00 20.00     0.085 C 
HETATM    2  C2  UNL     1     -34.037   5.967   0.627  1.00 20.00     0.085 C 
HETATM    3  C3  UNL     1     -31.894   5.875   2.023  1.00 20.00     0.030 A 
HETATM    4  C4  UNL     1     -33.333   6.325   1.827  1.00 20.00     0.148 A 
HETATM    5  C5  UNL     1     -32.184   7.344   1.763  1.00 20.00    -0.007 A 
HETATM    6  C6  UNL     1     -31.174   5.011   1.041  1.00 20.00     0.014 C 
HETATM    7  C7  UNL     1     -31.963   8.293   2.922  1.00 20.00     0.018 C 
HETATM    8  C8  UNL     1     -31.805   7.967   0.437  1.00 20.00     0.018 C 
HETATM    9  N9  UNL     1     -34.888   6.279   3.910  1.00 20.00    -0.195 NA
HETATM   10  N10 UNL     1     -34.604   5.677  -0.343  1.00 20.00    -0.195 NA
ENDROOT
TORSDOF 0
ENDMDL
MODEL 9
REMARK VINA RESULT:       3.6      1.839      2.977
REMARK  0 active torsions:
REMARK  status: ('A' for Active; 'I' for Inactive)
ROOT
HETATM    1  C1  UNL     1     -31.891   7.669   1.848  1.00 20.00     0.085 C 
HETATM    2  C2  UNL     1     -31.618   5.332   1.477  1.00 20.00     0.085 C 
HETATM    3  C3  UNL     1     -33.950   6.351   1.209  1.00 20.00     0.030 A 
HETATM    4  C4  UNL     1     -32.543   6.387   1.784  1.00 20.00     0.148 A 
HETATM    5  C5  UNL     1     -33.748   6.105   2.695  1.00 20.00    -0.007 A 
HETATM    6  C6  UNL     1     -34.416   5.285   0.274  1.00 20.00     0.014 C 
HETATM    7  C7  UNL     1     -34.243   7.185   3.634  1.00 20.00     0.018 C 
HETATM    8  C8  UNL     1     -33.949   4.718   3.267  1.00 20.00     0.018 C 
HETATM    9  N9  UNL     1     -31.366   8.702   1.901  1.00 20.00    -0.195 NA
HETATM   10  N10 UNL     1     -30.871   4.480   1.228  1.00 20.00    -0.195 NA
ENDROOT
TORSDOF 0
ENDMDL
