MODEL 1
REMARK VINA RESULT:       1.2      0.000      0.000
REMARK  1 active torsions:
REMARK  status: ('A' for Active; 'I' for Inactive)
REMARK    1  A    between atoms: C7_7  and  C10_10 
ROOT
HETATM    1  C1  UNL     1     -33.475   5.576   2.338  1.00 20.00    -0.004 C 
HETATM    2  C2  UNL     1     -34.061   6.383   3.394  1.00 20.00    -0.004 C 
HETATM    3  C3  UNL     1     -32.583   5.936   1.395  1.00 20.00    -0.017 C 
HETATM    4  C4  UNL     1     -33.851   7.682   3.679  1.00 20.00    -0.017 C 
HETATM    5  C5  UNL     1     -30.980   7.645   2.220  1.00 20.00    -0.021 C 
HETATM    6  C6  UNL     1     -31.522   8.391   3.193  1.00 20.00    -0.021 C 
HETATM    7  C8  UNL     1     -32.006   7.312   1.166  1.00 20.00     0.042 C 
HETATM    8  C9  UNL     1     -32.981   8.653   2.919  1.00 20.00     0.042 C 
HETATM    9  C10 UNL     1     -33.049   8.419   1.399  1.00 20.00     0.077 C 
ENDROOT
BRANCH   9  10
HETATM   10  C7  UNL     1     -32.695   9.663   0.627  1.00 20.00     0.129 C 
HETATM   11  C11 UNL     1     -32.322   9.478  -0.820  1.00 20.00     0.091 C 
HETATM   12  O12 UNL     1     -32.711  10.775   1.153  1.00 20.00    -0.298 OA
ENDBRANCH   9  10
TORSDOF 1
ENDMDL
MODEL 2
REMARK VINA RESULT:       1.5      2.658      4.516
REMARK  1 active torsions:
REMARK  status: ('A' for Active; 'I' for Inactive)
REMARK    1  A    between atoms: C7_7  and  C10_10 
ROOT
HETATM    1  C1  UNL     1     -31.973   7.533   1.934  1.00 20.00    -0.004 C 
HETATM    2  C2  UNL     1     -32.177   8.290   3.157  1.00 20.00    -0.004 C 
HETATM    3  C3  UNL     1     -32.631   6.444   1.496  1.00 20.00    -0.017 C 
HETATM    4  C4  UNL     1     -33.073   8.081   4.140  1.00 20.00    -0.017 C 
HETATM    5  C5  UNL     1     -35.025   6.461   2.157  1.00 20.00    -0.021 C 
HETATM    6  C6  UNL     1     -35.214   7.159   3.286  1.00 20.00    -0.021 C 
HETATM    7  C8  UNL     1     -33.729   5.693   2.211  1.00 20.00     0.042 C 
HETATM    8  C9  UNL     1     -34.067   6.951   4.242  1.00 20.00     0.042 C 
HETATM    9  C10 UNL     1     -33.482   5.623   3.728  1.00 20.00     0.077 C 
ENDROOT
BRANCH   9  10
HETATM   10  C7  UNL     1     -34.184   4.434   4.332  1.00 20.00     0.129 C 
HETATM   11  C11 UNL     1     -33.382   3.165   4.452  1.00 20.00     0.091 C 
HETATM   12  O12 UNL     1     -35.353   4.498   4.709  1.00 20.00    -0.298 OA
ENDBRANCH   9  10
TORSDOF 1
ENDMDL
MODEL 3
REMARK VINA RESULT:       3.0      2.727      4.473
REMARK  1 active torsions:
REMARK  status: ('A' for Active; 'I' for Inactive)
REMARK    1  A    between atoms: C7_7  and  C10_10 
ROOT
HETATM    1  C1  UNL     1     -31.785   7.605   1.894  1.00 20.00    -0.004 C 
HETATM    2  C2  UNL     1     -32.129   8.387   3.069  1.00 20.00    -0.004 C 
HETATM    3  C3  UNL     1     -32.360   6.479   1.431  1.00 20.00    -0.017 C 
HETATM    4  C4  UNL     1     -33.103   8.171   3.971  1.00 20.00    -0.017 C 
HETATM    5  C5  UNL     1     -34.804   6.422   1.869  1.00 20.00    -0.021 C 
HETATM    6  C6  UNL     1     -35.121   7.143   2.954  1.00 20.00    -0.021 C 
HETATM    7  C8  UNL     1     -33.491   5.707   2.066  1.00 20.00     0.042 C 
HETATM    8  C9  UNL     1     -34.061   7.006   4.017  1.00 20.00     0.042 C 
HETATM    9  C10 UNL     1     -33.384   5.688   3.600  1.00 20.00     0.077 C 
ENDROOT
BRANCH   9  10
HETATM   10  C7  UNL     1     -34.095   4.490   4.174  1.00 20.00     0.129 C 
HETATM   11  C11 UNL     1     -35.410   4.749   4.861  1.00 20.00     0.091 C 
HETATM   12  O12 UNL     1     -33.626   3.356   4.084  1.00 20.00    -0.298 OA
ENDBRANCH   9  10
TORSDOF 1
ENDMDL
MODEL 4
REMARK VINA RESULT:       3.6      1.812      3.967
REMARK  1 active torsions:
REMARK  status: ('A' for Active; 'I' for Inactive)
REMARK    1  A    between atoms: C7_7  and  C10_10 
ROOT
HETATM    1  C1  UNL     1     -32.739  10.348   0.446  1.00 20.00    -0.004 C 
HETATM    2  C2  UNL     1     -31.872   9.514  -0.369  1.00 20.00    -0.004 C 
HETATM    3  C3  UNL     1     -33.225  10.110   1.679  1.00 20.00    -0.017 C 
HETATM    4  C4  UNL     1     -31.351   8.307  -0.083  1.00 20.00    -0.017 C 
HETATM    5  C5  UNL     1     -31.636   8.818   3.083  1.00 20.00    -0.021 C 
HETATM    6  C6  UNL     1     -30.837   8.047   2.332  1.00 20.00    -0.021 C 
HETATM    7  C8  UNL     1     -33.029   8.865   2.510  1.00 20.00     0.042 C 
HETATM    8  C9  UNL     1     -31.591   7.480   1.156  1.00 20.00     0.042 C 
HETATM    9  C10 UNL     1     -33.045   7.591   1.648  1.00 20.00     0.077 C 
ENDROOT
BRANCH   9  10
HETATM   10  C7  UNL     1     -33.449   6.393   2.468  1.00 20.00     0.129 C 
HETATM   11  C11 UNL     1     -34.401   6.642   3.607  1.00 20.00     0.091 C 
HETATM   12  O12 UNL     1     -33.022   5.266   2.218  1.00 20.00    -0.298 OA
ENDBRANCH   9  10
TORSDOF 1
ENDMDL
MODEL 5
REMARK VINA RESULT:       3.6      1.076      1.765
REMARK  1 active torsions:
REMARK  status: ('A' for Active; 'I' for Inactive)
REMARK    1  A    between atoms: C7_7  and  C10_10 
ROOT
HETATM    1  C1  UNL     1     -34.169   7.272   3.873  1.00 20.00    -0.004 C 
HETATM    2  C2  UNL     1     -33.113   8.045   4.504  1.00 20.00    -0.004 C 
HETATM    3  C3  UNL     1     -34.291   6.903   2.584  1.00 20.00    -0.017 C 
HETATM    4  C4  UNL     1     -32.008   8.575   3.948  1.00 20.00    -0.017 C 
HETATM    5  C5  UNL     1     -32.091   6.463   1.519  1.00 20.00    -0.021 C 
HETATM    6  C6  UNL     1     -31.116   7.177   2.100  1.00 20.00    -0.021 C 
HETATM    7  C8  UNL     1     -33.368   7.260   1.443  1.00 20.00     0.042 C 
HETATM    8  C9  UNL     1     -31.616   8.545   2.491  1.00 20.00     0.042 C 
HETATM    9  C10 UNL     1     -32.835   8.698   1.564  1.00 20.00     0.077 C 
ENDROOT
BRANCH   9  10
HETATM   10  C7  UNL     1     -32.444   9.242   0.214  1.00 20.00     0.129 C 
HETATM   11  C11 UNL     1     -30.982   9.184  -0.140  1.00 20.00     0.091 C 
HETATM   12  O12 UNL     1     -33.279   9.708  -0.560  1.00 20.00    -0.298 OA
ENDBRANCH   9  10
TORSDOF 1
ENDMDL
MODEL 6
REMARK VINA RESULT:       3.8      1.668      3.183
REMARK  1 active torsions:
REMARK  status: ('A' for Active; 'I' for Inactive)
REMARK    1  A    between atoms: C7_7  and  C10_10 
ROOT
HETATM    1  C1  UNL     1     -35.127   5.029   4.464  1.00 20.00    -0.004 C 
HETATM    2  C2  UNL     1     -34.028   4.115   4.199  1.00 20.00    -0.004 C 
HETATM    3  C3  UNL     1     -35.339   6.261   3.965  1.00 20.00    -0.017 C 
HETATM    4  C4  UNL     1     -32.964   4.285   3.394  1.00 20.00    -0.017 C 
HETATM    5  C5  UNL     1     -34.520   6.485   1.630  1.00 20.00    -0.021 C 
HETATM    6  C6  UNL     1     -33.506   5.643   1.387  1.00 20.00    -0.021 C 
HETATM    7  C8  UNL     1     -34.437   7.034   3.032  1.00 20.00     0.042 C 
HETATM    8  C9  UNL     1     -32.613   5.517   2.595  1.00 20.00     0.042 C 
HETATM    9  C10 UNL     1     -32.950   6.812   3.356  1.00 20.00     0.077 C 
ENDROOT
BRANCH   9  10
HETATM   10  C7  UNL     1     -32.116   7.972   2.878  1.00 20.00     0.129 C 
HETATM   11  C11 UNL     1     -31.797   8.015   1.408  1.00 20.00     0.091 C 
HETATM   12  O12 UNL     1     -31.717   8.842   3.651  1.00 20.00    -0.298 OA
ENDBRANCH   9  10
TORSDOF 1
ENDMDL
MODEL 7
REMARK VINA RESULT:       4.1      1.783      3.860
REMARK  1 active torsions:
REMARK  status: ('A' for Active; 'I' for Inactive)
REMARK    1  A    between atoms: C7_7  and  C10_10 
ROOT
HETATM    1  C1  UNL     1     -32.984  10.422   0.669  1.00 20.00    -0.004 C 
HETATM    2  C2  UNL     1     -32.007   9.871  -0.254  1.00 20.00    -0.004 C 
HETATM    3  C3  UNL     1     -33.426   9.914   1.835  1.00 20.00    -0.017 C 
HETATM    4  C4  UNL     1     -31.314   8.721  -0.162  1.00 20.00    -0.017 C 
HETATM    5  C5  UNL     1     -31.659   8.649   3.039  1.00 20.00    -0.021 C 
HETATM    6  C6  UNL     1     -30.759   8.139   2.187  1.00 20.00    -0.021 C 
HETATM    7  C8  UNL     1     -33.047   8.589   2.452  1.00 20.00     0.042 C 
HETATM    8  C9  UNL     1     -31.427   7.673   0.918  1.00 20.00     0.042 C 
HETATM    9  C10 UNL     1     -32.880   7.488   1.391  1.00 20.00     0.077 C 
ENDROOT
BRANCH   9  10
HETATM   10  C7  UNL     1     -33.101   6.124   1.992  1.00 20.00     0.129 C 
HETATM   11  C11 UNL     1     -32.414   4.968   1.315  1.00 20.00     0.091 C 
HETATM   12  O12 UNL     1     -33.806   5.964   2.987  1.00 20.00    -0.298 OA
ENDBRANCH   9  10
TORSDOF 1
ENDMDL
