MODEL 1
REMARK VINA RESULT:      -1.5      0.000      0.000
REMARK  5 active torsions:
REMARK  status: ('A' for Active; 'I' for Inactive)
REMARK    1  A    between atoms: C1_1  and  C9_9 
REMARK    2  A    between atoms: C1_1  and  O11_11 
REMARK    3  A    between atoms: C6_6  and  C7_7 
REMARK    4  A    between atoms: C7_7  and  C9_9 
REMARK    5  A    between atoms: C8_8  and  O11_11 
ROOT
HETATM    1  C4  UNL     1     -31.701   5.467   1.595  1.00 20.00     0.025 C 
HETATM    2  C5  UNL     1     -33.775   6.323   0.510  1.00 20.00     0.025 C 
HETATM    3  C9  UNL     1     -32.902   6.414   1.773  1.00 20.00     0.041 C 
ENDROOT
BRANCH   3   4
HETATM    4  C1  UNL     1     -33.709   5.938   2.989  1.00 20.00     0.266 C 
HETATM    5  O10 UNL     1     -34.396   6.669   3.691  1.00 20.00    -0.264 OA
BRANCH   4   6
HETATM    6  O11 UNL     1     -33.556   4.592   3.170  1.00 20.00    -0.321 OA
BRANCH   6   7
HETATM    7  C8  UNL     1     -34.041   4.074   4.413  1.00 20.00     0.174 C 
HETATM    8  C3  UNL     1     -33.200   2.880   4.811  1.00 20.00     0.034 C 
ENDBRANCH   6   7
ENDBRANCH   4   6
ENDBRANCH   3   4
BRANCH   3   9
HETATM    9  C7  UNL     1     -32.385   7.860   1.984  1.00 20.00     0.018 C 
BRANCH   9  10
HETATM   10  C6  UNL     1     -31.763   8.509   0.741  1.00 20.00    -0.003 C 
HETATM   11  C2  UNL     1     -32.453   9.822   0.402  1.00 20.00     0.005 C 
ENDBRANCH   9  10
ENDBRANCH   3   9
TORSDOF 5
ENDMDL
MODEL 2
REMARK VINA RESULT:      -1.4      1.483      4.822
REMARK  5 active torsions:
REMARK  status: ('A' for Active; 'I' for Inactive)
REMARK    1  A    between atoms: C1_1  and  C9_9 
REMARK    2  A    between atoms: C1_1  and  O11_11 
REMARK    3  A    between atoms: C6_6  and  C7_7 
REMARK    4  A    between atoms: C7_7  and  C9_9 
REMARK    5  A    between atoms: C8_8  and  O11_11 
ROOT
HETATM    1  C4  UNL     1     -34.127   7.581   4.726  1.00 20.00     0.025 C 
HETATM    2  C5  UNL     1     -35.851   6.830   3.091  1.00 20.00     0.025 C 
HETATM    3  C9  UNL     1     -34.486   6.482   3.709  1.00 20.00     0.041 C 
ENDROOT
BRANCH   3   4
HETATM    4  C1  UNL     1     -33.413   6.477   2.612  1.00 20.00     0.266 C 
HETATM    5  O10 UNL     1     -33.266   5.578   1.792  1.00 20.00    -0.264 OA
BRANCH   4   6
HETATM    6  O11 UNL     1     -32.655   7.613   2.676  1.00 20.00    -0.321 OA
BRANCH   6   7
HETATM    7  C8  UNL     1     -31.834   7.876   1.534  1.00 20.00     0.174 C 
HETATM    8  C3  UNL     1     -32.290   9.163   0.883  1.00 20.00     0.034 C 
ENDBRANCH   6   7
ENDBRANCH   4   6
ENDBRANCH   3   4
BRANCH   3   9
HETATM    9  C7  UNL     1     -34.541   5.114   4.435  1.00 20.00     0.018 C 
BRANCH   9  10
HETATM   10  C6  UNL     1     -33.740   3.993   3.761  1.00 20.00    -0.003 C 
HETATM   11  C2  UNL     1     -33.218   2.996   4.785  1.00 20.00     0.005 C 
ENDBRANCH   9  10
ENDBRANCH   3   9
TORSDOF 5
ENDMDL
MODEL 3
REMARK VINA RESULT:      -1.4      1.428      2.432
REMARK  5 active torsions:
REMARK  status: ('A' for Active; 'I' for Inactive)
REMARK    1  A    between atoms: C1_1  and  C9_9 
REMARK    2  A    between atoms: C1_1  and  O11_11 
REMARK    3  A    between atoms: C6_6  and  C7_7 
REMARK    4  A    between atoms: C7_7  and  C9_9 
REMARK    5  A    between atoms: C8_8  and  O11_11 
ROOT
HETATM    1  C4  UNL     1     -35.754   7.085   3.045  1.00 20.00     0.025 C 
HETATM    2  C5  UNL     1     -33.898   7.526   4.648  1.00 20.00     0.025 C 
HETATM    3  C9  UNL     1     -34.382   6.585   3.532  1.00 20.00     0.041 C 
ENDROOT
BRANCH   3   4
HETATM    4  C1  UNL     1     -34.562   5.170   4.097  1.00 20.00     0.266 C 
HETATM    5  O10 UNL     1     -35.530   4.806   4.754  1.00 20.00    -0.264 OA
BRANCH   4   6
HETATM    6  O11 UNL     1     -33.499   4.379   3.760  1.00 20.00    -0.321 OA
BRANCH   6   7
HETATM    7  C8  UNL     1     -33.505   3.062   4.319  1.00 20.00     0.174 C 
HETATM    8  C3  UNL     1     -32.617   3.043   5.545  1.00 20.00     0.034 C 
ENDBRANCH   6   7
ENDBRANCH   4   6
ENDBRANCH   3   4
BRANCH   3   9
HETATM    9  C7  UNL     1     -33.388   6.584   2.342  1.00 20.00     0.018 C 
BRANCH   9  10
HETATM   10  C6  UNL     1     -32.278   7.638   2.428  1.00 20.00    -0.003 C 
HETATM   11  C2  UNL     1     -32.274   8.536   1.200  1.00 20.00     0.005 C 
ENDBRANCH   9  10
ENDBRANCH   3   9
TORSDOF 5
ENDMDL
MODEL 4
REMARK VINA RESULT:      -1.0      1.126      1.552
REMARK  5 active torsions:
REMARK  status: ('A' for Active; 'I' for Inactive)
REMARK    1  A    between atoms: C1_1  and  C9_9 
REMARK    2  A    between atoms: C1_1  and  O11_11 
REMARK    3  A    between atoms: C6_6  and  C7_7 
REMARK    4  A    between atoms: C7_7  and  C9_9 
REMARK    5  A    between atoms: C8_8  and  O11_11 
ROOT
HETATM    1  C4  UNL     1     -31.259   8.081   2.824  1.00 20.00     0.025 C 
HETATM    2  C5  UNL     1     -31.973   6.073   1.532  1.00 20.00     0.025 C 
HETATM    3  C9  UNL     1     -32.460   7.397   2.146  1.00 20.00     0.041 C 
ENDROOT
BRANCH   3   4
HETATM    4  C1  UNL     1     -33.514   7.105   3.223  1.00 20.00     0.266 C 
HETATM    5  O10 UNL     1     -33.763   7.847   4.165  1.00 20.00    -0.264 OA
BRANCH   4   6
HETATM    6  O11 UNL     1     -34.133   5.911   2.977  1.00 20.00    -0.321 OA
BRANCH   6   7
HETATM    7  C8  UNL     1     -34.618   5.216   4.130  1.00 20.00     0.174 C 
HETATM    8  C3  UNL     1     -33.888   3.896   4.253  1.00 20.00     0.034 C 
ENDBRANCH   6   7
ENDBRANCH   4   6
ENDBRANCH   3   4
BRANCH   3   9
HETATM    9  C7  UNL     1     -33.031   8.335   1.053  1.00 20.00     0.018 C 
BRANCH   9  10
HETATM   10  C6  UNL     1     -32.032   9.356   0.493  1.00 20.00    -0.003 C 
HETATM   11  C2  UNL     1     -32.723  10.662   0.131  1.00 20.00     0.005 C 
ENDBRANCH   9  10
ENDBRANCH   3   9
TORSDOF 5
ENDMDL
MODEL 5
REMARK VINA RESULT:      -1.0      2.096      4.773
REMARK  5 active torsions:
REMARK  status: ('A' for Active; 'I' for Inactive)
REMARK    1  A    between atoms: C1_1  and  C9_9 
REMARK    2  A    between atoms: C1_1  and  O11_11 
REMARK    3  A    between atoms: C6_6  and  C7_7 
REMARK    4  A    between atoms: C7_7  and  C9_9 
REMARK    5  A    between atoms: C8_8  and  O11_11 
ROOT
HETATM    1  C4  UNL     1     -33.778   6.396   0.634  1.00 20.00     0.025 C 
HETATM    2  C5  UNL     1     -31.608   5.343   1.259  1.00 20.00     0.025 C 
HETATM    3  C9  UNL     1     -32.683   6.346   1.714  1.00 20.00     0.041 C 
ENDROOT
BRANCH   3   4
HETATM    4  C1  UNL     1     -32.061   7.744   1.831  1.00 20.00     0.266 C 
HETATM    5  O10 UNL     1     -31.606   8.214   2.866  1.00 20.00    -0.264 OA
BRANCH   4   6
HETATM    6  O11 UNL     1     -32.084   8.382   0.622  1.00 20.00    -0.321 OA
BRANCH   6   7
HETATM    7  C8  UNL     1     -32.257   9.801   0.673  1.00 20.00     0.174 C 
HETATM    8  C3  UNL     1     -32.867  10.271  -0.631  1.00 20.00     0.034 C 
ENDBRANCH   6   7
ENDBRANCH   4   6
ENDBRANCH   3   4
BRANCH   3   9
HETATM    9  C7  UNL     1     -33.313   5.906   3.060  1.00 20.00     0.018 C 
BRANCH   9  10
HETATM   10  C6  UNL     1     -34.441   6.812   3.570  1.00 20.00    -0.003 C 
HETATM   11  C2  UNL     1     -35.547   5.999   4.226  1.00 20.00     0.005 C 
ENDBRANCH   9  10
ENDBRANCH   3   9
TORSDOF 5
ENDMDL
MODEL 6
REMARK VINA RESULT:      -0.5      1.627      4.884
REMARK  5 active torsions:
REMARK  status: ('A' for Active; 'I' for Inactive)
REMARK    1  A    between atoms: C1_1  and  C9_9 
REMARK    2  A    between atoms: C1_1  and  O11_11 
REMARK    3  A    between atoms: C6_6  and  C7_7 
REMARK    4  A    between atoms: C7_7  and  C9_9 
REMARK    5  A    between atoms: C8_8  and  O11_11 
ROOT
HETATM    1  C4  UNL     1     -35.002   6.510   3.443  1.00 20.00     0.025 C 
HETATM    2  C5  UNL     1     -33.890   5.894   1.300  1.00 20.00     0.025 C 
HETATM    3  C9  UNL     1     -33.643   6.213   2.785  1.00 20.00     0.041 C 
ENDROOT
BRANCH   3   4
HETATM    4  C1  UNL     1     -32.771   7.471   2.900  1.00 20.00     0.266 C 
HETATM    5  O10 UNL     1     -32.598   8.100   3.937  1.00 20.00    -0.264 OA
BRANCH   4   6
HETATM    6  O11 UNL     1     -32.215   7.782   1.690  1.00 20.00    -0.321 OA
BRANCH   6   7
HETATM    7  C8  UNL     1     -32.018   9.177   1.439  1.00 20.00     0.174 C 
HETATM    8  C3  UNL     1     -32.441   9.487   0.019  1.00 20.00     0.034 C 
ENDBRANCH   6   7
ENDBRANCH   4   6
ENDBRANCH   3   4
BRANCH   3   9
HETATM    9  C7  UNL     1     -32.979   5.012   3.505  1.00 20.00     0.018 C 
BRANCH   9  10
HETATM   10  C6  UNL     1     -33.960   4.022   4.145  1.00 20.00    -0.003 C 
HETATM   11  C2  UNL     1     -33.225   2.844   4.769  1.00 20.00     0.005 C 
ENDBRANCH   9  10
ENDBRANCH   3   9
TORSDOF 5
ENDMDL
MODEL 7
REMARK VINA RESULT:      -0.5      1.813      4.924
REMARK  5 active torsions:
REMARK  status: ('A' for Active; 'I' for Inactive)
REMARK    1  A    between atoms: C1_1  and  C9_9 
REMARK    2  A    between atoms: C1_1  and  O11_11 
REMARK    3  A    between atoms: C6_6  and  C7_7 
REMARK    4  A    between atoms: C7_7  and  C9_9 
REMARK    5  A    between atoms: C8_8  and  O11_11 
ROOT
HETATM    1  C4  UNL     1     -33.280   7.480   4.850  1.00 20.00     0.025 C 
HETATM    2  C5  UNL     1     -34.746   8.750   3.285  1.00 20.00     0.025 C 
HETATM    3  C9  UNL     1     -34.031   7.406   3.508  1.00 20.00     0.041 C 
ENDROOT
BRANCH   3   4
HETATM    4  C1  UNL     1     -32.999   7.184   2.395  1.00 20.00     0.266 C 
HETATM    5  O10 UNL     1     -32.865   6.136   1.775  1.00 20.00    -0.264 OA
BRANCH   4   6
HETATM    6  O11 UNL     1     -32.260   8.316   2.192  1.00 20.00    -0.321 OA
BRANCH   6   7
HETATM    7  C8  UNL     1     -31.894   8.583   0.835  1.00 20.00     0.174 C 
HETATM    8  C3  UNL     1     -32.470   9.920   0.422  1.00 20.00     0.034 C 
ENDBRANCH   6   7
ENDBRANCH   4   6
ENDBRANCH   3   4
BRANCH   3   9
HETATM    9  C7  UNL     1     -35.051   6.240   3.558  1.00 20.00     0.018 C 
BRANCH   9  10
HETATM   10  C6  UNL     1     -34.775   5.187   4.639  1.00 20.00    -0.003 C 
HETATM   11  C2  UNL     1     -34.032   3.990   4.065  1.00 20.00     0.005 C 
ENDBRANCH   9  10
ENDBRANCH   3   9
TORSDOF 5
ENDMDL
MODEL 8
REMARK VINA RESULT:      -0.3      1.612      2.387
REMARK  5 active torsions:
REMARK  status: ('A' for Active; 'I' for Inactive)
REMARK    1  A    between atoms: C1_1  and  C9_9 
REMARK    2  A    between atoms: C1_1  and  O11_11 
REMARK    3  A    between atoms: C6_6  and  C7_7 
REMARK    4  A    between atoms: C7_7  and  C9_9 
REMARK    5  A    between atoms: C8_8  and  O11_11 
ROOT
HETATM    1  C4  UNL     1     -31.766   8.617   3.521  1.00 20.00     0.025 C 
HETATM    2  C5  UNL     1     -31.095   7.585   1.354  1.00 20.00     0.025 C 
HETATM    3  C9  UNL     1     -32.299   8.040   2.196  1.00 20.00     0.041 C 
ENDROOT
BRANCH   3   4
HETATM    4  C1  UNL     1     -33.182   6.828   2.524  1.00 20.00     0.266 C 
HETATM    5  O10 UNL     1     -33.268   5.827   1.824  1.00 20.00    -0.264 OA
BRANCH   4   6
HETATM    6  O11 UNL     1     -33.848   7.024   3.701  1.00 20.00    -0.321 OA
BRANCH   6   7
HETATM    7  C8  UNL     1     -35.170   6.479   3.763  1.00 20.00     0.174 C 
HETATM    8  C3  UNL     1     -35.118   5.138   4.462  1.00 20.00     0.034 C 
ENDBRANCH   6   7
ENDBRANCH   4   6
ENDBRANCH   3   4
BRANCH   3   9
HETATM    9  C7  UNL     1     -33.111   9.132   1.454  1.00 20.00     0.018 C 
BRANCH   9  10
HETATM   10  C6  UNL     1     -32.274  10.075   0.580  1.00 20.00    -0.003 C 
HETATM   11  C2  UNL     1     -32.777  10.086  -0.856  1.00 20.00     0.005 C 
ENDBRANCH   9  10
ENDBRANCH   3   9
TORSDOF 5
ENDMDL
MODEL 9
REMARK VINA RESULT:      -0.3      1.345      2.091
REMARK  5 active torsions:
REMARK  status: ('A' for Active; 'I' for Inactive)
REMARK    1  A    between atoms: C1_1  and  C9_9 
REMARK    2  A    between atoms: C1_1  and  O11_11 
REMARK    3  A    between atoms: C6_6  and  C7_7 
REMARK    4  A    between atoms: C7_7  and  C9_9 
REMARK    5  A    between atoms: C8_8  and  O11_11 
ROOT
HETATM    1  C4  UNL     1     -31.615   5.177   1.455  1.00 20.00     0.025 C 
HETATM    2  C5  UNL     1     -33.590   6.197   0.329  1.00 20.00     0.025 C 
HETATM    3  C9  UNL     1     -32.730   6.227   1.604  1.00 20.00     0.041 C 
ENDROOT
BRANCH   3   4
HETATM    4  C1  UNL     1     -33.593   5.839   2.812  1.00 20.00     0.266 C 
HETATM    5  O10 UNL     1     -33.476   4.792   3.438  1.00 20.00    -0.264 OA
BRANCH   4   6
HETATM    6  O11 UNL     1     -34.500   6.823   3.091  1.00 20.00    -0.321 OA
BRANCH   6   7
HETATM    7  C8  UNL     1     -34.636   7.168   4.473  1.00 20.00     0.174 C 
HETATM    8  C3  UNL     1     -33.504   8.094   4.863  1.00 20.00     0.034 C 
ENDBRANCH   6   7
ENDBRANCH   4   6
ENDBRANCH   3   4
BRANCH   3   9
HETATM    9  C7  UNL     1     -32.092   7.625   1.807  1.00 20.00     0.018 C 
BRANCH   9  10
HETATM   10  C6  UNL     1     -31.769   8.380   0.512  1.00 20.00    -0.003 C 
HETATM   11  C2  UNL     1     -32.461   9.735   0.477  1.00 20.00     0.005 C 
ENDBRANCH   9  10
ENDBRANCH   3   9
TORSDOF 5
ENDMDL
