MODEL 1
REMARK VINA RESULT:      -2.7      0.000      0.000
REMARK  2 active torsions:
REMARK  status: ('A' for Active; 'I' for Inactive)
REMARK    1  A    between atoms: C2_2  and  C5_5 
REMARK    2  A    between atoms: C5_5  and  C6_6 
ROOT
HETATM    1  C1  UNL     1     -33.649   7.275   3.203  1.00 20.00     0.223 C 
HETATM    2  C2  UNL     1     -32.788   7.111   2.236  1.00 20.00    -0.030 C 
HETATM    3  C3  UNL     1     -32.681   5.821   1.474  1.00 20.00     0.048 C 
HETATM    4  O7  UNL     1     -34.425   7.423   4.074  1.00 20.00    -0.284 OA
ENDROOT
BRANCH   2   5
HETATM    5  C5  UNL     1     -31.835   8.210   1.820  1.00 20.00     0.037 C 
BRANCH   5   6
HETATM    6  C6  UNL     1     -32.136   8.733   0.413  1.00 20.00    -0.000 C 
HETATM    7  C4  UNL     1     -32.541  10.198   0.442  1.00 20.00     0.005 C 
ENDBRANCH   5   6
ENDBRANCH   2   5
TORSDOF 2
ENDMDL
MODEL 2
REMARK VINA RESULT:      -2.6      1.731      2.473
REMARK  2 active torsions:
REMARK  status: ('A' for Active; 'I' for Inactive)
REMARK    1  A    between atoms: C2_2  and  C5_5 
REMARK    2  A    between atoms: C5_5  and  C6_6 
ROOT
HETATM    1  C1  UNL     1     -33.999   5.032   3.689  1.00 20.00     0.223 C 
HETATM    2  C2  UNL     1     -33.785   6.239   3.240  1.00 20.00    -0.030 C 
HETATM    3  C3  UNL     1     -34.266   7.459   3.974  1.00 20.00     0.048 C 
HETATM    4  O7  UNL     1     -34.192   3.945   4.093  1.00 20.00    -0.284 OA
ENDROOT
BRANCH   2   5
HETATM    5  C5  UNL     1     -33.042   6.490   1.947  1.00 20.00     0.037 C 
BRANCH   5   6
HETATM    6  C6  UNL     1     -32.032   7.633   2.075  1.00 20.00    -0.000 C 
HETATM    7  C4  UNL     1     -32.262   8.697   1.013  1.00 20.00     0.005 C 
ENDBRANCH   5   6
ENDBRANCH   2   5
TORSDOF 2
ENDMDL
MODEL 3
REMARK VINA RESULT:      -2.6      2.890      4.913
REMARK  2 active torsions:
REMARK  status: ('A' for Active; 'I' for Inactive)
REMARK    1  A    between atoms: C2_2  and  C5_5 
REMARK    2  A    between atoms: C5_5  and  C6_6 
ROOT
HETATM    1  C1  UNL     1     -33.360   6.037   2.417  1.00 20.00     0.223 C 
HETATM    2  C2  UNL     1     -34.066   6.117   3.512  1.00 20.00    -0.030 C 
HETATM    3  C3  UNL     1     -34.414   7.437   4.140  1.00 20.00     0.048 C 
HETATM    4  O7  UNL     1     -32.724   5.964   1.431  1.00 20.00    -0.284 OA
ENDROOT
BRANCH   2   5
HETATM    5  C5  UNL     1     -34.579   4.886   4.224  1.00 20.00     0.037 C 
BRANCH   5   6
HETATM    6  C6  UNL     1     -33.762   3.638   3.879  1.00 20.00    -0.000 C 
HETATM    7  C4  UNL     1     -33.067   3.073   5.108  1.00 20.00     0.005 C 
ENDBRANCH   5   6
ENDBRANCH   2   5
TORSDOF 2
ENDMDL
MODEL 4
REMARK VINA RESULT:      -2.6      1.945      3.527
REMARK  2 active torsions:
REMARK  status: ('A' for Active; 'I' for Inactive)
REMARK    1  A    between atoms: C2_2  and  C5_5 
REMARK    2  A    between atoms: C5_5  and  C6_6 
ROOT
HETATM    1  C1  UNL     1     -32.357   8.278   1.410  1.00 20.00     0.223 C 
HETATM    2  C2  UNL     1     -32.660   7.220   2.111  1.00 20.00    -0.030 C 
HETATM    3  C3  UNL     1     -32.634   5.839   1.520  1.00 20.00     0.048 C 
HETATM    4  O7  UNL     1     -32.084   9.232   0.779  1.00 20.00    -0.284 OA
ENDROOT
BRANCH   2   5
HETATM    5  C5  UNL     1     -33.062   7.313   3.565  1.00 20.00     0.037 C 
BRANCH   5   6
HETATM    6  C6  UNL     1     -34.578   7.430   3.739  1.00 20.00    -0.000 C 
HETATM    7  C4  UNL     1     -35.197   6.095   4.123  1.00 20.00     0.005 C 
ENDBRANCH   5   6
ENDBRANCH   2   5
TORSDOF 2
ENDMDL
MODEL 5
REMARK VINA RESULT:      -2.5      1.602      2.067
REMARK  2 active torsions:
REMARK  status: ('A' for Active; 'I' for Inactive)
REMARK    1  A    between atoms: C2_2  and  C5_5 
REMARK    2  A    between atoms: C5_5  and  C6_6 
ROOT
HETATM    1  C1  UNL     1     -32.779   6.129   1.763  1.00 20.00     0.223 C 
HETATM    2  C2  UNL     1     -32.934   7.216   2.469  1.00 20.00    -0.030 C 
HETATM    3  C3  UNL     1     -33.915   7.296   3.604  1.00 20.00     0.048 C 
HETATM    4  O7  UNL     1     -32.640   5.151   1.127  1.00 20.00    -0.284 OA
ENDROOT
BRANCH   2   5
HETATM    5  C5  UNL     1     -32.137   8.471   2.190  1.00 20.00     0.037 C 
BRANCH   5   6
HETATM    6  C6  UNL     1     -31.991   8.739   0.690  1.00 20.00    -0.000 C 
HETATM    7  C4  UNL     1     -32.528  10.113   0.318  1.00 20.00     0.005 C 
ENDBRANCH   5   6
ENDBRANCH   2   5
TORSDOF 2
ENDMDL
MODEL 6
REMARK VINA RESULT:      -2.3      2.462      4.498
REMARK  2 active torsions:
REMARK  status: ('A' for Active; 'I' for Inactive)
REMARK    1  A    between atoms: C2_2  and  C5_5 
REMARK    2  A    between atoms: C5_5  and  C6_6 
ROOT
HETATM    1  C1  UNL     1     -32.708   7.424   2.286  1.00 20.00     0.223 C 
HETATM    2  C2  UNL     1     -33.509   6.699   3.018  1.00 20.00    -0.030 C 
HETATM    3  C3  UNL     1     -34.420   7.310   4.045  1.00 20.00     0.048 C 
HETATM    4  O7  UNL     1     -31.985   8.076   1.626  1.00 20.00    -0.284 OA
ENDROOT
BRANCH   2   5
HETATM    5  C5  UNL     1     -33.571   5.194   2.885  1.00 20.00     0.037 C 
BRANCH   5   6
HETATM    6  C6  UNL     1     -34.245   4.536   4.092  1.00 20.00    -0.000 C 
HETATM    7  C4  UNL     1     -33.511   3.272   4.514  1.00 20.00     0.005 C 
ENDBRANCH   5   6
ENDBRANCH   2   5
TORSDOF 2
ENDMDL
MODEL 7
REMARK VINA RESULT:      -2.3      1.967      3.866
REMARK  2 active torsions:
REMARK  status: ('A' for Active; 'I' for Inactive)
REMARK    1  A    between atoms: C2_2  and  C5_5 
REMARK    2  A    between atoms: C5_5  and  C6_6 
ROOT
HETATM    1  C1  UNL     1     -32.851   6.087   1.755  1.00 20.00     0.223 C 
HETATM    2  C2  UNL     1     -32.866   7.187   2.456  1.00 20.00    -0.030 C 
HETATM    3  C3  UNL     1     -32.068   8.396   2.058  1.00 20.00     0.048 C 
HETATM    4  O7  UNL     1     -32.837   5.094   1.124  1.00 20.00    -0.284 OA
ENDROOT
BRANCH   2   5
HETATM    5  C5  UNL     1     -33.686   7.319   3.719  1.00 20.00     0.037 C 
BRANCH   5   6
HETATM    6  C6  UNL     1     -35.059   6.654   3.587  1.00 20.00    -0.000 C 
HETATM    7  C4  UNL     1     -35.131   5.366   4.392  1.00 20.00     0.005 C 
ENDBRANCH   5   6
ENDBRANCH   2   5
TORSDOF 2
ENDMDL
MODEL 8
REMARK VINA RESULT:      -2.1      3.070      3.729
REMARK  2 active torsions:
REMARK  status: ('A' for Active; 'I' for Inactive)
REMARK    1  A    between atoms: C2_2  and  C5_5 
REMARK    2  A    between atoms: C5_5  and  C6_6 
ROOT
HETATM    1  C1  UNL     1     -33.909   4.182   4.003  1.00 20.00     0.223 C 
HETATM    2  C2  UNL     1     -34.025   5.338   3.408  1.00 20.00    -0.030 C 
HETATM    3  C3  UNL     1     -33.255   5.673   2.162  1.00 20.00     0.048 C 
HETATM    4  O7  UNL     1     -33.805   3.141   4.540  1.00 20.00    -0.284 OA
ENDROOT
BRANCH   2   5
HETATM    5  C5  UNL     1     -34.941   6.419   3.935  1.00 20.00     0.037 C 
BRANCH   5   6
HETATM    6  C6  UNL     1     -34.294   7.805   3.870  1.00 20.00    -0.000 C 
HETATM    7  C4  UNL     1     -33.342   8.028   5.036  1.00 20.00     0.005 C 
ENDBRANCH   5   6
ENDBRANCH   2   5
TORSDOF 2
ENDMDL
MODEL 9
REMARK VINA RESULT:      -2.0      1.943      3.004
REMARK  2 active torsions:
REMARK  status: ('A' for Active; 'I' for Inactive)
REMARK    1  A    between atoms: C2_2  and  C5_5 
REMARK    2  A    between atoms: C5_5  and  C6_6 
ROOT
HETATM    1  C1  UNL     1     -34.742   6.564   3.982  1.00 20.00     0.223 C 
HETATM    2  C2  UNL     1     -33.728   7.353   3.753  1.00 20.00    -0.030 C 
HETATM    3  C3  UNL     1     -33.243   8.343   4.773  1.00 20.00     0.048 C 
HETATM    4  O7  UNL     1     -35.656   5.853   4.188  1.00 20.00    -0.284 OA
ENDROOT
BRANCH   2   5
HETATM    5  C5  UNL     1     -32.976   7.327   2.441  1.00 20.00     0.037 C 
BRANCH   5   6
HETATM    6  C6  UNL     1     -33.158   6.001   1.698  1.00 20.00    -0.000 C 
HETATM    7  C4  UNL     1     -31.830   5.466   1.184  1.00 20.00     0.005 C 
ENDBRANCH   5   6
ENDBRANCH   2   5
TORSDOF 2
ENDMDL
