MODEL 1
REMARK VINA RESULT:      -1.6      0.000      0.000
REMARK  0 active torsions:
REMARK  status: ('A' for Active; 'I' for Inactive)
ROOT
HETATM    1  C1  UNL     1     -31.936   6.518   1.190  1.00 20.00     0.166 A 
HETATM    2  C2  UNL     1     -33.413   5.944   2.653  1.00 20.00     0.048 A 
HETATM    3  C3  UNL     1     -33.295   7.267   2.975  1.00 20.00     0.008 A 
HETATM    4  C4  UNL     1     -34.386   5.246   3.514  1.00 20.00     0.061 C 
HETATM    5  C5  UNL     1     -34.157   7.693   4.094  1.00 20.00     0.048 C 
HETATM    6  C6  UNL     1     -35.100   6.448   4.222  1.00 20.00     0.011 C 
HETATM    7  N7  UNL     1     -32.641   5.487   1.628  1.00 20.00    -0.257 NA
HETATM    8  S8  UNL     1     -32.185   8.042   1.995  1.00 20.00    -0.085 SA
ENDROOT
TORSDOF 0
ENDMDL
MODEL 2
REMARK VINA RESULT:      -1.0      1.375      1.986
REMARK  0 active torsions:
REMARK  status: ('A' for Active; 'I' for Inactive)
ROOT
HETATM    1  C1  UNL     1     -31.689   7.406   1.449  1.00 20.00     0.166 A 
HETATM    2  C2  UNL     1     -33.209   7.523   2.974  1.00 20.00     0.048 A 
HETATM    3  C3  UNL     1     -33.396   6.227   2.584  1.00 20.00     0.008 A 
HETATM    4  C4  UNL     1     -34.140   7.921   4.047  1.00 20.00     0.061 C 
HETATM    5  C5  UNL     1     -34.471   5.527   3.314  1.00 20.00     0.048 C 
HETATM    6  C6  UNL     1     -34.727   6.536   4.485  1.00 20.00     0.011 C 
HETATM    7  N7  UNL     1     -32.232   8.225   2.336  1.00 20.00    -0.257 NA
HETATM    8  S8  UNL     1     -32.338   5.793   1.365  1.00 20.00    -0.085 SA
ENDROOT
TORSDOF 0
ENDMDL
MODEL 3
REMARK VINA RESULT:      -0.9      1.552      2.937
REMARK  0 active torsions:
REMARK  status: ('A' for Active; 'I' for Inactive)
ROOT
HETATM    1  C1  UNL     1     -34.796   6.279   4.247  1.00 20.00     0.166 A 
HETATM    2  C2  UNL     1     -33.448   6.151   2.569  1.00 20.00     0.048 A 
HETATM    3  C3  UNL     1     -33.204   7.442   2.941  1.00 20.00     0.008 A 
HETATM    4  C4  UNL     1     -32.647   5.748   1.397  1.00 20.00     0.061 C 
HETATM    5  C5  UNL     1     -32.208   8.133   2.101  1.00 20.00     0.048 C 
HETATM    6  C6  UNL     1     -31.613   6.922   1.304  1.00 20.00     0.011 C 
HETATM    7  N7  UNL     1     -34.361   5.458   3.305  1.00 20.00    -0.257 NA
HETATM    8  S8  UNL     1     -34.123   7.885   4.266  1.00 20.00    -0.085 SA
ENDROOT
TORSDOF 0
ENDMDL
MODEL 4
REMARK VINA RESULT:      -0.9      2.038      3.499
REMARK  0 active torsions:
REMARK  status: ('A' for Active; 'I' for Inactive)
ROOT
HETATM    1  C1  UNL     1     -34.915   6.369   4.262  1.00 20.00     0.166 A 
HETATM    2  C2  UNL     1     -33.385   7.307   3.065  1.00 20.00     0.048 A 
HETATM    3  C3  UNL     1     -33.233   6.019   2.637  1.00 20.00     0.008 A 
HETATM    4  C4  UNL     1     -32.441   8.229   2.407  1.00 20.00     0.061 C 
HETATM    5  C5  UNL     1     -32.172   5.842   1.627  1.00 20.00     0.048 C 
HETATM    6  C6  UNL     1     -31.885   7.335   1.246  1.00 20.00     0.011 C 
HETATM    7  N7  UNL     1     -34.348   7.537   4.001  1.00 20.00    -0.257 NA
HETATM    8  S8  UNL     1     -34.306   4.987   3.396  1.00 20.00    -0.085 SA
ENDROOT
TORSDOF 0
ENDMDL
MODEL 5
REMARK VINA RESULT:      -0.2      1.522      2.112
REMARK  0 active torsions:
REMARK  status: ('A' for Active; 'I' for Inactive)
ROOT
HETATM    1  C1  UNL     1     -32.456   7.712   2.062  1.00 20.00     0.166 A 
HETATM    2  C2  UNL     1     -33.937   6.725   3.281  1.00 20.00     0.048 A 
HETATM    3  C3  UNL     1     -33.297   5.624   2.787  1.00 20.00     0.008 A 
HETATM    4  C4  UNL     1     -35.048   6.367   4.182  1.00 20.00     0.061 C 
HETATM    5  C5  UNL     1     -33.854   4.342   3.261  1.00 20.00     0.048 C 
HETATM    6  C6  UNL     1     -34.781   4.841   4.421  1.00 20.00     0.011 C 
HETATM    7  N7  UNL     1     -33.473   7.941   2.879  1.00 20.00    -0.257 NA
HETATM    8  S8  UNL     1     -32.045   6.047   1.764  1.00 20.00    -0.085 SA
ENDROOT
TORSDOF 0
ENDMDL
MODEL 6
REMARK VINA RESULT:       0.9      1.713      2.391
REMARK  0 active torsions:
REMARK  status: ('A' for Active; 'I' for Inactive)
ROOT
HETATM    1  C1  UNL     1     -33.158   8.547   3.211  1.00 20.00     0.166 A 
HETATM    2  C2  UNL     1     -34.187   6.736   3.772  1.00 20.00     0.048 A 
HETATM    3  C3  UNL     1     -33.309   6.212   2.866  1.00 20.00     0.008 A 
HETATM    4  C4  UNL     1     -35.068   5.706   4.355  1.00 20.00     0.061 C 
HETATM    5  C5  UNL     1     -33.437   4.754   2.678  1.00 20.00     0.048 C 
HETATM    6  C6  UNL     1     -34.361   4.387   3.889  1.00 20.00     0.011 C 
HETATM    7  N7  UNL     1     -34.121   8.079   3.990  1.00 20.00    -0.257 NA
HETATM    8  S8  UNL     1     -32.322   7.392   2.212  1.00 20.00    -0.085 SA
ENDROOT
TORSDOF 0
ENDMDL
