MODEL 1
REMARK VINA RESULT:      -1.7      0.000      0.000
REMARK  2 active torsions:
REMARK  status: ('A' for Active; 'I' for Inactive)
REMARK    1  A    between atoms: C3_3  and  C10_10 
REMARK    2  A    between atoms: C7_7  and  C10_10 
ROOT
HETATM    1  C1  UNL     1     -32.397   6.517   1.217  1.00 20.00    -0.024 C 
HETATM    2  C2  UNL     1     -32.382   7.750   1.751  1.00 20.00    -0.087 C 
HETATM    3  C4  UNL     1     -33.046   5.333   1.873  1.00 20.00     0.032 C 
HETATM    4  C5  UNL     1     -33.057   8.059   3.063  1.00 20.00     0.034 C 
HETATM    5  C6  UNL     1     -34.000   6.954   3.547  1.00 20.00     0.010 C 
HETATM    6  C7  UNL     1     -33.374   5.569   3.357  1.00 20.00    -0.001 C 
HETATM    7  C8  UNL     1     -31.689   8.898   1.076  1.00 20.00     0.043 C 
ENDROOT
BRANCH   6   8
HETATM    8  C10 UNL     1     -34.292   4.471   3.888  1.00 20.00     0.047 C 
HETATM    9  C9  UNL     1     -35.475   5.066   4.639  1.00 20.00     0.017 C 
BRANCH   8  10
HETATM   10  C3  UNL     1     -33.483   3.533   4.763  1.00 20.00     0.235 C 
HETATM   11  O11 UNL     1     -33.183   2.382   4.460  1.00 20.00    -0.306 OA
ENDBRANCH   8  10
ENDBRANCH   6   8
TORSDOF 2
ENDMDL
MODEL 2
REMARK VINA RESULT:      -1.4      2.890      4.991
REMARK  2 active torsions:
REMARK  status: ('A' for Active; 'I' for Inactive)
REMARK    1  A    between atoms: C3_3  and  C10_10 
REMARK    2  A    between atoms: C7_7  and  C10_10 
ROOT
HETATM    1  C1  UNL     1     -33.739   5.267   2.770  1.00 20.00    -0.024 C 
HETATM    2  C2  UNL     1     -34.460   5.835   3.752  1.00 20.00    -0.087 C 
HETATM    3  C4  UNL     1     -32.832   6.033   1.852  1.00 20.00     0.032 C 
HETATM    4  C5  UNL     1     -34.391   7.314   4.038  1.00 20.00     0.034 C 
HETATM    5  C6  UNL     1     -33.223   8.022   3.345  1.00 20.00     0.010 C 
HETATM    6  C7  UNL     1     -33.071   7.551   1.895  1.00 20.00    -0.001 C 
HETATM    7  C8  UNL     1     -35.382   5.035   4.623  1.00 20.00     0.043 C 
ENDROOT
BRANCH   6   8
HETATM    8  C10 UNL     1     -31.940   8.296   1.189  1.00 20.00     0.047 C 
HETATM    9  C9  UNL     1     -30.765   8.522   2.130  1.00 20.00     0.017 C 
BRANCH   8  10
HETATM   10  C3  UNL     1     -32.480   9.601   0.636  1.00 20.00     0.235 C 
HETATM   11  O11 UNL     1     -32.707   9.814  -0.551  1.00 20.00    -0.306 OA
ENDBRANCH   8  10
ENDBRANCH   6   8
TORSDOF 2
ENDMDL
MODEL 3
REMARK VINA RESULT:      -1.1      0.420      1.567
REMARK  2 active torsions:
REMARK  status: ('A' for Active; 'I' for Inactive)
REMARK    1  A    between atoms: C3_3  and  C10_10 
REMARK    2  A    between atoms: C7_7  and  C10_10 
ROOT
HETATM    1  C1  UNL     1     -33.006   8.099   2.903  1.00 20.00    -0.024 C 
HETATM    2  C2  UNL     1     -32.324   7.882   1.765  1.00 20.00    -0.087 C 
HETATM    3  C4  UNL     1     -33.746   7.027   3.649  1.00 20.00     0.032 C 
HETATM    4  C5  UNL     1     -32.216   6.509   1.151  1.00 20.00     0.034 C 
HETATM    5  C6  UNL     1     -32.664   5.379   2.082  1.00 20.00     0.010 C 
HETATM    6  C7  UNL     1     -33.954   5.749   2.820  1.00 20.00    -0.001 C 
HETATM    7  C8  UNL     1     -31.629   8.991   1.033  1.00 20.00     0.043 C 
ENDROOT
BRANCH   6   8
HETATM    8  C10 UNL     1     -34.431   4.601   3.708  1.00 20.00     0.047 C 
HETATM    9  C9  UNL     1     -35.363   5.109   4.800  1.00 20.00     0.017 C 
BRANCH   8  10
HETATM   10  C3  UNL     1     -33.222   3.889   4.283  1.00 20.00     0.235 C 
HETATM   11  O11 UNL     1     -33.263   2.817   4.879  1.00 20.00    -0.306 OA
ENDBRANCH   8  10
ENDBRANCH   6   8
TORSDOF 2
ENDMDL
MODEL 4
REMARK VINA RESULT:      -0.3      2.853      5.255
REMARK  2 active torsions:
REMARK  status: ('A' for Active; 'I' for Inactive)
REMARK    1  A    between atoms: C3_3  and  C10_10 
REMARK    2  A    between atoms: C7_7  and  C10_10 
ROOT
HETATM    1  C1  UNL     1     -33.977   7.138   3.684  1.00 20.00    -0.024 C 
HETATM    2  C2  UNL     1     -33.773   5.877   3.266  1.00 20.00    -0.087 C 
HETATM    3  C4  UNL     1     -33.399   8.345   3.003  1.00 20.00     0.032 C 
HETATM    4  C5  UNL     1     -32.955   5.567   2.038  1.00 20.00     0.034 C 
HETATM    5  C6  UNL     1     -32.667   6.790   1.163  1.00 20.00     0.010 C 
HETATM    6  C7  UNL     1     -32.272   8.000   2.016  1.00 20.00    -0.001 C 
HETATM    7  C8  UNL     1     -34.341   4.698   3.998  1.00 20.00     0.043 C 
ENDROOT
BRANCH   6   8
HETATM    8  C10 UNL     1     -31.933   9.205   1.141  1.00 20.00     0.047 C 
HETATM    9  C9  UNL     1     -32.674  10.448   1.616  1.00 20.00     0.017 C 
BRANCH   8  10
HETATM   10  C3  UNL     1     -32.255   8.872  -0.303  1.00 20.00     0.235 C 
HETATM   11  O11 UNL     1     -32.896   9.595  -1.058  1.00 20.00    -0.306 OA
ENDBRANCH   8  10
ENDBRANCH   6   8
TORSDOF 2
ENDMDL
MODEL 5
REMARK VINA RESULT:      -0.1      2.908      5.111
REMARK  2 active torsions:
REMARK  status: ('A' for Active; 'I' for Inactive)
REMARK    1  A    between atoms: C3_3  and  C10_10 
REMARK    2  A    between atoms: C7_7  and  C10_10 
ROOT
HETATM    1  C1  UNL     1     -33.055   5.572   2.181  1.00 20.00    -0.024 C 
HETATM    2  C2  UNL     1     -33.818   5.775   3.268  1.00 20.00    -0.087 C 
HETATM    3  C4  UNL     1     -32.432   6.681   1.382  1.00 20.00     0.032 C 
HETATM    4  C5  UNL     1     -34.090   7.157   3.805  1.00 20.00     0.034 C 
HETATM    5  C6  UNL     1     -33.185   8.239   3.211  1.00 20.00     0.010 C 
HETATM    6  C7  UNL     1     -33.030   8.062   1.697  1.00 20.00    -0.001 C 
HETATM    7  C8  UNL     1     -34.451   4.638   4.016  1.00 20.00     0.043 C 
ENDROOT
BRANCH   6   8
HETATM    8  C10 UNL     1     -32.170   9.172   1.096  1.00 20.00     0.047 C 
HETATM    9  C9  UNL     1     -32.624  10.539   1.590  1.00 20.00     0.017 C 
BRANCH   8  10
HETATM   10  C3  UNL     1     -32.223   9.071  -0.416  1.00 20.00     0.235 C 
HETATM   11  O11 UNL     1     -32.981   9.719  -1.131  1.00 20.00    -0.306 OA
ENDBRANCH   8  10
ENDBRANCH   6   8
TORSDOF 2
ENDMDL
MODEL 6
REMARK VINA RESULT:      -0.1      1.707      2.520
REMARK  2 active torsions:
REMARK  status: ('A' for Active; 'I' for Inactive)
REMARK    1  A    between atoms: C3_3  and  C10_10 
REMARK    2  A    between atoms: C7_7  and  C10_10 
ROOT
HETATM    1  C1  UNL     1     -32.342   8.424   2.501  1.00 20.00    -0.024 C 
HETATM    2  C2  UNL     1     -31.931   7.925   1.322  1.00 20.00    -0.087 C 
HETATM    3  C4  UNL     1     -33.085   7.623   3.530  1.00 20.00     0.032 C 
HETATM    4  C5  UNL     1     -32.158   6.484   0.943  1.00 20.00     0.034 C 
HETATM    5  C6  UNL     1     -32.593   5.599   2.115  1.00 20.00     0.010 C 
HETATM    6  C7  UNL     1     -33.646   6.302   2.979  1.00 20.00    -0.001 C 
HETATM    7  C8  UNL     1     -31.222   8.773   0.307  1.00 20.00     0.043 C 
ENDROOT
BRANCH   6   8
HETATM    8  C10 UNL     1     -34.119   5.399   4.116  1.00 20.00     0.047 C 
HETATM    9  C9  UNL     1     -33.785   3.942   3.828  1.00 20.00     0.017 C 
BRANCH   8  10
HETATM   10  C3  UNL     1     -35.607   5.608   4.324  1.00 20.00     0.235 C 
HETATM   11  O11 UNL     1     -36.306   6.357   3.650  1.00 20.00    -0.306 OA
ENDBRANCH   8  10
ENDBRANCH   6   8
TORSDOF 2
ENDMDL
MODEL 7
REMARK VINA RESULT:       1.2      2.385      4.586
REMARK  2 active torsions:
REMARK  status: ('A' for Active; 'I' for Inactive)
REMARK    1  A    between atoms: C3_3  and  C10_10 
REMARK    2  A    between atoms: C7_7  and  C10_10 
ROOT
HETATM    1  C1  UNL     1     -34.089   4.304   3.925  1.00 20.00    -0.024 C 
HETATM    2  C2  UNL     1     -34.958   5.157   4.492  1.00 20.00    -0.087 C 
HETATM    3  C4  UNL     1     -33.174   4.676   2.794  1.00 20.00     0.032 C 
HETATM    4  C5  UNL     1     -35.067   6.595   4.052  1.00 20.00     0.034 C 
HETATM    5  C6  UNL     1     -33.911   7.056   3.159  1.00 20.00     0.010 C 
HETATM    6  C7  UNL     1     -33.566   5.995   2.109  1.00 20.00    -0.001 C 
HETATM    7  C8  UNL     1     -35.880   4.732   5.597  1.00 20.00     0.043 C 
ENDROOT
BRANCH   6   8
HETATM    8  C10 UNL     1     -32.451   6.476   1.184  1.00 20.00     0.047 C 
HETATM    9  C9  UNL     1     -31.343   5.436   1.082  1.00 20.00     0.017 C 
BRANCH   8  10
HETATM   10  C3  UNL     1     -31.931   7.808   1.690  1.00 20.00     0.235 C 
HETATM   11  O11 UNL     1     -32.008   8.865   1.073  1.00 20.00    -0.306 OA
ENDBRANCH   8  10
ENDBRANCH   6   8
TORSDOF 2
ENDMDL
