MODEL 1
REMARK VINA RESULT:      -2.1      0.000      0.000
REMARK  3 active torsions:
REMARK  status: ('A' for Active; 'I' for Inactive)
REMARK    1  A    between atoms: C1_1  and  C3_3 
REMARK    2  A    between atoms: C2_2  and  C7_7 
REMARK    3  A    between atoms: C3_3  and  O9_9 
ROOT
HETATM    1  C1  UNL     1     -32.344   6.594   1.841  1.00 20.00     0.078 C 
HETATM    2  C2  UNL     1     -33.353   6.171   2.612  1.00 20.00    -0.017 C 
ENDROOT
BRANCH   1   3
HETATM    3  C3  UNL     1     -32.026   8.037   1.764  1.00 20.00     0.282 C 
HETATM    4  O8  UNL     1     -31.302   8.644   2.537  1.00 20.00    -0.260 OA
BRANCH   3   5
HETATM    5  O9  UNL     1     -32.686   8.547   0.689  1.00 20.00    -0.323 OA
HETATM    6  C6  UNL     1     -32.387   9.911   0.374  1.00 20.00     0.213 C 
ENDBRANCH   3   5
ENDBRANCH   1   3
BRANCH   2   7
HETATM    7  C7  UNL     1     -34.214   7.100   3.432  1.00 20.00    -0.000 C 
HETATM    8  C4  UNL     1     -35.462   6.367   3.925  1.00 20.00     0.013 C 
HETATM    9  C5  UNL     1     -33.416   7.656   4.612  1.00 20.00     0.013 C 
ENDBRANCH   2   7
TORSDOF 3
ENDMDL
MODEL 2
REMARK VINA RESULT:      -1.8      1.024      1.702
REMARK  3 active torsions:
REMARK  status: ('A' for Active; 'I' for Inactive)
REMARK    1  A    between atoms: C1_1  and  C3_3 
REMARK    2  A    between atoms: C2_2  and  C7_7 
REMARK    3  A    between atoms: C3_3  and  O9_9 
ROOT
HETATM    1  C1  UNL     1     -32.405   8.283   3.373  1.00 20.00     0.078 C 
HETATM    2  C2  UNL     1     -33.324   7.530   3.991  1.00 20.00    -0.017 C 
ENDROOT
BRANCH   1   3
HETATM    3  C3  UNL     1     -32.181   8.132   1.919  1.00 20.00     0.282 C 
HETATM    4  O8  UNL     1     -31.525   7.246   1.394  1.00 20.00    -0.260 OA
BRANCH   3   5
HETATM    5  O9  UNL     1     -32.831   9.150   1.294  1.00 20.00    -0.323 OA
HETATM    6  C6  UNL     1     -32.235   9.604   0.074  1.00 20.00     0.213 C 
ENDBRANCH   3   5
ENDBRANCH   1   3
BRANCH   2   7
HETATM    7  C7  UNL     1     -34.170   6.505   3.276  1.00 20.00    -0.000 C 
HETATM    8  C4  UNL     1     -33.473   5.144   3.289  1.00 20.00     0.013 C 
HETATM    9  C5  UNL     1     -35.549   6.409   3.929  1.00 20.00     0.013 C 
ENDBRANCH   2   7
TORSDOF 3
ENDMDL
MODEL 3
REMARK VINA RESULT:      -1.7      0.940      1.299
REMARK  3 active torsions:
REMARK  status: ('A' for Active; 'I' for Inactive)
REMARK    1  A    between atoms: C1_1  and  C3_3 
REMARK    2  A    between atoms: C2_2  and  C7_7 
REMARK    3  A    between atoms: C3_3  and  O9_9 
ROOT
HETATM    1  C1  UNL     1     -32.465   6.726   1.233  1.00 20.00     0.078 C 
HETATM    2  C2  UNL     1     -33.146   5.780   1.893  1.00 20.00    -0.017 C 
ENDROOT
BRANCH   1   3
HETATM    3  C3  UNL     1     -32.116   7.994   1.910  1.00 20.00     0.282 C 
HETATM    4  O8  UNL     1     -31.298   8.114   2.808  1.00 20.00    -0.260 OA
BRANCH   3   5
HETATM    5  O9  UNL     1     -32.868   8.980   1.351  1.00 20.00    -0.323 OA
HETATM    6  C6  UNL     1     -32.259   9.674   0.258  1.00 20.00     0.213 C 
ENDBRANCH   3   5
ENDBRANCH   1   3
BRANCH   2   7
HETATM    7  C7  UNL     1     -33.593   5.931   3.326  1.00 20.00    -0.000 C 
HETATM    8  C4  UNL     1     -34.823   6.835   3.403  1.00 20.00     0.013 C 
HETATM    9  C5  UNL     1     -33.895   4.560   3.932  1.00 20.00     0.013 C 
ENDBRANCH   2   7
TORSDOF 3
ENDMDL
MODEL 4
REMARK VINA RESULT:      -1.6      2.427      4.283
REMARK  3 active torsions:
REMARK  status: ('A' for Active; 'I' for Inactive)
REMARK    1  A    between atoms: C1_1  and  C3_3 
REMARK    2  A    between atoms: C2_2  and  C7_7 
REMARK    3  A    between atoms: C3_3  and  O9_9 
ROOT
HETATM    1  C1  UNL     1     -33.592   7.424   4.162  1.00 20.00     0.078 C 
HETATM    2  C2  UNL     1     -32.770   8.012   3.283  1.00 20.00    -0.017 C 
ENDROOT
BRANCH   1   3
HETATM    3  C3  UNL     1     -34.549   6.393   3.705  1.00 20.00     0.282 C 
HETATM    4  O8  UNL     1     -35.750   6.558   3.562  1.00 20.00    -0.260 OA
BRANCH   3   5
HETATM    5  O9  UNL     1     -33.847   5.249   3.482  1.00 20.00    -0.323 OA
HETATM    6  C6  UNL     1     -34.157   4.157   4.354  1.00 20.00     0.213 C 
ENDBRANCH   3   5
ENDBRANCH   1   3
BRANCH   2   7
HETATM    7  C7  UNL     1     -32.759   7.679   1.811  1.00 20.00    -0.000 C 
HETATM    8  C4  UNL     1     -32.340   8.904   0.996  1.00 20.00     0.013 C 
HETATM    9  C5  UNL     1     -31.817   6.506   1.541  1.00 20.00     0.013 C 
ENDBRANCH   2   7
TORSDOF 3
ENDMDL
MODEL 5
REMARK VINA RESULT:      -1.6      1.519      4.070
REMARK  3 active torsions:
REMARK  status: ('A' for Active; 'I' for Inactive)
REMARK    1  A    between atoms: C1_1  and  C3_3 
REMARK    2  A    between atoms: C2_2  and  C7_7 
REMARK    3  A    between atoms: C3_3  and  O9_9 
ROOT
HETATM    1  C1  UNL     1     -31.589   7.695   2.096  1.00 20.00     0.078 C 
HETATM    2  C2  UNL     1     -31.493   8.808   1.357  1.00 20.00    -0.017 C 
ENDROOT
BRANCH   1   3
HETATM    3  C3  UNL     1     -32.875   6.970   2.178  1.00 20.00     0.282 C 
HETATM    4  O8  UNL     1     -33.235   6.081   1.422  1.00 20.00    -0.260 OA
BRANCH   3   5
HETATM    5  O9  UNL     1     -33.566   7.475   3.235  1.00 20.00    -0.323 OA
HETATM    6  C6  UNL     1     -34.577   6.618   3.776  1.00 20.00     0.213 C 
ENDBRANCH   3   5
ENDBRANCH   1   3
BRANCH   2   7
HETATM    7  C7  UNL     1     -32.650   9.386   0.579  1.00 20.00    -0.000 C 
HETATM    8  C4  UNL     1     -32.828  10.866   0.919  1.00 20.00     0.013 C 
HETATM    9  C5  UNL     1     -32.421   9.203  -0.922  1.00 20.00     0.013 C 
ENDBRANCH   2   7
TORSDOF 3
ENDMDL
MODEL 6
REMARK VINA RESULT:      -1.4      2.963      4.447
REMARK  3 active torsions:
REMARK  status: ('A' for Active; 'I' for Inactive)
REMARK    1  A    between atoms: C1_1  and  C3_3 
REMARK    2  A    between atoms: C2_2  and  C7_7 
REMARK    3  A    between atoms: C3_3  and  O9_9 
ROOT
HETATM    1  C1  UNL     1     -35.059   5.769   3.802  1.00 20.00     0.078 C 
HETATM    2  C2  UNL     1     -34.663   7.042   3.937  1.00 20.00    -0.017 C 
ENDROOT
BRANCH   1   3
HETATM    3  C3  UNL     1     -34.058   4.700   3.597  1.00 20.00     0.282 C 
HETATM    4  O8  UNL     1     -33.231   4.669   2.699  1.00 20.00    -0.260 OA
BRANCH   3   5
HETATM    5  O9  UNL     1     -34.233   3.778   4.581  1.00 20.00    -0.323 OA
HETATM    6  C6  UNL     1     -33.145   2.868   4.773  1.00 20.00     0.213 C 
ENDBRANCH   3   5
ENDBRANCH   1   3
BRANCH   2   7
HETATM    7  C7  UNL     1     -33.216   7.466   3.892  1.00 20.00    -0.000 C 
HETATM    8  C4  UNL     1     -32.880   8.052   2.520  1.00 20.00     0.013 C 
HETATM    9  C5  UNL     1     -32.929   8.485   4.996  1.00 20.00     0.013 C 
ENDBRANCH   2   7
TORSDOF 3
ENDMDL
MODEL 7
REMARK VINA RESULT:      -1.4      2.283      4.083
REMARK  3 active torsions:
REMARK  status: ('A' for Active; 'I' for Inactive)
REMARK    1  A    between atoms: C1_1  and  C3_3 
REMARK    2  A    between atoms: C2_2  and  C7_7 
REMARK    3  A    between atoms: C3_3  and  O9_9 
ROOT
HETATM    1  C1  UNL     1     -33.338   5.889   2.324  1.00 20.00     0.078 C 
HETATM    2  C2  UNL     1     -32.533   6.716   1.644  1.00 20.00    -0.017 C 
ENDROOT
BRANCH   1   3
HETATM    3  C3  UNL     1     -34.116   6.396   3.475  1.00 20.00     0.282 C 
HETATM    4  O8  UNL     1     -34.164   7.560   3.839  1.00 20.00    -0.260 OA
BRANCH   3   5
HETATM    5  O9  UNL     1     -34.753   5.335   4.040  1.00 20.00    -0.323 OA
HETATM    6  C6  UNL     1     -33.997   4.121   4.096  1.00 20.00     0.213 C 
ENDBRANCH   3   5
ENDBRANCH   1   3
BRANCH   2   7
HETATM    7  C7  UNL     1     -32.364   8.175   1.989  1.00 20.00    -0.000 C 
HETATM    8  C4  UNL     1     -31.061   8.387   2.760  1.00 20.00     0.013 C 
HETATM    9  C5  UNL     1     -32.381   9.024   0.717  1.00 20.00     0.013 C 
ENDBRANCH   2   7
TORSDOF 3
ENDMDL
MODEL 8
REMARK VINA RESULT:      -1.2      2.017      3.033
REMARK  3 active torsions:
REMARK  status: ('A' for Active; 'I' for Inactive)
REMARK    1  A    between atoms: C1_1  and  C3_3 
REMARK    2  A    between atoms: C2_2  and  C7_7 
REMARK    3  A    between atoms: C3_3  and  O9_9 
ROOT
HETATM    1  C1  UNL     1     -35.041   6.673   4.033  1.00 20.00     0.078 C 
HETATM    2  C2  UNL     1     -34.901   5.342   3.992  1.00 20.00    -0.017 C 
ENDROOT
BRANCH   1   3
HETATM    3  C3  UNL     1     -33.849   7.545   3.955  1.00 20.00     0.282 C 
HETATM    4  O8  UNL     1     -33.255   8.019   4.912  1.00 20.00    -0.260 OA
BRANCH   3   5
HETATM    5  O9  UNL     1     -33.548   7.716   2.640  1.00 20.00    -0.323 OA
HETATM    6  C6  UNL     1     -32.184   8.043   2.357  1.00 20.00     0.213 C 
ENDBRANCH   3   5
ENDBRANCH   1   3
BRANCH   2   7
HETATM    7  C7  UNL     1     -33.563   4.655   3.867  1.00 20.00    -0.000 C 
HETATM    8  C4  UNL     1     -33.606   3.288   4.552  1.00 20.00     0.013 C 
HETATM    9  C5  UNL     1     -33.181   4.506   2.394  1.00 20.00     0.013 C 
ENDBRANCH   2   7
TORSDOF 3
ENDMDL
MODEL 9
REMARK VINA RESULT:      -1.1      1.954      3.935
REMARK  3 active torsions:
REMARK  status: ('A' for Active; 'I' for Inactive)
REMARK    1  A    between atoms: C1_1  and  C3_3 
REMARK    2  A    between atoms: C2_2  and  C7_7 
REMARK    3  A    between atoms: C3_3  and  O9_9 
ROOT
HETATM    1  C1  UNL     1     -31.531   7.728   1.865  1.00 20.00     0.078 C 
HETATM    2  C2  UNL     1     -31.462   8.780   1.038  1.00 20.00    -0.017 C 
ENDROOT
BRANCH   1   3
HETATM    3  C3  UNL     1     -32.844   7.257   2.356  1.00 20.00     0.282 C 
HETATM    4  O8  UNL     1     -33.457   7.729   3.300  1.00 20.00    -0.260 OA
BRANCH   3   5
HETATM    5  O9  UNL     1     -33.228   6.216   1.569  1.00 20.00    -0.323 OA
HETATM    6  C6  UNL     1     -32.205   5.262   1.268  1.00 20.00     0.213 C 
ENDBRANCH   3   5
ENDBRANCH   1   3
BRANCH   2   7
HETATM    7  C7  UNL     1     -32.678   9.536   0.560  1.00 20.00    -0.000 C 
HETATM    8  C4  UNL     1     -32.720  10.924   1.200  1.00 20.00     0.013 C 
HETATM    9  C5  UNL     1     -32.665   9.646  -0.965  1.00 20.00     0.013 C 
ENDBRANCH   2   7
TORSDOF 3
ENDMDL
