MODEL 1
REMARK VINA RESULT:      -0.9      0.000      0.000
REMARK  4 active torsions:
REMARK  status: ('A' for Active; 'I' for Inactive)
REMARK    1  A    between atoms: C5_5  and  C6_6 
REMARK    2  A    between atoms: C5_5  and  C7_7 
REMARK    3  A    between atoms: C6_6  and  C8_8 
REMARK    4  A    between atoms: C7_7  and  O9_9 
ROOT
HETATM    1  C5  UNL     1     -34.134   6.005   2.870  1.00 20.00     0.032 C 
ENDROOT
BRANCH   1   2
HETATM    2  C6  UNL     1     -33.541   7.410   3.062  1.00 20.00     0.011 C 
BRANCH   2   3
HETATM    3  C8  UNL     1     -32.350   7.772   2.135  1.00 20.00    -0.051 C 
HETATM    4  C2  UNL     1     -31.153   8.300   2.945  1.00 20.00     0.014 C 
HETATM    5  C3  UNL     1     -31.911   6.491   1.397  1.00 20.00     0.014 C 
HETATM    6  C4  UNL     1     -32.754   8.822   1.088  1.00 20.00     0.014 C 
ENDBRANCH   2   3
ENDBRANCH   1   2
BRANCH   1   7
HETATM    7  C7  UNL     1     -34.349   5.288   4.209  1.00 20.00     0.114 C 
HETATM    8  C1  UNL     1     -33.789   3.872   4.172  1.00 20.00     0.039 C 
BRANCH   7   9
HETATM    9  O9  UNL     1     -35.744   5.223   4.487  1.00 20.00    -0.396 OA
HETATM   10  H27 UNL     1     -35.966   6.026   4.985  1.00 20.00     0.210 HD
ENDBRANCH   7   9
ENDBRANCH   1   7
TORSDOF 4
ENDMDL
MODEL 2
REMARK VINA RESULT:      -0.9      0.061      1.456
REMARK  4 active torsions:
REMARK  status: ('A' for Active; 'I' for Inactive)
REMARK    1  A    between atoms: C5_5  and  C6_6 
REMARK    2  A    between atoms: C5_5  and  C7_7 
REMARK    3  A    between atoms: C6_6  and  C8_8 
REMARK    4  A    between atoms: C7_7  and  O9_9 
ROOT
HETATM    1  C5  UNL     1     -34.175   5.985   2.887  1.00 20.00     0.032 C 
ENDROOT
BRANCH   1   2
HETATM    2  C6  UNL     1     -33.568   7.385   3.076  1.00 20.00     0.011 C 
BRANCH   2   3
HETATM    3  C8  UNL     1     -32.373   7.732   2.147  1.00 20.00    -0.051 C 
HETATM    4  C2  UNL     1     -32.769   8.788   1.101  1.00 20.00     0.014 C 
HETATM    5  C3  UNL     1     -31.241   8.310   3.020  1.00 20.00     0.014 C 
HETATM    6  C4  UNL     1     -31.842   6.482   1.428  1.00 20.00     0.014 C 
ENDBRANCH   2   3
ENDBRANCH   1   2
BRANCH   1   7
HETATM    7  C7  UNL     1     -34.353   5.256   4.225  1.00 20.00     0.114 C 
HETATM    8  C1  UNL     1     -33.779   3.846   4.165  1.00 20.00     0.039 C 
BRANCH   7   9
HETATM    9  O9  UNL     1     -35.741   5.173   4.532  1.00 20.00    -0.396 OA
HETATM   10  H27 UNL     1     -36.220   5.361   3.710  1.00 20.00     0.210 HD
ENDBRANCH   7   9
ENDBRANCH   1   7
TORSDOF 4
ENDMDL
MODEL 3
REMARK VINA RESULT:      -0.8      0.064      1.433
REMARK  4 active torsions:
REMARK  status: ('A' for Active; 'I' for Inactive)
REMARK    1  A    between atoms: C5_5  and  C6_6 
REMARK    2  A    between atoms: C5_5  and  C7_7 
REMARK    3  A    between atoms: C6_6  and  C8_8 
REMARK    4  A    between atoms: C7_7  and  O9_9 
ROOT
HETATM    1  C5  UNL     1     -34.176   5.978   2.889  1.00 20.00     0.032 C 
ENDROOT
BRANCH   1   2
HETATM    2  C6  UNL     1     -33.561   7.374   3.078  1.00 20.00     0.011 C 
BRANCH   2   3
HETATM    3  C8  UNL     1     -32.349   7.706   2.167  1.00 20.00    -0.051 C 
HETATM    4  C2  UNL     1     -31.853   6.456   1.421  1.00 20.00     0.014 C 
HETATM    5  C3  UNL     1     -32.804   8.747   1.125  1.00 20.00     0.014 C 
HETATM    6  C4  UNL     1     -31.188   8.306   2.977  1.00 20.00     0.014 C 
ENDBRANCH   2   3
ENDBRANCH   1   2
BRANCH   1   7
HETATM    7  C7  UNL     1     -34.353   5.247   4.226  1.00 20.00     0.114 C 
HETATM    8  C1  UNL     1     -33.776   3.838   4.166  1.00 20.00     0.039 C 
BRANCH   7   9
HETATM    9  O9  UNL     1     -35.741   5.160   4.533  1.00 20.00    -0.396 OA
HETATM   10  H27 UNL     1     -36.073   4.360   4.097  1.00 20.00     0.210 HD
ENDBRANCH   7   9
ENDBRANCH   1   7
TORSDOF 4
ENDMDL
MODEL 4
REMARK VINA RESULT:      -0.7      0.931      1.382
REMARK  4 active torsions:
REMARK  status: ('A' for Active; 'I' for Inactive)
REMARK    1  A    between atoms: C5_5  and  C6_6 
REMARK    2  A    between atoms: C5_5  and  C7_7 
REMARK    3  A    between atoms: C6_6  and  C8_8 
REMARK    4  A    between atoms: C7_7  and  O9_9 
ROOT
HETATM    1  C5  UNL     1     -34.586   6.202   3.363  1.00 20.00     0.032 C 
ENDROOT
BRANCH   1   2
HETATM    2  C6  UNL     1     -33.227   6.892   3.160  1.00 20.00     0.011 C 
BRANCH   2   3
HETATM    3  C8  UNL     1     -32.602   6.749   1.746  1.00 20.00    -0.051 C 
HETATM    4  C2  UNL     1     -31.626   5.562   1.685  1.00 20.00     0.014 C 
HETATM    5  C3  UNL     1     -33.744   6.493   0.742  1.00 20.00     0.014 C 
HETATM    6  C4  UNL     1     -31.866   8.032   1.328  1.00 20.00     0.014 C 
ENDBRANCH   2   3
ENDBRANCH   1   2
BRANCH   1   7
HETATM    7  C7  UNL     1     -34.521   5.124   4.451  1.00 20.00     0.114 C 
HETATM    8  C1  UNL     1     -33.811   3.873   3.948  1.00 20.00     0.039 C 
BRANCH   7   9
HETATM    9  O9  UNL     1     -35.844   4.773   4.844  1.00 20.00    -0.396 OA
HETATM   10  H27 UNL     1     -35.759   4.156   5.587  1.00 20.00     0.210 HD
ENDBRANCH   7   9
ENDBRANCH   1   7
TORSDOF 4
ENDMDL
MODEL 5
REMARK VINA RESULT:      -0.5      2.305      4.378
REMARK  4 active torsions:
REMARK  status: ('A' for Active; 'I' for Inactive)
REMARK    1  A    between atoms: C5_5  and  C6_6 
REMARK    2  A    between atoms: C5_5  and  C7_7 
REMARK    3  A    between atoms: C6_6  and  C8_8 
REMARK    4  A    between atoms: C7_7  and  O9_9 
ROOT
HETATM    1  C5  UNL     1     -33.287   7.005   1.478  1.00 20.00     0.032 C 
ENDROOT
BRANCH   1   2
HETATM    2  C6  UNL     1     -33.430   6.055   2.678  1.00 20.00     0.011 C 
BRANCH   2   3
HETATM    3  C8  UNL     1     -34.543   6.418   3.697  1.00 20.00    -0.051 C 
HETATM    4  C2  UNL     1     -35.814   6.910   2.984  1.00 20.00     0.014 C 
HETATM    5  C3  UNL     1     -34.894   5.147   4.497  1.00 20.00     0.014 C 
HETATM    6  C4  UNL     1     -34.067   7.496   4.684  1.00 20.00     0.014 C 
ENDBRANCH   2   3
ENDBRANCH   1   2
BRANCH   1   7
HETATM    7  C7  UNL     1     -32.261   8.113   1.748  1.00 20.00     0.114 C 
HETATM    8  C1  UNL     1     -32.378   9.235   0.724  1.00 20.00     0.039 C 
BRANCH   7   9
HETATM    9  O9  UNL     1     -30.949   7.564   1.679  1.00 20.00    -0.396 OA
HETATM   10  H27 UNL     1     -30.690   7.580   0.744  1.00 20.00     0.210 HD
ENDBRANCH   7   9
ENDBRANCH   1   7
TORSDOF 4
ENDMDL
MODEL 6
REMARK VINA RESULT:      -0.5      2.227      4.423
REMARK  4 active torsions:
REMARK  status: ('A' for Active; 'I' for Inactive)
REMARK    1  A    between atoms: C5_5  and  C6_6 
REMARK    2  A    between atoms: C5_5  and  C7_7 
REMARK    3  A    between atoms: C6_6  and  C8_8 
REMARK    4  A    between atoms: C7_7  and  O9_9 
ROOT
HETATM    1  C5  UNL     1     -32.745   7.955   2.712  1.00 20.00     0.032 C 
ENDROOT
BRANCH   1   2
HETATM    2  C6  UNL     1     -33.521   6.630   2.649  1.00 20.00     0.011 C 
BRANCH   2   3
HETATM    3  C8  UNL     1     -34.597   6.425   3.748  1.00 20.00    -0.051 C 
HETATM    4  C2  UNL     1     -34.553   4.995   4.313  1.00 20.00     0.014 C 
HETATM    5  C3  UNL     1     -34.303   7.412   4.896  1.00 20.00     0.014 C 
HETATM    6  C4  UNL     1     -36.008   6.713   3.211  1.00 20.00     0.014 C 
ENDBRANCH   2   3
ENDBRANCH   1   2
BRANCH   1   7
HETATM    7  C7  UNL     1     -31.724   8.073   1.574  1.00 20.00     0.114 C 
HETATM    8  C1  UNL     1     -32.149   9.126   0.559  1.00 20.00     0.039 C 
BRANCH   7   9
HETATM    9  O9  UNL     1     -31.611   6.817   0.912  1.00 20.00    -0.396 OA
HETATM   10  H27 UNL     1     -32.032   6.161   1.489  1.00 20.00     0.210 HD
ENDBRANCH   7   9
ENDBRANCH   1   7
TORSDOF 4
ENDMDL
MODEL 7
REMARK VINA RESULT:      -0.5      2.850      4.690
REMARK  4 active torsions:
REMARK  status: ('A' for Active; 'I' for Inactive)
REMARK    1  A    between atoms: C5_5  and  C6_6 
REMARK    2  A    between atoms: C5_5  and  C7_7 
REMARK    3  A    between atoms: C6_6  and  C8_8 
REMARK    4  A    between atoms: C7_7  and  O9_9 
ROOT
HETATM    1  C5  UNL     1     -31.580   8.444   0.601  1.00 20.00     0.032 C 
ENDROOT
BRANCH   1   2
HETATM    2  C6  UNL     1     -32.304   7.937   1.858  1.00 20.00     0.011 C 
BRANCH   2   3
HETATM    3  C8  UNL     1     -32.883   6.500   1.771  1.00 20.00    -0.051 C 
HETATM    4  C2  UNL     1     -31.761   5.450   1.708  1.00 20.00     0.014 C 
HETATM    5  C3  UNL     1     -33.721   6.242   3.039  1.00 20.00     0.014 C 
HETATM    6  C4  UNL     1     -33.796   6.338   0.545  1.00 20.00     0.014 C 
ENDBRANCH   2   3
ENDBRANCH   1   2
BRANCH   1   7
HETATM    7  C7  UNL     1     -32.132   9.795   0.130  1.00 20.00     0.114 C 
HETATM    8  C1  UNL     1     -32.911  10.490   1.239  1.00 20.00     0.039 C 
BRANCH   7   9
HETATM    9  O9  UNL     1     -33.001   9.586  -0.979  1.00 20.00    -0.396 OA
HETATM   10  H27 UNL     1     -33.432   8.729  -0.837  1.00 20.00     0.210 HD
ENDBRANCH   7   9
ENDBRANCH   1   7
TORSDOF 4
ENDMDL
MODEL 8
REMARK VINA RESULT:      -0.4      2.310      4.376
REMARK  4 active torsions:
REMARK  status: ('A' for Active; 'I' for Inactive)
REMARK    1  A    between atoms: C5_5  and  C6_6 
REMARK    2  A    between atoms: C5_5  and  C7_7 
REMARK    3  A    between atoms: C6_6  and  C8_8 
REMARK    4  A    between atoms: C7_7  and  O9_9 
ROOT
HETATM    1  C5  UNL     1     -33.321   7.063   1.482  1.00 20.00     0.032 C 
ENDROOT
BRANCH   1   2
HETATM    2  C6  UNL     1     -33.421   6.081   2.661  1.00 20.00     0.011 C 
BRANCH   2   3
HETATM    3  C8  UNL     1     -34.520   6.396   3.711  1.00 20.00    -0.051 C 
HETATM    4  C2  UNL     1     -34.064   7.499   4.681  1.00 20.00     0.014 C 
HETATM    5  C3  UNL     1     -35.771   6.895   2.959  1.00 20.00     0.014 C 
HETATM    6  C4  UNL     1     -34.903   5.143   4.513  1.00 20.00     0.014 C 
ENDBRANCH   2   3
ENDBRANCH   1   2
BRANCH   1   7
HETATM    7  C7  UNL     1     -32.257   8.140   1.725  1.00 20.00     0.114 C 
HETATM    8  C1  UNL     1     -32.344   9.247   0.682  1.00 20.00     0.039 C 
BRANCH   7   9
HETATM    9  O9  UNL     1     -30.965   7.547   1.658  1.00 20.00    -0.396 OA
HETATM   10  H27 UNL     1     -30.593   7.591   2.553  1.00 20.00     0.210 HD
ENDBRANCH   7   9
ENDBRANCH   1   7
TORSDOF 4
ENDMDL
MODEL 9
REMARK VINA RESULT:      -0.4      2.847      4.746
REMARK  4 active torsions:
REMARK  status: ('A' for Active; 'I' for Inactive)
REMARK    1  A    between atoms: C5_5  and  C6_6 
REMARK    2  A    between atoms: C5_5  and  C7_7 
REMARK    3  A    between atoms: C6_6  and  C8_8 
REMARK    4  A    between atoms: C7_7  and  O9_9 
ROOT
HETATM    1  C5  UNL     1     -31.594   8.439   0.594  1.00 20.00     0.032 C 
ENDROOT
BRANCH   1   2
HETATM    2  C6  UNL     1     -32.313   7.957   1.864  1.00 20.00     0.011 C 
BRANCH   2   3
HETATM    3  C8  UNL     1     -32.877   6.512   1.812  1.00 20.00    -0.051 C 
HETATM    4  C2  UNL     1     -33.725   6.199   3.057  1.00 20.00     0.014 C 
HETATM    5  C3  UNL     1     -33.778   6.393   0.566  1.00 20.00     0.014 C 
HETATM    6  C4  UNL     1     -31.748   5.475   1.696  1.00 20.00     0.014 C 
ENDBRANCH   2   3
ENDBRANCH   1   2
BRANCH   1   7
HETATM    7  C7  UNL     1     -32.125   9.798   0.118  1.00 20.00     0.114 C 
HETATM    8  C1  UNL     1     -32.885  10.512   1.228  1.00 20.00     0.039 C 
BRANCH   7   9
HETATM    9  O9  UNL     1     -33.003   9.599  -0.984  1.00 20.00    -0.396 OA
HETATM   10  H27 UNL     1     -32.694  10.181  -1.695  1.00 20.00     0.210 HD
ENDBRANCH   7   9
ENDBRANCH   1   7
TORSDOF 4
ENDMDL
