MODEL 1
REMARK VINA RESULT:      -2.2      0.000      0.000
REMARK  3 active torsions:
REMARK  status: ('A' for Active; 'I' for Inactive)
REMARK    1  A    between atoms: C2_2  and  C5_5 
REMARK    2  A    between atoms: C5_5  and  C6_6 
REMARK    3  A    between atoms: C6_6  and  C7_7 
ROOT
HETATM    1  C5  UNL     1     -32.133   8.113   2.121  1.00 20.00     0.034 C 
ENDROOT
BRANCH   1   2
HETATM    2  C2  UNL     1     -32.456   8.631   0.728  1.00 20.00     0.145 A 
HETATM    3  C1  UNL     1     -32.551  10.105   0.448  1.00 20.00     0.200 A 
HETATM    4  O8  UNL     1     -31.388   9.342   0.094  1.00 20.00    -0.381 OA
ENDBRANCH   1   2
BRANCH   1   5
HETATM    5  C6  UNL     1     -33.078   6.981   2.529  1.00 20.00     0.006 C 
BRANCH   5   6
HETATM    6  C7  UNL     1     -34.152   7.414   3.544  1.00 20.00    -0.023 C 
HETATM    7  C3  UNL     1     -33.481   8.004   4.788  1.00 20.00     0.009 C 
HETATM    8  C4  UNL     1     -35.070   6.262   3.952  1.00 20.00     0.009 C 
ENDBRANCH   5   6
ENDBRANCH   1   5
TORSDOF 3
ENDMDL
MODEL 2
REMARK VINA RESULT:      -2.1      1.188      1.860
REMARK  3 active torsions:
REMARK  status: ('A' for Active; 'I' for Inactive)
REMARK    1  A    between atoms: C2_2  and  C5_5 
REMARK    2  A    between atoms: C5_5  and  C6_6 
REMARK    3  A    between atoms: C6_6  and  C7_7 
ROOT
HETATM    1  C5  UNL     1     -31.688   8.562   1.093  1.00 20.00     0.034 C 
ENDROOT
BRANCH   1   2
HETATM    2  C2  UNL     1     -32.732   9.563   0.623  1.00 20.00     0.145 A 
HETATM    3  C1  UNL     1     -32.338  10.808  -0.122  1.00 20.00     0.200 A 
HETATM    4  O8  UNL     1     -32.869   9.657  -0.799  1.00 20.00    -0.381 OA
ENDBRANCH   1   2
BRANCH   1   5
HETATM    5  C6  UNL     1     -32.145   7.832   2.358  1.00 20.00     0.006 C 
BRANCH   5   6
HETATM    6  C7  UNL     1     -33.255   6.797   2.101  1.00 20.00    -0.023 C 
HETATM    7  C3  UNL     1     -34.016   6.520   3.401  1.00 20.00     0.009 C 
HETATM    8  C4  UNL     1     -32.712   5.485   1.533  1.00 20.00     0.009 C 
ENDBRANCH   5   6
ENDBRANCH   1   5
TORSDOF 3
ENDMDL
MODEL 3
REMARK VINA RESULT:      -2.0      1.337      1.592
REMARK  3 active torsions:
REMARK  status: ('A' for Active; 'I' for Inactive)
REMARK    1  A    between atoms: C2_2  and  C5_5 
REMARK    2  A    between atoms: C5_5  and  C6_6 
REMARK    3  A    between atoms: C6_6  and  C7_7 
ROOT
HETATM    1  C5  UNL     1     -33.006   6.329   1.494  1.00 20.00     0.034 C 
ENDROOT
BRANCH   1   2
HETATM    2  C2  UNL     1     -31.828   7.290   1.440  1.00 20.00     0.145 A 
HETATM    3  C1  UNL     1     -32.017   8.733   1.067  1.00 20.00     0.200 A 
HETATM    4  O8  UNL     1     -31.855   8.320   2.433  1.00 20.00    -0.381 OA
ENDBRANCH   1   2
BRANCH   1   5
HETATM    5  C6  UNL     1     -33.287   5.871   2.927  1.00 20.00     0.006 C 
BRANCH   5   6
HETATM    6  C7  UNL     1     -34.552   6.504   3.537  1.00 20.00    -0.023 C 
HETATM    7  C3  UNL     1     -34.162   7.694   4.418  1.00 20.00     0.009 C 
HETATM    8  C4  UNL     1     -35.370   5.504   4.354  1.00 20.00     0.009 C 
ENDBRANCH   5   6
ENDBRANCH   1   5
TORSDOF 3
ENDMDL
MODEL 4
REMARK VINA RESULT:      -2.0      1.216      1.750
REMARK  3 active torsions:
REMARK  status: ('A' for Active; 'I' for Inactive)
REMARK    1  A    between atoms: C2_2  and  C5_5 
REMARK    2  A    between atoms: C5_5  and  C6_6 
REMARK    3  A    between atoms: C6_6  and  C7_7 
ROOT
HETATM    1  C5  UNL     1     -31.936   8.041   1.238  1.00 20.00     0.034 C 
ENDROOT
BRANCH   1   2
HETATM    2  C2  UNL     1     -31.809   9.443   0.665  1.00 20.00     0.145 A 
HETATM    3  C1  UNL     1     -32.646   9.886  -0.503  1.00 20.00     0.200 A 
HETATM    4  O8  UNL     1     -32.965  10.267   0.844  1.00 20.00    -0.381 OA
ENDBRANCH   1   2
BRANCH   1   5
HETATM    5  C6  UNL     1     -32.628   8.057   2.603  1.00 20.00     0.006 C 
BRANCH   5   6
HETATM    6  C7  UNL     1     -33.174   6.682   3.030  1.00 20.00    -0.023 C 
HETATM    7  C3  UNL     1     -33.192   5.735   1.828  1.00 20.00     0.009 C 
HETATM    8  C4  UNL     1     -34.575   6.771   3.637  1.00 20.00     0.009 C 
ENDBRANCH   5   6
ENDBRANCH   1   5
TORSDOF 3
ENDMDL
MODEL 5
REMARK VINA RESULT:      -1.6      2.963      4.714
REMARK  3 active torsions:
REMARK  status: ('A' for Active; 'I' for Inactive)
REMARK    1  A    between atoms: C2_2  and  C5_5 
REMARK    2  A    between atoms: C5_5  and  C6_6 
REMARK    3  A    between atoms: C6_6  and  C7_7 
ROOT
HETATM    1  C5  UNL     1     -34.232   6.816   4.062  1.00 20.00     0.034 C 
ENDROOT
BRANCH   1   2
HETATM    2  C2  UNL     1     -34.745   5.435   3.683  1.00 20.00     0.145 A 
HETATM    3  C1  UNL     1     -34.136   4.191   4.265  1.00 20.00     0.200 A 
HETATM    4  O8  UNL     1     -35.379   4.722   4.750  1.00 20.00    -0.381 OA
ENDBRANCH   1   2
BRANCH   1   5
HETATM    5  C6  UNL     1     -33.801   7.609   2.826  1.00 20.00     0.006 C 
BRANCH   5   6
HETATM    6  C7  UNL     1     -32.450   7.151   2.244  1.00 20.00    -0.023 C 
HETATM    7  C3  UNL     1     -31.803   8.301   1.468  1.00 20.00     0.009 C 
HETATM    8  C4  UNL     1     -32.590   5.930   1.333  1.00 20.00     0.009 C 
ENDBRANCH   5   6
ENDBRANCH   1   5
TORSDOF 3
ENDMDL
MODEL 6
REMARK VINA RESULT:      -1.6      2.626      4.486
REMARK  3 active torsions:
REMARK  status: ('A' for Active; 'I' for Inactive)
REMARK    1  A    between atoms: C2_2  and  C5_5 
REMARK    2  A    between atoms: C5_5  and  C6_6 
REMARK    3  A    between atoms: C6_6  and  C7_7 
ROOT
HETATM    1  C5  UNL     1     -33.869   7.647   4.089  1.00 20.00     0.034 C 
ENDROOT
BRANCH   1   2
HETATM    2  C2  UNL     1     -34.573   6.445   3.480  1.00 20.00     0.145 A 
HETATM    3  C1  UNL     1     -34.489   5.086   4.118  1.00 20.00     0.200 A 
HETATM    4  O8  UNL     1     -35.648   5.922   4.268  1.00 20.00    -0.381 OA
ENDBRANCH   1   2
BRANCH   1   5
HETATM    5  C6  UNL     1     -32.582   7.982   3.331  1.00 20.00     0.006 C 
BRANCH   5   6
HETATM    6  C7  UNL     1     -32.676   7.718   1.817  1.00 20.00    -0.023 C 
HETATM    7  C3  UNL     1     -31.937   6.423   1.469  1.00 20.00     0.009 C 
HETATM    8  C4  UNL     1     -32.111   8.871   0.986  1.00 20.00     0.009 C 
ENDBRANCH   5   6
ENDBRANCH   1   5
TORSDOF 3
ENDMDL
MODEL 7
REMARK VINA RESULT:      -1.5      1.471      2.043
REMARK  3 active torsions:
REMARK  status: ('A' for Active; 'I' for Inactive)
REMARK    1  A    between atoms: C2_2  and  C5_5 
REMARK    2  A    between atoms: C5_5  and  C6_6 
REMARK    3  A    between atoms: C6_6  and  C7_7 
ROOT
HETATM    1  C5  UNL     1     -32.096   6.251   1.540  1.00 20.00     0.034 C 
ENDROOT
BRANCH   1   2
HETATM    2  C2  UNL     1     -31.866   7.713   1.888  1.00 20.00     0.145 A 
HETATM    3  C1  UNL     1     -31.629   8.741   0.818  1.00 20.00     0.200 A 
HETATM    4  O8  UNL     1     -32.906   8.598   1.459  1.00 20.00    -0.381 OA
ENDBRANCH   1   2
BRANCH   1   5
HETATM    5  C6  UNL     1     -33.510   5.804   1.915  1.00 20.00     0.006 C 
BRANCH   5   6
HETATM    6  C7  UNL     1     -33.763   5.781   3.434  1.00 20.00    -0.023 C 
HETATM    7  C3  UNL     1     -34.028   4.345   3.895  1.00 20.00     0.009 C 
HETATM    8  C4  UNL     1     -34.931   6.678   3.846  1.00 20.00     0.009 C 
ENDBRANCH   5   6
ENDBRANCH   1   5
TORSDOF 3
ENDMDL
MODEL 8
REMARK VINA RESULT:      -1.4      3.448      5.192
REMARK  3 active torsions:
REMARK  status: ('A' for Active; 'I' for Inactive)
REMARK    1  A    between atoms: C2_2  and  C5_5 
REMARK    2  A    between atoms: C5_5  and  C6_6 
REMARK    3  A    between atoms: C6_6  and  C7_7 
ROOT
HETATM    1  C5  UNL     1     -33.841   4.796   3.574  1.00 20.00     0.034 C 
ENDROOT
BRANCH   1   2
HETATM    2  C2  UNL     1     -33.937   3.688   4.611  1.00 20.00     0.145 A 
HETATM    3  C1  UNL     1     -33.269   2.359   4.395  1.00 20.00     0.200 A 
HETATM    4  O8  UNL     1     -32.699   3.362   5.250  1.00 20.00    -0.381 OA
ENDBRANCH   1   2
BRANCH   1   5
HETATM    5  C6  UNL     1     -34.754   5.972   3.928  1.00 20.00     0.006 C 
BRANCH   5   6
HETATM    6  C7  UNL     1     -34.133   7.347   3.617  1.00 20.00    -0.023 C 
HETATM    7  C3  UNL     1     -33.029   7.191   2.567  1.00 20.00     0.009 C 
HETATM    8  C4  UNL     1     -33.566   8.028   4.863  1.00 20.00     0.009 C 
ENDBRANCH   5   6
ENDBRANCH   1   5
TORSDOF 3
ENDMDL
MODEL 9
REMARK VINA RESULT:      -1.2      2.240      4.474
REMARK  3 active torsions:
REMARK  status: ('A' for Active; 'I' for Inactive)
REMARK    1  A    between atoms: C2_2  and  C5_5 
REMARK    2  A    between atoms: C5_5  and  C6_6 
REMARK    3  A    between atoms: C6_6  and  C7_7 
ROOT
HETATM    1  C5  UNL     1     -32.985   6.946   2.048  1.00 20.00     0.034 C 
ENDROOT
BRANCH   1   2
HETATM    2  C2  UNL     1     -33.531   6.809   3.460  1.00 20.00     0.145 A 
HETATM    3  C1  UNL     1     -35.007   6.683   3.716  1.00 20.00     0.200 A 
HETATM    4  O8  UNL     1     -34.135   5.543   3.745  1.00 20.00    -0.381 OA
ENDBRANCH   1   2
BRANCH   1   5
HETATM    5  C6  UNL     1     -32.125   8.204   1.902  1.00 20.00     0.006 C 
BRANCH   5   6
HETATM    6  C7  UNL     1     -32.339   8.941   0.567  1.00 20.00    -0.023 C 
HETATM    7  C3  UNL     1     -31.068   8.855  -0.282  1.00 20.00     0.009 C 
HETATM    8  C4  UNL     1     -32.728  10.406   0.764  1.00 20.00     0.009 C 
ENDBRANCH   5   6
ENDBRANCH   1   5
TORSDOF 3
ENDMDL
