MODEL 1
REMARK VINA RESULT:      -1.5      0.000      0.000
REMARK  2 active torsions:
REMARK  status: ('A' for Active; 'I' for Inactive)
REMARK    1  A    between atoms: C3_3  and  C10_10 
REMARK    2  A    between atoms: C7_7  and  C10_10 
ROOT
HETATM    1  C1  UNL     1     -33.537   5.557   2.505  1.00 20.00    -0.024 C 
HETATM    2  C2  UNL     1     -34.216   5.971   3.589  1.00 20.00    -0.087 C 
HETATM    3  C4  UNL     1     -32.714   6.466   1.642  1.00 20.00     0.032 C 
HETATM    4  C5  UNL     1     -34.180   7.406   4.053  1.00 20.00     0.034 C 
HETATM    5  C6  UNL     1     -33.078   8.239   3.390  1.00 20.00     0.010 C 
HETATM    6  C7  UNL     1     -32.999   7.956   1.886  1.00 20.00    -0.001 C 
HETATM    7  C8  UNL     1     -35.058   5.035   4.405  1.00 20.00     0.043 C 
ENDROOT
BRANCH   6   8
HETATM    8  C10 UNL     1     -31.939   8.828   1.216  1.00 20.00     0.047 C 
HETATM    9  C9  UNL     1     -31.059   7.999   0.289  1.00 20.00     0.017 C 
BRANCH   8  10
HETATM   10  C3  UNL     1     -32.625   9.960   0.480  1.00 20.00     0.235 C 
HETATM   11  O11 UNL     1     -32.919   9.941  -0.711  1.00 20.00    -0.306 OA
ENDBRANCH   8  10
ENDBRANCH   6   8
TORSDOF 2
ENDMDL
MODEL 2
REMARK VINA RESULT:      -1.3      2.792      5.192
REMARK  2 active torsions:
REMARK  status: ('A' for Active; 'I' for Inactive)
REMARK    1  A    between atoms: C3_3  and  C10_10 
REMARK    2  A    between atoms: C7_7  and  C10_10 
ROOT
HETATM    1  C1  UNL     1     -32.567   8.412   2.686  1.00 20.00    -0.024 C 
HETATM    2  C2  UNL     1     -32.135   7.948   1.500  1.00 20.00    -0.087 C 
HETATM    3  C4  UNL     1     -33.284   7.568   3.698  1.00 20.00     0.032 C 
HETATM    4  C5  UNL     1     -32.311   6.505   1.096  1.00 20.00     0.034 C 
HETATM    5  C6  UNL     1     -32.718   5.587   2.253  1.00 20.00     0.010 C 
HETATM    6  C7  UNL     1     -33.797   6.238   3.124  1.00 20.00    -0.001 C 
HETATM    7  C8  UNL     1     -31.453   8.835   0.501  1.00 20.00     0.043 C 
ENDROOT
BRANCH   6   8
HETATM    8  C10 UNL     1     -34.242   5.300   4.244  1.00 20.00     0.047 C 
HETATM    9  C9  UNL     1     -35.746   5.390   4.465  1.00 20.00     0.017 C 
BRANCH   8  10
HETATM   10  C3  UNL     1     -33.804   3.889   3.908  1.00 20.00     0.235 C 
HETATM   11  O11 UNL     1     -33.340   3.092   4.718  1.00 20.00    -0.306 OA
ENDBRANCH   8  10
ENDBRANCH   6   8
TORSDOF 2
ENDMDL
MODEL 3
REMARK VINA RESULT:      -1.0      2.775      4.912
REMARK  2 active torsions:
REMARK  status: ('A' for Active; 'I' for Inactive)
REMARK    1  A    between atoms: C3_3  and  C10_10 
REMARK    2  A    between atoms: C7_7  and  C10_10 
ROOT
HETATM    1  C1  UNL     1     -32.406   6.643   1.136  1.00 20.00    -0.024 C 
HETATM    2  C2  UNL     1     -32.099   7.911   1.463  1.00 20.00    -0.087 C 
HETATM    3  C4  UNL     1     -33.157   5.710   2.039  1.00 20.00     0.032 C 
HETATM    4  C5  UNL     1     -32.520   8.520   2.777  1.00 20.00     0.034 C 
HETATM    5  C6  UNL     1     -33.568   7.695   3.530  1.00 20.00     0.010 C 
HETATM    6  C7  UNL     1     -33.229   6.201   3.493  1.00 20.00    -0.001 C 
HETATM    7  C8  UNL     1     -31.314   8.800   0.544  1.00 20.00     0.043 C 
ENDROOT
BRANCH   6   8
HETATM    8  C10 UNL     1     -34.245   5.386   4.291  1.00 20.00     0.047 C 
HETATM    9  C9  UNL     1     -35.667   5.832   3.979  1.00 20.00     0.017 C 
BRANCH   8  10
HETATM   10  C3  UNL     1     -34.037   3.915   3.996  1.00 20.00     0.235 C 
HETATM   11  O11 UNL     1     -33.361   3.154   4.683  1.00 20.00    -0.306 OA
ENDBRANCH   8  10
ENDBRANCH   6   8
TORSDOF 2
ENDMDL
MODEL 4
REMARK VINA RESULT:      -0.9      0.429      1.569
REMARK  2 active torsions:
REMARK  status: ('A' for Active; 'I' for Inactive)
REMARK    1  A    between atoms: C3_3  and  C10_10 
REMARK    2  A    between atoms: C7_7  and  C10_10 
ROOT
HETATM    1  C1  UNL     1     -34.252   7.350   3.896  1.00 20.00    -0.024 C 
HETATM    2  C2  UNL     1     -34.276   6.035   3.615  1.00 20.00    -0.087 C 
HETATM    3  C4  UNL     1     -33.409   8.344   3.153  1.00 20.00     0.032 C 
HETATM    4  C5  UNL     1     -33.466   5.445   2.487  1.00 20.00     0.034 C 
HETATM    5  C6  UNL     1     -32.893   6.493   1.528  1.00 20.00     0.010 C 
HETATM    6  C7  UNL     1     -32.317   7.690   2.293  1.00 20.00    -0.001 C 
HETATM    7  C8  UNL     1     -35.107   5.069   4.407  1.00 20.00     0.043 C 
ENDROOT
BRANCH   6   8
HETATM    8  C10 UNL     1     -31.696   8.707   1.338  1.00 20.00     0.047 C 
HETATM    9  C9  UNL     1     -31.102   8.017   0.117  1.00 20.00     0.017 C 
BRANCH   8  10
HETATM   10  C3  UNL     1     -32.748   9.728   0.953  1.00 20.00     0.235 C 
HETATM   11  O11 UNL     1     -32.735  10.386  -0.082  1.00 20.00    -0.306 OA
ENDBRANCH   8  10
ENDBRANCH   6   8
TORSDOF 2
ENDMDL
MODEL 5
REMARK VINA RESULT:       0.4      2.332      4.655
REMARK  2 active torsions:
REMARK  status: ('A' for Active; 'I' for Inactive)
REMARK    1  A    between atoms: C3_3  and  C10_10 
REMARK    2  A    between atoms: C7_7  and  C10_10 
ROOT
HETATM    1  C1  UNL     1     -31.943   6.501   1.183  1.00 20.00    -0.024 C 
HETATM    2  C2  UNL     1     -32.063   7.755   1.652  1.00 20.00    -0.087 C 
HETATM    3  C4  UNL     1     -32.602   5.309   1.813  1.00 20.00     0.032 C 
HETATM    4  C5  UNL     1     -32.913   8.078   2.856  1.00 20.00     0.034 C 
HETATM    5  C6  UNL     1     -33.846   6.938   3.275  1.00 20.00     0.010 C 
HETATM    6  C7  UNL     1     -33.125   5.586   3.231  1.00 20.00    -0.001 C 
HETATM    7  C8  UNL     1     -31.357   8.913   1.012  1.00 20.00     0.043 C 
ENDROOT
BRANCH   6   8
HETATM    8  C10 UNL     1     -34.040   4.458   3.702  1.00 20.00     0.047 C 
HETATM    9  C9  UNL     1     -33.301   3.514   4.642  1.00 20.00     0.017 C 
BRANCH   8  10
HETATM   10  C3  UNL     1     -35.268   5.058   4.355  1.00 20.00     0.235 C 
HETATM   11  O11 UNL     1     -35.476   6.262   4.473  1.00 20.00    -0.306 OA
ENDBRANCH   8  10
ENDBRANCH   6   8
TORSDOF 2
ENDMDL
MODEL 6
REMARK VINA RESULT:       0.4      2.782      5.047
REMARK  2 active torsions:
REMARK  status: ('A' for Active; 'I' for Inactive)
REMARK    1  A    between atoms: C3_3  and  C10_10 
REMARK    2  A    between atoms: C7_7  and  C10_10 
ROOT
HETATM    1  C1  UNL     1     -32.805   8.170   2.742  1.00 20.00    -0.024 C 
HETATM    2  C2  UNL     1     -32.108   7.928   1.618  1.00 20.00    -0.087 C 
HETATM    3  C4  UNL     1     -33.603   7.127   3.468  1.00 20.00     0.032 C 
HETATM    4  C5  UNL     1     -32.044   6.553   1.000  1.00 20.00     0.034 C 
HETATM    5  C6  UNL     1     -32.558   5.440   1.919  1.00 20.00     0.010 C 
HETATM    6  C7  UNL     1     -33.848   5.861   2.632  1.00 20.00    -0.001 C 
HETATM    7  C8  UNL     1     -31.352   9.008   0.904  1.00 20.00     0.043 C 
ENDROOT
BRANCH   6   8
HETATM    8  C10 UNL     1     -34.390   4.731   3.504  1.00 20.00     0.047 C 
HETATM    9  C9  UNL     1     -33.254   3.923   4.115  1.00 20.00     0.017 C 
BRANCH   8  10
HETATM   10  C3  UNL     1     -35.298   5.320   4.564  1.00 20.00     0.235 C 
HETATM   11  O11 UNL     1     -35.889   4.665   5.418  1.00 20.00    -0.306 OA
ENDBRANCH   8  10
ENDBRANCH   6   8
TORSDOF 2
ENDMDL
MODEL 7
REMARK VINA RESULT:       0.7      1.529      1.812
REMARK  2 active torsions:
REMARK  status: ('A' for Active; 'I' for Inactive)
REMARK    1  A    between atoms: C3_3  and  C10_10 
REMARK    2  A    between atoms: C7_7  and  C10_10 
ROOT
HETATM    1  C1  UNL     1     -33.696   5.147   2.878  1.00 20.00    -0.024 C 
HETATM    2  C2  UNL     1     -34.505   5.731   3.780  1.00 20.00    -0.087 C 
HETATM    3  C4  UNL     1     -32.792   5.909   1.954  1.00 20.00     0.032 C 
HETATM    4  C5  UNL     1     -34.547   7.228   3.962  1.00 20.00     0.034 C 
HETATM    5  C6  UNL     1     -33.389   7.964   3.279  1.00 20.00     0.010 C 
HETATM    6  C7  UNL     1     -33.129   7.406   1.875  1.00 20.00    -0.001 C 
HETATM    7  C8  UNL     1     -35.420   4.933   4.660  1.00 20.00     0.043 C 
ENDROOT
BRANCH   6   8
HETATM    8  C10 UNL     1     -32.012   8.176   1.174  1.00 20.00     0.047 C 
HETATM    9  C9  UNL     1     -32.529   9.494   0.613  1.00 20.00     0.017 C 
BRANCH   8  10
HETATM   10  C3  UNL     1     -30.871   8.387   2.149  1.00 20.00     0.235 C 
HETATM   11  O11 UNL     1     -31.003   8.799   3.297  1.00 20.00    -0.306 OA
ENDBRANCH   8  10
ENDBRANCH   6   8
TORSDOF 2
ENDMDL
MODEL 8
REMARK VINA RESULT:       1.3      2.435      4.907
REMARK  2 active torsions:
REMARK  status: ('A' for Active; 'I' for Inactive)
REMARK    1  A    between atoms: C3_3  and  C10_10 
REMARK    2  A    between atoms: C7_7  and  C10_10 
ROOT
HETATM    1  C1  UNL     1     -33.184  10.002   1.333  1.00 20.00    -0.024 C 
HETATM    2  C2  UNL     1     -32.276   9.523   0.465  1.00 20.00    -0.087 C 
HETATM    3  C4  UNL     1     -33.699   9.229   2.510  1.00 20.00     0.032 C 
HETATM    4  C5  UNL     1     -31.665   8.152   0.625  1.00 20.00     0.034 C 
HETATM    5  C6  UNL     1     -31.925   7.519   1.996  1.00 20.00     0.010 C 
HETATM    6  C7  UNL     1     -33.377   7.728   2.437  1.00 20.00    -0.001 C 
HETATM    7  C8  UNL     1     -31.814  10.317  -0.721  1.00 20.00     0.043 C 
ENDROOT
BRANCH   6   8
HETATM    8  C10 UNL     1     -33.649   7.049   3.778  1.00 20.00     0.047 C 
HETATM    9  C9  UNL     1     -33.417   8.013   4.933  1.00 20.00     0.017 C 
BRANCH   8  10
HETATM   10  C3  UNL     1     -35.061   6.500   3.775  1.00 20.00     0.235 C 
HETATM   11  O11 UNL     1     -35.422   5.501   4.388  1.00 20.00    -0.306 OA
ENDBRANCH   8  10
ENDBRANCH   6   8
TORSDOF 2
ENDMDL
MODEL 9
REMARK VINA RESULT:       1.3      1.060      2.078
REMARK  2 active torsions:
REMARK  status: ('A' for Active; 'I' for Inactive)
REMARK    1  A    between atoms: C3_3  and  C10_10 
REMARK    2  A    between atoms: C7_7  and  C10_10 
ROOT
HETATM    1  C1  UNL     1     -34.316   6.579   3.724  1.00 20.00    -0.024 C 
HETATM    2  C2  UNL     1     -33.836   5.340   3.516  1.00 20.00    -0.087 C 
HETATM    3  C4  UNL     1     -33.932   7.770   2.897  1.00 20.00     0.032 C 
HETATM    4  C5  UNL     1     -32.877   5.035   2.392  1.00 20.00     0.034 C 
HETATM    5  C6  UNL     1     -32.766   6.158   1.356  1.00 20.00     0.010 C 
HETATM    6  C7  UNL     1     -32.684   7.530   2.032  1.00 20.00    -0.001 C 
HETATM    7  C8  UNL     1     -34.219   4.183   4.390  1.00 20.00     0.043 C 
ENDROOT
BRANCH   6   8
HETATM    8  C10 UNL     1     -32.517   8.644   1.001  1.00 20.00     0.047 C 
HETATM    9  C9  UNL     1     -32.765  10.009   1.629  1.00 20.00     0.017 C 
BRANCH   8  10
HETATM   10  C3  UNL     1     -31.134   8.546   0.390  1.00 20.00     0.235 C 
HETATM   11  O11 UNL     1     -30.753   9.196  -0.579  1.00 20.00    -0.306 OA
ENDBRANCH   8  10
ENDBRANCH   6   8
TORSDOF 2
ENDMDL
