MODEL 1
REMARK VINA RESULT:      -1.0      0.000      0.000
REMARK  1 active torsions:
REMARK  status: ('A' for Active; 'I' for Inactive)
REMARK    1  A    between atoms: C5_5  and  C10_10 
ROOT
HETATM    1  C1  UNL     1     -33.248   5.684   1.979  1.00 20.00    -0.018 C 
HETATM    2  C2  UNL     1     -32.246   6.373   1.414  1.00 20.00    -0.025 C 
HETATM    3  C3  UNL     1     -33.586   7.533   3.618  1.00 20.00     0.135 C 
HETATM    4  C4  UNL     1     -33.000   8.470   2.586  1.00 20.00     0.087 C 
HETATM    5  C5  UNL     1     -34.111   6.193   3.100  1.00 20.00     0.081 C 
HETATM    6  C6  UNL     1     -31.874   7.776   1.815  1.00 20.00     0.010 C 
HETATM    7  C7  UNL     1     -31.493   8.607   0.590  1.00 20.00     0.014 C 
HETATM    8  O11 UNL     1     -33.713   7.884   4.790  1.00 20.00    -0.297 OA
ENDROOT
BRANCH   5   9
HETATM    9  C10 UNL     1     -34.179   5.167   4.229  1.00 20.00    -0.008 C 
HETATM   10  C8  UNL     1     -35.613   5.014   4.734  1.00 20.00     0.010 C 
HETATM   11  C9  UNL     1     -33.629   3.819   3.766  1.00 20.00     0.010 C 
ENDBRANCH   5   9
TORSDOF 1
ENDMDL
MODEL 2
REMARK VINA RESULT:      -0.5      1.658      4.487
REMARK  1 active torsions:
REMARK  status: ('A' for Active; 'I' for Inactive)
REMARK    1  A    between atoms: C5_5  and  C10_10 
ROOT
HETATM    1  C1  UNL     1     -33.797   7.940   2.970  1.00 20.00    -0.018 C 
HETATM    2  C2  UNL     1     -34.227   7.167   3.978  1.00 20.00    -0.025 C 
HETATM    3  C3  UNL     1     -32.820   5.933   1.858  1.00 20.00     0.135 C 
HETATM    4  C4  UNL     1     -33.858   5.105   2.581  1.00 20.00     0.087 C 
HETATM    5  C5  UNL     1     -33.109   7.430   1.734  1.00 20.00     0.081 C 
HETATM    6  C6  UNL     1     -34.104   5.667   3.984  1.00 20.00     0.010 C 
HETATM    7  C7  UNL     1     -35.351   5.022   4.591  1.00 20.00     0.014 C 
HETATM    8  O11 UNL     1     -31.849   5.400   1.321  1.00 20.00    -0.297 OA
ENDROOT
BRANCH   5   9
HETATM    9  C10 UNL     1     -31.820   8.209   1.481  1.00 20.00    -0.008 C 
HETATM   10  C8  UNL     1     -32.086   9.413   0.579  1.00 20.00     0.010 C 
HETATM   11  C9  UNL     1     -31.193   8.658   2.800  1.00 20.00     0.010 C 
ENDBRANCH   5   9
TORSDOF 1
ENDMDL
MODEL 3
REMARK VINA RESULT:      -0.2      1.657      2.426
REMARK  1 active torsions:
REMARK  status: ('A' for Active; 'I' for Inactive)
REMARK    1  A    between atoms: C5_5  and  C10_10 
ROOT
HETATM    1  C1  UNL     1     -33.510   7.280   3.602  1.00 20.00    -0.018 C 
HETATM    2  C2  UNL     1     -33.384   8.340   2.789  1.00 20.00    -0.025 C 
HETATM    3  C3  UNL     1     -32.735   5.786   1.762  1.00 20.00     0.135 C 
HETATM    4  C4  UNL     1     -31.994   6.975   1.193  1.00 20.00     0.087 C 
HETATM    5  C5  UNL     1     -33.129   5.872   3.237  1.00 20.00     0.081 C 
HETATM    6  C6  UNL     1     -32.806   8.257   1.401  1.00 20.00     0.010 C 
HETATM    7  C7  UNL     1     -31.936   9.478   1.101  1.00 20.00     0.014 C 
HETATM    8  O11 UNL     1     -32.917   4.773   1.087  1.00 20.00    -0.297 OA
ENDROOT
BRANCH   5   9
HETATM    9  C10 UNL     1     -34.276   4.913   3.546  1.00 20.00    -0.008 C 
HETATM   10  C8  UNL     1     -33.777   3.717   4.356  1.00 20.00     0.010 C 
HETATM   11  C9  UNL     1     -35.396   5.634   4.295  1.00 20.00     0.010 C 
ENDBRANCH   5   9
TORSDOF 1
ENDMDL
MODEL 4
REMARK VINA RESULT:       1.0      1.818      3.601
REMARK  1 active torsions:
REMARK  status: ('A' for Active; 'I' for Inactive)
REMARK    1  A    between atoms: C5_5  and  C10_10 
ROOT
HETATM    1  C1  UNL     1     -33.419   5.475   2.771  1.00 20.00    -0.018 C 
HETATM    2  C2  UNL     1     -34.150   6.279   3.557  1.00 20.00    -0.025 C 
HETATM    3  C3  UNL     1     -32.147   7.453   1.943  1.00 20.00     0.135 C 
HETATM    4  C4  UNL     1     -32.475   8.134   3.253  1.00 20.00     0.087 C 
HETATM    5  C5  UNL     1     -32.266   5.929   1.919  1.00 20.00     0.081 C 
HETATM    6  C6  UNL     1     -33.885   7.752   3.712  1.00 20.00     0.010 C 
HETATM    7  C7  UNL     1     -34.096   8.192   5.161  1.00 20.00     0.014 C 
HETATM    8  O11 UNL     1     -31.718   8.098   0.986  1.00 20.00    -0.297 OA
ENDROOT
BRANCH   5   9
HETATM    9  C10 UNL     1     -32.430   5.422   0.488  1.00 20.00    -0.008 C 
HETATM   10  C8  UNL     1     -31.494   4.243   0.222  1.00 20.00     0.010 C 
HETATM   11  C9  UNL     1     -33.880   5.025   0.218  1.00 20.00     0.010 C 
ENDBRANCH   5   9
TORSDOF 1
ENDMDL
MODEL 5
REMARK VINA RESULT:       1.6      1.154      4.170
REMARK  1 active torsions:
REMARK  status: ('A' for Active; 'I' for Inactive)
REMARK    1  A    between atoms: C5_5  and  C10_10 
ROOT
HETATM    1  C1  UNL     1     -32.128   6.612   1.504  1.00 20.00    -0.018 C 
HETATM    2  C2  UNL     1     -32.818   5.537   1.912  1.00 20.00    -0.025 C 
HETATM    3  C3  UNL     1     -33.620   8.075   2.864  1.00 20.00     0.135 C 
HETATM    4  C4  UNL     1     -33.865   6.884   3.763  1.00 20.00     0.087 C 
HETATM    5  C5  UNL     1     -32.374   8.017   1.980  1.00 20.00     0.081 C 
HETATM    6  C6  UNL     1     -33.919   5.596   2.936  1.00 20.00     0.010 C 
HETATM    7  C7  UNL     1     -33.864   4.381   3.863  1.00 20.00     0.014 C 
HETATM    8  O11 UNL     1     -34.343   9.070   2.923  1.00 20.00    -0.297 OA
ENDROOT
BRANCH   5   9
HETATM    9  C10 UNL     1     -32.510   8.966   0.792  1.00 20.00    -0.008 C 
HETATM   10  C8  UNL     1     -32.600  10.416   1.267  1.00 20.00     0.010 C 
HETATM   11  C9  UNL     1     -31.339   8.793  -0.174  1.00 20.00     0.010 C 
ENDBRANCH   5   9
TORSDOF 1
ENDMDL
MODEL 6
REMARK VINA RESULT:       2.0      1.520      2.204
REMARK  1 active torsions:
REMARK  status: ('A' for Active; 'I' for Inactive)
REMARK    1  A    between atoms: C5_5  and  C10_10 
ROOT
HETATM    1  C1  UNL     1     -33.127   8.097   3.563  1.00 20.00    -0.018 C 
HETATM    2  C2  UNL     1     -32.826   8.868   2.508  1.00 20.00    -0.025 C 
HETATM    3  C3  UNL     1     -32.970   6.071   2.118  1.00 20.00     0.135 C 
HETATM    4  C4  UNL     1     -32.018   6.850   1.237  1.00 20.00     0.087 C 
HETATM    5  C5  UNL     1     -33.162   6.594   3.541  1.00 20.00     0.081 C 
HETATM    6  C6  UNL     1     -32.447   8.318   1.158  1.00 20.00     0.010 C 
HETATM    7  C7  UNL     1     -31.333   9.152   0.526  1.00 20.00     0.014 C 
HETATM    8  O11 UNL     1     -33.479   5.022   1.723  1.00 20.00    -0.297 OA
ENDROOT
BRANCH   5   9
HETATM    9  C10 UNL     1     -34.474   6.083   4.132  1.00 20.00    -0.008 C 
HETATM   10  C8  UNL     1     -35.666   6.597   3.325  1.00 20.00     0.010 C 
HETATM   11  C9  UNL     1     -34.484   4.556   4.184  1.00 20.00     0.010 C 
ENDBRANCH   5   9
TORSDOF 1
ENDMDL
