MODEL 1
REMARK VINA RESULT:       1.3      0.000      0.000
REMARK  1 active torsions:
REMARK  status: ('A' for Active; 'I' for Inactive)
REMARK    1  A    between atoms: C3_3  and  C8_8 
ROOT
HETATM    1  C1  UNL     1     -33.496   6.961   2.834  1.00 20.00     0.017 C 
HETATM    2  C2  UNL     1     -32.644   6.005   2.013  1.00 20.00     0.092 C 
HETATM    3  C3  UNL     1     -32.180   8.553   1.897  1.00 20.00     0.173 C 
HETATM    4  C4  UNL     1     -34.592   6.399   3.696  1.00 20.00     0.066 C 
HETATM    5  C5  UNL     1     -33.452   5.359   0.901  1.00 20.00     0.028 C 
HETATM    6  N9  UNL     1     -33.315   8.246   2.784  1.00 20.00    -0.282 NA
HETATM    7  S10 UNL     1     -31.345   7.053   1.326  1.00 20.00    -0.131 SA
ENDROOT
BRANCH   3   8
HETATM    8  C8  UNL     1     -32.696   9.353   0.708  1.00 20.00     0.012 C 
HETATM    9  C6  UNL     1     -32.722  10.847   1.033  1.00 20.00     0.012 C 
HETATM   10  C7  UNL     1     -31.841   9.091  -0.532  1.00 20.00     0.012 C 
ENDBRANCH   3   8
TORSDOF 1
ENDMDL
MODEL 2
REMARK VINA RESULT:       1.4      1.306      1.668
REMARK  1 active torsions:
REMARK  status: ('A' for Active; 'I' for Inactive)
REMARK    1  A    between atoms: C3_3  and  C8_8 
ROOT
HETATM    1  C1  UNL     1     -32.930   7.781   3.821  1.00 20.00     0.017 C 
HETATM    2  C2  UNL     1     -33.613   6.536   3.276  1.00 20.00     0.092 C 
HETATM    3  C3  UNL     1     -31.967   7.854   1.768  1.00 20.00     0.173 C 
HETATM    4  C4  UNL     1     -33.229   8.216   5.227  1.00 20.00     0.066 C 
HETATM    5  C5  UNL     1     -35.105   6.758   3.095  1.00 20.00     0.028 C 
HETATM    6  N9  UNL     1     -32.119   8.485   3.090  1.00 20.00    -0.282 NA
HETATM    7  S10 UNL     1     -32.817   6.259   1.680  1.00 20.00    -0.131 SA
ENDROOT
BRANCH   3   8
HETATM    8  C8  UNL     1     -32.517   8.803   0.711  1.00 20.00     0.012 C 
HETATM    9  C6  UNL     1     -32.808  10.176   1.315  1.00 20.00     0.012 C 
HETATM   10  C7  UNL     1     -31.543   8.930  -0.460  1.00 20.00     0.012 C 
ENDBRANCH   3   8
TORSDOF 1
ENDMDL
MODEL 3
REMARK VINA RESULT:       2.2      1.525      3.766
REMARK  1 active torsions:
REMARK  status: ('A' for Active; 'I' for Inactive)
REMARK    1  A    between atoms: C3_3  and  C8_8 
ROOT
HETATM    1  C1  UNL     1     -32.532   6.230   1.494  1.00 20.00     0.017 C 
HETATM    2  C2  UNL     1     -31.825   7.568   1.338  1.00 20.00     0.092 C 
HETATM    3  C3  UNL     1     -32.927   6.962   3.604  1.00 20.00     0.173 C 
HETATM    4  C4  UNL     1     -32.573   5.290   0.323  1.00 20.00     0.066 C 
HETATM    5  C5  UNL     1     -32.575   8.482   0.383  1.00 20.00     0.028 C 
HETATM    6  N9  UNL     1     -33.120   5.900   2.604  1.00 20.00    -0.282 NA
HETATM    7  S10 UNL     1     -31.820   8.262   3.004  1.00 20.00    -0.131 SA
ENDROOT
BRANCH   3   8
HETATM    8  C8  UNL     1     -34.287   7.551   3.956  1.00 20.00     0.012 C 
HETATM    9  C6  UNL     1     -35.347   6.452   4.040  1.00 20.00     0.012 C 
HETATM   10  C7  UNL     1     -34.217   8.327   5.271  1.00 20.00     0.012 C 
ENDBRANCH   3   8
TORSDOF 1
ENDMDL
MODEL 4
REMARK VINA RESULT:       2.6      2.210      3.344
REMARK  1 active torsions:
REMARK  status: ('A' for Active; 'I' for Inactive)
REMARK    1  A    between atoms: C3_3  and  C8_8 
ROOT
HETATM    1  C1  UNL     1     -34.547   6.128   3.725  1.00 20.00     0.017 C 
HETATM    2  C2  UNL     1     -34.385   7.613   4.012  1.00 20.00     0.092 C 
HETATM    3  C3  UNL     1     -33.388   6.614   1.837  1.00 20.00     0.173 C 
HETATM    4  C4  UNL     1     -35.286   5.274   4.717  1.00 20.00     0.066 C 
HETATM    5  C5  UNL     1     -33.462   7.850   5.195  1.00 20.00     0.028 C 
HETATM    6  N9  UNL     1     -34.040   5.583   2.661  1.00 20.00    -0.282 NA
HETATM    7  S10 UNL     1     -33.657   8.277   2.500  1.00 20.00    -0.131 SA
ENDROOT
BRANCH   3   8
HETATM    8  C8  UNL     1     -31.898   6.310   1.768  1.00 20.00     0.012 C 
HETATM    9  C6  UNL     1     -31.625   5.154   0.806  1.00 20.00     0.012 C 
HETATM   10  C7  UNL     1     -31.111   7.552   1.348  1.00 20.00     0.012 C 
ENDBRANCH   3   8
TORSDOF 1
ENDMDL
MODEL 5
REMARK VINA RESULT:       2.7      2.786      3.641
REMARK  1 active torsions:
REMARK  status: ('A' for Active; 'I' for Inactive)
REMARK    1  A    between atoms: C3_3  and  C8_8 
ROOT
HETATM    1  C1  UNL     1     -33.166   5.648   2.155  1.00 20.00     0.017 C 
HETATM    2  C2  UNL     1     -34.159   4.907   3.038  1.00 20.00     0.092 C 
HETATM    3  C3  UNL     1     -33.801   7.453   3.374  1.00 20.00     0.173 C 
HETATM    4  C4  UNL     1     -32.414   4.880   1.105  1.00 20.00     0.066 C 
HETATM    5  C5  UNL     1     -33.453   3.941   3.974  1.00 20.00     0.028 C 
HETATM    6  N9  UNL     1     -32.937   6.917   2.308  1.00 20.00    -0.282 NA
HETATM    7  S10 UNL     1     -34.976   6.215   3.976  1.00 20.00    -0.131 SA
ENDROOT
BRANCH   3   8
HETATM    8  C8  UNL     1     -32.918   7.940   4.515  1.00 20.00     0.012 C 
HETATM    9  C6  UNL     1     -31.847   8.900   3.999  1.00 20.00     0.012 C 
HETATM   10  C7  UNL     1     -33.760   8.611   5.600  1.00 20.00     0.012 C 
ENDBRANCH   3   8
TORSDOF 1
ENDMDL
MODEL 6
REMARK VINA RESULT:       2.9      1.935      4.181
REMARK  1 active torsions:
REMARK  status: ('A' for Active; 'I' for Inactive)
REMARK    1  A    between atoms: C3_3  and  C8_8 
ROOT
HETATM    1  C1  UNL     1     -32.382   7.371   2.160  1.00 20.00     0.017 C 
HETATM    2  C2  UNL     1     -32.307   6.225   1.162  1.00 20.00     0.092 C 
HETATM    3  C3  UNL     1     -34.267   6.318   2.855  1.00 20.00     0.173 C 
HETATM    4  C4  UNL     1     -31.311   8.424   2.138  1.00 20.00     0.066 C 
HETATM    5  C5  UNL     1     -31.130   5.310   1.457  1.00 20.00     0.028 C 
HETATM    6  N9  UNL     1     -33.332   7.440   3.043  1.00 20.00    -0.282 NA
HETATM    7  S10 UNL     1     -33.866   5.343   1.384  1.00 20.00    -0.131 SA
ENDROOT
BRANCH   3   8
HETATM    8  C8  UNL     1     -34.224   5.437   4.098  1.00 20.00     0.012 C 
HETATM    9  C6  UNL     1     -35.606   5.350   4.746  1.00 20.00     0.012 C 
HETATM   10  C7  UNL     1     -33.707   4.041   3.753  1.00 20.00     0.012 C 
ENDBRANCH   3   8
TORSDOF 1
ENDMDL
MODEL 7
REMARK VINA RESULT:       3.1      1.834      3.776
REMARK  1 active torsions:
REMARK  status: ('A' for Active; 'I' for Inactive)
REMARK    1  A    between atoms: C3_3  and  C8_8 
ROOT
HETATM    1  C1  UNL     1     -32.057   7.476   1.565  1.00 20.00     0.017 C 
HETATM    2  C2  UNL     1     -32.161   6.057   1.025  1.00 20.00     0.092 C 
HETATM    3  C3  UNL     1     -34.055   6.996   2.526  1.00 20.00     0.173 C 
HETATM    4  C4  UNL     1     -30.852   8.301   1.211  1.00 20.00     0.066 C 
HETATM    5  C5  UNL     1     -31.116   5.149   1.651  1.00 20.00     0.028 C 
HETATM    6  N9  UNL     1     -32.971   7.975   2.342  1.00 20.00    -0.282 NA
HETATM    7  S10 UNL     1     -33.822   5.528   1.494  1.00 20.00    -0.131 SA
ENDROOT
BRANCH   3   8
HETATM    8  C8  UNL     1     -34.108   6.602   3.996  1.00 20.00     0.012 C 
HETATM    9  C6  UNL     1     -33.912   7.825   4.892  1.00 20.00     0.012 C 
HETATM   10  C7  UNL     1     -35.431   5.908   4.322  1.00 20.00     0.012 C 
ENDBRANCH   3   8
TORSDOF 1
ENDMDL
MODEL 8
REMARK VINA RESULT:       3.1      1.929      2.816
REMARK  1 active torsions:
REMARK  status: ('A' for Active; 'I' for Inactive)
REMARK    1  A    between atoms: C3_3  and  C8_8 
ROOT
HETATM    1  C1  UNL     1     -33.863   5.975   3.310  1.00 20.00     0.017 C 
HETATM    2  C2  UNL     1     -34.366   7.263   3.944  1.00 20.00     0.092 C 
HETATM    3  C3  UNL     1     -33.168   7.351   1.647  1.00 20.00     0.173 C 
HETATM    4  C4  UNL     1     -34.074   4.677   4.038  1.00 20.00     0.066 C 
HETATM    5  C5  UNL     1     -33.576   7.612   5.193  1.00 20.00     0.028 C 
HETATM    6  N9  UNL     1     -33.233   5.978   2.174  1.00 20.00    -0.282 NA
HETATM    7  S10 UNL     1     -34.112   8.512   2.665  1.00 20.00    -0.131 SA
ENDROOT
BRANCH   3   8
HETATM    8  C8  UNL     1     -31.707   7.777   1.581  1.00 20.00     0.012 C 
HETATM    9  C6  UNL     1     -31.453   8.652   0.354  1.00 20.00     0.012 C 
HETATM   10  C7  UNL     1     -31.301   8.515   2.857  1.00 20.00     0.012 C 
ENDBRANCH   3   8
TORSDOF 1
ENDMDL
MODEL 9
REMARK VINA RESULT:       3.2      1.217      3.781
REMARK  1 active torsions:
REMARK  status: ('A' for Active; 'I' for Inactive)
REMARK    1  A    between atoms: C3_3  and  C8_8 
ROOT
HETATM    1  C1  UNL     1     -32.636   8.500   1.355  1.00 20.00     0.017 C 
HETATM    2  C2  UNL     1     -31.421   7.585   1.376  1.00 20.00     0.092 C 
HETATM    3  C3  UNL     1     -33.702   6.701   2.233  1.00 20.00     0.173 C 
HETATM    4  C4  UNL     1     -32.480   9.902   0.836  1.00 20.00     0.066 C 
HETATM    5  C5  UNL     1     -30.392   8.052   2.391  1.00 20.00     0.028 C 
HETATM    6  N9  UNL     1     -33.790   8.106   1.801  1.00 20.00    -0.282 NA
HETATM    7  S10 UNL     1     -32.089   5.976   1.848  1.00 20.00    -0.131 SA
ENDROOT
BRANCH   3   8
HETATM    8  C8  UNL     1     -33.964   6.636   3.731  1.00 20.00     0.012 C 
HETATM    9  C6  UNL     1     -33.767   8.009   4.375  1.00 20.00     0.012 C 
HETATM   10  C7  UNL     1     -35.372   6.112   4.012  1.00 20.00     0.012 C 
ENDBRANCH   3   8
TORSDOF 1
ENDMDL
