MODEL 1
REMARK VINA RESULT:      -1.5      0.000      0.000
REMARK  0 active torsions:
REMARK  status: ('A' for Active; 'I' for Inactive)
ROOT
HETATM    1  C1  UNL     1     -33.365   6.009   1.939  1.00 20.00     0.048 C 
HETATM    2  C2  UNL     1     -32.104   6.768   1.582  1.00 20.00     0.169 C 
HETATM    3  C3  UNL     1     -33.225   7.958   3.245  1.00 20.00     0.187 C 
HETATM    4  C4  UNL     1     -33.617   6.498   3.345  1.00 20.00     0.108 C 
HETATM    5  O5  UNL     1     -32.178   8.030   2.263  1.00 20.00    -0.390 OA
HETATM    6 CL6  UNL     1     -35.290   6.267   3.861  1.00 20.00    -0.123 Cl
ENDROOT
TORSDOF 0
ENDMDL
MODEL 2
REMARK VINA RESULT:      -1.5      2.155      2.635
REMARK  0 active torsions:
REMARK  status: ('A' for Active; 'I' for Inactive)
ROOT
HETATM    1  C1  UNL     1     -34.089   5.480   3.224  1.00 20.00     0.048 C 
HETATM    2  C2  UNL     1     -34.869   6.495   4.032  1.00 20.00     0.169 C 
HETATM    3  C3  UNL     1     -33.065   7.588   3.038  1.00 20.00     0.187 C 
HETATM    4  C4  UNL     1     -33.412   6.369   2.208  1.00 20.00     0.108 C 
HETATM    5  O5  UNL     1     -34.090   7.702   4.039  1.00 20.00    -0.390 OA
HETATM    6 CL6  UNL     1     -31.996   5.612   1.471  1.00 20.00    -0.123 Cl
ENDROOT
TORSDOF 0
ENDMDL
MODEL 3
REMARK VINA RESULT:      -1.4      0.984      1.672
REMARK  0 active torsions:
REMARK  status: ('A' for Active; 'I' for Inactive)
ROOT
HETATM    1  C1  UNL     1     -32.847   7.904   3.037  1.00 20.00     0.048 C 
HETATM    2  C2  UNL     1     -31.891   7.851   1.865  1.00 20.00     0.169 C 
HETATM    3  C3  UNL     1     -33.012   5.809   1.983  1.00 20.00     0.187 C 
HETATM    4  C4  UNL     1     -33.875   6.875   2.629  1.00 20.00     0.108 C 
HETATM    5  O5  UNL     1     -31.895   6.495   1.392  1.00 20.00    -0.390 OA
HETATM    6 CL6  UNL     1     -34.815   6.267   3.994  1.00 20.00    -0.123 Cl
ENDROOT
TORSDOF 0
ENDMDL
MODEL 4
REMARK VINA RESULT:      -1.2      2.406      3.011
REMARK  0 active torsions:
REMARK  status: ('A' for Active; 'I' for Inactive)
ROOT
HETATM    1  C1  UNL     1     -33.703   7.739   3.134  1.00 20.00     0.048 C 
HETATM    2  C2  UNL     1     -34.040   6.344   3.614  1.00 20.00     0.169 C 
HETATM    3  C3  UNL     1     -32.770   6.157   1.667  1.00 20.00     0.187 C 
HETATM    4  C4  UNL     1     -32.450   7.482   2.330  1.00 20.00     0.108 C 
HETATM    5  O5  UNL     1     -33.617   5.441   2.581  1.00 20.00    -0.390 OA
HETATM    6 CL6  UNL     1     -32.104   8.767   1.169  1.00 20.00    -0.123 Cl
ENDROOT
TORSDOF 0
ENDMDL
MODEL 5
REMARK VINA RESULT:      -1.2      2.529      3.193
REMARK  0 active torsions:
REMARK  status: ('A' for Active; 'I' for Inactive)
ROOT
HETATM    1  C1  UNL     1     -35.123   5.052   4.677  1.00 20.00     0.048 C 
HETATM    2  C2  UNL     1     -35.305   6.314   3.861  1.00 20.00     0.169 C 
HETATM    3  C3  UNL     1     -33.255   5.364   3.284  1.00 20.00     0.187 C 
HETATM    4  C4  UNL     1     -34.167   4.272   3.806  1.00 20.00     0.108 C 
HETATM    5  O5  UNL     1     -34.060   6.551   3.187  1.00 20.00    -0.390 OA
HETATM    6 CL6  UNL     1     -33.298   3.017   4.695  1.00 20.00    -0.123 Cl
ENDROOT
TORSDOF 0
ENDMDL
MODEL 6
REMARK VINA RESULT:      -1.1      2.413      2.753
REMARK  0 active torsions:
REMARK  status: ('A' for Active; 'I' for Inactive)
ROOT
HETATM    1  C1  UNL     1     -33.650   5.968   2.757  1.00 20.00     0.048 C 
HETATM    2  C2  UNL     1     -34.790   6.062   3.749  1.00 20.00     0.169 C 
HETATM    3  C3  UNL     1     -33.531   8.019   3.900  1.00 20.00     0.187 C 
HETATM    4  C4  UNL     1     -33.346   7.428   2.517  1.00 20.00     0.108 C 
HETATM    5  O5  UNL     1     -34.548   7.233   4.543  1.00 20.00    -0.390 OA
HETATM    6 CL6  UNL     1     -31.725   7.692   1.866  1.00 20.00    -0.123 Cl
ENDROOT
TORSDOF 0
ENDMDL
MODEL 7
REMARK VINA RESULT:      -1.1      2.850      3.530
REMARK  0 active torsions:
REMARK  status: ('A' for Active; 'I' for Inactive)
ROOT
HETATM    1  C1  UNL     1     -34.719   6.627   3.274  1.00 20.00     0.048 C 
HETATM    2  C2  UNL     1     -35.422   6.044   4.481  1.00 20.00     0.169 C 
HETATM    3  C3  UNL     1     -34.012   4.409   3.599  1.00 20.00     0.187 C 
HETATM    4  C4  UNL     1     -33.475   5.773   3.213  1.00 20.00     0.108 C 
HETATM    5  O5  UNL     1     -35.101   4.644   4.507  1.00 20.00    -0.390 OA
HETATM    6 CL6  UNL     1     -32.711   5.788   1.621  1.00 20.00    -0.123 Cl
ENDROOT
TORSDOF 0
ENDMDL
MODEL 8
REMARK VINA RESULT:      -0.9      2.283      2.845
REMARK  0 active torsions:
REMARK  status: ('A' for Active; 'I' for Inactive)
ROOT
HETATM    1  C1  UNL     1     -33.141   7.681   2.895  1.00 20.00     0.048 C 
HETATM    2  C2  UNL     1     -33.931   7.906   4.167  1.00 20.00     0.169 C 
HETATM    3  C3  UNL     1     -34.482   5.800   3.330  1.00 20.00     0.187 C 
HETATM    4  C4  UNL     1     -33.099   6.173   2.835  1.00 20.00     0.108 C 
HETATM    5  O5  UNL     1     -34.865   6.820   4.268  1.00 20.00    -0.390 OA
HETATM    6 CL6  UNL     1     -32.759   5.561   1.214  1.00 20.00    -0.123 Cl
ENDROOT
TORSDOF 0
ENDMDL
MODEL 9
REMARK VINA RESULT:      -0.8      2.020      2.448
REMARK  0 active torsions:
REMARK  status: ('A' for Active; 'I' for Inactive)
ROOT
HETATM    1  C1  UNL     1     -32.070   7.467   1.491  1.00 20.00     0.048 C 
HETATM    2  C2  UNL     1     -32.316   8.234   2.773  1.00 20.00     0.169 C 
HETATM    3  C3  UNL     1     -33.666   6.332   2.792  1.00 20.00     0.187 C 
HETATM    4  C4  UNL     1     -32.468   6.069   1.901  1.00 20.00     0.108 C 
HETATM    5  O5  UNL     1     -33.430   7.603   3.421  1.00 20.00    -0.390 OA
HETATM    6 CL6  UNL     1     -32.849   5.032   0.523  1.00 20.00    -0.123 Cl
ENDROOT
TORSDOF 0
ENDMDL
