MODEL 1
REMARK VINA RESULT:      -1.9      0.000      0.000
REMARK  2 active torsions:
REMARK  status: ('A' for Active; 'I' for Inactive)
REMARK    1  A    between atoms: C2_2  and  C5_5 
REMARK    2  A    between atoms: C5_5  and  C6_6 
ROOT
HETATM    1  C1  UNL     1     -31.325   8.188   1.955  1.00 20.00     0.206 A 
HETATM    2  C2  UNL     1     -32.506   7.251   2.023  1.00 20.00     0.079 A 
HETATM    3  C3  UNL     1     -32.447   5.938   1.311  1.00 20.00     0.048 C 
HETATM    4  O7  UNL     1     -32.493   8.385   1.145  1.00 20.00    -0.375 OA
ENDROOT
BRANCH   2   5
HETATM    5  C5  UNL     1     -33.495   7.375   3.169  1.00 20.00     0.039 C 
BRANCH   5   6
HETATM    6  C6  UNL     1     -34.150   6.033   3.491  1.00 20.00    -0.002 C 
HETATM    7  C4  UNL     1     -35.514   6.220   4.139  1.00 20.00     0.005 C 
ENDBRANCH   5   6
ENDBRANCH   2   5
TORSDOF 2
ENDMDL
MODEL 2
REMARK VINA RESULT:      -1.8      1.893      3.743
REMARK  2 active torsions:
REMARK  status: ('A' for Active; 'I' for Inactive)
REMARK    1  A    between atoms: C2_2  and  C5_5 
REMARK    2  A    between atoms: C5_5  and  C6_6 
ROOT
HETATM    1  C1  UNL     1     -34.798   5.553   4.151  1.00 20.00     0.206 A 
HETATM    2  C2  UNL     1     -34.133   6.793   3.605  1.00 20.00     0.079 A 
HETATM    3  C3  UNL     1     -33.780   7.909   4.534  1.00 20.00     0.048 C 
HETATM    4  O7  UNL     1     -35.544   6.575   3.474  1.00 20.00    -0.375 OA
ENDROOT
BRANCH   2   5
HETATM    5  C5  UNL     1     -33.377   6.720   2.289  1.00 20.00     0.039 C 
BRANCH   5   6
HETATM    6  C6  UNL     1     -32.187   7.678   2.272  1.00 20.00    -0.002 C 
HETATM    7  C4  UNL     1     -32.284   8.666   1.119  1.00 20.00     0.005 C 
ENDBRANCH   5   6
ENDBRANCH   2   5
TORSDOF 2
ENDMDL
MODEL 3
REMARK VINA RESULT:      -1.8      2.433      3.209
REMARK  2 active torsions:
REMARK  status: ('A' for Active; 'I' for Inactive)
REMARK    1  A    between atoms: C2_2  and  C5_5 
REMARK    2  A    between atoms: C5_5  and  C6_6 
ROOT
HETATM    1  C1  UNL     1     -34.250   7.385   4.249  1.00 20.00     0.206 A 
HETATM    2  C2  UNL     1     -34.209   6.047   3.550  1.00 20.00     0.079 A 
HETATM    3  C3  UNL     1     -33.421   5.899   2.289  1.00 20.00     0.048 C 
HETATM    4  O7  UNL     1     -35.335   6.927   3.428  1.00 20.00    -0.375 OA
ENDROOT
BRANCH   2   5
HETATM    5  C5  UNL     1     -34.503   4.782   4.339  1.00 20.00     0.039 C 
BRANCH   5   6
HETATM    6  C6  UNL     1     -33.627   3.619   3.878  1.00 20.00    -0.002 C 
HETATM    7  C4  UNL     1     -33.022   2.875   5.059  1.00 20.00     0.005 C 
ENDBRANCH   5   6
ENDBRANCH   2   5
TORSDOF 2
ENDMDL
MODEL 4
REMARK VINA RESULT:      -1.5      2.048      3.020
REMARK  2 active torsions:
REMARK  status: ('A' for Active; 'I' for Inactive)
REMARK    1  A    between atoms: C2_2  and  C5_5 
REMARK    2  A    between atoms: C5_5  and  C6_6 
ROOT
HETATM    1  C1  UNL     1     -33.438   7.544   2.679  1.00 20.00     0.206 A 
HETATM    2  C2  UNL     1     -34.031   6.395   3.458  1.00 20.00     0.079 A 
HETATM    3  C3  UNL     1     -35.465   6.448   3.873  1.00 20.00     0.048 C 
HETATM    4  O7  UNL     1     -33.209   7.388   4.087  1.00 20.00    -0.375 OA
ENDROOT
BRANCH   2   5
HETATM    5  C5  UNL     1     -33.381   5.023   3.379  1.00 20.00     0.039 C 
BRANCH   5   6
HETATM    6  C6  UNL     1     -34.096   4.012   4.274  1.00 20.00    -0.002 C 
HETATM    7  C4  UNL     1     -33.162   2.893   4.707  1.00 20.00     0.005 C 
ENDBRANCH   5   6
ENDBRANCH   2   5
TORSDOF 2
ENDMDL
MODEL 5
REMARK VINA RESULT:      -1.5      1.640      3.523
REMARK  2 active torsions:
REMARK  status: ('A' for Active; 'I' for Inactive)
REMARK    1  A    between atoms: C2_2  and  C5_5 
REMARK    2  A    between atoms: C5_5  and  C6_6 
ROOT
HETATM    1  C1  UNL     1     -32.307   5.538   1.729  1.00 20.00     0.206 A 
HETATM    2  C2  UNL     1     -32.671   6.975   2.016  1.00 20.00     0.079 A 
HETATM    3  C3  UNL     1     -33.518   7.297   3.204  1.00 20.00     0.048 C 
HETATM    4  O7  UNL     1     -33.352   6.210   1.011  1.00 20.00    -0.375 OA
ENDROOT
BRANCH   2   5
HETATM    5  C5  UNL     1     -31.809   8.092   1.454  1.00 20.00     0.039 C 
BRANCH   5   6
HETATM    6  C6  UNL     1     -32.624   9.362   1.216  1.00 20.00    -0.002 C 
HETATM    7  C4  UNL     1     -32.430   9.892  -0.197  1.00 20.00     0.005 C 
ENDBRANCH   5   6
ENDBRANCH   2   5
TORSDOF 2
ENDMDL
MODEL 6
REMARK VINA RESULT:      -1.4      1.171      1.673
REMARK  2 active torsions:
REMARK  status: ('A' for Active; 'I' for Inactive)
REMARK    1  A    between atoms: C2_2  and  C5_5 
REMARK    2  A    between atoms: C5_5  and  C6_6 
ROOT
HETATM    1  C1  UNL     1     -32.244   8.647   1.041  1.00 20.00     0.206 A 
HETATM    2  C2  UNL     1     -32.362   7.970   2.385  1.00 20.00     0.079 A 
HETATM    3  C3  UNL     1     -31.820   8.648   3.602  1.00 20.00     0.048 C 
HETATM    4  O7  UNL     1     -31.354   7.593   1.437  1.00 20.00    -0.375 OA
ENDROOT
BRANCH   2   5
HETATM    5  C5  UNL     1     -33.429   6.909   2.598  1.00 20.00     0.039 C 
BRANCH   5   6
HETATM    6  C6  UNL     1     -34.236   7.174   3.868  1.00 20.00    -0.002 C 
HETATM    7  C4  UNL     1     -35.333   6.138   4.058  1.00 20.00     0.005 C 
ENDBRANCH   5   6
ENDBRANCH   2   5
TORSDOF 2
ENDMDL
MODEL 7
REMARK VINA RESULT:      -1.4      1.184      1.836
REMARK  2 active torsions:
REMARK  status: ('A' for Active; 'I' for Inactive)
REMARK    1  A    between atoms: C2_2  and  C5_5 
REMARK    2  A    between atoms: C5_5  and  C6_6 
ROOT
HETATM    1  C1  UNL     1     -32.975   5.960   1.232  1.00 20.00     0.206 A 
HETATM    2  C2  UNL     1     -32.580   7.170   2.044  1.00 20.00     0.079 A 
HETATM    3  C3  UNL     1     -32.295   8.462   1.351  1.00 20.00     0.048 C 
HETATM    4  O7  UNL     1     -31.643   6.129   1.736  1.00 20.00    -0.375 OA
ENDROOT
BRANCH   2   5
HETATM    5  C5  UNL     1     -32.957   7.239   3.515  1.00 20.00     0.039 C 
BRANCH   5   6
HETATM    6  C6  UNL     1     -34.451   7.498   3.698  1.00 20.00    -0.002 C 
HETATM    7  C4  UNL     1     -35.202   6.219   4.034  1.00 20.00     0.005 C 
ENDBRANCH   5   6
ENDBRANCH   2   5
TORSDOF 2
ENDMDL
MODEL 8
REMARK VINA RESULT:      -1.3      1.651      3.457
REMARK  2 active torsions:
REMARK  status: ('A' for Active; 'I' for Inactive)
REMARK    1  A    between atoms: C2_2  and  C5_5 
REMARK    2  A    between atoms: C5_5  and  C6_6 
ROOT
HETATM    1  C1  UNL     1     -35.298   6.578   3.736  1.00 20.00     0.206 A 
HETATM    2  C2  UNL     1     -34.084   5.821   3.256  1.00 20.00     0.079 A 
HETATM    3  C3  UNL     1     -33.733   4.514   3.889  1.00 20.00     0.048 C 
HETATM    4  O7  UNL     1     -33.972   6.942   4.145  1.00 20.00    -0.375 OA
ENDROOT
BRANCH   2   5
HETATM    5  C5  UNL     1     -33.537   6.088   1.864  1.00 20.00     0.039 C 
BRANCH   5   6
HETATM    6  C6  UNL     1     -32.090   6.574   1.914  1.00 20.00    -0.002 C 
HETATM    7  C4  UNL     1     -31.993   8.067   1.637  1.00 20.00     0.005 C 
ENDBRANCH   5   6
ENDBRANCH   2   5
TORSDOF 2
ENDMDL
MODEL 9
REMARK VINA RESULT:      -1.2      1.792      3.442
REMARK  2 active torsions:
REMARK  status: ('A' for Active; 'I' for Inactive)
REMARK    1  A    between atoms: C2_2  and  C5_5 
REMARK    2  A    between atoms: C5_5  and  C6_6 
ROOT
HETATM    1  C1  UNL     1     -34.396   7.225   3.279  1.00 20.00     0.206 A 
HETATM    2  C2  UNL     1     -33.095   7.083   2.526  1.00 20.00     0.079 A 
HETATM    3  C3  UNL     1     -32.887   5.906   1.630  1.00 20.00     0.048 C 
HETATM    4  O7  UNL     1     -33.205   6.740   3.915  1.00 20.00    -0.375 OA
ENDROOT
BRANCH   2   5
HETATM    5  C5  UNL     1     -32.243   8.314   2.266  1.00 20.00     0.039 C 
BRANCH   5   6
HETATM    6  C6  UNL     1     -32.006   8.526   0.772  1.00 20.00    -0.002 C 
HETATM    7  C4  UNL     1     -32.452   9.910   0.327  1.00 20.00     0.005 C 
ENDBRANCH   5   6
ENDBRANCH   2   5
TORSDOF 2
ENDMDL
