MODEL 1
REMARK VINA RESULT:       0.9      0.000      0.000
REMARK  1 active torsions:
REMARK  status: ('A' for Active; 'I' for Inactive)
REMARK    1  A    between atoms: C3_3  and  C8_8 
ROOT
HETATM    1  C1  UNL     1     -33.504   5.303   3.206  1.00 20.00     0.017 C 
HETATM    2  C2  UNL     1     -34.229   6.270   4.128  1.00 20.00     0.092 C 
HETATM    3  C3  UNL     1     -33.209   7.139   1.909  1.00 20.00     0.173 C 
HETATM    4  C4  UNL     1     -33.394   3.860   3.610  1.00 20.00     0.066 C 
HETATM    5  C5  UNL     1     -35.717   5.967   4.189  1.00 20.00     0.028 C 
HETATM    6  N9  UNL     1     -32.997   5.692   2.076  1.00 20.00    -0.282 NA
HETATM    7  S10 UNL     1     -33.947   7.890   3.380  1.00 20.00    -0.131 SA
ENDROOT
BRANCH   3   8
HETATM    8  C8  UNL     1     -31.868   7.793   1.607  1.00 20.00     0.012 C 
HETATM    9  C6  UNL     1     -32.020   8.871   0.533  1.00 20.00     0.012 C 
HETATM   10  C7  UNL     1     -31.255   8.386   2.875  1.00 20.00     0.012 C 
ENDBRANCH   3   8
TORSDOF 1
ENDMDL
MODEL 2
REMARK VINA RESULT:       1.0      1.671      2.493
REMARK  1 active torsions:
REMARK  status: ('A' for Active; 'I' for Inactive)
REMARK    1  A    between atoms: C3_3  and  C8_8 
ROOT
HETATM    1  C1  UNL     1     -33.630   7.185   3.246  1.00 20.00     0.017 C 
HETATM    2  C2  UNL     1     -33.685   5.821   2.578  1.00 20.00     0.092 C 
HETATM    3  C3  UNL     1     -32.052   7.621   1.677  1.00 20.00     0.173 C 
HETATM    4  C4  UNL     1     -34.532   7.457   4.416  1.00 20.00     0.066 C 
HETATM    5  C5  UNL     1     -33.153   4.732   3.496  1.00 20.00     0.028 C 
HETATM    6  N9  UNL     1     -32.812   8.108   2.841  1.00 20.00    -0.282 NA
HETATM    7  S10 UNL     1     -32.623   5.995   1.128  1.00 20.00    -0.131 SA
ENDROOT
BRANCH   3   8
HETATM    8  C8  UNL     1     -32.193   8.633   0.549  1.00 20.00     0.012 C 
HETATM    9  C6  UNL     1     -32.661   9.985   1.089  1.00 20.00     0.012 C 
HETATM   10  C7  UNL     1     -30.875   8.789  -0.208  1.00 20.00     0.012 C 
ENDBRANCH   3   8
TORSDOF 1
ENDMDL
MODEL 3
REMARK VINA RESULT:       1.4      1.690      2.567
REMARK  1 active torsions:
REMARK  status: ('A' for Active; 'I' for Inactive)
REMARK    1  A    between atoms: C3_3  and  C8_8 
ROOT
HETATM    1  C1  UNL     1     -33.528   7.335   3.097  1.00 20.00     0.017 C 
HETATM    2  C2  UNL     1     -33.491   6.077   2.247  1.00 20.00     0.092 C 
HETATM    3  C3  UNL     1     -31.837   8.008   1.745  1.00 20.00     0.173 C 
HETATM    4  C4  UNL     1     -34.532   7.429   4.211  1.00 20.00     0.066 C 
HETATM    5  C5  UNL     1     -33.009   4.879   3.049  1.00 20.00     0.028 C 
HETATM    6  N9  UNL     1     -32.704   8.317   2.894  1.00 20.00    -0.282 NA
HETATM    7  S10 UNL     1     -32.318   6.466   0.930  1.00 20.00    -0.131 SA
ENDROOT
BRANCH   3   8
HETATM    8  C8  UNL     1     -31.911   9.164   0.758  1.00 20.00     0.012 C 
HETATM    9  C6  UNL     1     -32.480   8.698  -0.583  1.00 20.00     0.012 C 
HETATM   10  C7  UNL     1     -32.752  10.308   1.324  1.00 20.00     0.012 C 
ENDBRANCH   3   8
TORSDOF 1
ENDMDL
MODEL 4
REMARK VINA RESULT:       1.5      1.246      3.744
REMARK  1 active torsions:
REMARK  status: ('A' for Active; 'I' for Inactive)
REMARK    1  A    between atoms: C3_3  and  C8_8 
ROOT
HETATM    1  C1  UNL     1     -32.790   6.020   1.806  1.00 20.00     0.017 C 
HETATM    2  C2  UNL     1     -32.647   7.524   1.644  1.00 20.00     0.092 C 
HETATM    3  C3  UNL     1     -33.673   6.565   3.822  1.00 20.00     0.173 C 
HETATM    4  C4  UNL     1     -32.333   5.123   0.691  1.00 20.00     0.066 C 
HETATM    5  C5  UNL     1     -31.187   7.946   1.636  1.00 20.00     0.028 C 
HETATM    6  N9  UNL     1     -33.278   5.497   2.889  1.00 20.00    -0.282 NA
HETATM    7  S10 UNL     1     -33.491   8.208   3.087  1.00 20.00    -0.131 SA
ENDROOT
BRANCH   3   8
HETATM    8  C8  UNL     1     -35.119   6.335   4.237  1.00 20.00     0.012 C 
HETATM    9  C6  UNL     1     -36.077   6.763   3.124  1.00 20.00     0.012 C 
HETATM   10  C7  UNL     1     -35.352   4.871   4.606  1.00 20.00     0.012 C 
ENDBRANCH   3   8
TORSDOF 1
ENDMDL
MODEL 5
REMARK VINA RESULT:       1.6      1.605      4.183
REMARK  1 active torsions:
REMARK  status: ('A' for Active; 'I' for Inactive)
REMARK    1  A    between atoms: C3_3  and  C8_8 
ROOT
HETATM    1  C1  UNL     1     -32.773   7.745   3.459  1.00 20.00     0.017 C 
HETATM    2  C2  UNL     1     -32.025   7.329   2.204  1.00 20.00     0.092 C 
HETATM    3  C3  UNL     1     -34.258   6.161   2.807  1.00 20.00     0.173 C 
HETATM    4  C4  UNL     1     -32.193   8.828   4.325  1.00 20.00     0.066 C 
HETATM    5  C5  UNL     1     -32.027   8.438   1.163  1.00 20.00     0.028 C 
HETATM    6  N9  UNL     1     -33.905   7.202   3.787  1.00 20.00    -0.282 NA
HETATM    7  S10 UNL     1     -32.941   5.896   1.597  1.00 20.00    -0.131 SA
ENDROOT
BRANCH   3   8
HETATM    8  C8  UNL     1     -34.546   4.868   3.557  1.00 20.00     0.012 C 
HETATM    9  C6  UNL     1     -33.246   4.159   3.934  1.00 20.00     0.012 C 
HETATM   10  C7  UNL     1     -35.387   5.140   4.805  1.00 20.00     0.012 C 
ENDBRANCH   3   8
TORSDOF 1
ENDMDL
MODEL 6
REMARK VINA RESULT:       1.6      1.454      4.310
REMARK  1 active torsions:
REMARK  status: ('A' for Active; 'I' for Inactive)
REMARK    1  A    between atoms: C3_3  and  C8_8 
ROOT
HETATM    1  C1  UNL     1     -32.349   8.029   3.131  1.00 20.00     0.017 C 
HETATM    2  C2  UNL     1     -31.889   7.346   1.854  1.00 20.00     0.092 C 
HETATM    3  C3  UNL     1     -34.003   6.480   3.077  1.00 20.00     0.173 C 
HETATM    4  C4  UNL     1     -31.558   9.194   3.657  1.00 20.00     0.066 C 
HETATM    5  C5  UNL     1     -32.052   8.257   0.648  1.00 20.00     0.028 C 
HETATM    6  N9  UNL     1     -33.414   7.641   3.763  1.00 20.00    -0.282 NA
HETATM    7  S10 UNL     1     -32.970   5.907   1.707  1.00 20.00    -0.131 SA
ENDROOT
BRANCH   3   8
HETATM    8  C8  UNL     1     -34.191   5.362   4.092  1.00 20.00     0.012 C 
HETATM    9  C6  UNL     1     -35.650   5.278   4.544  1.00 20.00     0.012 C 
HETATM   10  C7  UNL     1     -33.735   4.022   3.514  1.00 20.00     0.012 C 
ENDBRANCH   3   8
TORSDOF 1
ENDMDL
MODEL 7
REMARK VINA RESULT:       1.6      0.524      1.059
REMARK  1 active torsions:
REMARK  status: ('A' for Active; 'I' for Inactive)
REMARK    1  A    between atoms: C3_3  and  C8_8 
ROOT
HETATM    1  C1  UNL     1     -33.613   5.303   3.260  1.00 20.00     0.017 C 
HETATM    2  C2  UNL     1     -34.318   6.156   4.301  1.00 20.00     0.092 C 
HETATM    3  C3  UNL     1     -33.401   7.266   2.146  1.00 20.00     0.173 C 
HETATM    4  C4  UNL     1     -33.461   3.829   3.510  1.00 20.00     0.066 C 
HETATM    5  C5  UNL     1     -35.797   5.817   4.387  1.00 20.00     0.028 C 
HETATM    6  N9  UNL     1     -33.158   5.815   2.157  1.00 20.00    -0.282 NA
HETATM    7  S10 UNL     1     -34.094   7.849   3.712  1.00 20.00    -0.131 SA
ENDROOT
BRANCH   3   8
HETATM    8  C8  UNL     1     -32.085   7.976   1.862  1.00 20.00     0.012 C 
HETATM    9  C6  UNL     1     -31.050   6.997   1.307  1.00 20.00     0.012 C 
HETATM   10  C7  UNL     1     -32.293   9.139   0.892  1.00 20.00     0.012 C 
ENDBRANCH   3   8
TORSDOF 1
ENDMDL
MODEL 8
REMARK VINA RESULT:       2.2      1.807      3.956
REMARK  1 active torsions:
REMARK  status: ('A' for Active; 'I' for Inactive)
REMARK    1  A    between atoms: C3_3  and  C8_8 
ROOT
HETATM    1  C1  UNL     1     -32.253   7.157   1.835  1.00 20.00     0.017 C 
HETATM    2  C2  UNL     1     -31.934   5.672   1.898  1.00 20.00     0.092 C 
HETATM    3  C3  UNL     1     -34.304   6.499   2.542  1.00 20.00     0.173 C 
HETATM    4  C4  UNL     1     -31.177   8.112   1.403  1.00 20.00     0.066 C 
HETATM    5  C5  UNL     1     -31.703   5.095   0.511  1.00 20.00     0.028 C 
HETATM    6  N9  UNL     1     -33.432   7.611   2.129  1.00 20.00    -0.282 NA
HETATM    7  S10 UNL     1     -33.402   4.935   2.648  1.00 20.00    -0.131 SA
ENDROOT
BRANCH   3   8
HETATM    8  C8  UNL     1     -34.918   6.841   3.892  1.00 20.00     0.012 C 
HETATM    9  C6  UNL     1     -35.323   5.571   4.641  1.00 20.00     0.012 C 
HETATM   10  C7  UNL     1     -33.949   7.670   4.734  1.00 20.00     0.012 C 
ENDBRANCH   3   8
TORSDOF 1
ENDMDL
MODEL 9
REMARK VINA RESULT:       2.2      1.365      4.142
REMARK  1 active torsions:
REMARK  status: ('A' for Active; 'I' for Inactive)
REMARK    1  A    between atoms: C3_3  and  C8_8 
ROOT
HETATM    1  C1  UNL     1     -32.365   5.636   1.553  1.00 20.00     0.017 C 
HETATM    2  C2  UNL     1     -33.024   6.999   1.679  1.00 20.00     0.092 C 
HETATM    3  C3  UNL     1     -33.196   5.310   3.637  1.00 20.00     0.173 C 
HETATM    4  C4  UNL     1     -31.629   5.300   0.287  1.00 20.00     0.066 C 
HETATM    5  C5  UNL     1     -31.990   8.111   1.750  1.00 20.00     0.028 C 
HETATM    6  N9  UNL     1     -32.408   4.768   2.517  1.00 20.00    -0.282 NA
HETATM    7  S10 UNL     1     -33.950   6.902   3.227  1.00 20.00    -0.131 SA
ENDROOT
BRANCH   3   8
HETATM    8  C8  UNL     1     -34.275   4.300   4.002  1.00 20.00     0.012 C 
HETATM    9  C6  UNL     1     -33.681   3.135   4.794  1.00 20.00     0.012 C 
HETATM   10  C7  UNL     1     -35.397   4.968   4.797  1.00 20.00     0.012 C 
ENDBRANCH   3   8
TORSDOF 1
ENDMDL
