MODEL 1
REMARK VINA RESULT:      -2.0      0.000      0.000
REMARK  3 active torsions:
REMARK  status: ('A' for Active; 'I' for Inactive)
REMARK    1  A    between atoms: C4_4  and  C6_6 
REMARK    2  A    between atoms: C6_6  and  C8_8 
REMARK    3  A    between atoms: C7_7  and  C8_8 
ROOT
HETATM    1  C1  UNL     1     -35.098   6.194   4.066  1.00 20.00     0.011 C 
HETATM    2  C2  UNL     1     -34.159   7.388   3.971  1.00 20.00     0.016 C 
HETATM    3  C3  UNL     1     -34.280   4.974   3.679  1.00 20.00     0.074 C 
HETATM    4  C4  UNL     1     -33.506   7.313   2.595  1.00 20.00     0.047 C 
HETATM    5  S9  UNL     1     -33.211   5.535   2.324  1.00 20.00    -0.164 SA
ENDROOT
BRANCH   4   6
HETATM    6  C6  UNL     1     -32.217   8.112   2.511  1.00 20.00     0.015 C 
BRANCH   6   7
HETATM    7  C8  UNL     1     -31.889   8.497   1.069  1.00 20.00     0.001 C 
BRANCH   7   8
HETATM    8  C7  UNL     1     -32.370   9.913   0.749  1.00 20.00    -0.005 C 
HETATM    9  C5  UNL     1     -32.758  10.052  -0.714  1.00 20.00     0.005 C 
ENDBRANCH   7   8
ENDBRANCH   6   7
ENDBRANCH   4   6
TORSDOF 3
ENDMDL
MODEL 2
REMARK VINA RESULT:      -1.5      1.526      4.925
REMARK  3 active torsions:
REMARK  status: ('A' for Active; 'I' for Inactive)
REMARK    1  A    between atoms: C4_4  and  C6_6 
REMARK    2  A    between atoms: C6_6  and  C8_8 
REMARK    3  A    between atoms: C7_7  and  C8_8 
ROOT
HETATM    1  C1  UNL     1     -31.973   8.386   2.896  1.00 20.00     0.011 C 
HETATM    2  C2  UNL     1     -33.236   7.998   3.651  1.00 20.00     0.016 C 
HETATM    3  C3  UNL     1     -32.128   7.834   1.490  1.00 20.00     0.074 C 
HETATM    4  C4  UNL     1     -33.424   6.500   3.436  1.00 20.00     0.047 C 
HETATM    5  S9  UNL     1     -32.933   6.222   1.703  1.00 20.00    -0.164 SA
ENDROOT
BRANCH   4   6
HETATM    6  C6  UNL     1     -34.850   6.042   3.693  1.00 20.00     0.015 C 
BRANCH   6   7
HETATM    7  C8  UNL     1     -34.884   4.724   4.466  1.00 20.00     0.001 C 
BRANCH   7   8
HETATM    8  C7  UNL     1     -33.812   3.757   3.963  1.00 20.00    -0.005 C 
HETATM    9  C5  UNL     1     -33.136   3.028   5.114  1.00 20.00     0.005 C 
ENDBRANCH   7   8
ENDBRANCH   6   7
ENDBRANCH   4   6
TORSDOF 3
ENDMDL
MODEL 3
REMARK VINA RESULT:      -1.5      1.248      1.680
REMARK  3 active torsions:
REMARK  status: ('A' for Active; 'I' for Inactive)
REMARK    1  A    between atoms: C4_4  and  C6_6 
REMARK    2  A    between atoms: C6_6  and  C8_8 
REMARK    3  A    between atoms: C7_7  and  C8_8 
ROOT
HETATM    1  C1  UNL     1     -34.538   4.857   4.087  1.00 20.00     0.011 C 
HETATM    2  C2  UNL     1     -33.713   5.001   2.816  1.00 20.00     0.016 C 
HETATM    3  C3  UNL     1     -35.342   6.137   4.225  1.00 20.00     0.074 C 
HETATM    4  C4  UNL     1     -32.997   6.345   2.918  1.00 20.00     0.047 C 
HETATM    5  S9  UNL     1     -34.220   7.458   3.684  1.00 20.00    -0.164 SA
ENDROOT
BRANCH   4   6
HETATM    6  C6  UNL     1     -32.533   6.868   1.570  1.00 20.00     0.015 C 
BRANCH   6   7
HETATM    7  C8  UNL     1     -31.972   8.285   1.682  1.00 20.00     0.001 C 
BRANCH   7   8
HETATM    8  C7  UNL     1     -31.919   8.971   0.316  1.00 20.00    -0.005 C 
HETATM    9  C5  UNL     1     -32.626  10.316   0.341  1.00 20.00     0.005 C 
ENDBRANCH   7   8
ENDBRANCH   6   7
ENDBRANCH   4   6
TORSDOF 3
ENDMDL
MODEL 4
REMARK VINA RESULT:      -0.9      1.976      5.183
REMARK  3 active torsions:
REMARK  status: ('A' for Active; 'I' for Inactive)
REMARK    1  A    between atoms: C4_4  and  C6_6 
REMARK    2  A    between atoms: C6_6  and  C8_8 
REMARK    3  A    between atoms: C7_7  and  C8_8 
ROOT
HETATM    1  C1  UNL     1     -32.381   7.450   1.751  1.00 20.00     0.011 C 
HETATM    2  C2  UNL     1     -33.119   6.209   2.232  1.00 20.00     0.016 C 
HETATM    3  C3  UNL     1     -32.043   8.257   2.992  1.00 20.00     0.074 C 
HETATM    4  C4  UNL     1     -34.235   6.701   3.150  1.00 20.00     0.047 C 
HETATM    5  S9  UNL     1     -33.491   8.085   4.073  1.00 20.00    -0.164 SA
ENDROOT
BRANCH   4   6
HETATM    6  C6  UNL     1     -34.750   5.620   4.083  1.00 20.00     0.015 C 
BRANCH   6   7
HETATM    7  C8  UNL     1     -34.176   4.250   3.723  1.00 20.00     0.001 C 
BRANCH   7   8
HETATM    8  C7  UNL     1     -33.497   3.598   4.928  1.00 20.00    -0.005 C 
HETATM    9  C5  UNL     1     -33.087   2.165   4.628  1.00 20.00     0.005 C 
ENDBRANCH   7   8
ENDBRANCH   6   7
ENDBRANCH   4   6
TORSDOF 3
ENDMDL
MODEL 5
REMARK VINA RESULT:      -0.4      1.865      5.187
REMARK  3 active torsions:
REMARK  status: ('A' for Active; 'I' for Inactive)
REMARK    1  A    between atoms: C4_4  and  C6_6 
REMARK    2  A    between atoms: C6_6  and  C8_8 
REMARK    3  A    between atoms: C7_7  and  C8_8 
ROOT
HETATM    1  C1  UNL     1     -31.974   8.104   1.675  1.00 20.00     0.011 C 
HETATM    2  C2  UNL     1     -32.068   6.594   1.511  1.00 20.00     0.016 C 
HETATM    3  C3  UNL     1     -32.312   8.400   3.125  1.00 20.00     0.074 C 
HETATM    4  C4  UNL     1     -33.424   6.183   2.078  1.00 20.00     0.047 C 
HETATM    5  S9  UNL     1     -33.648   7.244   3.543  1.00 20.00    -0.164 SA
ENDROOT
BRANCH   4   6
HETATM    6  C6  UNL     1     -33.489   4.710   2.441  1.00 20.00     0.015 C 
BRANCH   6   7
HETATM    7  C8  UNL     1     -33.932   4.508   3.889  1.00 20.00     0.001 C 
BRANCH   7   8
HETATM    8  C7  UNL     1     -33.602   3.098   4.379  1.00 20.00    -0.005 C 
HETATM    9  C5  UNL     1     -32.669   3.130   5.580  1.00 20.00     0.005 C 
ENDBRANCH   7   8
ENDBRANCH   6   7
ENDBRANCH   4   6
TORSDOF 3
ENDMDL
MODEL 6
REMARK VINA RESULT:      -0.2      1.387      4.564
REMARK  3 active torsions:
REMARK  status: ('A' for Active; 'I' for Inactive)
REMARK    1  A    between atoms: C4_4  and  C6_6 
REMARK    2  A    between atoms: C6_6  and  C8_8 
REMARK    3  A    between atoms: C7_7  and  C8_8 
ROOT
HETATM    1  C1  UNL     1     -31.610   8.398   1.613  1.00 20.00     0.011 C 
HETATM    2  C2  UNL     1     -32.670   8.701   2.662  1.00 20.00     0.016 C 
HETATM    3  C3  UNL     1     -32.059   7.135   0.901  1.00 20.00     0.074 C 
HETATM    4  C4  UNL     1     -32.875   7.411   3.452  1.00 20.00     0.047 C 
HETATM    5  S9  UNL     1     -32.770   6.088   2.202  1.00 20.00    -0.164 SA
ENDROOT
BRANCH   4   6
HETATM    6  C6  UNL     1     -34.201   7.377   4.191  1.00 20.00     0.015 C 
BRANCH   6   7
HETATM    7  C8  UNL     1     -35.125   6.294   3.635  1.00 20.00     0.001 C 
BRANCH   7   8
HETATM    8  C7  UNL     1     -35.290   5.143   4.627  1.00 20.00    -0.005 C 
HETATM    9  C5  UNL     1     -34.251   4.057   4.396  1.00 20.00     0.005 C 
ENDBRANCH   7   8
ENDBRANCH   6   7
ENDBRANCH   4   6
TORSDOF 3
ENDMDL
MODEL 7
REMARK VINA RESULT:      -0.0      1.632      4.704
REMARK  3 active torsions:
REMARK  status: ('A' for Active; 'I' for Inactive)
REMARK    1  A    between atoms: C4_4  and  C6_6 
REMARK    2  A    between atoms: C6_6  and  C8_8 
REMARK    3  A    between atoms: C7_7  and  C8_8 
ROOT
HETATM    1  C1  UNL     1     -32.724  10.762   0.672  1.00 20.00     0.011 C 
HETATM    2  C2  UNL     1     -32.996   9.649   1.673  1.00 20.00     0.016 C 
HETATM    3  C3  UNL     1     -32.543  10.090  -0.678  1.00 20.00     0.074 C 
HETATM    4  C4  UNL     1     -31.892   8.615   1.478  1.00 20.00     0.047 C 
HETATM    5  S9  UNL     1     -31.626   8.565  -0.325  1.00 20.00    -0.164 SA
ENDROOT
BRANCH   4   6
HETATM    6  C6  UNL     1     -32.262   7.248   2.026  1.00 20.00     0.015 C 
BRANCH   6   7
HETATM    7  C8  UNL     1     -33.288   7.356   3.154  1.00 20.00     0.001 C 
BRANCH   7   8
HETATM    8  C7  UNL     1     -34.055   6.045   3.334  1.00 20.00    -0.005 C 
HETATM    9  C5  UNL     1     -35.376   6.268   4.052  1.00 20.00     0.005 C 
ENDBRANCH   7   8
ENDBRANCH   6   7
ENDBRANCH   4   6
TORSDOF 3
ENDMDL
MODEL 8
REMARK VINA RESULT:       0.5      1.836      4.906
REMARK  3 active torsions:
REMARK  status: ('A' for Active; 'I' for Inactive)
REMARK    1  A    between atoms: C4_4  and  C6_6 
REMARK    2  A    between atoms: C6_6  and  C8_8 
REMARK    3  A    between atoms: C7_7  and  C8_8 
ROOT
HETATM    1  C1  UNL     1     -31.929   9.321  -0.736  1.00 20.00     0.011 C 
HETATM    2  C2  UNL     1     -31.517   8.404   0.406  1.00 20.00     0.016 C 
HETATM    3  C3  UNL     1     -32.290  10.655  -0.107  1.00 20.00     0.074 C 
HETATM    4  C4  UNL     1     -32.632   8.482   1.445  1.00 20.00     0.047 C 
HETATM    5  S9  UNL     1     -33.141  10.232   1.439  1.00 20.00    -0.164 SA
ENDROOT
BRANCH   4   6
HETATM    6  C6  UNL     1     -32.183   8.036   2.825  1.00 20.00     0.015 C 
BRANCH   6   7
HETATM    7  C8  UNL     1     -33.376   7.724   3.729  1.00 20.00     0.001 C 
BRANCH   7   8
HETATM    8  C7  UNL     1     -34.034   6.400   3.340  1.00 20.00    -0.005 C 
HETATM    9  C5  UNL     1     -35.362   6.208   4.056  1.00 20.00     0.005 C 
ENDBRANCH   7   8
ENDBRANCH   6   7
ENDBRANCH   4   6
TORSDOF 3
ENDMDL
MODEL 9
REMARK VINA RESULT:       1.0      1.731      5.126
REMARK  3 active torsions:
REMARK  status: ('A' for Active; 'I' for Inactive)
REMARK    1  A    between atoms: C4_4  and  C6_6 
REMARK    2  A    between atoms: C6_6  and  C8_8 
REMARK    3  A    between atoms: C7_7  and  C8_8 
ROOT
HETATM    1  C1  UNL     1     -33.653   8.337   3.609  1.00 20.00     0.011 C 
HETATM    2  C2  UNL     1     -34.332   6.983   3.754  1.00 20.00     0.016 C 
HETATM    3  C3  UNL     1     -33.038   8.362   2.221  1.00 20.00     0.074 C 
HETATM    4  C4  UNL     1     -33.294   5.936   3.360  1.00 20.00     0.047 C 
HETATM    5  S9  UNL     1     -32.400   6.683   1.958  1.00 20.00    -0.164 SA
ENDROOT
BRANCH   4   6
HETATM    6  C6  UNL     1     -33.916   4.604   2.980  1.00 20.00     0.015 C 
BRANCH   6   7
HETATM    7  C8  UNL     1     -34.280   3.783   4.216  1.00 20.00     0.001 C 
BRANCH   7   8
HETATM    8  C7  UNL     1     -33.177   2.783   4.564  1.00 20.00    -0.005 C 
HETATM    9  C5  UNL     1     -32.451   3.177   5.840  1.00 20.00     0.005 C 
ENDBRANCH   7   8
ENDBRANCH   6   7
ENDBRANCH   4   6
TORSDOF 3
ENDMDL
