MODEL 1
REMARK VINA RESULT:       1.0      0.000      0.000
REMARK  2 active torsions:
REMARK  status: ('A' for Active; 'I' for Inactive)
REMARK    1  A    between atoms: C1_1  and  C8_8 
REMARK    2  A    between atoms: C9_9  and  N10_10 
ROOT
HETATM    1  C1  UNL     1     -33.155   7.639   2.717  1.00 20.00     0.092 C 
HETATM    2  N10 UNL     1     -33.705   6.476   2.786  1.00 20.00    -0.295 NA
ENDROOT
BRANCH   1   3
HETATM    3  C8  UNL     1     -32.051   7.963   1.718  1.00 20.00    -0.018 C 
HETATM    4  C2  UNL     1     -30.831   8.442   2.514  1.00 20.00     0.020 C 
HETATM    5  C3  UNL     1     -31.711   6.669   0.969  1.00 20.00     0.020 C 
HETATM    6  C4  UNL     1     -32.474   9.044   0.718  1.00 20.00     0.020 C 
ENDBRANCH   1   3
BRANCH   2   7
HETATM    7  C9  UNL     1     -34.736   6.394   3.817  1.00 20.00     0.042 C 
HETATM    8  C5  UNL     1     -34.741   4.975   4.383  1.00 20.00     0.039 C 
HETATM    9  C6  UNL     1     -34.389   7.407   4.908  1.00 20.00     0.039 C 
HETATM   10  C7  UNL     1     -36.084   6.730   3.179  1.00 20.00     0.039 C 
ENDBRANCH   2   7
TORSDOF 2
ENDMDL
MODEL 2
REMARK VINA RESULT:       1.0      0.009      1.377
REMARK  2 active torsions:
REMARK  status: ('A' for Active; 'I' for Inactive)
REMARK    1  A    between atoms: C1_1  and  C8_8 
REMARK    2  A    between atoms: C9_9  and  N10_10 
ROOT
HETATM    1  C1  UNL     1     -33.150   7.634   2.719  1.00 20.00     0.092 C 
HETATM    2  N10 UNL     1     -33.705   6.473   2.789  1.00 20.00    -0.295 NA
ENDROOT
BRANCH   1   3
HETATM    3  C8  UNL     1     -32.050   7.955   1.716  1.00 20.00    -0.018 C 
HETATM    4  C2  UNL     1     -30.825   8.431   2.506  1.00 20.00     0.020 C 
HETATM    5  C3  UNL     1     -31.716   6.660   0.965  1.00 20.00     0.020 C 
HETATM    6  C4  UNL     1     -32.474   9.037   0.717  1.00 20.00     0.020 C 
ENDBRANCH   1   3
BRANCH   2   7
HETATM    7  C9  UNL     1     -34.731   6.394   3.824  1.00 20.00     0.042 C 
HETATM    8  C5  UNL     1     -34.393   7.406   4.918  1.00 20.00     0.039 C 
HETATM    9  C6  UNL     1     -36.075   6.729   3.178  1.00 20.00     0.039 C 
HETATM   10  C7  UNL     1     -34.743   4.972   4.384  1.00 20.00     0.039 C 
ENDBRANCH   2   7
TORSDOF 2
ENDMDL
MODEL 3
REMARK VINA RESULT:       1.0      0.008      1.377
REMARK  2 active torsions:
REMARK  status: ('A' for Active; 'I' for Inactive)
REMARK    1  A    between atoms: C1_1  and  C8_8 
REMARK    2  A    between atoms: C9_9  and  N10_10 
ROOT
HETATM    1  C1  UNL     1     -33.151   7.642   2.716  1.00 20.00     0.092 C 
HETATM    2  N10 UNL     1     -33.703   6.479   2.788  1.00 20.00    -0.295 NA
ENDROOT
BRANCH   1   3
HETATM    3  C8  UNL     1     -32.050   7.963   1.714  1.00 20.00    -0.018 C 
HETATM    4  C2  UNL     1     -30.827   8.440   2.506  1.00 20.00     0.020 C 
HETATM    5  C3  UNL     1     -31.714   6.668   0.964  1.00 20.00     0.020 C 
HETATM    6  C4  UNL     1     -32.474   9.044   0.714  1.00 20.00     0.020 C 
ENDBRANCH   1   3
BRANCH   2   7
HETATM    7  C9  UNL     1     -34.731   6.399   3.821  1.00 20.00     0.042 C 
HETATM    8  C5  UNL     1     -36.082   6.725   3.185  1.00 20.00     0.039 C 
HETATM    9  C6  UNL     1     -34.728   4.974   4.376  1.00 20.00     0.039 C 
HETATM   10  C7  UNL     1     -34.391   7.405   4.920  1.00 20.00     0.039 C 
ENDBRANCH   2   7
TORSDOF 2
ENDMDL
MODEL 4
REMARK VINA RESULT:       1.2      0.611      4.347
REMARK  2 active torsions:
REMARK  status: ('A' for Active; 'I' for Inactive)
REMARK    1  A    between atoms: C1_1  and  C8_8 
REMARK    2  A    between atoms: C9_9  and  N10_10 
ROOT
HETATM    1  C1  UNL     1     -33.560   6.707   2.815  1.00 20.00     0.092 C 
HETATM    2  N10 UNL     1     -33.052   7.881   2.654  1.00 20.00    -0.295 NA
ENDROOT
BRANCH   1   3
HETATM    3  C8  UNL     1     -34.668   6.428   3.823  1.00 20.00    -0.018 C 
HETATM    4  C2  UNL     1     -34.547   4.961   4.251  1.00 20.00     0.020 C 
HETATM    5  C3  UNL     1     -34.437   7.345   5.031  1.00 20.00     0.020 C 
HETATM    6  C4  UNL     1     -36.061   6.684   3.239  1.00 20.00     0.020 C 
ENDBRANCH   1   3
BRANCH   2   7
HETATM    7  C9  UNL     1     -32.005   7.913   1.637  1.00 20.00     0.042 C 
HETATM    8  C5  UNL     1     -31.919   6.533   0.988  1.00 20.00     0.039 C 
HETATM    9  C6  UNL     1     -32.390   8.971   0.602  1.00 20.00     0.039 C 
HETATM   10  C7  UNL     1     -30.685   8.279   2.315  1.00 20.00     0.039 C 
ENDBRANCH   2   7
TORSDOF 2
ENDMDL
MODEL 5
REMARK VINA RESULT:       1.2      0.612      4.347
REMARK  2 active torsions:
REMARK  status: ('A' for Active; 'I' for Inactive)
REMARK    1  A    between atoms: C1_1  and  C8_8 
REMARK    2  A    between atoms: C9_9  and  N10_10 
ROOT
HETATM    1  C1  UNL     1     -33.560   6.705   2.810  1.00 20.00     0.092 C 
HETATM    2  N10 UNL     1     -33.044   7.876   2.652  1.00 20.00    -0.295 NA
ENDROOT
BRANCH   1   3
HETATM    3  C8  UNL     1     -34.665   6.430   3.821  1.00 20.00    -0.018 C 
HETATM    4  C2  UNL     1     -34.542   4.964   4.255  1.00 20.00     0.020 C 
HETATM    5  C3  UNL     1     -34.432   7.351   5.025  1.00 20.00     0.020 C 
HETATM    6  C4  UNL     1     -36.060   6.681   3.239  1.00 20.00     0.020 C 
ENDBRANCH   1   3
BRANCH   2   7
HETATM    7  C9  UNL     1     -32.002   7.905   1.630  1.00 20.00     0.042 C 
HETATM    8  C5  UNL     1     -32.372   8.964   0.592  1.00 20.00     0.039 C 
HETATM    9  C6  UNL     1     -30.683   8.264   2.317  1.00 20.00     0.039 C 
HETATM   10  C7  UNL     1     -31.915   6.521   0.988  1.00 20.00     0.039 C 
ENDBRANCH   2   7
TORSDOF 2
ENDMDL
MODEL 6
REMARK VINA RESULT:       1.2      0.615      4.343
REMARK  2 active torsions:
REMARK  status: ('A' for Active; 'I' for Inactive)
REMARK    1  A    between atoms: C1_1  and  C8_8 
REMARK    2  A    between atoms: C9_9  and  N10_10 
ROOT
HETATM    1  C1  UNL     1     -33.571   6.702   2.790  1.00 20.00     0.092 C 
HETATM    2  N10 UNL     1     -32.991   7.849   2.691  1.00 20.00    -0.295 NA
ENDROOT
BRANCH   1   3
HETATM    3  C8  UNL     1     -34.643   6.417   3.833  1.00 20.00    -0.018 C 
HETATM    4  C2  UNL     1     -34.402   7.362   5.017  1.00 20.00     0.020 C 
HETATM    5  C3  UNL     1     -36.004   6.719   3.193  1.00 20.00     0.020 C 
HETATM    6  C4  UNL     1     -34.610   4.964   4.317  1.00 20.00     0.020 C 
ENDBRANCH   1   3
BRANCH   2   7
HETATM    7  C9  UNL     1     -31.997   7.894   1.623  1.00 20.00     0.042 C 
HETATM    8  C5  UNL     1     -30.642   8.242   2.239  1.00 20.00     0.039 C 
HETATM    9  C6  UNL     1     -31.951   6.514   0.967  1.00 20.00     0.039 C 
HETATM   10  C7  UNL     1     -32.423   8.957   0.611  1.00 20.00     0.039 C 
ENDBRANCH   2   7
TORSDOF 2
ENDMDL
MODEL 7
REMARK VINA RESULT:       1.2      0.616      4.345
REMARK  2 active torsions:
REMARK  status: ('A' for Active; 'I' for Inactive)
REMARK    1  A    between atoms: C1_1  and  C8_8 
REMARK    2  A    between atoms: C9_9  and  N10_10 
ROOT
HETATM    1  C1  UNL     1     -33.555   6.707   2.805  1.00 20.00     0.092 C 
HETATM    2  N10 UNL     1     -33.036   7.877   2.646  1.00 20.00    -0.295 NA
ENDROOT
BRANCH   1   3
HETATM    3  C8  UNL     1     -34.657   6.434   3.821  1.00 20.00    -0.018 C 
HETATM    4  C2  UNL     1     -34.531   4.970   4.258  1.00 20.00     0.020 C 
HETATM    5  C3  UNL     1     -34.421   7.359   5.021  1.00 20.00     0.020 C 
HETATM    6  C4  UNL     1     -36.053   6.682   3.241  1.00 20.00     0.020 C 
ENDBRANCH   1   3
BRANCH   2   7
HETATM    7  C9  UNL     1     -31.997   7.905   1.621  1.00 20.00     0.042 C 
HETATM    8  C5  UNL     1     -30.668   8.251   2.290  1.00 20.00     0.039 C 
HETATM    9  C6  UNL     1     -31.932   6.517   0.982  1.00 20.00     0.039 C 
HETATM   10  C7  UNL     1     -32.374   8.959   0.581  1.00 20.00     0.039 C 
ENDBRANCH   2   7
TORSDOF 2
ENDMDL
MODEL 8
REMARK VINA RESULT:       2.2      1.225      4.330
REMARK  2 active torsions:
REMARK  status: ('A' for Active; 'I' for Inactive)
REMARK    1  A    between atoms: C1_1  and  C8_8 
REMARK    2  A    between atoms: C9_9  and  N10_10 
ROOT
HETATM    1  C1  UNL     1     -33.981   6.379   2.610  1.00 20.00     0.092 C 
HETATM    2  N10 UNL     1     -33.040   5.505   2.496  1.00 20.00    -0.295 NA
ENDROOT
BRANCH   1   3
HETATM    3  C8  UNL     1     -34.890   6.445   3.831  1.00 20.00    -0.018 C 
HETATM    4  C2  UNL     1     -34.332   7.523   4.767  1.00 20.00     0.020 C 
HETATM    5  C3  UNL     1     -36.288   6.848   3.345  1.00 20.00     0.020 C 
HETATM    6  C4  UNL     1     -34.965   5.106   4.571  1.00 20.00     0.020 C 
ENDBRANCH   1   3
BRANCH   2   7
HETATM    7  C9  UNL     1     -32.298   5.627   1.245  1.00 20.00     0.042 C 
HETATM    8  C5  UNL     1     -31.167   4.600   1.252  1.00 20.00     0.039 C 
HETATM    9  C6  UNL     1     -33.268   5.350   0.096  1.00 20.00     0.039 C 
HETATM   10  C7  UNL     1     -31.742   7.047   1.150  1.00 20.00     0.039 C 
ENDBRANCH   2   7
TORSDOF 2
ENDMDL
MODEL 9
REMARK VINA RESULT:       2.4      1.273      4.318
REMARK  2 active torsions:
REMARK  status: ('A' for Active; 'I' for Inactive)
REMARK    1  A    between atoms: C1_1  and  C8_8 
REMARK    2  A    between atoms: C9_9  and  N10_10 
ROOT
HETATM    1  C1  UNL     1     -33.910   6.383   2.613  1.00 20.00     0.092 C 
HETATM    2  N10 UNL     1     -33.083   5.410   2.439  1.00 20.00    -0.295 NA
ENDROOT
BRANCH   1   3
HETATM    3  C8  UNL     1     -34.807   6.483   3.840  1.00 20.00    -0.018 C 
HETATM    4  C2  UNL     1     -36.211   6.864   3.359  1.00 20.00     0.020 C 
HETATM    5  C3  UNL     1     -34.839   5.101   4.504  1.00 20.00     0.020 C 
HETATM    6  C4  UNL     1     -34.303   7.527   4.842  1.00 20.00     0.020 C 
ENDBRANCH   1   3
BRANCH   2   7
HETATM    7  C9  UNL     1     -32.330   5.518   1.193  1.00 20.00     0.042 C 
HETATM    8  C5  UNL     1     -33.260   5.164   0.034  1.00 20.00     0.039 C 
HETATM    9  C6  UNL     1     -31.838   6.961   1.067  1.00 20.00     0.039 C 
HETATM   10  C7  UNL     1     -31.148   4.551   1.257  1.00 20.00     0.039 C 
ENDBRANCH   2   7
TORSDOF 2
ENDMDL
