MODEL 1
REMARK VINA RESULT:      -2.2      0.000      0.000
REMARK  2 active torsions:
REMARK  status: ('A' for Active; 'I' for Inactive)
REMARK    1  A    between atoms: C2_2  and  C5_5 
REMARK    2  A    between atoms: C5_5  and  C6_6 
ROOT
HETATM    1  C1  UNL     1     -32.205   8.562   1.148  1.00 20.00     0.206 A 
HETATM    2  C2  UNL     1     -32.524   7.326   1.954  1.00 20.00     0.079 A 
HETATM    3  C3  UNL     1     -32.331   5.977   1.341  1.00 20.00     0.048 C 
HETATM    4  O7  UNL     1     -31.303   8.054   2.143  1.00 20.00    -0.375 OA
ENDROOT
BRANCH   2   5
HETATM    5  C5  UNL     1     -33.484   7.424   3.129  1.00 20.00     0.039 C 
BRANCH   5   6
HETATM    6  C6  UNL     1     -34.104   6.068   3.459  1.00 20.00    -0.002 C 
HETATM    7  C4  UNL     1     -35.469   6.222   4.110  1.00 20.00     0.005 C 
ENDBRANCH   5   6
ENDBRANCH   2   5
TORSDOF 2
ENDMDL
MODEL 2
REMARK VINA RESULT:      -1.7      1.834      3.735
REMARK  2 active torsions:
REMARK  status: ('A' for Active; 'I' for Inactive)
REMARK    1  A    between atoms: C2_2  and  C5_5 
REMARK    2  A    between atoms: C5_5  and  C6_6 
ROOT
HETATM    1  C1  UNL     1     -35.422   6.387   3.672  1.00 20.00     0.206 A 
HETATM    2  C2  UNL     1     -34.016   6.927   3.569  1.00 20.00     0.079 A 
HETATM    3  C3  UNL     1     -33.533   7.921   4.575  1.00 20.00     0.048 C 
HETATM    4  O7  UNL     1     -34.288   5.631   4.121  1.00 20.00    -0.375 OA
ENDROOT
BRANCH   2   5
HETATM    5  C5  UNL     1     -33.293   6.885   2.232  1.00 20.00     0.039 C 
BRANCH   5   6
HETATM    6  C6  UNL     1     -32.140   7.884   2.189  1.00 20.00    -0.002 C 
HETATM    7  C4  UNL     1     -32.234   8.792   0.973  1.00 20.00     0.005 C 
ENDBRANCH   5   6
ENDBRANCH   2   5
TORSDOF 2
ENDMDL
MODEL 3
REMARK VINA RESULT:      -1.6      1.220      1.858
REMARK  2 active torsions:
REMARK  status: ('A' for Active; 'I' for Inactive)
REMARK    1  A    between atoms: C2_2  and  C5_5 
REMARK    2  A    between atoms: C5_5  and  C6_6 
ROOT
HETATM    1  C1  UNL     1     -31.965   5.840   1.643  1.00 20.00     0.206 A 
HETATM    2  C2  UNL     1     -32.536   7.159   2.107  1.00 20.00     0.079 A 
HETATM    3  C3  UNL     1     -32.169   8.415   1.386  1.00 20.00     0.048 C 
HETATM    4  O7  UNL     1     -33.304   6.241   1.315  1.00 20.00    -0.375 OA
ENDROOT
BRANCH   2   5
HETATM    5  C5  UNL     1     -33.033   7.298   3.537  1.00 20.00     0.039 C 
BRANCH   5   6
HETATM    6  C6  UNL     1     -34.556   7.394   3.592  1.00 20.00    -0.002 C 
HETATM    7  C4  UNL     1     -35.177   6.111   4.122  1.00 20.00     0.005 C 
ENDBRANCH   5   6
ENDBRANCH   2   5
TORSDOF 2
ENDMDL
MODEL 4
REMARK VINA RESULT:      -1.4      2.054      3.516
REMARK  2 active torsions:
REMARK  status: ('A' for Active; 'I' for Inactive)
REMARK    1  A    between atoms: C2_2  and  C5_5 
REMARK    2  A    between atoms: C5_5  and  C6_6 
ROOT
HETATM    1  C1  UNL     1     -34.300   7.173   4.267  1.00 20.00     0.206 A 
HETATM    2  C2  UNL     1     -34.147   5.971   3.365  1.00 20.00     0.079 A 
HETATM    3  C3  UNL     1     -33.916   4.623   3.968  1.00 20.00     0.048 C 
HETATM    4  O7  UNL     1     -35.434   6.527   3.669  1.00 20.00    -0.375 OA
ENDROOT
BRANCH   2   5
HETATM    5  C5  UNL     1     -33.720   6.169   1.920  1.00 20.00     0.039 C 
BRANCH   5   6
HETATM    6  C6  UNL     1     -32.214   6.398   1.809  1.00 20.00    -0.002 C 
HETATM    7  C4  UNL     1     -31.885   7.876   1.663  1.00 20.00     0.005 C 
ENDBRANCH   5   6
ENDBRANCH   2   5
TORSDOF 2
ENDMDL
MODEL 5
REMARK VINA RESULT:      -1.3      2.211      3.167
REMARK  2 active torsions:
REMARK  status: ('A' for Active; 'I' for Inactive)
REMARK    1  A    between atoms: C2_2  and  C5_5 
REMARK    2  A    between atoms: C5_5  and  C6_6 
ROOT
HETATM    1  C1  UNL     1     -33.419   7.595   4.363  1.00 20.00     0.206 A 
HETATM    2  C2  UNL     1     -34.159   6.442   3.727  1.00 20.00     0.079 A 
HETATM    3  C3  UNL     1     -35.650   6.389   3.809  1.00 20.00     0.048 C 
HETATM    4  O7  UNL     1     -33.662   7.540   2.950  1.00 20.00    -0.375 OA
ENDROOT
BRANCH   2   5
HETATM    5  C5  UNL     1     -33.429   5.133   3.474  1.00 20.00     0.039 C 
BRANCH   5   6
HETATM    6  C6  UNL     1     -34.086   3.974   4.221  1.00 20.00    -0.002 C 
HETATM    7  C4  UNL     1     -33.054   2.970   4.711  1.00 20.00     0.005 C 
ENDBRANCH   5   6
ENDBRANCH   2   5
TORSDOF 2
ENDMDL
MODEL 6
REMARK VINA RESULT:      -1.3      1.506      3.486
REMARK  2 active torsions:
REMARK  status: ('A' for Active; 'I' for Inactive)
REMARK    1  A    between atoms: C2_2  and  C5_5 
REMARK    2  A    between atoms: C5_5  and  C6_6 
ROOT
HETATM    1  C1  UNL     1     -33.091   5.733   0.912  1.00 20.00     0.206 A 
HETATM    2  C2  UNL     1     -32.681   6.811   1.886  1.00 20.00     0.079 A 
HETATM    3  C3  UNL     1     -33.507   7.053   3.107  1.00 20.00     0.048 C 
HETATM    4  O7  UNL     1     -32.039   5.528   1.867  1.00 20.00    -0.375 OA
ENDROOT
BRANCH   2   5
HETATM    5  C5  UNL     1     -31.790   7.948   1.413  1.00 20.00     0.039 C 
BRANCH   5   6
HETATM    6  C6  UNL     1     -32.570   9.256   1.292  1.00 20.00    -0.002 C 
HETATM    7  C4  UNL     1     -32.458   9.845  -0.105  1.00 20.00     0.005 C 
ENDBRANCH   5   6
ENDBRANCH   2   5
TORSDOF 2
ENDMDL
MODEL 7
REMARK VINA RESULT:      -1.3      2.210      2.986
REMARK  2 active torsions:
REMARK  status: ('A' for Active; 'I' for Inactive)
REMARK    1  A    between atoms: C2_2  and  C5_5 
REMARK    2  A    between atoms: C5_5  and  C6_6 
ROOT
HETATM    1  C1  UNL     1     -34.782   7.549   3.726  1.00 20.00     0.206 A 
HETATM    2  C2  UNL     1     -34.064   6.242   3.490  1.00 20.00     0.079 A 
HETATM    3  C3  UNL     1     -33.317   6.033   2.212  1.00 20.00     0.048 C 
HETATM    4  O7  UNL     1     -33.507   7.269   4.323  1.00 20.00    -0.375 OA
ENDROOT
BRANCH   2   5
HETATM    5  C5  UNL     1     -34.495   5.001   4.254  1.00 20.00     0.039 C 
BRANCH   5   6
HETATM    6  C6  UNL     1     -33.718   3.767   3.799  1.00 20.00    -0.002 C 
HETATM    7  C4  UNL     1     -33.151   2.998   4.983  1.00 20.00     0.005 C 
ENDBRANCH   5   6
ENDBRANCH   2   5
TORSDOF 2
ENDMDL
MODEL 8
REMARK VINA RESULT:      -1.2      1.221      1.638
REMARK  2 active torsions:
REMARK  status: ('A' for Active; 'I' for Inactive)
REMARK    1  A    between atoms: C2_2  and  C5_5 
REMARK    2  A    between atoms: C5_5  and  C6_6 
ROOT
HETATM    1  C1  UNL     1     -31.410   7.643   1.286  1.00 20.00     0.206 A 
HETATM    2  C2  UNL     1     -32.384   7.830   2.424  1.00 20.00     0.079 A 
HETATM    3  C3  UNL     1     -31.966   8.608   3.630  1.00 20.00     0.048 C 
HETATM    4  O7  UNL     1     -32.462   8.618   1.228  1.00 20.00    -0.375 OA
ENDROOT
BRANCH   2   5
HETATM    5  C5  UNL     1     -33.537   6.855   2.592  1.00 20.00     0.039 C 
BRANCH   5   6
HETATM    6  C6  UNL     1     -34.308   7.118   3.884  1.00 20.00    -0.002 C 
HETATM    7  C4  UNL     1     -35.348   6.038   4.143  1.00 20.00     0.005 C 
ENDBRANCH   5   6
ENDBRANCH   2   5
TORSDOF 2
ENDMDL
MODEL 9
REMARK VINA RESULT:      -1.1      1.645      3.432
REMARK  2 active torsions:
REMARK  status: ('A' for Active; 'I' for Inactive)
REMARK    1  A    between atoms: C2_2  and  C5_5 
REMARK    2  A    between atoms: C5_5  and  C6_6 
ROOT
HETATM    1  C1  UNL     1     -33.509   7.299   4.047  1.00 20.00     0.206 A 
HETATM    2  C2  UNL     1     -32.975   7.316   2.634  1.00 20.00     0.079 A 
HETATM    3  C3  UNL     1     -32.971   6.054   1.834  1.00 20.00     0.048 C 
HETATM    4  O7  UNL     1     -34.290   7.796   2.949  1.00 20.00    -0.375 OA
ENDROOT
BRANCH   2   5
HETATM    5  C5  UNL     1     -32.009   8.410   2.212  1.00 20.00     0.039 C 
BRANCH   5   6
HETATM    6  C6  UNL     1     -32.032   8.622   0.699  1.00 20.00    -0.002 C 
HETATM    7  C4  UNL     1     -32.514  10.019   0.339  1.00 20.00     0.005 C 
ENDBRANCH   5   6
ENDBRANCH   2   5
TORSDOF 2
ENDMDL
