MODEL 1
REMARK VINA RESULT:      -2.5      0.000      0.000
REMARK  3 active torsions:
REMARK  status: ('A' for Active; 'I' for Inactive)
REMARK    1  A    between atoms: C1_1  and  C6_6 
REMARK    2  A    between atoms: C1_1  and  O9_9 
REMARK    3  A    between atoms: C6_6  and  C7_7 
ROOT
HETATM    1  C2  UNL     1     -34.161   7.562   4.206  1.00 20.00     0.021 C 
HETATM    2  C6  UNL     1     -34.162   6.396   3.214  1.00 20.00     0.085 C 
ENDROOT
BRANCH   2   3
HETATM    3  C1  UNL     1     -34.440   5.098   3.960  1.00 20.00     0.262 C 
HETATM    4  O8  UNL     1     -35.467   4.861   4.582  1.00 20.00    -0.265 OA
BRANCH   3   5
HETATM    5  O9  UNL     1     -33.380   4.250   3.820  1.00 20.00    -0.326 OA
HETATM    6  C5  UNL     1     -33.399   3.094   4.663  1.00 20.00     0.213 C 
ENDBRANCH   3   5
ENDBRANCH   2   3
BRANCH   2   7
HETATM    7  C7  UNL     1     -32.866   6.336   2.370  1.00 20.00    -0.010 C 
HETATM    8  C3  UNL     1     -32.225   7.702   2.108  1.00 20.00     0.010 C 
HETATM    9  C4  UNL     1     -33.090   5.607   1.040  1.00 20.00     0.010 C 
ENDBRANCH   2   7
TORSDOF 3
ENDMDL
MODEL 2
REMARK VINA RESULT:      -2.3      2.506      4.454
REMARK  3 active torsions:
REMARK  status: ('A' for Active; 'I' for Inactive)
REMARK    1  A    between atoms: C1_1  and  C6_6 
REMARK    2  A    between atoms: C1_1  and  O9_9 
REMARK    3  A    between atoms: C6_6  and  C7_7 
ROOT
HETATM    1  C2  UNL     1     -32.435   5.506   1.295  1.00 20.00     0.021 C 
HETATM    2  C6  UNL     1     -33.163   6.641   2.021  1.00 20.00     0.085 C 
ENDROOT
BRANCH   2   3
HETATM    3  C1  UNL     1     -32.259   7.865   2.079  1.00 20.00     0.262 C 
HETATM    4  O8  UNL     1     -31.841   8.371   3.113  1.00 20.00    -0.265 OA
BRANCH   3   5
HETATM    5  O9  UNL     1     -31.987   8.297   0.813  1.00 20.00    -0.326 OA
HETATM    6  C5  UNL     1     -32.397   9.635   0.516  1.00 20.00     0.213 C 
ENDBRANCH   3   5
ENDBRANCH   2   3
BRANCH   2   7
HETATM    7  C7  UNL     1     -33.685   6.214   3.413  1.00 20.00    -0.010 C 
HETATM    8  C3  UNL     1     -33.875   4.703   3.574  1.00 20.00     0.010 C 
HETATM    9  C4  UNL     1     -34.985   6.940   3.777  1.00 20.00     0.010 C 
ENDBRANCH   2   7
TORSDOF 3
ENDMDL
MODEL 3
REMARK VINA RESULT:      -2.1      2.904      4.545
REMARK  3 active torsions:
REMARK  status: ('A' for Active; 'I' for Inactive)
REMARK    1  A    between atoms: C1_1  and  C6_6 
REMARK    2  A    between atoms: C1_1  and  O9_9 
REMARK    3  A    between atoms: C6_6  and  C7_7 
ROOT
HETATM    1  C2  UNL     1     -32.955   5.644   2.027  1.00 20.00     0.021 C 
HETATM    2  C6  UNL     1     -33.396   7.110   2.078  1.00 20.00     0.085 C 
ENDROOT
BRANCH   2   3
HETATM    3  C1  UNL     1     -32.211   8.005   1.743  1.00 20.00     0.262 C 
HETATM    4  O8  UNL     1     -31.044   7.635   1.724  1.00 20.00    -0.265 OA
BRANCH   3   5
HETATM    5  O9  UNL     1     -32.652   9.266   1.464  1.00 20.00    -0.326 OA
HETATM    6  C5  UNL     1     -32.359   9.745   0.148  1.00 20.00     0.213 C 
ENDBRANCH   3   5
ENDBRANCH   2   3
BRANCH   2   7
HETATM    7  C7  UNL     1     -34.066   7.479   3.423  1.00 20.00    -0.010 C 
HETATM    8  C3  UNL     1     -33.080   7.872   4.527  1.00 20.00     0.010 C 
HETATM    9  C4  UNL     1     -34.984   6.358   3.924  1.00 20.00     0.010 C 
ENDBRANCH   2   7
TORSDOF 3
ENDMDL
MODEL 4
REMARK VINA RESULT:      -1.9      2.064      3.857
REMARK  3 active torsions:
REMARK  status: ('A' for Active; 'I' for Inactive)
REMARK    1  A    between atoms: C1_1  and  C6_6 
REMARK    2  A    between atoms: C1_1  and  O9_9 
REMARK    3  A    between atoms: C6_6  and  C7_7 
ROOT
HETATM    1  C2  UNL     1     -33.830   7.948   4.059  1.00 20.00     0.021 C 
HETATM    2  C6  UNL     1     -33.311   6.622   3.496  1.00 20.00     0.085 C 
ENDROOT
BRANCH   2   3
HETATM    3  C1  UNL     1     -32.712   6.858   2.117  1.00 20.00     0.262 C 
HETATM    4  O8  UNL     1     -32.813   6.084   1.174  1.00 20.00    -0.265 OA
BRANCH   3   5
HETATM    5  O9  UNL     1     -32.060   8.057   2.098  1.00 20.00    -0.326 OA
HETATM    6  C5  UNL     1     -32.154   8.791   0.873  1.00 20.00     0.213 C 
ENDBRANCH   3   5
ENDBRANCH   2   3
BRANCH   2   7
HETATM    7  C7  UNL     1     -34.393   5.515   3.499  1.00 20.00    -0.010 C 
HETATM    8  C3  UNL     1     -35.666   5.886   4.265  1.00 20.00     0.010 C 
HETATM    9  C4  UNL     1     -33.841   4.186   4.026  1.00 20.00     0.010 C 
ENDBRANCH   2   7
TORSDOF 3
ENDMDL
MODEL 5
REMARK VINA RESULT:      -1.6      1.495      2.788
REMARK  3 active torsions:
REMARK  status: ('A' for Active; 'I' for Inactive)
REMARK    1  A    between atoms: C1_1  and  C6_6 
REMARK    2  A    between atoms: C1_1  and  O9_9 
REMARK    3  A    between atoms: C6_6  and  C7_7 
ROOT
HETATM    1  C2  UNL     1     -33.635   4.481   3.510  1.00 20.00     0.021 C 
HETATM    2  C6  UNL     1     -33.419   5.981   3.292  1.00 20.00     0.085 C 
ENDROOT
BRANCH   2   3
HETATM    3  C1  UNL     1     -34.656   6.741   3.752  1.00 20.00     0.262 C 
HETATM    4  O8  UNL     1     -35.787   6.273   3.785  1.00 20.00    -0.265 OA
BRANCH   3   5
HETATM    5  O9  UNL     1     -34.305   8.007   4.124  1.00 20.00    -0.326 OA
HETATM    6  C5  UNL     1     -33.263   8.097   5.100  1.00 20.00     0.213 C 
ENDBRANCH   3   5
ENDBRANCH   2   3
BRANCH   2   7
HETATM    7  C7  UNL     1     -33.017   6.315   1.836  1.00 20.00    -0.010 C 
HETATM    8  C3  UNL     1     -32.374   5.148   1.080  1.00 20.00     0.010 C 
HETATM    9  C4  UNL     1     -32.101   7.542   1.769  1.00 20.00     0.010 C 
ENDBRANCH   2   7
TORSDOF 3
ENDMDL
MODEL 6
REMARK VINA RESULT:      -1.5      2.023      3.408
REMARK  3 active torsions:
REMARK  status: ('A' for Active; 'I' for Inactive)
REMARK    1  A    between atoms: C1_1  and  C6_6 
REMARK    2  A    between atoms: C1_1  and  O9_9 
REMARK    3  A    between atoms: C6_6  and  C7_7 
ROOT
HETATM    1  C2  UNL     1     -33.824   8.024   4.124  1.00 20.00     0.021 C 
HETATM    2  C6  UNL     1     -33.312   6.724   3.498  1.00 20.00     0.085 C 
ENDROOT
BRANCH   2   3
HETATM    3  C1  UNL     1     -32.750   7.018   2.114  1.00 20.00     0.262 C 
HETATM    4  O8  UNL     1     -32.147   8.039   1.811  1.00 20.00    -0.265 OA
BRANCH   3   5
HETATM    5  O9  UNL     1     -33.014   5.971   1.279  1.00 20.00    -0.326 OA
HETATM    6  C5  UNL     1     -31.895   5.137   0.961  1.00 20.00     0.213 C 
ENDBRANCH   3   5
ENDBRANCH   2   3
BRANCH   2   7
HETATM    7  C7  UNL     1     -34.386   5.610   3.486  1.00 20.00    -0.010 C 
HETATM    8  C3  UNL     1     -35.693   5.992   4.185  1.00 20.00     0.010 C 
HETATM    9  C4  UNL     1     -33.849   4.300   4.074  1.00 20.00     0.010 C 
ENDBRANCH   2   7
TORSDOF 3
ENDMDL
MODEL 7
REMARK VINA RESULT:      -1.4      0.871      2.012
REMARK  3 active torsions:
REMARK  status: ('A' for Active; 'I' for Inactive)
REMARK    1  A    between atoms: C1_1  and  C6_6 
REMARK    2  A    between atoms: C1_1  and  O9_9 
REMARK    3  A    between atoms: C6_6  and  C7_7 
ROOT
HETATM    1  C2  UNL     1     -33.142   5.458   1.655  1.00 20.00     0.021 C 
HETATM    2  C6  UNL     1     -33.293   5.989   3.083  1.00 20.00     0.085 C 
ENDROOT
BRANCH   2   3
HETATM    3  C1  UNL     1     -34.482   5.312   3.751  1.00 20.00     0.262 C 
HETATM    4  O8  UNL     1     -35.457   5.902   4.197  1.00 20.00    -0.265 OA
BRANCH   3   5
HETATM    5  O9  UNL     1     -34.292   3.960   3.765  1.00 20.00    -0.326 OA
HETATM    6  C5  UNL     1     -33.413   3.471   4.784  1.00 20.00     0.213 C 
ENDBRANCH   3   5
ENDBRANCH   2   3
BRANCH   2   7
HETATM    7  C7  UNL     1     -33.376   7.533   3.133  1.00 20.00    -0.010 C 
HETATM    8  C3  UNL     1     -32.328   8.246   2.273  1.00 20.00     0.010 C 
HETATM    9  C4  UNL     1     -33.306   8.057   4.572  1.00 20.00     0.010 C 
ENDBRANCH   2   7
TORSDOF 3
ENDMDL
MODEL 8
REMARK VINA RESULT:      -1.1      1.350      2.114
REMARK  3 active torsions:
REMARK  status: ('A' for Active; 'I' for Inactive)
REMARK    1  A    between atoms: C1_1  and  C6_6 
REMARK    2  A    between atoms: C1_1  and  O9_9 
REMARK    3  A    between atoms: C6_6  and  C7_7 
ROOT
HETATM    1  C2  UNL     1     -33.944   7.738   4.052  1.00 20.00     0.021 C 
HETATM    2  C6  UNL     1     -33.487   7.302   2.657  1.00 20.00     0.085 C 
ENDROOT
BRANCH   2   3
HETATM    3  C1  UNL     1     -33.454   5.782   2.588  1.00 20.00     0.262 C 
HETATM    4  O8  UNL     1     -32.864   5.138   1.730  1.00 20.00    -0.265 OA
BRANCH   3   5
HETATM    5  O9  UNL     1     -34.171   5.259   3.625  1.00 20.00    -0.326 OA
HETATM    6  C5  UNL     1     -33.789   3.942   4.036  1.00 20.00     0.213 C 
ENDBRANCH   3   5
ENDBRANCH   2   3
BRANCH   2   7
HETATM    7  C7  UNL     1     -32.143   7.951   2.246  1.00 20.00    -0.010 C 
HETATM    8  C3  UNL     1     -31.483   8.778   3.353  1.00 20.00     0.010 C 
HETATM    9  C4  UNL     1     -32.290   8.804   0.981  1.00 20.00     0.010 C 
ENDBRANCH   2   7
TORSDOF 3
ENDMDL
MODEL 9
REMARK VINA RESULT:      -1.1      3.350      4.948
REMARK  3 active torsions:
REMARK  status: ('A' for Active; 'I' for Inactive)
REMARK    1  A    between atoms: C1_1  and  C6_6 
REMARK    2  A    between atoms: C1_1  and  O9_9 
REMARK    3  A    between atoms: C6_6  and  C7_7 
ROOT
HETATM    1  C2  UNL     1     -32.206   8.529   3.352  1.00 20.00     0.021 C 
HETATM    2  C6  UNL     1     -31.961   7.719   2.076  1.00 20.00     0.085 C 
ENDROOT
BRANCH   2   3
HETATM    3  C1  UNL     1     -31.819   8.668   0.894  1.00 20.00     0.262 C 
HETATM    4  O8  UNL     1     -31.020   8.522  -0.022  1.00 20.00    -0.265 OA
BRANCH   3   5
HETATM    5  O9  UNL     1     -32.718   9.688   1.013  1.00 20.00    -0.326 OA
HETATM    6  C5  UNL     1     -32.791  10.579  -0.104  1.00 20.00     0.213 C 
ENDBRANCH   3   5
ENDBRANCH   2   3
BRANCH   2   7
HETATM    7  C7  UNL     1     -33.041   6.634   1.848  1.00 20.00    -0.010 C 
HETATM    8  C3  UNL     1     -33.868   6.302   3.094  1.00 20.00     0.010 C 
HETATM    9  C4  UNL     1     -32.439   5.349   1.270  1.00 20.00     0.010 C 
ENDBRANCH   2   7
TORSDOF 3
ENDMDL
