MODEL 1
REMARK VINA RESULT:      -1.0      0.000      0.000
REMARK  2 active torsions:
REMARK  status: ('A' for Active; 'I' for Inactive)
REMARK    1  A    between atoms: C2_2  and  C4_4 
REMARK    2  A    between atoms: C4_4  and  S6_6 
ROOT
HETATM    1  C1  UNL     1     -32.054   8.493   1.082  1.00 20.00     0.201 A 
HETATM    2  C2  UNL     1     -32.070   7.167   1.790  1.00 20.00     0.154 A 
HETATM    3  O5  UNL     1     -31.755   8.379   2.482  1.00 20.00    -0.380 OA
ENDROOT
BRANCH   2   4
HETATM    4  C4  UNL     1     -33.348   6.532   2.206  1.00 20.00     0.107 C 
BRANCH   4   5
HETATM    5  S6  UNL     1     -33.991   7.271   3.744  1.00 20.00    -0.171 SA
HETATM    6  C3  UNL     1     -35.325   6.093   4.052  1.00 20.00     0.089 C 
ENDBRANCH   4   5
ENDBRANCH   2   4
TORSDOF 2
ENDMDL
MODEL 2
REMARK VINA RESULT:      -1.0      1.520      1.576
REMARK  2 active torsions:
REMARK  status: ('A' for Active; 'I' for Inactive)
REMARK    1  A    between atoms: C2_2  and  C4_4 
REMARK    2  A    between atoms: C4_4  and  S6_6 
ROOT
HETATM    1  C1  UNL     1     -31.965   7.994   1.810  1.00 20.00     0.201 A 
HETATM    2  C2  UNL     1     -33.290   7.445   2.261  1.00 20.00     0.154 A 
HETATM    3  O5  UNL     1     -32.257   6.588   1.764  1.00 20.00    -0.380 OA
ENDROOT
BRANCH   2   4
HETATM    4  C4  UNL     1     -33.599   7.267   3.704  1.00 20.00     0.107 C 
BRANCH   4   5
HETATM    5  S6  UNL     1     -35.093   6.249   3.947  1.00 20.00    -0.171 SA
HETATM    6  C3  UNL     1     -34.287   4.636   4.042  1.00 20.00     0.089 C 
ENDBRANCH   4   5
ENDBRANCH   2   4
TORSDOF 2
ENDMDL
MODEL 3
REMARK VINA RESULT:      -1.0      2.162      3.646
REMARK  2 active torsions:
REMARK  status: ('A' for Active; 'I' for Inactive)
REMARK    1  A    between atoms: C2_2  and  C4_4 
REMARK    2  A    between atoms: C4_4  and  S6_6 
ROOT
HETATM    1  C1  UNL     1     -35.124   6.586   3.803  1.00 20.00     0.201 A 
HETATM    2  C2  UNL     1     -33.673   6.753   3.448  1.00 20.00     0.154 A 
HETATM    3  O5  UNL     1     -34.214   5.475   3.797  1.00 20.00    -0.380 OA
ENDROOT
BRANCH   2   4
HETATM    4  C4  UNL     1     -33.235   6.874   2.033  1.00 20.00     0.107 C 
BRANCH   4   5
HETATM    5  S6  UNL     1     -31.776   7.956   1.875  1.00 20.00    -0.171 SA
HETATM    6  C3  UNL     1     -32.479   9.163   0.730  1.00 20.00     0.089 C 
ENDBRANCH   4   5
ENDBRANCH   2   4
TORSDOF 2
ENDMDL
MODEL 4
REMARK VINA RESULT:      -1.0      2.457      3.696
REMARK  2 active torsions:
REMARK  status: ('A' for Active; 'I' for Inactive)
REMARK    1  A    between atoms: C2_2  and  C4_4 
REMARK    2  A    between atoms: C4_4  and  S6_6 
ROOT
HETATM    1  C1  UNL     1     -35.036   5.474   4.430  1.00 20.00     0.201 A 
HETATM    2  C2  UNL     1     -34.395   6.252   3.315  1.00 20.00     0.154 A 
HETATM    3  O5  UNL     1     -35.759   6.469   3.688  1.00 20.00    -0.380 OA
ENDROOT
BRANCH   2   4
HETATM    4  C4  UNL     1     -33.488   7.395   3.596  1.00 20.00     0.107 C 
BRANCH   4   5
HETATM    5  S6  UNL     1     -32.336   7.691   2.213  1.00 20.00    -0.171 SA
HETATM    6  C3  UNL     1     -32.475   6.076   1.418  1.00 20.00     0.089 C 
ENDBRANCH   4   5
ENDBRANCH   2   4
TORSDOF 2
ENDMDL
MODEL 5
REMARK VINA RESULT:      -0.8      2.898      4.216
REMARK  2 active torsions:
REMARK  status: ('A' for Active; 'I' for Inactive)
REMARK    1  A    between atoms: C2_2  and  C4_4 
REMARK    2  A    between atoms: C4_4  and  S6_6 
ROOT
HETATM    1  C1  UNL     1     -33.774   3.799   4.522  1.00 20.00     0.201 A 
HETATM    2  C2  UNL     1     -34.225   4.697   3.403  1.00 20.00     0.154 A 
HETATM    3  O5  UNL     1     -35.017   4.517   4.582  1.00 20.00    -0.380 OA
ENDROOT
BRANCH   2   4
HETATM    4  C4  UNL     1     -33.663   6.063   3.238  1.00 20.00     0.107 C 
BRANCH   4   5
HETATM    5  S6  UNL     1     -32.678   6.200   1.709  1.00 20.00    -0.171 SA
HETATM    6  C3  UNL     1     -32.120   7.905   1.920  1.00 20.00     0.089 C 
ENDBRANCH   4   5
ENDBRANCH   2   4
TORSDOF 2
ENDMDL
MODEL 6
REMARK VINA RESULT:      -0.8      2.016      3.480
REMARK  2 active torsions:
REMARK  status: ('A' for Active; 'I' for Inactive)
REMARK    1  A    between atoms: C2_2  and  C4_4 
REMARK    2  A    between atoms: C4_4  and  S6_6 
ROOT
HETATM    1  C1  UNL     1     -35.341   6.437   4.070  1.00 20.00     0.201 A 
HETATM    2  C2  UNL     1     -34.270   6.686   3.044  1.00 20.00     0.154 A 
HETATM    3  O5  UNL     1     -34.203   7.267   4.350  1.00 20.00    -0.380 OA
ENDROOT
BRANCH   2   4
HETATM    4  C4  UNL     1     -33.221   5.672   2.764  1.00 20.00     0.107 C 
BRANCH   4   5
HETATM    5  S6  UNL     1     -32.225   6.126   1.306  1.00 20.00    -0.171 SA
HETATM    6  C3  UNL     1     -31.985   7.872   1.696  1.00 20.00     0.089 C 
ENDBRANCH   4   5
ENDBRANCH   2   4
TORSDOF 2
ENDMDL
MODEL 7
REMARK VINA RESULT:      -0.8      1.826      2.181
REMARK  2 active torsions:
REMARK  status: ('A' for Active; 'I' for Inactive)
REMARK    1  A    between atoms: C2_2  and  C4_4 
REMARK    2  A    between atoms: C4_4  and  S6_6 
ROOT
HETATM    1  C1  UNL     1     -32.642  10.324   0.653  1.00 20.00     0.201 A 
HETATM    2  C2  UNL     1     -32.566   8.822   0.639  1.00 20.00     0.154 A 
HETATM    3  O5  UNL     1     -31.632   9.624  -0.092  1.00 20.00    -0.380 OA
ENDROOT
BRANCH   2   4
HETATM    4  C4  UNL     1     -31.976   8.071   1.777  1.00 20.00     0.107 C 
BRANCH   4   5
HETATM    5  S6  UNL     1     -32.944   6.574   2.162  1.00 20.00    -0.171 SA
HETATM    6  C3  UNL     1     -33.874   7.226   3.566  1.00 20.00     0.089 C 
ENDBRANCH   4   5
ENDBRANCH   2   4
TORSDOF 2
ENDMDL
MODEL 8
REMARK VINA RESULT:      -0.8      2.345      2.881
REMARK  2 active torsions:
REMARK  status: ('A' for Active; 'I' for Inactive)
REMARK    1  A    between atoms: C2_2  and  C4_4 
REMARK    2  A    between atoms: C4_4  and  S6_6 
ROOT
HETATM    1  C1  UNL     1     -32.327  10.730   0.034  1.00 20.00     0.201 A 
HETATM    2  C2  UNL     1     -32.800   9.467   0.699  1.00 20.00     0.154 A 
HETATM    3  O5  UNL     1     -32.827   9.617  -0.724  1.00 20.00    -0.380 OA
ENDROOT
BRANCH   2   4
HETATM    4  C4  UNL     1     -31.836   8.450   1.194  1.00 20.00     0.107 C 
BRANCH   4   5
HETATM    5  S6  UNL     1     -32.577   7.402   2.490  1.00 20.00    -0.171 SA
HETATM    6  C3  UNL     1     -32.749   5.887   1.523  1.00 20.00     0.089 C 
ENDBRANCH   4   5
ENDBRANCH   2   4
TORSDOF 2
ENDMDL
MODEL 9
REMARK VINA RESULT:      -0.7      2.920      3.502
REMARK  2 active torsions:
REMARK  status: ('A' for Active; 'I' for Inactive)
REMARK    1  A    between atoms: C2_2  and  C4_4 
REMARK    2  A    between atoms: C4_4  and  S6_6 
ROOT
HETATM    1  C1  UNL     1     -34.226   7.509   4.284  1.00 20.00     0.201 A 
HETATM    2  C2  UNL     1     -34.983   6.302   3.803  1.00 20.00     0.154 A 
HETATM    3  O5  UNL     1     -33.792   6.748   3.146  1.00 20.00    -0.380 OA
ENDROOT
BRANCH   2   4
HETATM    4  C4  UNL     1     -34.856   4.990   4.490  1.00 20.00     0.107 C 
BRANCH   4   5
HETATM    5  S6  UNL     1     -33.670   3.900   3.634  1.00 20.00    -0.171 SA
HETATM    6  C3  UNL     1     -33.096   2.972   5.073  1.00 20.00     0.089 C 
ENDBRANCH   4   5
ENDBRANCH   2   4
TORSDOF 2
ENDMDL
