MODEL 1
REMARK VINA RESULT:       0.1      0.000      0.000
REMARK  2 active torsions:
REMARK  status: ('A' for Active; 'I' for Inactive)
REMARK    1  A    between atoms: C1_1  and  C3_3 
REMARK    2  A    between atoms: C2_2  and  C9_9 
ROOT
HETATM    1  C1  UNL     1     -32.658   7.990   1.541  1.00 20.00    -0.071 C 
HETATM    2  C2  UNL     1     -33.271   7.491   2.445  1.00 20.00    -0.095 C 
ENDROOT
BRANCH   1   3
HETATM    3  C3  UNL     1     -31.912   8.598   0.441  1.00 20.00     0.229 A 
HETATM    4  C4  UNL     1     -32.096  10.040   0.108  1.00 20.00     0.160 A 
HETATM    5  C5  UNL     1     -32.998  10.966   0.844  1.00 20.00     0.043 C 
HETATM    6  O10 UNL     1     -32.769   9.009  -0.620  1.00 20.00    -0.363 OA
ENDBRANCH   1   3
BRANCH   2   7
HETATM    7  C9  UNL     1     -34.028   6.878   3.558  1.00 20.00     0.013 C 
HETATM    8  C6  UNL     1     -33.721   7.633   4.860  1.00 20.00     0.028 C 
HETATM    9  C7  UNL     1     -33.615   5.407   3.708  1.00 20.00     0.028 C 
HETATM   10  C8  UNL     1     -35.532   6.961   3.260  1.00 20.00     0.028 C 
ENDBRANCH   2   7
TORSDOF 2
ENDMDL
MODEL 2
REMARK VINA RESULT:       0.1      0.012      1.375
REMARK  2 active torsions:
REMARK  status: ('A' for Active; 'I' for Inactive)
REMARK    1  A    between atoms: C1_1  and  C3_3 
REMARK    2  A    between atoms: C2_2  and  C9_9 
ROOT
HETATM    1  C1  UNL     1     -32.654   8.002   1.540  1.00 20.00    -0.071 C 
HETATM    2  C2  UNL     1     -33.268   7.502   2.444  1.00 20.00    -0.095 C 
ENDROOT
BRANCH   1   3
HETATM    3  C3  UNL     1     -31.907   8.610   0.441  1.00 20.00     0.229 A 
HETATM    4  C4  UNL     1     -32.096  10.051   0.105  1.00 20.00     0.160 A 
HETATM    5  C5  UNL     1     -33.003  10.975   0.838  1.00 20.00     0.043 C 
HETATM    6  O10 UNL     1     -32.764   9.016  -0.623  1.00 20.00    -0.363 OA
ENDBRANCH   1   3
BRANCH   2   7
HETATM    7  C9  UNL     1     -34.024   6.888   3.557  1.00 20.00     0.013 C 
HETATM    8  C6  UNL     1     -33.613   5.416   3.703  1.00 20.00     0.028 C 
HETATM    9  C7  UNL     1     -35.528   6.974   3.262  1.00 20.00     0.028 C 
HETATM   10  C8  UNL     1     -33.713   7.639   4.860  1.00 20.00     0.028 C 
ENDBRANCH   2   7
TORSDOF 2
ENDMDL
MODEL 3
REMARK VINA RESULT:       0.1      2.320      4.994
REMARK  2 active torsions:
REMARK  status: ('A' for Active; 'I' for Inactive)
REMARK    1  A    between atoms: C1_1  and  C3_3 
REMARK    2  A    between atoms: C2_2  and  C9_9 
ROOT
HETATM    1  C1  UNL     1     -33.970   7.205   3.425  1.00 20.00    -0.071 C 
HETATM    2  C2  UNL     1     -33.094   7.591   2.699  1.00 20.00    -0.095 C 
ENDROOT
BRANCH   1   3
HETATM    3  C3  UNL     1     -35.037   6.737   4.307  1.00 20.00     0.229 A 
HETATM    4  C4  UNL     1     -35.179   5.284   4.616  1.00 20.00     0.160 A 
HETATM    5  C5  UNL     1     -34.275   4.221   4.100  1.00 20.00     0.043 C 
HETATM    6  O10 UNL     1     -35.979   5.921   3.616  1.00 20.00    -0.363 OA
ENDBRANCH   1   3
BRANCH   2   7
HETATM    7  C9  UNL     1     -32.015   8.064   1.805  1.00 20.00     0.013 C 
HETATM    8  C6  UNL     1     -30.862   8.625   2.649  1.00 20.00     0.028 C 
HETATM    9  C7  UNL     1     -32.560   9.164   0.883  1.00 20.00     0.028 C 
HETATM   10  C8  UNL     1     -31.504   6.890   0.956  1.00 20.00     0.028 C 
ENDBRANCH   2   7
TORSDOF 2
ENDMDL
MODEL 4
REMARK VINA RESULT:       0.3      2.369      5.052
REMARK  2 active torsions:
REMARK  status: ('A' for Active; 'I' for Inactive)
REMARK    1  A    between atoms: C1_1  and  C3_3 
REMARK    2  A    between atoms: C2_2  and  C9_9 
ROOT
HETATM    1  C1  UNL     1     -33.958   7.065   3.496  1.00 20.00    -0.071 C 
HETATM    2  C2  UNL     1     -33.127   7.485   2.737  1.00 20.00    -0.095 C 
ENDROOT
BRANCH   1   3
HETATM    3  C3  UNL     1     -34.969   6.554   4.419  1.00 20.00     0.229 A 
HETATM    4  C4  UNL     1     -35.037   5.098   4.736  1.00 20.00     0.160 A 
HETATM    5  C5  UNL     1     -34.108   4.072   4.188  1.00 20.00     0.043 C 
HETATM    6  O10 UNL     1     -35.901   5.696   3.766  1.00 20.00    -0.363 OA
ENDBRANCH   1   3
BRANCH   2   7
HETATM    7  C9  UNL     1     -32.105   8.003   1.801  1.00 20.00     0.013 C 
HETATM    8  C6  UNL     1     -32.697   9.164   0.990  1.00 20.00     0.028 C 
HETATM    9  C7  UNL     1     -31.668   6.881   0.850  1.00 20.00     0.028 C 
HETATM   10  C8  UNL     1     -30.890   8.502   2.598  1.00 20.00     0.028 C 
ENDBRANCH   2   7
TORSDOF 2
ENDMDL
MODEL 5
REMARK VINA RESULT:       1.8      3.200      5.750
REMARK  2 active torsions:
REMARK  status: ('A' for Active; 'I' for Inactive)
REMARK    1  A    between atoms: C1_1  and  C3_3 
REMARK    2  A    between atoms: C2_2  and  C9_9 
ROOT
HETATM    1  C1  UNL     1     -33.779   4.367   4.030  1.00 20.00    -0.071 C 
HETATM    2  C2  UNL     1     -33.976   5.529   3.799  1.00 20.00    -0.095 C 
ENDROOT
BRANCH   1   3
HETATM    3  C3  UNL     1     -33.541   2.954   4.313  1.00 20.00     0.229 A 
HETATM    4  C4  UNL     1     -32.809   2.542   5.546  1.00 20.00     0.160 A 
HETATM    5  C5  UNL     1     -32.296   3.485   6.576  1.00 20.00     0.043 C 
HETATM    6  O10 UNL     1     -32.153   2.631   4.278  1.00 20.00    -0.363 OA
ENDBRANCH   1   3
BRANCH   2   7
HETATM    7  C9  UNL     1     -34.219   6.960   3.513  1.00 20.00     0.013 C 
HETATM    8  C6  UNL     1     -33.886   7.794   4.759  1.00 20.00     0.028 C 
HETATM    9  C7  UNL     1     -35.693   7.163   3.138  1.00 20.00     0.028 C 
HETATM   10  C8  UNL     1     -33.327   7.406   2.345  1.00 20.00     0.028 C 
ENDBRANCH   2   7
TORSDOF 2
ENDMDL
MODEL 6
REMARK VINA RESULT:       2.0      1.952      4.786
REMARK  2 active torsions:
REMARK  status: ('A' for Active; 'I' for Inactive)
REMARK    1  A    between atoms: C1_1  and  C3_3 
REMARK    2  A    between atoms: C2_2  and  C9_9 
ROOT
HETATM    1  C1  UNL     1     -32.817   7.854   2.525  1.00 20.00    -0.071 C 
HETATM    2  C2  UNL     1     -32.539   8.524   1.568  1.00 20.00    -0.095 C 
ENDROOT
BRANCH   1   3
HETATM    3  C3  UNL     1     -33.155   7.040   3.690  1.00 20.00     0.229 A 
HETATM    4  C4  UNL     1     -34.565   6.617   3.933  1.00 20.00     0.160 A 
HETATM    5  C5  UNL     1     -35.710   6.947   3.041  1.00 20.00     0.043 C 
HETATM    6  O10 UNL     1     -33.992   7.742   4.606  1.00 20.00    -0.363 OA
ENDBRANCH   1   3
BRANCH   2   7
HETATM    7  C9  UNL     1     -32.197   9.350   0.389  1.00 20.00     0.013 C 
HETATM    8  C6  UNL     1     -32.545  10.818   0.677  1.00 20.00     0.028 C 
HETATM    9  C7  UNL     1     -32.996   8.862  -0.827  1.00 20.00     0.028 C 
HETATM   10  C8  UNL     1     -30.694   9.228   0.099  1.00 20.00     0.028 C 
ENDBRANCH   2   7
TORSDOF 2
ENDMDL
MODEL 7
REMARK VINA RESULT:       2.0      1.956      4.791
REMARK  2 active torsions:
REMARK  status: ('A' for Active; 'I' for Inactive)
REMARK    1  A    between atoms: C1_1  and  C3_3 
REMARK    2  A    between atoms: C2_2  and  C9_9 
ROOT
HETATM    1  C1  UNL     1     -32.810   7.877   2.548  1.00 20.00    -0.071 C 
HETATM    2  C2  UNL     1     -32.536   8.539   1.584  1.00 20.00    -0.095 C 
ENDROOT
BRANCH   1   3
HETATM    3  C3  UNL     1     -33.143   7.070   3.720  1.00 20.00     0.229 A 
HETATM    4  C4  UNL     1     -34.548   6.627   3.958  1.00 20.00     0.160 A 
HETATM    5  C5  UNL     1     -35.691   6.927   3.054  1.00 20.00     0.043 C 
HETATM    6  O10 UNL     1     -33.998   7.769   4.621  1.00 20.00    -0.363 OA
ENDBRANCH   1   3
BRANCH   2   7
HETATM    7  C9  UNL     1     -32.198   9.354   0.396  1.00 20.00     0.013 C 
HETATM    8  C6  UNL     1     -30.698   9.224   0.099  1.00 20.00     0.028 C 
HETATM    9  C7  UNL     1     -32.543  10.824   0.671  1.00 20.00     0.028 C 
HETATM   10  C8  UNL     1     -33.005   8.855  -0.811  1.00 20.00     0.028 C 
ENDBRANCH   2   7
TORSDOF 2
ENDMDL
MODEL 8
REMARK VINA RESULT:       2.0      1.956      4.793
REMARK  2 active torsions:
REMARK  status: ('A' for Active; 'I' for Inactive)
REMARK    1  A    between atoms: C1_1  and  C3_3 
REMARK    2  A    between atoms: C2_2  and  C9_9 
ROOT
HETATM    1  C1  UNL     1     -32.811   7.877   2.547  1.00 20.00    -0.071 C 
HETATM    2  C2  UNL     1     -32.536   8.540   1.584  1.00 20.00    -0.095 C 
ENDROOT
BRANCH   1   3
HETATM    3  C3  UNL     1     -33.145   7.070   3.719  1.00 20.00     0.229 A 
HETATM    4  C4  UNL     1     -34.551   6.630   3.957  1.00 20.00     0.160 A 
HETATM    5  C5  UNL     1     -35.693   6.932   3.054  1.00 20.00     0.043 C 
HETATM    6  O10 UNL     1     -33.998   7.770   4.620  1.00 20.00    -0.363 OA
ENDBRANCH   1   3
BRANCH   2   7
HETATM    7  C9  UNL     1     -32.199   9.355   0.397  1.00 20.00     0.013 C 
HETATM    8  C6  UNL     1     -33.009   8.859  -0.810  1.00 20.00     0.028 C 
HETATM    9  C7  UNL     1     -30.699   9.225   0.097  1.00 20.00     0.028 C 
HETATM   10  C8  UNL     1     -32.541  10.826   0.674  1.00 20.00     0.028 C 
ENDBRANCH   2   7
TORSDOF 2
ENDMDL
MODEL 9
REMARK VINA RESULT:       2.2      1.906      2.535
REMARK  2 active torsions:
REMARK  status: ('A' for Active; 'I' for Inactive)
REMARK    1  A    between atoms: C1_1  and  C3_3 
REMARK    2  A    between atoms: C2_2  and  C9_9 
ROOT
HETATM    1  C1  UNL     1     -32.264   8.099   1.508  1.00 20.00    -0.071 C 
HETATM    2  C2  UNL     1     -32.502   6.922   1.536  1.00 20.00    -0.095 C 
ENDROOT
BRANCH   1   3
HETATM    3  C3  UNL     1     -31.975   9.531   1.473  1.00 20.00     0.229 A 
HETATM    4  C4  UNL     1     -32.424  10.365   0.320  1.00 20.00     0.160 A 
HETATM    5  C5  UNL     1     -33.197   9.850  -0.842  1.00 20.00     0.043 C 
HETATM    6  O10 UNL     1     -31.085   9.868   0.412  1.00 20.00    -0.363 OA
ENDBRANCH   1   3
BRANCH   2   7
HETATM    7  C9  UNL     1     -32.794   5.472   1.570  1.00 20.00     0.013 C 
HETATM    8  C6  UNL     1     -31.480   4.684   1.469  1.00 20.00     0.028 C 
HETATM    9  C7  UNL     1     -33.705   5.107   0.390  1.00 20.00     0.028 C 
HETATM   10  C8  UNL     1     -33.500   5.125   2.889  1.00 20.00     0.028 C 
ENDBRANCH   2   7
TORSDOF 2
ENDMDL
