MODEL 1
REMARK VINA RESULT:      -1.7      0.000      0.000
REMARK  0 active torsions:
REMARK  status: ('A' for Active; 'I' for Inactive)
ROOT
HETATM    1  C1  UNL     1     -34.929   6.510   3.954  1.00 20.00     0.003 C 
HETATM    2  C2  UNL     1     -33.960   7.685   4.071  1.00 20.00     0.003 C 
HETATM    3  C3  UNL     1     -34.093   5.415   3.288  1.00 20.00     0.040 C 
HETATM    4  C4  UNL     1     -33.178   7.645   2.755  1.00 20.00     0.040 C 
HETATM    5  C5  UNL     1     -32.026   5.540   1.652  1.00 20.00     0.207 A 
HETATM    6  C6  UNL     1     -33.153   6.186   2.414  1.00 20.00     0.082 A 
HETATM    7  O7  UNL     1     -33.258   5.900   1.013  1.00 20.00    -0.375 OA
ENDROOT
TORSDOF 0
ENDMDL
MODEL 2
REMARK VINA RESULT:      -1.5      1.504      2.691
REMARK  0 active torsions:
REMARK  status: ('A' for Active; 'I' for Inactive)
ROOT
HETATM    1  C1  UNL     1     -32.072   6.695   1.593  1.00 20.00     0.003 C 
HETATM    2  C2  UNL     1     -32.244   8.057   2.262  1.00 20.00     0.003 C 
HETATM    3  C3  UNL     1     -33.425   6.013   1.808  1.00 20.00     0.040 C 
HETATM    4  C4  UNL     1     -33.050   7.746   3.526  1.00 20.00     0.040 C 
HETATM    5  C5  UNL     1     -35.252   6.296   3.691  1.00 20.00     0.207 A 
HETATM    6  C6  UNL     1     -33.886   6.571   3.119  1.00 20.00     0.082 A 
HETATM    7  O7  UNL     1     -34.089   5.597   4.152  1.00 20.00    -0.375 OA
ENDROOT
TORSDOF 0
ENDMDL
MODEL 3
REMARK VINA RESULT:      -1.4      1.514      2.846
REMARK  0 active torsions:
REMARK  status: ('A' for Active; 'I' for Inactive)
ROOT
HETATM    1  C1  UNL     1     -32.551   8.046   2.464  1.00 20.00     0.003 C 
HETATM    2  C2  UNL     1     -32.257   6.700   1.806  1.00 20.00     0.003 C 
HETATM    3  C3  UNL     1     -33.321   7.669   3.732  1.00 20.00     0.040 C 
HETATM    4  C4  UNL     1     -33.541   5.897   2.028  1.00 20.00     0.040 C 
HETATM    5  C5  UNL     1     -34.860   5.602   4.298  1.00 20.00     0.207 A 
HETATM    6  C6  UNL     1     -34.060   6.432   3.328  1.00 20.00     0.082 A 
HETATM    7  O7  UNL     1     -35.489   6.530   3.404  1.00 20.00    -0.375 OA
ENDROOT
TORSDOF 0
ENDMDL
MODEL 4
REMARK VINA RESULT:      -1.2      0.771      1.732
REMARK  0 active torsions:
REMARK  status: ('A' for Active; 'I' for Inactive)
ROOT
HETATM    1  C1  UNL     1     -33.823   7.691   3.995  1.00 20.00     0.003 C 
HETATM    2  C2  UNL     1     -34.834   6.546   3.978  1.00 20.00     0.003 C 
HETATM    3  C3  UNL     1     -33.196   7.640   2.600  1.00 20.00     0.040 C 
HETATM    4  C4  UNL     1     -34.112   5.432   3.215  1.00 20.00     0.040 C 
HETATM    5  C5  UNL     1     -32.849   5.648   0.905  1.00 20.00     0.207 A 
HETATM    6  C6  UNL     1     -33.236   6.183   2.258  1.00 20.00     0.082 A 
HETATM    7  O7  UNL     1     -31.956   5.582   2.024  1.00 20.00    -0.375 OA
ENDROOT
TORSDOF 0
ENDMDL
MODEL 5
REMARK VINA RESULT:      -1.2      1.594      2.388
REMARK  0 active torsions:
REMARK  status: ('A' for Active; 'I' for Inactive)
ROOT
HETATM    1  C1  UNL     1     -34.049   6.270   3.689  1.00 20.00     0.003 C 
HETATM    2  C2  UNL     1     -33.831   5.429   2.433  1.00 20.00     0.003 C 
HETATM    3  C3  UNL     1     -33.772   7.700   3.221  1.00 20.00     0.040 C 
HETATM    4  C4  UNL     1     -32.613   6.076   1.767  1.00 20.00     0.040 C 
HETATM    5  C5  UNL     1     -32.238   8.647   1.295  1.00 20.00     0.207 A 
HETATM    6  C6  UNL     1     -32.733   7.517   2.158  1.00 20.00     0.082 A 
HETATM    7  O7  UNL     1     -31.483   8.172   2.417  1.00 20.00    -0.375 OA
ENDROOT
TORSDOF 0
ENDMDL
MODEL 6
REMARK VINA RESULT:      -1.0      1.255      1.514
REMARK  0 active torsions:
REMARK  status: ('A' for Active; 'I' for Inactive)
ROOT
HETATM    1  C1  UNL     1     -34.639   6.310   3.472  1.00 20.00     0.003 C 
HETATM    2  C2  UNL     1     -34.147   7.333   4.493  1.00 20.00     0.003 C 
HETATM    3  C3  UNL     1     -33.447   6.137   2.528  1.00 20.00     0.040 C 
HETATM    4  C4  UNL     1     -33.347   8.332   3.653  1.00 20.00     0.040 C 
HETATM    5  C5  UNL     1     -31.488   7.774   1.861  1.00 20.00     0.207 A 
HETATM    6  C6  UNL     1     -32.800   7.487   2.543  1.00 20.00     0.082 A 
HETATM    7  O7  UNL     1     -32.740   8.143   1.268  1.00 20.00    -0.375 OA
ENDROOT
TORSDOF 0
ENDMDL
MODEL 7
REMARK VINA RESULT:      -0.8      1.540      3.199
REMARK  0 active torsions:
REMARK  status: ('A' for Active; 'I' for Inactive)
ROOT
HETATM    1  C1  UNL     1     -31.849   7.692   1.441  1.00 20.00     0.003 C 
HETATM    2  C2  UNL     1     -32.017   6.180   1.567  1.00 20.00     0.003 C 
HETATM    3  C3  UNL     1     -32.386   8.229   2.769  1.00 20.00     0.040 C 
HETATM    4  C4  UNL     1     -33.368   6.020   2.269  1.00 20.00     0.040 C 
HETATM    5  C5  UNL     1     -34.188   7.275   4.445  1.00 20.00     0.207 A 
HETATM    6  C6  UNL     1     -33.456   7.244   3.129  1.00 20.00     0.082 A 
HETATM    7  O7  UNL     1     -34.773   7.799   3.246  1.00 20.00    -0.375 OA
ENDROOT
TORSDOF 0
ENDMDL
MODEL 8
REMARK VINA RESULT:      -0.8      2.032      2.611
REMARK  0 active torsions:
REMARK  status: ('A' for Active; 'I' for Inactive)
ROOT
HETATM    1  C1  UNL     1     -35.456   6.292   3.849  1.00 20.00     0.003 C 
HETATM    2  C2  UNL     1     -34.055   6.753   3.452  1.00 20.00     0.003 C 
HETATM    3  C3  UNL     1     -35.198   5.064   4.726  1.00 20.00     0.040 C 
HETATM    4  C4  UNL     1     -33.299   5.446   3.196  1.00 20.00     0.040 C 
HETATM    5  C5  UNL     1     -33.216   3.323   4.765  1.00 20.00     0.207 A 
HETATM    6  C6  UNL     1     -33.948   4.483   4.143  1.00 20.00     0.082 A 
HETATM    7  O7  UNL     1     -34.081   3.148   3.636  1.00 20.00    -0.375 OA
ENDROOT
TORSDOF 0
ENDMDL
MODEL 9
REMARK VINA RESULT:      -0.7      1.673      2.937
REMARK  0 active torsions:
REMARK  status: ('A' for Active; 'I' for Inactive)
ROOT
HETATM    1  C1  UNL     1     -32.078   5.951   1.572  1.00 20.00     0.003 C 
HETATM    2  C2  UNL     1     -31.930   7.433   1.232  1.00 20.00     0.003 C 
HETATM    3  C3  UNL     1     -33.378   5.892   2.377  1.00 20.00     0.040 C 
HETATM    4  C4  UNL     1     -32.383   8.148   2.508  1.00 20.00     0.040 C 
HETATM    5  C5  UNL     1     -34.582   7.683   3.896  1.00 20.00     0.207 A 
HETATM    6  C6  UNL     1     -33.406   7.214   3.080  1.00 20.00     0.082 A 
HETATM    7  O7  UNL     1     -33.409   7.137   4.512  1.00 20.00    -0.375 OA
ENDROOT
TORSDOF 0
ENDMDL
