MODEL 1
REMARK VINA RESULT:      -1.2      0.000      0.000
REMARK  2 active torsions:
REMARK  status: ('A' for Active; 'I' for Inactive)
REMARK    1  A    between atoms: C2_2  and  C4_4 
REMARK    2  A    between atoms: C4_4  and  S6_6 
ROOT
HETATM    1  C1  UNL     1     -35.073   6.451   3.796  1.00 20.00     0.201 A 
HETATM    2  C2  UNL     1     -33.635   6.446   3.355  1.00 20.00     0.154 A 
HETATM    3  O5  UNL     1     -34.186   7.544   4.089  1.00 20.00    -0.380 OA
ENDROOT
BRANCH   2   4
HETATM    4  C4  UNL     1     -33.259   6.766   1.954  1.00 20.00     0.107 C 
BRANCH   4   5
HETATM    5  S6  UNL     1     -31.815   7.881   1.888  1.00 20.00    -0.171 SA
HETATM    6  C3  UNL     1     -32.497   9.113   0.757  1.00 20.00     0.089 C 
ENDBRANCH   4   5
ENDBRANCH   2   4
TORSDOF 2
ENDMDL
MODEL 2
REMARK VINA RESULT:      -0.9      2.274      3.729
REMARK  2 active torsions:
REMARK  status: ('A' for Active; 'I' for Inactive)
REMARK    1  A    between atoms: C2_2  and  C4_4 
REMARK    2  A    between atoms: C4_4  and  S6_6 
ROOT
HETATM    1  C1  UNL     1     -32.141   8.765   1.052  1.00 20.00     0.201 A 
HETATM    2  C2  UNL     1     -32.192   7.981   2.334  1.00 20.00     0.154 A 
HETATM    3  O5  UNL     1     -31.303   7.618   1.272  1.00 20.00    -0.380 OA
ENDROOT
BRANCH   2   4
HETATM    4  C4  UNL     1     -33.277   7.001   2.594  1.00 20.00     0.107 C 
BRANCH   4   5
HETATM    5  S6  UNL     1     -34.202   7.414   4.112  1.00 20.00    -0.171 SA
HETATM    6  C3  UNL     1     -35.350   6.018   4.097  1.00 20.00     0.089 C 
ENDBRANCH   4   5
ENDBRANCH   2   4
TORSDOF 2
ENDMDL
MODEL 3
REMARK VINA RESULT:      -0.9      1.707      1.743
REMARK  2 active torsions:
REMARK  status: ('A' for Active; 'I' for Inactive)
REMARK    1  A    between atoms: C2_2  and  C4_4 
REMARK    2  A    between atoms: C4_4  and  S6_6 
ROOT
HETATM    1  C1  UNL     1     -35.398   6.182   4.124  1.00 20.00     0.201 A 
HETATM    2  C2  UNL     1     -34.276   6.450   3.160  1.00 20.00     0.154 A 
HETATM    3  O5  UNL     1     -34.242   5.331   4.052  1.00 20.00    -0.380 OA
ENDROOT
BRANCH   2   4
HETATM    4  C4  UNL     1     -33.255   7.493   3.437  1.00 20.00     0.107 C 
BRANCH   4   5
HETATM    5  S6  UNL     1     -32.153   7.747   2.005  1.00 20.00    -0.171 SA
HETATM    6  C3  UNL     1     -32.199   6.065   1.347  1.00 20.00     0.089 C 
ENDBRANCH   4   5
ENDBRANCH   2   4
TORSDOF 2
ENDMDL
MODEL 4
REMARK VINA RESULT:      -0.8      1.492      1.541
REMARK  2 active torsions:
REMARK  status: ('A' for Active; 'I' for Inactive)
REMARK    1  A    between atoms: C2_2  and  C4_4 
REMARK    2  A    between atoms: C4_4  and  S6_6 
ROOT
HETATM    1  C1  UNL     1     -34.246   7.433   4.479  1.00 20.00     0.201 A 
HETATM    2  C2  UNL     1     -34.262   6.779   3.125  1.00 20.00     0.154 A 
HETATM    3  O5  UNL     1     -35.264   6.489   4.105  1.00 20.00    -0.380 OA
ENDROOT
BRANCH   2   4
HETATM    4  C4  UNL     1     -33.360   5.641   2.810  1.00 20.00     0.107 C 
BRANCH   4   5
HETATM    5  S6  UNL     1     -32.342   5.984   1.334  1.00 20.00    -0.171 SA
HETATM    6  C3  UNL     1     -31.957   7.713   1.688  1.00 20.00     0.089 C 
ENDBRANCH   4   5
ENDBRANCH   2   4
TORSDOF 2
ENDMDL
MODEL 5
REMARK VINA RESULT:      -0.8      1.098      1.122
REMARK  2 active torsions:
REMARK  status: ('A' for Active; 'I' for Inactive)
REMARK    1  A    between atoms: C2_2  and  C4_4 
REMARK    2  A    between atoms: C4_4  and  S6_6 
ROOT
HETATM    1  C1  UNL     1     -35.147   6.287   4.095  1.00 20.00     0.201 A 
HETATM    2  C2  UNL     1     -34.198   6.633   2.981  1.00 20.00     0.154 A 
HETATM    3  O5  UNL     1     -34.026   5.450   3.767  1.00 20.00    -0.380 OA
ENDROOT
BRANCH   2   4
HETATM    4  C4  UNL     1     -33.137   7.656   3.163  1.00 20.00     0.107 C 
BRANCH   4   5
HETATM    5  S6  UNL     1     -31.913   7.598   1.811  1.00 20.00    -0.171 SA
HETATM    6  C3  UNL     1     -32.384   9.130   0.977  1.00 20.00     0.089 C 
ENDBRANCH   4   5
ENDBRANCH   2   4
TORSDOF 2
ENDMDL
MODEL 6
REMARK VINA RESULT:      -0.8      2.332      3.391
REMARK  2 active torsions:
REMARK  status: ('A' for Active; 'I' for Inactive)
REMARK    1  A    between atoms: C2_2  and  C4_4 
REMARK    2  A    between atoms: C4_4  and  S6_6 
ROOT
HETATM    1  C1  UNL     1     -32.341   8.700   1.089  1.00 20.00     0.201 A 
HETATM    2  C2  UNL     1     -32.404   7.684   2.196  1.00 20.00     0.154 A 
HETATM    3  O5  UNL     1     -31.217   7.867   1.418  1.00 20.00    -0.380 OA
ENDROOT
BRANCH   2   4
HETATM    4  C4  UNL     1     -33.075   6.373   2.000  1.00 20.00     0.107 C 
BRANCH   4   5
HETATM    5  S6  UNL     1     -34.241   6.010   3.356  1.00 20.00    -0.171 SA
HETATM    6  C3  UNL     1     -34.128   7.593   4.219  1.00 20.00     0.089 C 
ENDBRANCH   4   5
ENDBRANCH   2   4
TORSDOF 2
ENDMDL
MODEL 7
REMARK VINA RESULT:      -0.8      2.506      3.671
REMARK  2 active torsions:
REMARK  status: ('A' for Active; 'I' for Inactive)
REMARK    1  A    between atoms: C2_2  and  C4_4 
REMARK    2  A    between atoms: C4_4  and  S6_6 
ROOT
HETATM    1  C1  UNL     1     -32.141   6.334   1.621  1.00 20.00     0.201 A 
HETATM    2  C2  UNL     1     -33.258   7.190   2.149  1.00 20.00     0.154 A 
HETATM    3  O5  UNL     1     -31.983   7.749   1.816  1.00 20.00    -0.380 OA
ENDROOT
BRANCH   2   4
HETATM    4  C4  UNL     1     -33.586   7.220   3.598  1.00 20.00     0.107 C 
BRANCH   4   5
HETATM    5  S6  UNL     1     -35.096   6.260   3.961  1.00 20.00    -0.171 SA
HETATM    6  C3  UNL     1     -34.333   4.628   4.093  1.00 20.00     0.089 C 
ENDBRANCH   4   5
ENDBRANCH   2   4
TORSDOF 2
ENDMDL
MODEL 8
REMARK VINA RESULT:      -0.7      2.254      3.900
REMARK  2 active torsions:
REMARK  status: ('A' for Active; 'I' for Inactive)
REMARK    1  A    between atoms: C2_2  and  C4_4 
REMARK    2  A    between atoms: C4_4  and  S6_6 
ROOT
HETATM    1  C1  UNL     1     -32.374   9.819  -0.408  1.00 20.00     0.201 A 
HETATM    2  C2  UNL     1     -32.822   9.126   0.849  1.00 20.00     0.154 A 
HETATM    3  O5  UNL     1     -32.436  10.504   0.853  1.00 20.00    -0.380 OA
ENDROOT
BRANCH   2   4
HETATM    4  C4  UNL     1     -31.908   8.227   1.599  1.00 20.00     0.107 C 
BRANCH   4   5
HETATM    5  S6  UNL     1     -32.715   6.641   2.005  1.00 20.00    -0.171 SA
HETATM    6  C3  UNL     1     -33.704   7.210   3.405  1.00 20.00     0.089 C 
ENDBRANCH   4   5
ENDBRANCH   2   4
TORSDOF 2
ENDMDL
MODEL 9
REMARK VINA RESULT:      -0.5      2.666      4.003
REMARK  2 active torsions:
REMARK  status: ('A' for Active; 'I' for Inactive)
REMARK    1  A    between atoms: C2_2  and  C4_4 
REMARK    2  A    between atoms: C4_4  and  S6_6 
ROOT
HETATM    1  C1  UNL     1     -32.415   9.890  -0.555  1.00 20.00     0.201 A 
HETATM    2  C2  UNL     1     -32.815   9.280   0.760  1.00 20.00     0.154 A 
HETATM    3  O5  UNL     1     -32.392  10.644   0.668  1.00 20.00    -0.380 OA
ENDROOT
BRANCH   2   4
HETATM    4  C4  UNL     1     -31.888   8.394   1.511  1.00 20.00     0.107 C 
BRANCH   4   5
HETATM    5  S6  UNL     1     -32.793   7.276   2.634  1.00 20.00    -0.171 SA
HETATM    6  C3  UNL     1     -32.779   5.802   1.590  1.00 20.00     0.089 C 
ENDBRANCH   4   5
ENDBRANCH   2   4
TORSDOF 2
ENDMDL
