MODEL 1
REMARK VINA RESULT:       1.1      0.000      0.000
REMARK  0 active torsions:
REMARK  status: ('A' for Active; 'I' for Inactive)
ROOT
HETATM    1  C1  UNL     1     -33.444   5.670   2.889  1.00 20.00     0.116 C 
HETATM    2  C2  UNL     1     -32.732   8.164   2.469  1.00 20.00     0.344 C 
HETATM    3  C3  UNL     1     -32.730   5.961   1.558  1.00 20.00     0.159 C 
HETATM    4  C4  UNL     1     -31.795   4.796   1.201  1.00 20.00     0.049 C 
HETATM    5  C5  UNL     1     -33.724   6.159   0.398  1.00 20.00     0.049 C 
HETATM    6  N6  UNL     1     -31.913   7.180   1.759  1.00 20.00     0.102 N 
HETATM    7  S7  UNL     1     -33.857   7.290   3.580  1.00 20.00    -0.137 SA
HETATM    8  H18 UNL     1     -31.683   7.565   0.848  1.00 20.00     0.317 HD
ENDROOT
TORSDOF 0
ENDMDL
MODEL 2
REMARK VINA RESULT:       1.2      2.041      2.863
REMARK  0 active torsions:
REMARK  status: ('A' for Active; 'I' for Inactive)
ROOT
HETATM    1  C1  UNL     1     -33.712   7.388   4.292  1.00 20.00     0.116 C 
HETATM    2  C2  UNL     1     -32.969   6.705   1.865  1.00 20.00     0.344 C 
HETATM    3  C3  UNL     1     -34.565   6.315   3.592  1.00 20.00     0.159 C 
HETATM    4  C4  UNL     1     -35.016   5.260   4.613  1.00 20.00     0.049 C 
HETATM    5  C5  UNL     1     -35.818   6.915   2.927  1.00 20.00     0.049 C 
HETATM    6  N6  UNL     1     -33.701   5.660   2.584  1.00 20.00     0.102 N 
HETATM    7  S7  UNL     1     -32.643   8.072   3.001  1.00 20.00    -0.137 SA
HETATM    8  H18 UNL     1     -34.297   5.181   1.915  1.00 20.00     0.317 HD
ENDROOT
TORSDOF 0
ENDMDL
MODEL 3
REMARK VINA RESULT:       1.3      1.219      2.775
REMARK  0 active torsions:
REMARK  status: ('A' for Active; 'I' for Inactive)
ROOT
HETATM    1  C1  UNL     1     -33.649   8.120   2.777  1.00 20.00     0.116 C 
HETATM    2  C2  UNL     1     -32.830   5.697   2.177  1.00 20.00     0.344 C 
HETATM    3  C3  UNL     1     -32.392   8.023   1.894  1.00 20.00     0.159 C 
HETATM    4  C4  UNL     1     -32.406   9.142   0.841  1.00 20.00     0.049 C 
HETATM    5  C5  UNL     1     -31.095   8.145   2.716  1.00 20.00     0.049 C 
HETATM    6  N6  UNL     1     -32.449   6.717   1.198  1.00 20.00     0.102 N 
HETATM    7  S7  UNL     1     -33.936   6.444   3.394  1.00 20.00    -0.137 SA
HETATM    8  H18 UNL     1     -31.517   6.493   0.861  1.00 20.00     0.317 HD
ENDROOT
TORSDOF 0
ENDMDL
MODEL 4
REMARK VINA RESULT:       1.4      2.275      3.384
REMARK  0 active torsions:
REMARK  status: ('A' for Active; 'I' for Inactive)
ROOT
HETATM    1  C1  UNL     1     -33.139   7.316   2.512  1.00 20.00     0.116 C 
HETATM    2  C2  UNL     1     -33.510   4.736   2.843  1.00 20.00     0.344 C 
HETATM    3  C3  UNL     1     -34.087   6.903   3.652  1.00 20.00     0.159 C 
HETATM    4  C4  UNL     1     -33.897   7.841   4.853  1.00 20.00     0.049 C 
HETATM    5  C5  UNL     1     -35.566   6.955   3.224  1.00 20.00     0.049 C 
HETATM    6  N6  UNL     1     -33.708   5.530   4.057  1.00 20.00     0.102 N 
HETATM    7  S7  UNL     1     -32.864   5.812   1.543  1.00 20.00    -0.137 SA
HETATM    8  H18 UNL     1     -34.483   5.124   4.573  1.00 20.00     0.317 HD
ENDROOT
TORSDOF 0
ENDMDL
MODEL 5
REMARK VINA RESULT:       1.5      1.528      2.117
REMARK  0 active torsions:
REMARK  status: ('A' for Active; 'I' for Inactive)
ROOT
HETATM    1  C1  UNL     1     -33.168   6.450   2.083  1.00 20.00     0.116 C 
HETATM    2  C2  UNL     1     -33.627   7.979   4.171  1.00 20.00     0.344 C 
HETATM    3  C3  UNL     1     -32.391   7.778   2.142  1.00 20.00     0.159 C 
HETATM    4  C4  UNL     1     -30.967   7.574   1.602  1.00 20.00     0.049 C 
HETATM    5  C5  UNL     1     -33.071   8.884   1.313  1.00 20.00     0.049 C 
HETATM    6  N6  UNL     1     -32.307   8.170   3.567  1.00 20.00     0.102 N 
HETATM    7  S7  UNL     1     -34.433   6.573   3.371  1.00 20.00    -0.137 SA
HETATM    8  H18 UNL     1     -32.083   9.160   3.614  1.00 20.00     0.317 HD
ENDROOT
TORSDOF 0
ENDMDL
MODEL 6
REMARK VINA RESULT:       1.5      2.078      2.952
REMARK  0 active torsions:
REMARK  status: ('A' for Active; 'I' for Inactive)
ROOT
HETATM    1  C1  UNL     1     -33.746   6.689   1.935  1.00 20.00     0.116 C 
HETATM    2  C2  UNL     1     -32.399   8.052   3.733  1.00 20.00     0.344 C 
HETATM    3  C3  UNL     1     -34.159   6.479   3.403  1.00 20.00     0.159 C 
HETATM    4  C4  UNL     1     -35.685   6.326   3.499  1.00 20.00     0.049 C 
HETATM    5  C5  UNL     1     -33.506   5.226   4.015  1.00 20.00     0.049 C 
HETATM    6  N6  UNL     1     -33.757   7.695   4.147  1.00 20.00     0.102 N 
HETATM    7  S7  UNL     1     -32.180   7.594   1.999  1.00 20.00    -0.137 SA
HETATM    8  H18 UNL     1     -33.732   7.470   5.137  1.00 20.00     0.317 HD
ENDROOT
TORSDOF 0
ENDMDL
MODEL 7
REMARK VINA RESULT:       1.6      1.991      3.003
REMARK  0 active torsions:
REMARK  status: ('A' for Active; 'I' for Inactive)
ROOT
HETATM    1  C1  UNL     1     -33.334   5.659   2.854  1.00 20.00     0.116 C 
HETATM    2  C2  UNL     1     -32.426   7.861   1.743  1.00 20.00     0.344 C 
HETATM    3  C3  UNL     1     -33.866   6.984   3.428  1.00 20.00     0.159 C 
HETATM    4  C4  UNL     1     -35.349   6.833   3.800  1.00 20.00     0.049 C 
HETATM    5  C5  UNL     1     -33.092   7.423   4.686  1.00 20.00     0.049 C 
HETATM    6  N6  UNL     1     -33.747   8.002   2.360  1.00 20.00     0.102 N 
HETATM    7  S7  UNL     1     -31.949   6.119   1.784  1.00 20.00    -0.137 SA
HETATM    8  H18 UNL     1     -33.795   8.922   2.787  1.00 20.00     0.317 HD
ENDROOT
TORSDOF 0
ENDMDL
MODEL 8
REMARK VINA RESULT:       1.6      1.810      2.704
REMARK  0 active torsions:
REMARK  status: ('A' for Active; 'I' for Inactive)
ROOT
HETATM    1  C1  UNL     1     -31.745   6.542   1.619  1.00 20.00     0.116 C 
HETATM    2  C2  UNL     1     -34.070   6.688   2.837  1.00 20.00     0.344 C 
HETATM    3  C3  UNL     1     -32.143   7.923   2.170  1.00 20.00     0.159 C 
HETATM    4  C4  UNL     1     -30.904   8.637   2.731  1.00 20.00     0.049 C 
HETATM    5  C5  UNL     1     -32.771   8.820   1.087  1.00 20.00     0.049 C 
HETATM    6  N6  UNL     1     -33.099   7.692   3.277  1.00 20.00     0.102 N 
HETATM    7  S7  UNL     1     -33.245   5.533   1.719  1.00 20.00    -0.137 SA
HETATM    8  H18 UNL     1     -33.602   8.557   3.451  1.00 20.00     0.317 HD
ENDROOT
TORSDOF 0
ENDMDL
MODEL 9
REMARK VINA RESULT:       1.9      2.431      3.538
REMARK  0 active torsions:
REMARK  status: ('A' for Active; 'I' for Inactive)
ROOT
HETATM    1  C1  UNL     1     -35.170   5.127   4.422  1.00 20.00     0.116 C 
HETATM    2  C2  UNL     1     -32.959   4.946   3.012  1.00 20.00     0.344 C 
HETATM    3  C3  UNL     1     -34.745   6.390   3.652  1.00 20.00     0.159 C 
HETATM    4  C4  UNL     1     -35.987   7.105   3.097  1.00 20.00     0.049 C 
HETATM    5  C5  UNL     1     -33.972   7.380   4.543  1.00 20.00     0.049 C 
HETATM    6  N6  UNL     1     -33.907   5.946   2.515  1.00 20.00     0.102 N 
HETATM    7  S7  UNL     1     -33.746   4.013   4.345  1.00 20.00    -0.137 SA
HETATM    8  H18 UNL     1     -33.372   6.743   2.181  1.00 20.00     0.317 HD
ENDROOT
TORSDOF 0
ENDMDL
