MODEL 1
REMARK VINA RESULT:       0.5      0.000      0.000
REMARK  1 active torsions:
REMARK  status: ('A' for Active; 'I' for Inactive)
REMARK    1  A    between atoms: C3_3  and  C6_6 
ROOT
HETATM    1  C1  UNL     1     -32.880   5.756   1.455  1.00 20.00     0.282 C 
HETATM    2  C2  UNL     1     -33.530   5.711   2.828  1.00 20.00     0.106 C 
HETATM    3  C3  UNL     1     -32.325   7.963   2.146  1.00 20.00     0.201 C 
HETATM    4  C4  UNL     1     -31.191   8.632   2.923  1.00 20.00     0.061 C 
HETATM    5  N7  UNL     1     -31.804   6.746   1.506  1.00 20.00     0.103 N 
HETATM    6  S8  UNL     1     -33.641   7.447   3.310  1.00 20.00    -0.127 SA
HETATM    7  H21 UNL     1     -31.055   6.363   2.084  1.00 20.00     0.318 HD
ENDROOT
BRANCH   3   8
HETATM    8  C6  UNL     1     -32.913   8.929   1.113  1.00 20.00     0.048 C 
HETATM    9  C5  UNL     1     -31.858   9.471   0.207  1.00 20.00     0.009 C 
ENDBRANCH   3   8
TORSDOF 1
ENDMDL
MODEL 2
REMARK VINA RESULT:       0.6      1.576      3.880
REMARK  1 active torsions:
REMARK  status: ('A' for Active; 'I' for Inactive)
REMARK    1  A    between atoms: C3_3  and  C6_6 
ROOT
HETATM    1  C1  UNL     1     -32.403   6.347   1.665  1.00 20.00     0.282 C 
HETATM    2  C2  UNL     1     -32.357   7.800   2.111  1.00 20.00     0.106 C 
HETATM    3  C3  UNL     1     -33.992   6.194   3.428  1.00 20.00     0.201 C 
HETATM    4  C4  UNL     1     -35.499   6.400   3.588  1.00 20.00     0.061 C 
HETATM    5  N7  UNL     1     -33.714   5.812   2.036  1.00 20.00     0.103 N 
HETATM    6  S8  UNL     1     -33.123   7.774   3.746  1.00 20.00    -0.127 SA
HETATM    7  H21 UNL     1     -34.410   6.244   1.428  1.00 20.00     0.318 HD
ENDROOT
BRANCH   3   8
HETATM    8  C6  UNL     1     -33.488   5.132   4.410  1.00 20.00     0.048 C 
HETATM    9  C5  UNL     1     -33.889   3.759   3.987  1.00 20.00     0.009 C 
ENDBRANCH   3   8
TORSDOF 1
ENDMDL
MODEL 3
REMARK VINA RESULT:       1.3      1.970      2.911
REMARK  1 active torsions:
REMARK  status: ('A' for Active; 'I' for Inactive)
REMARK    1  A    between atoms: C3_3  and  C6_6 
ROOT
HETATM    1  C1  UNL     1     -35.370   6.228   4.122  1.00 20.00     0.282 C 
HETATM    2  C2  UNL     1     -34.859   4.827   4.414  1.00 20.00     0.106 C 
HETATM    3  C3  UNL     1     -33.523   6.242   2.625  1.00 20.00     0.201 C 
HETATM    4  C4  UNL     1     -33.261   5.822   1.179  1.00 20.00     0.061 C 
HETATM    5  N7  UNL     1     -34.946   6.582   2.767  1.00 20.00     0.103 N 
HETATM    6  S8  UNL     1     -33.184   4.830   3.741  1.00 20.00    -0.127 SA
HETATM    7  H21 UNL     1     -35.488   6.016   2.113  1.00 20.00     0.318 HD
ENDROOT
BRANCH   3   8
HETATM    8  C6  UNL     1     -32.625   7.421   3.013  1.00 20.00     0.048 C 
HETATM    9  C5  UNL     1     -32.000   8.052   1.814  1.00 20.00     0.009 C 
ENDBRANCH   3   8
TORSDOF 1
ENDMDL
MODEL 4
REMARK VINA RESULT:       1.3      1.793      3.729
REMARK  1 active torsions:
REMARK  status: ('A' for Active; 'I' for Inactive)
REMARK    1  A    between atoms: C3_3  and  C6_6 
ROOT
HETATM    1  C1  UNL     1     -32.404   8.377   2.812  1.00 20.00     0.282 C 
HETATM    2  C2  UNL     1     -31.911   7.690   1.549  1.00 20.00     0.106 C 
HETATM    3  C3  UNL     1     -33.552   6.314   3.098  1.00 20.00     0.201 C 
HETATM    4  C4  UNL     1     -33.249   4.951   3.720  1.00 20.00     0.061 C 
HETATM    5  N7  UNL     1     -32.743   7.334   3.781  1.00 20.00     0.103 N 
HETATM    6  S8  UNL     1     -33.050   6.306   1.337  1.00 20.00    -0.127 SA
HETATM    7  H21 UNL     1     -31.871   6.908   4.097  1.00 20.00     0.318 HD
ENDROOT
BRANCH   3   8
HETATM    8  C6  UNL     1     -35.048   6.630   3.197  1.00 20.00     0.048 C 
HETATM    9  C5  UNL     1     -35.691   5.888   4.321  1.00 20.00     0.009 C 
ENDBRANCH   3   8
TORSDOF 1
ENDMDL
MODEL 5
REMARK VINA RESULT:       1.5      3.049      3.854
REMARK  1 active torsions:
REMARK  status: ('A' for Active; 'I' for Inactive)
REMARK    1  A    between atoms: C3_3  and  C6_6 
ROOT
HETATM    1  C1  UNL     1     -34.238   4.248   4.688  1.00 20.00     0.282 C 
HETATM    2  C2  UNL     1     -33.653   4.044   3.300  1.00 20.00     0.106 C 
HETATM    3  C3  UNL     1     -34.891   6.334   3.754  1.00 20.00     0.201 C 
HETATM    4  C4  UNL     1     -36.080   6.872   2.956  1.00 20.00     0.061 C 
HETATM    5  N7  UNL     1     -35.345   5.197   4.567  1.00 20.00     0.103 N 
HETATM    6  S8  UNL     1     -33.617   5.707   2.598  1.00 20.00    -0.127 SA
HETATM    7  H21 UNL     1     -36.108   4.726   4.081  1.00 20.00     0.318 HD
ENDROOT
BRANCH   3   8
HETATM    8  C6  UNL     1     -34.285   7.439   4.625  1.00 20.00     0.048 C 
HETATM    9  C5  UNL     1     -33.037   7.990   4.022  1.00 20.00     0.009 C 
ENDBRANCH   3   8
TORSDOF 1
ENDMDL
MODEL 6
REMARK VINA RESULT:       1.5      2.335      3.149
REMARK  1 active torsions:
REMARK  status: ('A' for Active; 'I' for Inactive)
REMARK    1  A    between atoms: C3_3  and  C6_6 
ROOT
HETATM    1  C1  UNL     1     -34.258   6.574   3.495  1.00 20.00     0.282 C 
HETATM    2  C2  UNL     1     -33.278   7.733   3.584  1.00 20.00     0.106 C 
HETATM    3  C3  UNL     1     -32.850   5.946   1.685  1.00 20.00     0.201 C 
HETATM    4  C4  UNL     1     -31.566   5.134   1.504  1.00 20.00     0.061 C 
HETATM    5  N7  UNL     1     -33.558   5.449   2.873  1.00 20.00     0.103 N 
HETATM    6  S8  UNL     1     -32.423   7.699   1.994  1.00 20.00    -0.127 SA
HETATM    7  H21 UNL     1     -32.874   5.099   3.544  1.00 20.00     0.318 HD
ENDROOT
BRANCH   3   8
HETATM    8  C6  UNL     1     -33.726   5.851   0.432  1.00 20.00     0.048 C 
HETATM    9  C5  UNL     1     -33.699   4.479  -0.154  1.00 20.00     0.009 C 
ENDBRANCH   3   8
TORSDOF 1
ENDMDL
MODEL 7
REMARK VINA RESULT:       1.5      2.379      2.850
REMARK  1 active torsions:
REMARK  status: ('A' for Active; 'I' for Inactive)
REMARK    1  A    between atoms: C3_3  and  C6_6 
ROOT
HETATM    1  C1  UNL     1     -34.145   4.207   4.051  1.00 20.00     0.282 C 
HETATM    2  C2  UNL     1     -35.339   4.956   4.618  1.00 20.00     0.106 C 
HETATM    3  C3  UNL     1     -33.638   6.349   3.152  1.00 20.00     0.201 C 
HETATM    4  C4  UNL     1     -32.888   7.599   3.612  1.00 20.00     0.061 C 
HETATM    5  N7  UNL     1     -33.072   5.180   3.839  1.00 20.00     0.103 N 
HETATM    6  S8  UNL     1     -35.397   6.477   3.647  1.00 20.00    -0.127 SA
HETATM    7  H21 UNL     1     -32.728   5.468   4.755  1.00 20.00     0.318 HD
ENDROOT
BRANCH   3   8
HETATM    8  C6  UNL     1     -33.551   6.200   1.630  1.00 20.00     0.048 C 
HETATM    9  C5  UNL     1     -32.226   5.658   1.208  1.00 20.00     0.009 C 
ENDBRANCH   3   8
TORSDOF 1
ENDMDL
MODEL 8
REMARK VINA RESULT:       1.5      1.696      3.192
REMARK  1 active torsions:
REMARK  status: ('A' for Active; 'I' for Inactive)
REMARK    1  A    between atoms: C3_3  and  C6_6 
ROOT
HETATM    1  C1  UNL     1     -32.421   8.037   2.984  1.00 20.00     0.282 C 
HETATM    2  C2  UNL     1     -33.682   7.595   3.708  1.00 20.00     0.106 C 
HETATM    3  C3  UNL     1     -32.908   6.132   1.647  1.00 20.00     0.201 C 
HETATM    4  C4  UNL     1     -33.752   5.830   0.408  1.00 20.00     0.061 C 
HETATM    5  N7  UNL     1     -32.504   7.545   1.608  1.00 20.00     0.103 N 
HETATM    6  S8  UNL     1     -33.926   5.895   3.150  1.00 20.00    -0.127 SA
HETATM    7  H21 UNL     1     -33.226   8.083   1.128  1.00 20.00     0.318 HD
ENDROOT
BRANCH   3   8
HETATM    8  C6  UNL     1     -31.691   5.204   1.707  1.00 20.00     0.048 C 
HETATM    9  C5  UNL     1     -31.510   4.453   0.431  1.00 20.00     0.009 C 
ENDBRANCH   3   8
TORSDOF 1
ENDMDL
MODEL 9
REMARK VINA RESULT:       1.7      1.983      3.053
REMARK  1 active torsions:
REMARK  status: ('A' for Active; 'I' for Inactive)
REMARK    1  A    between atoms: C3_3  and  C6_6 
ROOT
HETATM    1  C1  UNL     1     -32.635   7.120   1.248  1.00 20.00     0.282 C 
HETATM    2  C2  UNL     1     -32.098   5.784   1.736  1.00 20.00     0.106 C 
HETATM    3  C3  UNL     1     -33.440   7.246   3.482  1.00 20.00     0.201 C 
HETATM    4  C4  UNL     1     -32.905   7.728   4.831  1.00 20.00     0.061 C 
HETATM    5  N7  UNL     1     -32.766   7.996   2.413  1.00 20.00     0.103 N 
HETATM    6  S8  UNL     1     -33.021   5.477   3.257  1.00 20.00    -0.127 SA
HETATM    7  H21 UNL     1     -31.827   8.245   2.724  1.00 20.00     0.318 HD
ENDROOT
BRANCH   3   8
HETATM    8  C6  UNL     1     -34.961   7.419   3.414  1.00 20.00     0.048 C 
HETATM    9  C5  UNL     1     -35.673   6.218   3.941  1.00 20.00     0.009 C 
ENDBRANCH   3   8
TORSDOF 1
ENDMDL
