MODEL 1
REMARK VINA RESULT:      -1.1      0.000      0.000
REMARK  0 active torsions:
REMARK  status: ('A' for Active; 'I' for Inactive)
ROOT
HETATM    1  C1  UNL     1     -32.002   7.625   1.662  1.00 20.00     0.094 C 
HETATM    2  C2  UNL     1     -35.387   5.914   4.176  1.00 20.00     0.003 C 
HETATM    3  C3  UNL     1     -34.508   4.726   4.555  1.00 20.00     0.003 C 
HETATM    4  C4  UNL     1     -34.445   6.821   3.382  1.00 20.00     0.042 C 
HETATM    5  C5  UNL     1     -33.666   4.481   3.300  1.00 20.00     0.042 C 
HETATM    6  C6  UNL     1     -32.329   6.248   1.863  1.00 20.00     0.263 A 
HETATM    7  C7  UNL     1     -33.523   5.851   2.702  1.00 20.00     0.101 A 
HETATM    8  N8  UNL     1     -31.738   8.743   1.499  1.00 20.00    -0.194 NA
HETATM    9  O9  UNL     1     -33.580   5.877   1.269  1.00 20.00    -0.354 OA
ENDROOT
TORSDOF 0
ENDMDL
MODEL 2
REMARK VINA RESULT:      -1.0      1.749      2.515
REMARK  0 active torsions:
REMARK  status: ('A' for Active; 'I' for Inactive)
ROOT
HETATM    1  C1  UNL     1     -32.367   9.346   0.557  1.00 20.00     0.094 C 
HETATM    2  C2  UNL     1     -33.515   5.429   2.571  1.00 20.00     0.003 C 
HETATM    3  C3  UNL     1     -34.344   6.198   3.596  1.00 20.00     0.003 C 
HETATM    4  C4  UNL     1     -33.060   6.513   1.591  1.00 20.00     0.042 C 
HETATM    5  C5  UNL     1     -33.561   7.497   3.797  1.00 20.00     0.042 C 
HETATM    6  C6  UNL     1     -32.578   9.112   1.951  1.00 20.00     0.263 A 
HETATM    7  C7  UNL     1     -32.917   7.728   2.460  1.00 20.00     0.101 A 
HETATM    8  N8  UNL     1     -32.196   9.535  -0.574  1.00 20.00    -0.194 NA
HETATM    9  O9  UNL     1     -31.585   8.256   2.532  1.00 20.00    -0.354 OA
ENDROOT
TORSDOF 0
ENDMDL
MODEL 3
REMARK VINA RESULT:      -0.8      2.499      3.978
REMARK  0 active torsions:
REMARK  status: ('A' for Active; 'I' for Inactive)
ROOT
HETATM    1  C1  UNL     1     -34.012   4.229   4.275  1.00 20.00     0.094 C 
HETATM    2  C2  UNL     1     -32.295   7.131   1.219  1.00 20.00     0.003 C 
HETATM    3  C3  UNL     1     -32.135   8.186   2.309  1.00 20.00     0.003 C 
HETATM    4  C4  UNL     1     -32.761   5.891   1.985  1.00 20.00     0.042 C 
HETATM    5  C5  UNL     1     -33.331   7.942   3.232  1.00 20.00     0.042 C 
HETATM    6  C6  UNL     1     -34.177   5.648   4.232  1.00 20.00     0.263 A 
HETATM    7  C7  UNL     1     -33.567   6.464   3.113  1.00 20.00     0.101 A 
HETATM    8  N8  UNL     1     -33.878   3.077   4.310  1.00 20.00    -0.194 NA
HETATM    9  O9  UNL     1     -34.952   6.088   3.109  1.00 20.00    -0.354 OA
ENDROOT
TORSDOF 0
ENDMDL
MODEL 4
REMARK VINA RESULT:      -0.3      2.624      4.643
REMARK  0 active torsions:
REMARK  status: ('A' for Active; 'I' for Inactive)
ROOT
HETATM    1  C1  UNL     1     -33.515   7.305   3.208  1.00 20.00     0.094 C 
HETATM    2  C2  UNL     1     -32.585  10.769   0.407  1.00 20.00     0.003 C 
HETATM    3  C3  UNL     1     -32.279   9.781  -0.715  1.00 20.00     0.003 C 
HETATM    4  C4  UNL     1     -33.095   9.878   1.541  1.00 20.00     0.042 C 
HETATM    5  C5  UNL     1     -31.653   8.588   0.010  1.00 20.00     0.042 C 
HETATM    6  C6  UNL     1     -32.534   7.347   2.169  1.00 20.00     0.263 A 
HETATM    7  C7  UNL     1     -32.326   8.603   1.353  1.00 20.00     0.101 A 
HETATM    8  N8  UNL     1     -34.312   7.272   4.050  1.00 20.00    -0.194 NA
HETATM    9  O9  UNL     1     -31.464   8.259   2.447  1.00 20.00    -0.354 OA
ENDROOT
TORSDOF 0
ENDMDL
MODEL 5
REMARK VINA RESULT:       1.2      1.666      2.195
REMARK  0 active torsions:
REMARK  status: ('A' for Active; 'I' for Inactive)
ROOT
HETATM    1  C1  UNL     1     -32.258   5.660   1.053  1.00 20.00     0.094 C 
HETATM    2  C2  UNL     1     -34.691   4.702   4.778  1.00 20.00     0.003 C 
HETATM    3  C3  UNL     1     -35.773   5.677   4.323  1.00 20.00     0.003 C 
HETATM    4  C4  UNL     1     -33.710   4.680   3.604  1.00 20.00     0.042 C 
HETATM    5  C5  UNL     1     -34.991   6.789   3.622  1.00 20.00     0.042 C 
HETATM    6  C6  UNL     1     -33.089   6.548   1.804  1.00 20.00     0.263 A 
HETATM    7  C7  UNL     1     -33.801   6.073   3.052  1.00 20.00     0.101 A 
HETATM    8  N8  UNL     1     -31.584   4.939   0.444  1.00 20.00    -0.194 NA
HETATM    9  O9  UNL     1     -32.578   6.820   3.115  1.00 20.00    -0.354 OA
ENDROOT
TORSDOF 0
ENDMDL
MODEL 6
REMARK VINA RESULT:       1.7      2.246      3.975
REMARK  0 active torsions:
REMARK  status: ('A' for Active; 'I' for Inactive)
ROOT
HETATM    1  C1  UNL     1     -33.691   5.196   2.873  1.00 20.00     0.094 C 
HETATM    2  C2  UNL     1     -31.676   9.222   2.208  1.00 20.00     0.003 C 
HETATM    3  C3  UNL     1     -32.266   9.287   0.802  1.00 20.00     0.003 C 
HETATM    4  C4  UNL     1     -32.308   7.963   2.806  1.00 20.00     0.042 C 
HETATM    5  C5  UNL     1     -32.272   7.827   0.343  1.00 20.00     0.042 C 
HETATM    6  C6  UNL     1     -33.146   5.707   1.654  1.00 20.00     0.263 A 
HETATM    7  C7  UNL     1     -32.468   7.060   1.618  1.00 20.00     0.101 A 
HETATM    8  N8  UNL     1     -34.134   4.782   3.862  1.00 20.00    -0.194 NA
HETATM    9  O9  UNL     1     -31.718   5.839   1.692  1.00 20.00    -0.354 OA
ENDROOT
TORSDOF 0
ENDMDL
MODEL 7
REMARK VINA RESULT:       1.7      2.203      3.836
REMARK  0 active torsions:
REMARK  status: ('A' for Active; 'I' for Inactive)
ROOT
HETATM    1  C1  UNL     1     -34.893   5.851   3.649  1.00 20.00     0.094 C 
HETATM    2  C2  UNL     1     -31.476   8.551   2.332  1.00 20.00     0.003 C 
HETATM    3  C3  UNL     1     -31.792   8.241   0.872  1.00 20.00     0.003 C 
HETATM    4  C4  UNL     1     -32.602   7.856   3.099  1.00 20.00     0.042 C 
HETATM    5  C5  UNL     1     -32.263   6.786   0.902  1.00 20.00     0.042 C 
HETATM    6  C6  UNL     1     -34.030   5.677   2.524  1.00 20.00     0.263 A 
HETATM    7  C7  UNL     1     -32.908   6.655   2.252  1.00 20.00     0.101 A 
HETATM    8  N8  UNL     1     -35.594   5.992   4.563  1.00 20.00    -0.194 NA
HETATM    9  O9  UNL     1     -32.674   5.395   2.896  1.00 20.00    -0.354 OA
ENDROOT
TORSDOF 0
ENDMDL
MODEL 8
REMARK VINA RESULT:       1.8      2.276      2.819
REMARK  0 active torsions:
REMARK  status: ('A' for Active; 'I' for Inactive)
ROOT
HETATM    1  C1  UNL     1     -33.321   4.866   0.164  1.00 20.00     0.094 C 
HETATM    2  C2  UNL     1     -34.420   6.492   4.269  1.00 20.00     0.003 C 
HETATM    3  C3  UNL     1     -33.993   7.890   3.831  1.00 20.00     0.003 C 
HETATM    4  C4  UNL     1     -34.294   5.661   2.991  1.00 20.00     0.042 C 
HETATM    5  C5  UNL     1     -32.815   7.633   2.889  1.00 20.00     0.042 C 
HETATM    6  C6  UNL     1     -32.673   5.913   0.888  1.00 20.00     0.263 A 
HETATM    7  C7  UNL     1     -33.146   6.305   2.271  1.00 20.00     0.101 A 
HETATM    8  N8  UNL     1     -33.847   4.015  -0.425  1.00 20.00    -0.194 NA
HETATM    9  O9  UNL     1     -32.011   5.449   2.072  1.00 20.00    -0.354 OA
ENDROOT
TORSDOF 0
ENDMDL
