MODEL 1
REMARK VINA RESULT:      -2.1      0.000      0.000
REMARK  3 active torsions:
REMARK  status: ('A' for Active; 'I' for Inactive)
REMARK    1  A    between atoms: C2_2  and  C6_6 
REMARK    2  A    between atoms: C2_2  and  O9_9 
REMARK    3  A    between atoms: C5_5  and  C6_6 
ROOT
HETATM    1  C1  UNL     1     -33.966   7.342   4.055  1.00 20.00     0.074 C 
HETATM    2  C6  UNL     1     -34.214   6.197   3.157  1.00 20.00     0.192 C 
HETATM    3  N7  UNL     1     -33.775   8.244   4.758  1.00 20.00    -0.196 NA
ENDROOT
BRANCH   2   4
HETATM    4  C2  UNL     1     -34.510   4.931   3.945  1.00 20.00     0.276 C 
HETATM    5  O8  UNL     1     -35.467   4.776   4.692  1.00 20.00    -0.264 OA
BRANCH   4   6
HETATM    6  O9  UNL     1     -33.537   4.002   3.698  1.00 20.00    -0.325 OA
HETATM    7  C4  UNL     1     -33.290   3.071   4.756  1.00 20.00     0.213 C 
ENDBRANCH   4   6
ENDBRANCH   2   4
BRANCH   2   8
HETATM    8  C5  UNL     1     -33.051   5.992   2.174  1.00 20.00     0.025 C 
HETATM    9  C3  UNL     1     -32.315   7.271   1.790  1.00 20.00     0.007 C 
ENDBRANCH   2   8
TORSDOF 3
ENDMDL
MODEL 2
REMARK VINA RESULT:      -2.1      3.450      4.811
REMARK  3 active torsions:
REMARK  status: ('A' for Active; 'I' for Inactive)
REMARK    1  A    between atoms: C2_2  and  C6_6 
REMARK    2  A    between atoms: C2_2  and  O9_9 
REMARK    3  A    between atoms: C5_5  and  C6_6 
ROOT
HETATM    1  C1  UNL     1     -32.832   5.973   1.695  1.00 20.00     0.074 C 
HETATM    2  C6  UNL     1     -33.216   7.302   2.208  1.00 20.00     0.192 C 
HETATM    3  N7  UNL     1     -32.534   4.928   1.290  1.00 20.00    -0.196 NA
ENDROOT
BRANCH   2   4
HETATM    4  C2  UNL     1     -32.078   8.299   2.066  1.00 20.00     0.276 C 
HETATM    5  O8  UNL     1     -31.373   8.697   2.985  1.00 20.00    -0.264 OA
BRANCH   4   6
HETATM    6  O9  UNL     1     -31.971   8.688   0.759  1.00 20.00    -0.325 OA
HETATM    7  C4  UNL     1     -32.533   9.966   0.447  1.00 20.00     0.213 C 
ENDBRANCH   4   6
ENDBRANCH   2   4
BRANCH   2   8
HETATM    8  C5  UNL     1     -33.720   7.222   3.657  1.00 20.00     0.025 C 
HETATM    9  C3  UNL     1     -35.013   6.433   3.834  1.00 20.00     0.007 C 
ENDBRANCH   2   8
TORSDOF 3
ENDMDL
MODEL 3
REMARK VINA RESULT:      -1.8      1.717      2.294
REMARK  3 active torsions:
REMARK  status: ('A' for Active; 'I' for Inactive)
REMARK    1  A    between atoms: C2_2  and  C6_6 
REMARK    2  A    between atoms: C2_2  and  O9_9 
REMARK    3  A    between atoms: C5_5  and  C6_6 
ROOT
HETATM    1  C1  UNL     1     -33.222   5.720   2.134  1.00 20.00     0.074 C 
HETATM    2  C6  UNL     1     -33.610   5.897   3.547  1.00 20.00     0.192 C 
HETATM    3  N7  UNL     1     -32.912   5.581   1.025  1.00 20.00    -0.196 NA
ENDROOT
BRANCH   2   4
HETATM    4  C2  UNL     1     -34.394   4.699   4.059  1.00 20.00     0.276 C 
HETATM    5  O8  UNL     1     -35.481   4.758   4.618  1.00 20.00    -0.264 OA
BRANCH   4   6
HETATM    6  O9  UNL     1     -33.691   3.554   3.807  1.00 20.00    -0.325 OA
HETATM    7  C4  UNL     1     -33.099   2.929   4.950  1.00 20.00     0.213 C 
ENDBRANCH   4   6
ENDBRANCH   2   4
BRANCH   2   8
HETATM    8  C5  UNL     1     -34.382   7.209   3.757  1.00 20.00     0.025 C 
HETATM    9  C3  UNL     1     -33.775   8.139   4.802  1.00 20.00     0.007 C 
ENDBRANCH   2   8
TORSDOF 3
ENDMDL
MODEL 4
REMARK VINA RESULT:      -1.5      2.216      3.009
REMARK  3 active torsions:
REMARK  status: ('A' for Active; 'I' for Inactive)
REMARK    1  A    between atoms: C2_2  and  C6_6 
REMARK    2  A    between atoms: C2_2  and  O9_9 
REMARK    3  A    between atoms: C5_5  and  C6_6 
ROOT
HETATM    1  C1  UNL     1     -33.680   4.392   3.908  1.00 20.00     0.074 C 
HETATM    2  C6  UNL     1     -33.504   5.773   3.420  1.00 20.00     0.192 C 
HETATM    3  N7  UNL     1     -33.815   3.306   4.294  1.00 20.00    -0.196 NA
ENDROOT
BRANCH   2   4
HETATM    4  C2  UNL     1     -34.709   6.636   3.757  1.00 20.00     0.276 C 
HETATM    5  O8  UNL     1     -35.868   6.242   3.794  1.00 20.00    -0.264 OA
BRANCH   4   6
HETATM    6  O9  UNL     1     -34.299   7.917   4.001  1.00 20.00    -0.325 OA
HETATM    7  C4  UNL     1     -33.213   8.053   4.922  1.00 20.00     0.213 C 
ENDBRANCH   4   6
ENDBRANCH   2   4
BRANCH   2   8
HETATM    8  C5  UNL     1     -33.192   5.802   1.916  1.00 20.00     0.025 C 
HETATM    9  C3  UNL     1     -32.157   6.845   1.505  1.00 20.00     0.007 C 
ENDBRANCH   2   8
TORSDOF 3
ENDMDL
MODEL 5
REMARK VINA RESULT:      -1.5      2.426      3.739
REMARK  3 active torsions:
REMARK  status: ('A' for Active; 'I' for Inactive)
REMARK    1  A    between atoms: C2_2  and  C6_6 
REMARK    2  A    between atoms: C2_2  and  O9_9 
REMARK    3  A    between atoms: C5_5  and  C6_6 
ROOT
HETATM    1  C1  UNL     1     -34.175   4.857   3.859  1.00 20.00     0.074 C 
HETATM    2  C6  UNL     1     -34.343   6.123   3.121  1.00 20.00     0.192 C 
HETATM    3  N7  UNL     1     -34.047   3.860   4.438  1.00 20.00    -0.196 NA
ENDROOT
BRANCH   2   4
HETATM    4  C2  UNL     1     -33.149   6.401   2.222  1.00 20.00     0.276 C 
HETATM    5  O8  UNL     1     -32.558   5.559   1.558  1.00 20.00    -0.264 OA
BRANCH   4   6
HETATM    6  O9  UNL     1     -32.835   7.730   2.280  1.00 20.00    -0.325 OA
HETATM    7  C4  UNL     1     -31.727   8.139   1.472  1.00 20.00     0.213 C 
ENDBRANCH   4   6
ENDBRANCH   2   4
BRANCH   2   8
HETATM    8  C5  UNL     1     -34.619   7.297   4.073  1.00 20.00     0.025 C 
HETATM    9  C3  UNL     1     -33.422   7.720   4.918  1.00 20.00     0.007 C 
ENDBRANCH   2   8
TORSDOF 3
ENDMDL
MODEL 6
REMARK VINA RESULT:      -1.3      3.085      4.169
REMARK  3 active torsions:
REMARK  status: ('A' for Active; 'I' for Inactive)
REMARK    1  A    between atoms: C2_2  and  C6_6 
REMARK    2  A    between atoms: C2_2  and  O9_9 
REMARK    3  A    between atoms: C5_5  and  C6_6 
ROOT
HETATM    1  C1  UNL     1     -33.955   6.695   3.295  1.00 20.00     0.074 C 
HETATM    2  C6  UNL     1     -32.712   6.601   2.505  1.00 20.00     0.192 C 
HETATM    3  N7  UNL     1     -34.929   6.767   3.919  1.00 20.00    -0.196 NA
ENDROOT
BRANCH   2   4
HETATM    4  C2  UNL     1     -32.135   7.977   2.216  1.00 20.00     0.276 C 
HETATM    5  O8  UNL     1     -31.626   8.715   3.049  1.00 20.00    -0.264 OA
BRANCH   4   6
HETATM    6  O9  UNL     1     -32.283   8.263   0.887  1.00 20.00    -0.325 OA
HETATM    7  C4  UNL     1     -32.357   9.654   0.560  1.00 20.00     0.213 C 
ENDBRANCH   4   6
ENDBRANCH   2   4
BRANCH   2   8
HETATM    8  C5  UNL     1     -32.927   5.796   1.214  1.00 20.00     0.025 C 
HETATM    9  C3  UNL     1     -31.801   4.822   0.881  1.00 20.00     0.007 C 
ENDBRANCH   2   8
TORSDOF 3
ENDMDL
MODEL 7
REMARK VINA RESULT:      -1.3      2.530      3.272
REMARK  3 active torsions:
REMARK  status: ('A' for Active; 'I' for Inactive)
REMARK    1  A    between atoms: C2_2  and  C6_6 
REMARK    2  A    between atoms: C2_2  and  O9_9 
REMARK    3  A    between atoms: C5_5  and  C6_6 
ROOT
HETATM    1  C1  UNL     1     -32.248   6.401   1.653  1.00 20.00     0.074 C 
HETATM    2  C6  UNL     1     -32.411   7.622   2.465  1.00 20.00     0.192 C 
HETATM    3  N7  UNL     1     -32.116   5.441   1.015  1.00 20.00    -0.196 NA
ENDROOT
BRANCH   2   4
HETATM    4  C2  UNL     1     -33.432   7.417   3.572  1.00 20.00     0.276 C 
HETATM    5  O8  UNL     1     -33.531   8.114   4.575  1.00 20.00    -0.264 OA
BRANCH   4   6
HETATM    6  O9  UNL     1     -34.211   6.333   3.280  1.00 20.00    -0.325 OA
HETATM    7  C4  UNL     1     -35.349   6.144   4.126  1.00 20.00     0.213 C 
ENDBRANCH   4   6
ENDBRANCH   2   4
BRANCH   2   8
HETATM    8  C5  UNL     1     -32.761   8.836   1.591  1.00 20.00     0.025 C 
HETATM    9  C3  UNL     1     -31.834   9.044   0.398  1.00 20.00     0.007 C 
ENDBRANCH   2   8
TORSDOF 3
ENDMDL
MODEL 8
REMARK VINA RESULT:      -1.2      2.084      3.647
REMARK  3 active torsions:
REMARK  status: ('A' for Active; 'I' for Inactive)
REMARK    1  A    between atoms: C2_2  and  C6_6 
REMARK    2  A    between atoms: C2_2  and  O9_9 
REMARK    3  A    between atoms: C5_5  and  C6_6 
ROOT
HETATM    1  C1  UNL     1     -34.680   6.005   3.753  1.00 20.00     0.074 C 
HETATM    2  C6  UNL     1     -33.429   5.296   3.422  1.00 20.00     0.192 C 
HETATM    3  N7  UNL     1     -35.661   6.564   4.017  1.00 20.00    -0.196 NA
ENDROOT
BRANCH   2   4
HETATM    4  C2  UNL     1     -32.875   5.750   2.082  1.00 20.00     0.276 C 
HETATM    5  O8  UNL     1     -32.366   5.014   1.246  1.00 20.00    -0.264 OA
BRANCH   4   6
HETATM    6  O9  UNL     1     -33.023   7.104   1.962  1.00 20.00    -0.325 OA
HETATM    7  C4  UNL     1     -31.812   7.843   1.776  1.00 20.00     0.213 C 
ENDBRANCH   4   6
ENDBRANCH   2   4
BRANCH   2   8
HETATM    8  C5  UNL     1     -33.618   3.772   3.468  1.00 20.00     0.025 C 
HETATM    9  C3  UNL     1     -33.167   3.118   4.771  1.00 20.00     0.007 C 
ENDBRANCH   2   8
TORSDOF 3
ENDMDL
MODEL 9
REMARK VINA RESULT:      -1.2      1.363      2.048
REMARK  3 active torsions:
REMARK  status: ('A' for Active; 'I' for Inactive)
REMARK    1  A    between atoms: C2_2  and  C6_6 
REMARK    2  A    between atoms: C2_2  and  O9_9 
REMARK    3  A    between atoms: C5_5  and  C6_6 
ROOT
HETATM    1  C1  UNL     1     -33.506   7.823   3.940  1.00 20.00     0.074 C 
HETATM    2  C6  UNL     1     -33.304   7.375   2.549  1.00 20.00     0.192 C 
HETATM    3  N7  UNL     1     -33.668   8.177   5.033  1.00 20.00    -0.196 NA
ENDROOT
BRANCH   2   4
HETATM    4  C2  UNL     1     -33.345   5.860   2.445  1.00 20.00     0.276 C 
HETATM    5  O8  UNL     1     -32.749   5.197   1.605  1.00 20.00    -0.264 OA
BRANCH   4   6
HETATM    6  O9  UNL     1     -34.155   5.356   3.424  1.00 20.00    -0.325 OA
HETATM    7  C4  UNL     1     -33.795   4.064   3.920  1.00 20.00     0.213 C 
ENDBRANCH   4   6
ENDBRANCH   2   4
BRANCH   2   8
HETATM    8  C5  UNL     1     -32.008   7.948   1.957  1.00 20.00     0.025 C 
HETATM    9  C3  UNL     1     -32.218   9.017   0.889  1.00 20.00     0.007 C 
ENDBRANCH   2   8
TORSDOF 3
ENDMDL
