MODEL 1
REMARK VINA RESULT:      -0.6      0.000      0.000
REMARK  0 active torsions:
REMARK  status: ('A' for Active; 'I' for Inactive)
ROOT
HETATM    1  C1  UNL     1     -33.496   5.437   3.004  1.00 20.00     0.139 C 
HETATM    2  C2  UNL     1     -33.300   6.905   3.441  1.00 20.00     0.057 C 
HETATM    3  C3  UNL     1     -33.037   7.240   1.936  1.00 20.00     0.007 C 
HETATM    4  C4  UNL     1     -32.869   5.706   1.600  1.00 20.00     0.018 C 
HETATM    5  C5  UNL     1     -34.509   7.571   4.068  1.00 20.00     0.018 C 
HETATM    6  C6  UNL     1     -31.877   8.188   1.670  1.00 20.00     0.012 C 
HETATM    7  C7  UNL     1     -31.449   5.158   1.475  1.00 20.00     0.023 C 
HETATM    8  C8  UNL     1     -33.749   5.247   0.439  1.00 20.00     0.023 C 
HETATM    9  O9  UNL     1     -33.950   4.454   3.550  1.00 20.00    -0.297 OA
ENDROOT
TORSDOF 0
ENDMDL
MODEL 2
REMARK VINA RESULT:      -0.5      1.636      2.907
REMARK  0 active torsions:
REMARK  status: ('A' for Active; 'I' for Inactive)
ROOT
HETATM    1  C1  UNL     1     -33.178   7.433   3.733  1.00 20.00     0.139 C 
HETATM    2  C2  UNL     1     -32.359   7.366   2.426  1.00 20.00     0.057 C 
HETATM    3  C3  UNL     1     -33.485   6.444   1.855  1.00 20.00     0.007 C 
HETATM    4  C4  UNL     1     -34.080   6.234   3.304  1.00 20.00     0.018 C 
HETATM    5  C5  UNL     1     -32.154   8.686   1.710  1.00 20.00     0.018 C 
HETATM    6  C6  UNL     1     -33.004   5.233   1.070  1.00 20.00     0.012 C 
HETATM    7  C7  UNL     1     -33.728   4.941   4.035  1.00 20.00     0.023 C 
HETATM    8  C8  UNL     1     -35.575   6.533   3.386  1.00 20.00     0.023 C 
HETATM    9  O9  UNL     1     -33.127   8.139   4.718  1.00 20.00    -0.297 OA
ENDROOT
TORSDOF 0
ENDMDL
MODEL 3
REMARK VINA RESULT:      -0.2      1.564      3.028
REMARK  0 active torsions:
REMARK  status: ('A' for Active; 'I' for Inactive)
ROOT
HETATM    1  C1  UNL     1     -33.540   6.264   1.973  1.00 20.00     0.139 C 
HETATM    2  C2  UNL     1     -32.938   7.632   2.360  1.00 20.00     0.057 C 
HETATM    3  C3  UNL     1     -33.120   7.206   3.854  1.00 20.00     0.007 C 
HETATM    4  C4  UNL     1     -34.059   6.012   3.423  1.00 20.00     0.018 C 
HETATM    5  C5  UNL     1     -31.512   7.876   1.908  1.00 20.00     0.018 C 
HETATM    6  C6  UNL     1     -33.666   8.282   4.779  1.00 20.00     0.012 C 
HETATM    7  C7  UNL     1     -35.568   6.214   3.551  1.00 20.00     0.023 C 
HETATM    8  C8  UNL     1     -33.625   4.668   4.004  1.00 20.00     0.023 C 
HETATM    9  O9  UNL     1     -33.596   5.637   0.937  1.00 20.00    -0.297 OA
ENDROOT
TORSDOF 0
ENDMDL
MODEL 4
REMARK VINA RESULT:       0.2      1.669      3.385
REMARK  0 active torsions:
REMARK  status: ('A' for Active; 'I' for Inactive)
ROOT
HETATM    1  C1  UNL     1     -34.988   5.125   4.418  1.00 20.00     0.139 C 
HETATM    2  C2  UNL     1     -34.030   4.251   3.583  1.00 20.00     0.057 C 
HETATM    3  C3  UNL     1     -33.308   5.574   3.163  1.00 20.00     0.007 C 
HETATM    4  C4  UNL     1     -34.517   6.432   3.709  1.00 20.00     0.018 C 
HETATM    5  C5  UNL     1     -33.193   3.258   4.365  1.00 20.00     0.018 C 
HETATM    6  C6  UNL     1     -32.931   5.676   1.693  1.00 20.00     0.012 C 
HETATM    7  C7  UNL     1     -35.533   6.952   2.695  1.00 20.00     0.023 C 
HETATM    8  C8  UNL     1     -34.081   7.531   4.677  1.00 20.00     0.023 C 
HETATM    9  O9  UNL     1     -35.803   4.883   5.284  1.00 20.00    -0.297 OA
ENDROOT
TORSDOF 0
ENDMDL
MODEL 5
REMARK VINA RESULT:       0.2      1.931      2.836
REMARK  0 active torsions:
REMARK  status: ('A' for Active; 'I' for Inactive)
ROOT
HETATM    1  C1  UNL     1     -32.638   7.691   2.123  1.00 20.00     0.139 C 
HETATM    2  C2  UNL     1     -33.499   7.747   3.403  1.00 20.00     0.057 C 
HETATM    3  C3  UNL     1     -33.554   6.185   3.345  1.00 20.00     0.007 C 
HETATM    4  C4  UNL     1     -33.009   6.199   1.862  1.00 20.00     0.018 C 
HETATM    5  C5  UNL     1     -32.827   8.343   4.623  1.00 20.00     0.018 C 
HETATM    6  C6  UNL     1     -34.914   5.566   3.630  1.00 20.00     0.012 C 
HETATM    7  C7  UNL     1     -34.024   6.032   0.732  1.00 20.00     0.023 C 
HETATM    8  C8  UNL     1     -31.797   5.292   1.661  1.00 20.00     0.023 C 
HETATM    9  O9  UNL     1     -31.950   8.503   1.541  1.00 20.00    -0.297 OA
ENDROOT
TORSDOF 0
ENDMDL
MODEL 6
REMARK VINA RESULT:       0.2      1.004      3.078
REMARK  0 active torsions:
REMARK  status: ('A' for Active; 'I' for Inactive)
ROOT
HETATM    1  C1  UNL     1     -33.713   6.169   3.131  1.00 20.00     0.139 C 
HETATM    2  C2  UNL     1     -32.971   6.296   1.784  1.00 20.00     0.057 C 
HETATM    3  C3  UNL     1     -32.437   7.675   2.294  1.00 20.00     0.007 C 
HETATM    4  C4  UNL     1     -33.495   7.677   3.467  1.00 20.00     0.018 C 
HETATM    5  C5  UNL     1     -31.920   5.239   1.509  1.00 20.00     0.018 C 
HETATM    6  C6  UNL     1     -32.459   8.803   1.274  1.00 20.00     0.012 C 
HETATM    7  C7  UNL     1     -34.761   8.511   3.280  1.00 20.00     0.023 C 
HETATM    8  C8  UNL     1     -32.868   7.914   4.839  1.00 20.00     0.023 C 
HETATM    9  O9  UNL     1     -34.265   5.250   3.700  1.00 20.00    -0.297 OA
ENDROOT
TORSDOF 0
ENDMDL
MODEL 7
REMARK VINA RESULT:       0.3      1.595      2.431
REMARK  0 active torsions:
REMARK  status: ('A' for Active; 'I' for Inactive)
ROOT
HETATM    1  C1  UNL     1     -33.148   6.462   2.017  1.00 20.00     0.139 C 
HETATM    2  C2  UNL     1     -33.697   6.504   3.459  1.00 20.00     0.057 C 
HETATM    3  C3  UNL     1     -33.326   8.024   3.476  1.00 20.00     0.007 C 
HETATM    4  C4  UNL     1     -32.448   7.847   2.175  1.00 20.00     0.018 C 
HETATM    5  C5  UNL     1     -35.169   6.178   3.613  1.00 20.00     0.018 C 
HETATM    6  C6  UNL     1     -32.668   8.523   4.753  1.00 20.00     0.012 C 
HETATM    7  C7  UNL     1     -30.935   7.726   2.351  1.00 20.00     0.023 C 
HETATM    8  C8  UNL     1     -32.803   8.842   1.072  1.00 20.00     0.023 C 
HETATM    9  O9  UNL     1     -33.223   5.653   1.116  1.00 20.00    -0.297 OA
ENDROOT
TORSDOF 0
ENDMDL
MODEL 8
REMARK VINA RESULT:       0.5      1.878      3.715
REMARK  0 active torsions:
REMARK  status: ('A' for Active; 'I' for Inactive)
ROOT
HETATM    1  C1  UNL     1     -32.690   7.470   2.542  1.00 20.00     0.139 C 
HETATM    2  C2  UNL     1     -32.929   5.952   2.397  1.00 20.00     0.057 C 
HETATM    3  C3  UNL     1     -34.267   6.163   3.178  1.00 20.00     0.007 C 
HETATM    4  C4  UNL     1     -33.805   7.606   3.625  1.00 20.00     0.018 C 
HETATM    5  C5  UNL     1     -33.062   5.440   0.977  1.00 20.00     0.018 C 
HETATM    6  C6  UNL     1     -34.575   5.121   4.242  1.00 20.00     0.012 C 
HETATM    7  C7  UNL     1     -33.240   7.765   5.035  1.00 20.00     0.023 C 
HETATM    8  C8  UNL     1     -34.835   8.689   3.311  1.00 20.00     0.023 C 
HETATM    9  O9  UNL     1     -31.920   8.250   2.022  1.00 20.00    -0.297 OA
ENDROOT
TORSDOF 0
ENDMDL
MODEL 9
REMARK VINA RESULT:       0.5      1.527      2.892
REMARK  0 active torsions:
REMARK  status: ('A' for Active; 'I' for Inactive)
ROOT
HETATM    1  C1  UNL     1     -33.678   7.345   3.299  1.00 20.00     0.139 C 
HETATM    2  C2  UNL     1     -33.897   5.906   2.785  1.00 20.00     0.057 C 
HETATM    3  C3  UNL     1     -32.508   6.028   2.075  1.00 20.00     0.007 C 
HETATM    4  C4  UNL     1     -32.505   7.591   2.299  1.00 20.00     0.018 C 
HETATM    5  C5  UNL     1     -34.006   4.835   3.851  1.00 20.00     0.018 C 
HETATM    6  C6  UNL     1     -32.448   5.482   0.656  1.00 20.00     0.012 C 
HETATM    7  C7  UNL     1     -32.910   8.477   1.123  1.00 20.00     0.023 C 
HETATM    8  C8  UNL     1     -31.228   8.098   2.966  1.00 20.00     0.023 C 
HETATM    9  O9  UNL     1     -34.220   8.023   4.146  1.00 20.00    -0.297 OA
ENDROOT
TORSDOF 0
ENDMDL
