MODEL 1
REMARK VINA RESULT:       1.1      0.000      0.000
REMARK  0 active torsions:
REMARK  status: ('A' for Active; 'I' for Inactive)
ROOT
HETATM    1  C1  UNL     1     -33.995   5.011   3.075  1.00 20.00     0.033 A 
HETATM    2  C2  UNL     1     -34.904   5.325   4.072  1.00 20.00     0.117 A 
HETATM    3  C3  UNL     1     -34.352   7.580   4.088  1.00 20.00     0.136 A 
HETATM    4  C4  UNL     1     -31.672   7.318   1.321  1.00 20.00     0.070 A 
HETATM    5  C5  UNL     1     -33.216   6.064   2.558  1.00 20.00     0.002 A 
HETATM    6  C6  UNL     1     -33.412   7.345   3.082  1.00 20.00     0.034 A 
HETATM    7  C7  UNL     1     -32.205   6.069   1.540  1.00 20.00     0.029 A 
HETATM    8  N8  UNL     1     -35.092   6.560   4.575  1.00 20.00    -0.272 NA
HETATM    9  S9  UNL     1     -32.375   8.498   2.330  1.00 20.00    -0.098 SA
HETATM   10 BR10 UNL     1     -31.663   4.522   0.600  1.00 20.00    -0.050 Br
ENDROOT
TORSDOF 0
ENDMDL
MODEL 2
REMARK VINA RESULT:       1.3      2.117      2.531
REMARK  0 active torsions:
REMARK  status: ('A' for Active; 'I' for Inactive)
ROOT
HETATM    1  C1  UNL     1     -34.465   7.256   3.594  1.00 20.00     0.033 A 
HETATM    2  C2  UNL     1     -35.194   6.367   4.367  1.00 20.00     0.117 A 
HETATM    3  C3  UNL     1     -34.097   4.496   3.538  1.00 20.00     0.136 A 
HETATM    4  C4  UNL     1     -31.773   6.461   1.162  1.00 20.00     0.070 A 
HETATM    5  C5  UNL     1     -33.488   6.714   2.737  1.00 20.00     0.002 A 
HETATM    6  C6  UNL     1     -33.321   5.325   2.726  1.00 20.00     0.034 A 
HETATM    7  C7  UNL     1     -32.583   7.352   1.825  1.00 20.00     0.029 A 
HETATM    8  N8  UNL     1     -35.031   5.030   4.355  1.00 20.00    -0.272 NA
HETATM    9  S9  UNL     1     -32.086   4.850   1.622  1.00 20.00    -0.098 SA
HETATM   10 BR10 UNL     1     -32.512   9.222   1.565  1.00 20.00    -0.050 Br
ENDROOT
TORSDOF 0
ENDMDL
MODEL 3
REMARK VINA RESULT:       2.0      2.430      3.451
REMARK  0 active torsions:
REMARK  status: ('A' for Active; 'I' for Inactive)
ROOT
HETATM    1  C1  UNL     1     -32.093   5.168   2.259  1.00 20.00     0.033 A 
HETATM    2  C2  UNL     1     -31.690   6.251   1.495  1.00 20.00     0.117 A 
HETATM    3  C3  UNL     1     -33.402   7.625   2.249  1.00 20.00     0.136 A 
HETATM    4  C4  UNL     1     -34.988   4.987   4.578  1.00 20.00     0.070 A 
HETATM    5  C5  UNL     1     -33.231   5.339   3.069  1.00 20.00     0.002 A 
HETATM    6  C6  UNL     1     -33.872   6.582   3.048  1.00 20.00     0.034 A 
HETATM    7  C7  UNL     1     -33.892   4.430   3.961  1.00 20.00     0.029 A 
HETATM    8  N8  UNL     1     -32.308   7.447   1.475  1.00 20.00    -0.272 NA
HETATM    9  S9  UNL     1     -35.238   6.603   4.098  1.00 20.00    -0.098 SA
HETATM   10 BR10 UNL     1     -33.316   2.655   4.256  1.00 20.00    -0.050 Br
ENDROOT
TORSDOF 0
ENDMDL
MODEL 4
REMARK VINA RESULT:       3.6      2.993      4.081
REMARK  0 active torsions:
REMARK  status: ('A' for Active; 'I' for Inactive)
ROOT
HETATM    1  C1  UNL     1     -33.333   8.965   2.178  1.00 20.00     0.033 A 
HETATM    2  C2  UNL     1     -32.616   9.801   1.338  1.00 20.00     0.117 A 
HETATM    3  C3  UNL     1     -31.393   8.068   0.395  1.00 20.00     0.136 A 
HETATM    4  C4  UNL     1     -33.054   5.274   2.477  1.00 20.00     0.070 A 
HETATM    5  C5  UNL     1     -33.050   7.587   2.113  1.00 20.00     0.002 A 
HETATM    6  C6  UNL     1     -32.072   7.160   1.210  1.00 20.00     0.034 A 
HETATM    7  C7  UNL     1     -33.606   6.480   2.836  1.00 20.00     0.029 A 
HETATM    8  N8  UNL     1     -31.674   9.387   0.469  1.00 20.00    -0.272 NA
HETATM    9  S9  UNL     1     -31.864   5.451   1.270  1.00 20.00    -0.098 SA
HETATM   10 BR10 UNL     1     -34.957   6.664   4.145  1.00 20.00    -0.050 Br
ENDROOT
TORSDOF 0
ENDMDL
MODEL 5
REMARK VINA RESULT:       3.9      2.369      3.553
REMARK  0 active torsions:
REMARK  status: ('A' for Active; 'I' for Inactive)
ROOT
HETATM    1  C1  UNL     1     -31.779   8.077   0.284  1.00 20.00     0.033 A 
HETATM    2  C2  UNL     1     -31.852   9.451   0.126  1.00 20.00     0.117 A 
HETATM    3  C3  UNL     1     -33.174   9.759   2.009  1.00 20.00     0.136 A 
HETATM    4  C4  UNL     1     -33.330   6.021   2.960  1.00 20.00     0.070 A 
HETATM    5  C5  UNL     1     -32.456   7.518   1.385  1.00 20.00     0.002 A 
HETATM    6  C6  UNL     1     -33.150   8.382   2.238  1.00 20.00     0.034 A 
HETATM    7  C7  UNL     1     -32.573   6.156   1.821  1.00 20.00     0.029 A 
HETATM    8  N8  UNL     1     -32.521  10.282   0.948  1.00 20.00    -0.272 NA
HETATM    9  S9  UNL     1     -33.911   7.522   3.523  1.00 20.00    -0.098 SA
HETATM   10 BR10 UNL     1     -31.769   4.701   0.922  1.00 20.00    -0.050 Br
ENDROOT
TORSDOF 0
ENDMDL
MODEL 6
REMARK VINA RESULT:       4.0      3.075      4.219
REMARK  0 active torsions:
REMARK  status: ('A' for Active; 'I' for Inactive)
ROOT
HETATM    1  C1  UNL     1     -32.223   8.055   2.573  1.00 20.00     0.033 A 
HETATM    2  C2  UNL     1     -31.581   7.615   1.427  1.00 20.00     0.117 A 
HETATM    3  C3  UNL     1     -32.726   5.597   1.368  1.00 20.00     0.136 A 
HETATM    4  C4  UNL     1     -34.820   6.272   4.540  1.00 20.00     0.070 A 
HETATM    5  C5  UNL     1     -33.179   7.196   3.147  1.00 20.00     0.002 A 
HETATM    6  C6  UNL     1     -33.416   5.966   2.524  1.00 20.00     0.034 A 
HETATM    7  C7  UNL     1     -34.002   7.353   4.312  1.00 20.00     0.029 A 
HETATM    8  N8  UNL     1     -31.810   6.430   0.829  1.00 20.00    -0.272 NA
HETATM    9  S9  UNL     1     -34.613   5.056   3.364  1.00 20.00    -0.098 SA
HETATM   10 BR10 UNL     1     -33.965   8.887   5.415  1.00 20.00    -0.050 Br
ENDROOT
TORSDOF 0
ENDMDL
MODEL 7
REMARK VINA RESULT:       4.0      1.669      1.977
REMARK  0 active torsions:
REMARK  status: ('A' for Active; 'I' for Inactive)
ROOT
HETATM    1  C1  UNL     1     -33.124   4.811   2.900  1.00 20.00     0.033 A 
HETATM    2  C2  UNL     1     -33.912   3.956   3.653  1.00 20.00     0.117 A 
HETATM    3  C3  UNL     1     -35.183   5.672   4.564  1.00 20.00     0.136 A 
HETATM    4  C4  UNL     1     -33.336   8.515   2.718  1.00 20.00     0.070 A 
HETATM    5  C5  UNL     1     -33.394   6.190   2.996  1.00 20.00     0.002 A 
HETATM    6  C6  UNL     1     -34.433   6.599   3.837  1.00 20.00     0.034 A 
HETATM    7  C7  UNL     1     -32.772   7.314   2.357  1.00 20.00     0.029 A 
HETATM    8  N8  UNL     1     -34.912   4.352   4.464  1.00 20.00    -0.272 NA
HETATM    9  S9  UNL     1     -34.616   8.312   3.825  1.00 20.00    -0.098 SA
HETATM   10 BR10 UNL     1     -31.330   7.158   1.146  1.00 20.00    -0.050 Br
ENDROOT
TORSDOF 0
ENDMDL
