MODEL 1
REMARK VINA RESULT:      -0.6      0.000      0.000
REMARK  2 active torsions:
REMARK  status: ('A' for Active; 'I' for Inactive)
REMARK    1  A    between atoms: C3_3  and  C8_8 
REMARK       I    between atoms: C3_3  and  N10_10 
REMARK    2  A    between atoms: C9_9  and  N10_10 
ROOT
HETATM    1  C1  UNL     1     -32.611   9.954  -0.042  1.00 20.00     0.015 C 
HETATM    2  C2  UNL     1     -32.315   9.086   0.733  1.00 20.00    -0.086 C 
HETATM    3  C6  UNL     1     -31.647   6.727   0.919  1.00 20.00     0.052 C 
HETATM    4  C7  UNL     1     -30.721   8.443   2.496  1.00 20.00     0.052 C 
HETATM    5  C9  UNL     1     -31.950   8.019   1.687  1.00 20.00     0.088 C 
ENDROOT
BRANCH   5   6
HETATM    6  N10 UNL     1     -33.057   7.794   2.587  1.00 20.00    -0.341 N 
HETATM    7  C3  UNL     1     -33.648   6.550   2.755  1.00 20.00     0.222 C 
HETATM    8  O11 UNL     1     -33.303   5.526   2.168  1.00 20.00    -0.273 OA
HETATM    9  H26 UNL     1     -33.418   8.580   3.120  1.00 20.00     0.164 HD
BRANCH   7  10
HETATM   10  C8  UNL     1     -34.799   6.580   3.759  1.00 20.00     0.070 C 
HETATM   11  C4  UNL     1     -35.033   5.185   4.334  1.00 20.00     0.019 C 
HETATM   12  C5  UNL     1     -34.523   7.579   4.880  1.00 20.00     0.019 C 
ENDBRANCH   7  10
ENDBRANCH   5   6
TORSDOF 2
ENDMDL
MODEL 2
REMARK VINA RESULT:      -0.2      1.658      4.274
REMARK  2 active torsions:
REMARK  status: ('A' for Active; 'I' for Inactive)
REMARK    1  A    between atoms: C3_3  and  C8_8 
REMARK       I    between atoms: C3_3  and  N10_10 
REMARK    2  A    between atoms: C9_9  and  N10_10 
ROOT
HETATM    1  C1  UNL     1     -34.384   6.421   3.723  1.00 20.00     0.015 C 
HETATM    2  C2  UNL     1     -33.749   6.257   2.718  1.00 20.00    -0.086 C 
HETATM    3  C6  UNL     1     -31.612   5.429   1.826  1.00 20.00     0.052 C 
HETATM    4  C7  UNL     1     -33.737   5.136   0.526  1.00 20.00     0.052 C 
HETATM    5  C9  UNL     1     -32.968   6.055   1.480  1.00 20.00     0.088 C 
ENDROOT
BRANCH   5   6
HETATM    6  N10 UNL     1     -32.759   7.334   0.842  1.00 20.00    -0.341 N 
HETATM    7  C3  UNL     1     -32.105   8.386   1.467  1.00 20.00     0.222 C 
HETATM    8  O11 UNL     1     -31.645   8.347   2.606  1.00 20.00    -0.273 OA
HETATM    9  H26 UNL     1     -33.104   7.468  -0.104  1.00 20.00     0.164 HD
BRANCH   7  10
HETATM   10  C8  UNL     1     -32.018   9.628   0.581  1.00 20.00     0.070 C 
HETATM   11  C4  UNL     1     -32.496   9.300  -0.832  1.00 20.00     0.019 C 
HETATM   12  C5  UNL     1     -32.833  10.778   1.166  1.00 20.00     0.019 C 
ENDBRANCH   7  10
ENDBRANCH   5   6
TORSDOF 2
ENDMDL
MODEL 3
REMARK VINA RESULT:      -0.0      1.324      1.638
REMARK  2 active torsions:
REMARK  status: ('A' for Active; 'I' for Inactive)
REMARK    1  A    between atoms: C3_3  and  C8_8 
REMARK       I    between atoms: C3_3  and  N10_10 
REMARK    2  A    between atoms: C9_9  and  N10_10 
ROOT
HETATM    1  C1  UNL     1     -32.827   9.892   0.333  1.00 20.00     0.015 C 
HETATM    2  C2  UNL     1     -32.520   9.016   1.095  1.00 20.00    -0.086 C 
HETATM    3  C6  UNL     1     -31.267   6.911   1.306  1.00 20.00     0.052 C 
HETATM    4  C7  UNL     1     -31.376   8.530   3.220  1.00 20.00     0.052 C 
HETATM    5  C9  UNL     1     -32.143   7.939   2.033  1.00 20.00     0.088 C 
ENDROOT
BRANCH   5   6
HETATM    6  N10 UNL     1     -33.341   7.294   2.516  1.00 20.00    -0.341 N 
HETATM    7  C3  UNL     1     -33.776   7.405   3.829  1.00 20.00     0.222 C 
HETATM    8  O11 UNL     1     -33.203   8.049   4.705  1.00 20.00    -0.273 OA
HETATM    9  H26 UNL     1     -33.888   6.735   1.867  1.00 20.00     0.164 HD
BRANCH   7  10
HETATM   10  C8  UNL     1     -35.065   6.625   4.084  1.00 20.00     0.070 C 
HETATM   11  C4  UNL     1     -36.079   6.907   2.977  1.00 20.00     0.019 C 
HETATM   12  C5  UNL     1     -34.789   5.127   4.187  1.00 20.00     0.019 C 
ENDBRANCH   7  10
ENDBRANCH   5   6
TORSDOF 2
ENDMDL
MODEL 4
REMARK VINA RESULT:       0.1      1.354      4.552
REMARK  2 active torsions:
REMARK  status: ('A' for Active; 'I' for Inactive)
REMARK    1  A    between atoms: C3_3  and  C8_8 
REMARK       I    between atoms: C3_3  and  N10_10 
REMARK    2  A    between atoms: C9_9  and  N10_10 
ROOT
HETATM    1  C1  UNL     1     -33.985   3.914   4.390  1.00 20.00     0.015 C 
HETATM    2  C2  UNL     1     -34.204   5.054   4.084  1.00 20.00    -0.086 C 
HETATM    3  C6  UNL     1     -35.924   6.591   3.230  1.00 20.00     0.052 C 
HETATM    4  C7  UNL     1     -34.237   7.372   4.914  1.00 20.00     0.052 C 
HETATM    5  C9  UNL     1     -34.473   6.458   3.709  1.00 20.00     0.088 C 
ENDROOT
BRANCH   5   6
HETATM    6  N10 UNL     1     -33.578   6.839   2.641  1.00 20.00    -0.341 N 
HETATM    7  C3  UNL     1     -32.563   7.770   2.809  1.00 20.00     0.222 C 
HETATM    8  O11 UNL     1     -32.320   8.360   3.860  1.00 20.00    -0.273 OA
HETATM    9  H26 UNL     1     -33.697   6.408   1.729  1.00 20.00     0.164 HD
BRANCH   7  10
HETATM   10  C8  UNL     1     -31.762   7.999   1.528  1.00 20.00     0.070 C 
HETATM   11  C4  UNL     1     -31.774   6.737   0.668  1.00 20.00     0.019 C 
HETATM   12  C5  UNL     1     -32.313   9.186   0.742  1.00 20.00     0.019 C 
ENDBRANCH   7  10
ENDBRANCH   5   6
TORSDOF 2
ENDMDL
MODEL 5
REMARK VINA RESULT:       0.6      0.916      4.398
REMARK  2 active torsions:
REMARK  status: ('A' for Active; 'I' for Inactive)
REMARK    1  A    between atoms: C3_3  and  C8_8 
REMARK       I    between atoms: C3_3  and  N10_10 
REMARK    2  A    between atoms: C9_9  and  N10_10 
ROOT
HETATM    1  C1  UNL     1     -33.799   4.030   3.974  1.00 20.00     0.015 C 
HETATM    2  C2  UNL     1     -34.090   5.192   3.900  1.00 20.00    -0.086 C 
HETATM    3  C6  UNL     1     -35.755   6.775   3.024  1.00 20.00     0.052 C 
HETATM    4  C7  UNL     1     -34.614   7.206   5.216  1.00 20.00     0.052 C 
HETATM    5  C9  UNL     1     -34.447   6.623   3.810  1.00 20.00     0.088 C 
ENDROOT
BRANCH   5   6
HETATM    6  N10 UNL     1     -33.390   7.330   3.125  1.00 20.00    -0.341 N 
HETATM    7  C3  UNL     1     -32.861   6.901   1.916  1.00 20.00     0.222 C 
HETATM    8  O11 UNL     1     -33.225   5.896   1.309  1.00 20.00    -0.273 OA
HETATM    9  H26 UNL     1     -33.018   8.176   3.546  1.00 20.00     0.164 HD
BRANCH   7  10
HETATM   10  C8  UNL     1     -31.753   7.820   1.404  1.00 20.00     0.070 C 
HETATM   11  C4  UNL     1     -32.340   8.891   0.487  1.00 20.00     0.019 C 
HETATM   12  C5  UNL     1     -30.998   8.466   2.563  1.00 20.00     0.019 C 
ENDBRANCH   7  10
ENDBRANCH   5   6
TORSDOF 2
ENDMDL
MODEL 6
REMARK VINA RESULT:       0.6      2.168      3.569
REMARK  2 active torsions:
REMARK  status: ('A' for Active; 'I' for Inactive)
REMARK    1  A    between atoms: C3_3  and  C8_8 
REMARK       I    between atoms: C3_3  and  N10_10 
REMARK    2  A    between atoms: C9_9  and  N10_10 
ROOT
HETATM    1  C1  UNL     1     -32.312   8.018   1.685  1.00 20.00     0.015 C 
HETATM    2  C2  UNL     1     -33.029   7.514   2.504  1.00 20.00    -0.086 C 
HETATM    3  C6  UNL     1     -33.866   7.712   4.808  1.00 20.00     0.052 C 
HETATM    4  C7  UNL     1     -35.348   6.839   2.982  1.00 20.00     0.052 C 
HETATM    5  C9  UNL     1     -33.913   6.893   3.513  1.00 20.00     0.088 C 
ENDROOT
BRANCH   5   6
HETATM    6  N10 UNL     1     -33.454   5.549   3.777  1.00 20.00    -0.341 N 
HETATM    7  C3  UNL     1     -34.263   4.579   4.350  1.00 20.00     0.222 C 
HETATM    8  O11 UNL     1     -35.432   4.752   4.689  1.00 20.00    -0.273 OA
HETATM    9  H26 UNL     1     -32.499   5.304   3.533  1.00 20.00     0.164 HD
BRANCH   7  10
HETATM   10  C8  UNL     1     -33.540   3.245   4.527  1.00 20.00     0.070 C 
HETATM   11  C4  UNL     1     -32.425   3.109   3.491  1.00 20.00     0.019 C 
HETATM   12  C5  UNL     1     -32.974   3.110   5.939  1.00 20.00     0.019 C 
ENDBRANCH   7  10
ENDBRANCH   5   6
TORSDOF 2
ENDMDL
MODEL 7
REMARK VINA RESULT:       0.7      1.723      2.613
REMARK  2 active torsions:
REMARK  status: ('A' for Active; 'I' for Inactive)
REMARK    1  A    between atoms: C3_3  and  C8_8 
REMARK       I    between atoms: C3_3  and  N10_10 
REMARK    2  A    between atoms: C9_9  and  N10_10 
ROOT
HETATM    1  C1  UNL     1     -31.681   8.199   1.784  1.00 20.00     0.015 C 
HETATM    2  C2  UNL     1     -32.095   7.101   1.533  1.00 20.00    -0.086 C 
HETATM    3  C6  UNL     1     -33.783   5.857   0.248  1.00 20.00     0.052 C 
HETATM    4  C7  UNL     1     -31.490   4.904   0.601  1.00 20.00     0.052 C 
HETATM    5  C9  UNL     1     -32.605   5.749   1.223  1.00 20.00     0.088 C 
ENDROOT
BRANCH   5   6
HETATM    6  N10 UNL     1     -33.048   5.122   2.447  1.00 20.00    -0.341 N 
HETATM    7  C3  UNL     1     -33.880   5.758   3.357  1.00 20.00     0.222 C 
HETATM    8  O11 UNL     1     -34.320   6.899   3.227  1.00 20.00    -0.273 OA
HETATM    9  H26 UNL     1     -32.738   4.176   2.649  1.00 20.00     0.164 HD
BRANCH   7  10
HETATM   10  C8  UNL     1     -34.198   4.883   4.568  1.00 20.00     0.070 C 
HETATM   11  C4  UNL     1     -35.698   4.906   4.855  1.00 20.00     0.019 C 
HETATM   12  C5  UNL     1     -33.720   3.450   4.350  1.00 20.00     0.019 C 
ENDBRANCH   7  10
ENDBRANCH   5   6
TORSDOF 2
ENDMDL
MODEL 8
REMARK VINA RESULT:       0.7      1.485      4.437
REMARK  2 active torsions:
REMARK  status: ('A' for Active; 'I' for Inactive)
REMARK    1  A    between atoms: C3_3  and  C8_8 
REMARK       I    between atoms: C3_3  and  N10_10 
REMARK    2  A    between atoms: C9_9  and  N10_10 
ROOT
HETATM    1  C1  UNL     1     -33.100   8.325   5.447  1.00 20.00     0.015 C 
HETATM    2  C2  UNL     1     -33.480   7.707   4.491  1.00 20.00    -0.086 C 
HETATM    3  C6  UNL     1     -33.191   5.618   3.227  1.00 20.00     0.052 C 
HETATM    4  C7  UNL     1     -35.453   6.683   3.432  1.00 20.00     0.052 C 
HETATM    5  C9  UNL     1     -33.949   6.948   3.314  1.00 20.00     0.088 C 
ENDROOT
BRANCH   5   6
HETATM    6  N10 UNL     1     -33.697   7.724   2.122  1.00 20.00    -0.341 N 
HETATM    7  C3  UNL     1     -32.434   8.189   1.783  1.00 20.00     0.222 C 
HETATM    8  O11 UNL     1     -31.416   7.997   2.444  1.00 20.00    -0.273 OA
HETATM    9  H26 UNL     1     -34.476   7.938   1.506  1.00 20.00     0.164 HD
BRANCH   7  10
HETATM   10  C8  UNL     1     -32.436   8.986   0.479  1.00 20.00     0.070 C 
HETATM   11  C4  UNL     1     -32.737  10.456   0.761  1.00 20.00     0.019 C 
HETATM   12  C5  UNL     1     -31.102   8.846  -0.251  1.00 20.00     0.019 C 
ENDBRANCH   7  10
ENDBRANCH   5   6
TORSDOF 2
ENDMDL
MODEL 9
REMARK VINA RESULT:       0.9      1.577      4.244
REMARK  2 active torsions:
REMARK  status: ('A' for Active; 'I' for Inactive)
REMARK    1  A    between atoms: C3_3  and  C8_8 
REMARK       I    between atoms: C3_3  and  N10_10 
REMARK    2  A    between atoms: C9_9  and  N10_10 
ROOT
HETATM    1  C1  UNL     1     -32.838   4.949   2.209  1.00 20.00     0.015 C 
HETATM    2  C2  UNL     1     -33.196   6.016   2.627  1.00 20.00    -0.086 C 
HETATM    3  C6  UNL     1     -35.142   7.289   3.427  1.00 20.00     0.052 C 
HETATM    4  C7  UNL     1     -32.872   7.665   4.427  1.00 20.00     0.052 C 
HETATM    5  C9  UNL     1     -33.636   7.329   3.142  1.00 20.00     0.088 C 
ENDROOT
BRANCH   5   6
HETATM    6  N10 UNL     1     -33.360   8.340   2.148  1.00 20.00    -0.341 N 
HETATM    7  C3  UNL     1     -32.123   8.472   1.534  1.00 20.00     0.222 C 
HETATM    8  O11 UNL     1     -31.148   7.760   1.763  1.00 20.00    -0.273 OA
HETATM    9  H26 UNL     1     -34.104   8.982   1.889  1.00 20.00     0.164 HD
BRANCH   7  10
HETATM   10  C8  UNL     1     -32.091   9.619   0.526  1.00 20.00     0.070 C 
HETATM   11  C4  UNL     1     -32.632   9.149  -0.823  1.00 20.00     0.019 C 
HETATM   12  C5  UNL     1     -32.890  10.818   1.032  1.00 20.00     0.019 C 
ENDBRANCH   7  10
ENDBRANCH   5   6
TORSDOF 2
ENDMDL
