MODEL 1
REMARK VINA RESULT:       1.5      0.000      0.000
REMARK  0 active torsions:
REMARK  status: ('A' for Active; 'I' for Inactive)
ROOT
HETATM    1  C1  UNL     1     -33.858   8.162   3.907  1.00 20.00     0.014 A 
HETATM    2  C2  UNL     1     -34.636   7.179   4.521  1.00 20.00     0.024 A 
HETATM    3  C3  UNL     1     -32.249   8.806   2.173  1.00 20.00     0.031 A 
HETATM    4  C4  UNL     1     -33.800   5.535   2.963  1.00 20.00     0.039 A 
HETATM    5  C5  UNL     1     -31.467   8.413   1.097  1.00 20.00     0.119 A 
HETATM    6  C6  UNL     1     -33.040   7.844   2.810  1.00 20.00    -0.021 A 
HETATM    7  C7  UNL     1     -33.013   6.515   2.337  1.00 20.00     0.016 A 
HETATM    8  C8  UNL     1     -34.607   5.868   4.050  1.00 20.00     0.035 A 
HETATM    9  C9  UNL     1     -32.187   6.237   1.245  1.00 20.00     0.136 A 
HETATM   10  N10 UNL     1     -31.416   7.152   0.617  1.00 20.00    -0.248 NA
HETATM   11 CL11 UNL     1     -35.569   4.661   4.812  1.00 20.00    -0.084 Cl
HETATM   12 CL12 UNL     1     -32.029   4.672   0.535  1.00 20.00    -0.061 Cl
ENDROOT
TORSDOF 0
ENDMDL
MODEL 2
REMARK VINA RESULT:       2.2      2.476      4.725
REMARK  0 active torsions:
REMARK  status: ('A' for Active; 'I' for Inactive)
ROOT
HETATM    1  C1  UNL     1     -32.561   5.351   1.394  1.00 20.00     0.014 A 
HETATM    2  C2  UNL     1     -31.844   6.378   0.777  1.00 20.00     0.024 A 
HETATM    3  C3  UNL     1     -34.079   4.604   3.168  1.00 20.00     0.031 A 
HETATM    4  C4  UNL     1     -32.682   7.950   2.406  1.00 20.00     0.039 A 
HETATM    5  C5  UNL     1     -34.834   4.941   4.281  1.00 20.00     0.119 A 
HETATM    6  C6  UNL     1     -33.349   5.611   2.527  1.00 20.00    -0.021 A 
HETATM    7  C7  UNL     1     -33.407   6.925   3.036  1.00 20.00     0.016 A 
HETATM    8  C8  UNL     1     -31.905   7.675   1.282  1.00 20.00     0.035 A 
HETATM    9  C9  UNL     1     -34.202   7.145   4.163  1.00 20.00     0.136 A 
HETATM   10  N10 UNL     1     -34.914   6.187   4.796  1.00 20.00    -0.248 NA
HETATM   11 CL11 UNL     1     -31.018   8.936   0.517  1.00 20.00    -0.084 Cl
HETATM   12 CL12 UNL     1     -34.391   8.686   4.919  1.00 20.00    -0.061 Cl
ENDROOT
TORSDOF 0
ENDMDL
MODEL 3
REMARK VINA RESULT:       2.3      1.721      3.820
REMARK  0 active torsions:
REMARK  status: ('A' for Active; 'I' for Inactive)
ROOT
HETATM    1  C1  UNL     1     -31.823   7.751   1.668  1.00 20.00     0.014 A 
HETATM    2  C2  UNL     1     -31.420   6.697   0.845  1.00 20.00     0.024 A 
HETATM    3  C3  UNL     1     -33.200   8.580   3.519  1.00 20.00     0.031 A 
HETATM    4  C4  UNL     1     -32.909   5.203   2.021  1.00 20.00     0.039 A 
HETATM    5  C5  UNL     1     -34.144   8.296   4.494  1.00 20.00     0.119 A 
HETATM    6  C6  UNL     1     -32.775   7.544   2.679  1.00 20.00    -0.021 A 
HETATM    7  C7  UNL     1     -33.322   6.256   2.854  1.00 20.00     0.016 A 
HETATM    8  C8  UNL     1     -31.962   5.426   1.022  1.00 20.00     0.035 A 
HETATM    9  C9  UNL     1     -34.267   6.089   3.869  1.00 20.00     0.136 A 
HETATM   10  N10 UNL     1     -34.689   7.076   4.691  1.00 20.00    -0.248 NA
HETATM   11 CL11 UNL     1     -31.461   4.131   0.005  1.00 20.00    -0.084 Cl
HETATM   12 CL12 UNL     1     -35.039   4.587   4.226  1.00 20.00    -0.061 Cl
ENDROOT
TORSDOF 0
ENDMDL
MODEL 4
REMARK VINA RESULT:       2.6      1.461      1.967
REMARK  0 active torsions:
REMARK  status: ('A' for Active; 'I' for Inactive)
ROOT
HETATM    1  C1  UNL     1     -34.856   5.969   4.413  1.00 20.00     0.014 A 
HETATM    2  C2  UNL     1     -34.749   4.619   4.754  1.00 20.00     0.024 A 
HETATM    3  C3  UNL     1     -34.119   7.869   3.051  1.00 20.00     0.031 A 
HETATM    4  C4  UNL     1     -33.001   4.337   3.113  1.00 20.00     0.039 A 
HETATM    5  C5  UNL     1     -33.274   8.339   2.056  1.00 20.00     0.119 A 
HETATM    6  C6  UNL     1     -34.036   6.521   3.415  1.00 20.00    -0.021 A 
HETATM    7  C7  UNL     1     -33.099   5.693   2.762  1.00 20.00     0.016 A 
HETATM    8  C8  UNL     1     -33.824   3.805   4.106  1.00 20.00     0.035 A 
HETATM    9  C9  UNL     1     -32.301   6.277   1.776  1.00 20.00     0.136 A 
HETATM   10  N10 UNL     1     -32.366   7.577   1.409  1.00 20.00    -0.248 NA
HETATM   11 CL11 UNL     1     -33.697   2.143   4.532  1.00 20.00    -0.084 Cl
HETATM   12 CL12 UNL     1     -31.104   5.418   0.875  1.00 20.00    -0.061 Cl
ENDROOT
TORSDOF 0
ENDMDL
MODEL 5
REMARK VINA RESULT:       2.7      2.474      4.589
REMARK  0 active torsions:
REMARK  status: ('A' for Active; 'I' for Inactive)
ROOT
HETATM    1  C1  UNL     1     -31.650   5.559   1.594  1.00 20.00     0.014 A 
HETATM    2  C2  UNL     1     -31.572   6.867   1.111  1.00 20.00     0.024 A 
HETATM    3  C3  UNL     1     -32.744   3.895   3.023  1.00 20.00     0.031 A 
HETATM    4  C4  UNL     1     -33.471   7.486   2.467  1.00 20.00     0.039 A 
HETATM    5  C5  UNL     1     -33.750   3.617   3.936  1.00 20.00     0.119 A 
HETATM    6  C6  UNL     1     -32.641   5.197   2.521  1.00 20.00    -0.021 A 
HETATM    7  C7  UNL     1     -33.559   6.173   2.960  1.00 20.00     0.016 A 
HETATM    8  C8  UNL     1     -32.481   7.828   1.547  1.00 20.00     0.035 A 
HETATM    9  C9  UNL     1     -34.530   5.776   3.882  1.00 20.00     0.136 A 
HETATM   10  N10 UNL     1     -34.647   4.524   4.379  1.00 20.00    -0.248 NA
HETATM   11 CL11 UNL     1     -32.380   9.438   0.948  1.00 20.00    -0.084 Cl
HETATM   12 CL12 UNL     1     -35.732   6.835   4.528  1.00 20.00    -0.061 Cl
ENDROOT
TORSDOF 0
ENDMDL
MODEL 6
REMARK VINA RESULT:       2.9      2.553      4.527
REMARK  0 active torsions:
REMARK  status: ('A' for Active; 'I' for Inactive)
ROOT
HETATM    1  C1  UNL     1     -31.479   7.436   0.290  1.00 20.00     0.014 A 
HETATM    2  C2  UNL     1     -31.568   8.823   0.155  1.00 20.00     0.024 A 
HETATM    3  C3  UNL     1     -32.113   5.381   1.468  1.00 20.00     0.031 A 
HETATM    4  C4  UNL     1     -33.063   8.915   2.049  1.00 20.00     0.039 A 
HETATM    5  C5  UNL     1     -32.836   4.798   2.497  1.00 20.00     0.119 A 
HETATM    6  C6  UNL     1     -32.182   6.770   1.307  1.00 20.00    -0.021 A 
HETATM    7  C7  UNL     1     -32.980   7.521   2.194  1.00 20.00     0.016 A 
HETATM    8  C8  UNL     1     -32.359   9.561   1.033  1.00 20.00     0.035 A 
HETATM    9  C9  UNL     1     -33.664   6.824   3.193  1.00 20.00     0.136 A 
HETATM   10  N10 UNL     1     -33.611   5.484   3.364  1.00 20.00    -0.248 NA
HETATM   11 CL11 UNL     1     -32.464  11.270   0.862  1.00 20.00    -0.084 Cl
HETATM   12 CL12 UNL     1     -34.686   7.578   4.363  1.00 20.00    -0.061 Cl
ENDROOT
TORSDOF 0
ENDMDL
MODEL 7
REMARK VINA RESULT:       3.0      2.290      4.256
REMARK  0 active torsions:
REMARK  status: ('A' for Active; 'I' for Inactive)
ROOT
HETATM    1  C1  UNL     1     -33.230   7.034   1.818  1.00 20.00     0.014 A 
HETATM    2  C2  UNL     1     -32.252   6.458   1.004  1.00 20.00     0.024 A 
HETATM    3  C3  UNL     1     -34.817   6.838   3.676  1.00 20.00     0.031 A 
HETATM    4  C4  UNL     1     -32.457   4.382   2.218  1.00 20.00     0.039 A 
HETATM    5  C5  UNL     1     -35.366   6.038   4.667  1.00 20.00     0.119 A 
HETATM    6  C6  UNL     1     -33.834   6.290   2.844  1.00 20.00    -0.021 A 
HETATM    7  C7  UNL     1     -33.441   4.950   3.042  1.00 20.00     0.016 A 
HETATM    8  C8  UNL     1     -31.867   5.135   1.204  1.00 20.00     0.035 A 
HETATM    9  C9  UNL     1     -34.064   4.242   4.072  1.00 20.00     0.136 A 
HETATM   10  N10 UNL     1     -35.014   4.753   4.887  1.00 20.00    -0.248 NA
HETATM   11 CL11 UNL     1     -30.661   4.432   0.197  1.00 20.00    -0.084 Cl
HETATM   12 CL12 UNL     1     -33.710   2.596   4.458  1.00 20.00    -0.061 Cl
ENDROOT
TORSDOF 0
ENDMDL
MODEL 8
REMARK VINA RESULT:       3.1      2.213      3.675
REMARK  0 active torsions:
REMARK  status: ('A' for Active; 'I' for Inactive)
ROOT
HETATM    1  C1  UNL     1     -34.154   8.053   3.528  1.00 20.00     0.014 A 
HETATM    2  C2  UNL     1     -33.595   9.029   2.700  1.00 20.00     0.024 A 
HETATM    3  C3  UNL     1     -34.411   5.692   4.137  1.00 20.00     0.031 A 
HETATM    4  C4  UNL     1     -32.448   7.315   1.445  1.00 20.00     0.039 A 
HETATM    5  C5  UNL     1     -34.078   4.373   3.872  1.00 20.00     0.119 A 
HETATM    6  C6  UNL     1     -33.867   6.694   3.325  1.00 20.00    -0.021 A 
HETATM    7  C7  UNL     1     -33.005   6.325   2.271  1.00 20.00     0.016 A 
HETATM    8  C8  UNL     1     -32.744   8.660   1.661  1.00 20.00     0.035 A 
HETATM    9  C9  UNL     1     -32.742   4.964   2.100  1.00 20.00     0.136 A 
HETATM   10  N10 UNL     1     -33.257   3.982   2.874  1.00 20.00    -0.248 NA
HETATM   11 CL11 UNL     1     -32.059   9.868   0.644  1.00 20.00    -0.084 Cl
HETATM   12 CL12 UNL     1     -31.713   4.331   0.866  1.00 20.00    -0.061 Cl
ENDROOT
TORSDOF 0
ENDMDL
MODEL 9
REMARK VINA RESULT:       3.4      2.097      3.868
REMARK  0 active torsions:
REMARK  status: ('A' for Active; 'I' for Inactive)
ROOT
HETATM    1  C1  UNL     1     -33.713   9.061   2.746  1.00 20.00     0.014 A 
HETATM    2  C2  UNL     1     -33.038   9.766   1.748  1.00 20.00     0.024 A 
HETATM    3  C3  UNL     1     -34.282   6.927   3.809  1.00 20.00     0.031 A 
HETATM    4  C4  UNL     1     -32.156   7.696   0.874  1.00 20.00     0.039 A 
HETATM    5  C5  UNL     1     -34.138   5.547   3.816  1.00 20.00     0.119 A 
HETATM    6  C6  UNL     1     -33.618   7.662   2.821  1.00 20.00    -0.021 A 
HETATM    7  C7  UNL     1     -32.831   6.976   1.873  1.00 20.00     0.016 A 
HETATM    8  C8  UNL     1     -32.261   9.085   0.814  1.00 20.00     0.035 A 
HETATM    9  C9  UNL     1     -32.760   5.585   1.979  1.00 20.00     0.136 A 
HETATM   10  N10 UNL     1     -33.394   4.857   2.926  1.00 20.00    -0.248 NA
HETATM   11 CL11 UNL     1     -31.432   9.960  -0.414  1.00 20.00    -0.084 Cl
HETATM   12 CL12 UNL     1     -31.847   4.584   0.909  1.00 20.00    -0.061 Cl
ENDROOT
TORSDOF 0
ENDMDL
