MODEL 1
REMARK VINA RESULT:      -2.9      0.000      0.000
REMARK  1 active torsions:
REMARK  status: ('A' for Active; 'I' for Inactive)
REMARK    1  A    between atoms: C2_2  and  C4_4 
ROOT
HETATM    1  C1  UNL     1     -31.929   8.149   1.961  1.00 20.00     0.236 A 
HETATM    2  C2  UNL     1     -33.461   6.896   2.830  1.00 20.00     0.199 A 
HETATM    3  C3  UNL     1     -32.820   6.184   1.837  1.00 20.00     0.245 A 
HETATM    4  N5  UNL     1     -32.898   8.122   2.900  1.00 20.00    -0.233 NA
HETATM    5  N6  UNL     1     -31.866   6.973   1.301  1.00 20.00    -0.212 NA
HETATM    6  F7  UNL     1     -33.089   4.933   1.465  1.00 20.00    -0.182 F 
ENDROOT
BRANCH   2   7
HETATM    7  C4  UNL     1     -34.564   6.511   3.719  1.00 20.00     0.439 C 
HETATM    8  F8  UNL     1     -35.814   6.605   3.153  1.00 20.00    -0.164 F 
HETATM    9  F9  UNL     1     -34.501   5.214   4.176  1.00 20.00    -0.164 F 
HETATM   10  F10 UNL     1     -34.642   7.275   4.858  1.00 20.00    -0.164 F 
ENDBRANCH   2   7
TORSDOF 1
ENDMDL
MODEL 2
REMARK VINA RESULT:      -2.6      2.381      3.331
REMARK  1 active torsions:
REMARK  status: ('A' for Active; 'I' for Inactive)
REMARK    1  A    between atoms: C2_2  and  C4_4 
ROOT
HETATM    1  C1  UNL     1     -34.705   6.769   4.160  1.00 20.00     0.236 A 
HETATM    2  C2  UNL     1     -33.079   7.269   2.826  1.00 20.00     0.199 A 
HETATM    3  C3  UNL     1     -33.460   5.965   2.586  1.00 20.00     0.245 A 
HETATM    4  N5  UNL     1     -33.862   7.762   3.810  1.00 20.00    -0.233 NA
HETATM    5  N6  UNL     1     -34.475   5.661   3.422  1.00 20.00    -0.212 NA
HETATM    6  F7  UNL     1     -32.925   5.140   1.686  1.00 20.00    -0.182 F 
ENDROOT
BRANCH   2   7
HETATM    7  C4  UNL     1     -32.033   8.087   2.200  1.00 20.00     0.439 C 
HETATM    8  F8  UNL     1     -31.170   7.388   1.389  1.00 20.00    -0.164 F 
HETATM    9  F9  UNL     1     -32.506   9.097   1.393  1.00 20.00    -0.164 F 
HETATM   10  F10 UNL     1     -31.218   8.722   3.105  1.00 20.00    -0.164 F 
ENDBRANCH   2   7
TORSDOF 1
ENDMDL
MODEL 3
REMARK VINA RESULT:      -2.5      2.387      3.352
REMARK  1 active torsions:
REMARK  status: ('A' for Active; 'I' for Inactive)
REMARK    1  A    between atoms: C2_2  and  C4_4 
ROOT
HETATM    1  C1  UNL     1     -34.769   6.953   4.044  1.00 20.00     0.236 A 
HETATM    2  C2  UNL     1     -33.075   7.307   2.748  1.00 20.00     0.199 A 
HETATM    3  C3  UNL     1     -33.427   5.975   2.660  1.00 20.00     0.245 A 
HETATM    4  N5  UNL     1     -33.919   7.909   3.614  1.00 20.00    -0.233 NA
HETATM    5  N6  UNL     1     -34.484   5.763   3.473  1.00 20.00    -0.212 NA
HETATM    6  F7  UNL     1     -32.831   5.051   1.908  1.00 20.00    -0.182 F 
ENDROOT
BRANCH   2   7
HETATM    7  C4  UNL     1     -32.006   8.057   2.078  1.00 20.00     0.439 C 
HETATM    8  F8  UNL     1     -32.441   9.118   1.319  1.00 20.00    -0.164 F 
HETATM    9  F9  UNL     1     -31.080   8.612   2.930  1.00 20.00    -0.164 F 
HETATM   10  F10 UNL     1     -31.263   7.294   1.210  1.00 20.00    -0.164 F 
ENDBRANCH   2   7
TORSDOF 1
ENDMDL
MODEL 4
REMARK VINA RESULT:      -2.4      1.385      1.850
REMARK  1 active torsions:
REMARK  status: ('A' for Active; 'I' for Inactive)
REMARK    1  A    between atoms: C2_2  and  C4_4 
ROOT
HETATM    1  C1  UNL     1     -32.369   5.807   1.229  1.00 20.00     0.236 A 
HETATM    2  C2  UNL     1     -33.651   6.475   2.837  1.00 20.00     0.199 A 
HETATM    3  C3  UNL     1     -32.667   7.422   2.635  1.00 20.00     0.245 A 
HETATM    4  N5  UNL     1     -33.456   5.471   1.954  1.00 20.00    -0.233 NA
HETATM    5  N6  UNL     1     -31.872   6.997   1.631  1.00 20.00    -0.212 NA
HETATM    6  F7  UNL     1     -32.519   8.561   3.311  1.00 20.00    -0.182 F 
ENDROOT
BRANCH   2   7
HETATM    7  C4  UNL     1     -34.761   6.444   3.797  1.00 20.00     0.439 C 
HETATM    8  F8  UNL     1     -35.997   6.694   3.249  1.00 20.00    -0.164 F 
HETATM    9  F9  UNL     1     -34.919   5.241   4.445  1.00 20.00    -0.164 F 
HETATM   10  F10 UNL     1     -34.638   7.367   4.807  1.00 20.00    -0.164 F 
ENDBRANCH   2   7
TORSDOF 1
ENDMDL
MODEL 5
REMARK VINA RESULT:      -2.4      1.381      2.196
REMARK  1 active torsions:
REMARK  status: ('A' for Active; 'I' for Inactive)
REMARK    1  A    between atoms: C2_2  and  C4_4 
ROOT
HETATM    1  C1  UNL     1     -32.378   5.783   1.199  1.00 20.00     0.236 A 
HETATM    2  C2  UNL     1     -33.638   6.467   2.817  1.00 20.00     0.199 A 
HETATM    3  C3  UNL     1     -32.641   7.399   2.610  1.00 20.00     0.245 A 
HETATM    4  N5  UNL     1     -33.466   5.462   1.930  1.00 20.00    -0.233 NA
HETATM    5  N6  UNL     1     -31.859   6.963   1.599  1.00 20.00    -0.212 NA
HETATM    6  F7  UNL     1     -32.470   8.534   3.287  1.00 20.00    -0.182 F 
ENDROOT
BRANCH   2   7
HETATM    7  C4  UNL     1     -34.742   6.451   3.784  1.00 20.00     0.439 C 
HETATM    8  F8  UNL     1     -34.623   7.368   4.802  1.00 20.00    -0.164 F 
HETATM    9  F9  UNL     1     -35.979   6.713   3.242  1.00 20.00    -0.164 F 
HETATM   10  F10 UNL     1     -34.893   5.244   4.423  1.00 20.00    -0.164 F 
ENDBRANCH   2   7
TORSDOF 1
ENDMDL
MODEL 6
REMARK VINA RESULT:      -2.3      2.435      3.779
REMARK  1 active torsions:
REMARK  status: ('A' for Active; 'I' for Inactive)
REMARK    1  A    between atoms: C2_2  and  C4_4 
ROOT
HETATM    1  C1  UNL     1     -34.266   5.280   3.156  1.00 20.00     0.236 A 
HETATM    2  C2  UNL     1     -33.127   7.086   2.816  1.00 20.00     0.199 A 
HETATM    3  C3  UNL     1     -34.033   7.320   3.830  1.00 20.00     0.245 A 
HETATM    4  N5  UNL     1     -33.280   5.809   2.402  1.00 20.00    -0.233 NA
HETATM    5  N6  UNL     1     -34.739   6.189   4.035  1.00 20.00    -0.212 NA
HETATM    6  F7  UNL     1     -34.191   8.464   4.497  1.00 20.00    -0.182 F 
ENDROOT
BRANCH   2   7
HETATM    7  C4  UNL     1     -32.127   7.971   2.208  1.00 20.00     0.439 C 
HETATM    8  F8  UNL     1     -31.225   7.336   1.385  1.00 20.00    -0.164 F 
HETATM    9  F9  UNL     1     -32.653   8.969   1.420  1.00 20.00    -0.164 F 
HETATM   10  F10 UNL     1     -31.348   8.632   3.127  1.00 20.00    -0.164 F 
ENDBRANCH   2   7
TORSDOF 1
ENDMDL
MODEL 7
REMARK VINA RESULT:      -2.2      1.072      1.418
REMARK  1 active torsions:
REMARK  status: ('A' for Active; 'I' for Inactive)
REMARK    1  A    between atoms: C2_2  and  C4_4 
ROOT
HETATM    1  C1  UNL     1     -31.680   7.498   1.395  1.00 20.00     0.236 A 
HETATM    2  C2  UNL     1     -33.200   7.222   2.907  1.00 20.00     0.199 A 
HETATM    3  C3  UNL     1     -32.930   5.999   2.326  1.00 20.00     0.245 A 
HETATM    4  N5  UNL     1     -32.415   8.150   2.320  1.00 20.00    -0.233 NA
HETATM    5  N6  UNL     1     -31.980   6.181   1.384  1.00 20.00    -0.212 NA
HETATM    6  F7  UNL     1     -33.503   4.836   2.634  1.00 20.00    -0.182 F 
ENDROOT
BRANCH   2   7
HETATM    7  C4  UNL     1     -34.142   7.582   3.974  1.00 20.00     0.439 C 
HETATM    8  F8  UNL     1     -35.023   6.584   4.320  1.00 20.00    -0.164 F 
HETATM    9  F9  UNL     1     -33.547   7.930   5.165  1.00 20.00    -0.164 F 
HETATM   10  F10 UNL     1     -34.941   8.655   3.661  1.00 20.00    -0.164 F 
ENDBRANCH   2   7
TORSDOF 1
ENDMDL
MODEL 8
REMARK VINA RESULT:      -2.2      2.446      3.517
REMARK  1 active torsions:
REMARK  status: ('A' for Active; 'I' for Inactive)
REMARK    1  A    between atoms: C2_2  and  C4_4 
ROOT
HETATM    1  C1  UNL     1     -35.372   6.222   4.301  1.00 20.00     0.236 A 
HETATM    2  C2  UNL     1     -33.798   5.733   2.903  1.00 20.00     0.199 A 
HETATM    3  C3  UNL     1     -34.074   4.615   3.664  1.00 20.00     0.245 A 
HETATM    4  N5  UNL     1     -34.613   6.730   3.307  1.00 20.00    -0.233 NA
HETATM    5  N6  UNL     1     -35.057   4.930   4.534  1.00 20.00    -0.212 NA
HETATM    6  F7  UNL     1     -33.477   3.427   3.566  1.00 20.00    -0.182 F 
ENDROOT
BRANCH   2   7
HETATM    7  C4  UNL     1     -32.825   5.933   1.822  1.00 20.00     0.439 C 
HETATM    8  F8  UNL     1     -32.298   7.202   1.754  1.00 20.00    -0.164 F 
HETATM    9  F9  UNL     1     -31.720   5.116   1.891  1.00 20.00    -0.164 F 
HETATM   10  F10 UNL     1     -33.343   5.707   0.569  1.00 20.00    -0.164 F 
ENDBRANCH   2   7
TORSDOF 1
ENDMDL
MODEL 9
REMARK VINA RESULT:      -2.2      2.460      3.529
REMARK  1 active torsions:
REMARK  status: ('A' for Active; 'I' for Inactive)
REMARK    1  A    between atoms: C2_2  and  C4_4 
ROOT
HETATM    1  C1  UNL     1     -35.321   6.265   4.293  1.00 20.00     0.236 A 
HETATM    2  C2  UNL     1     -33.776   5.695   2.892  1.00 20.00     0.199 A 
HETATM    3  C3  UNL     1     -34.098   4.597   3.665  1.00 20.00     0.245 A 
HETATM    4  N5  UNL     1     -34.546   6.731   3.292  1.00 20.00    -0.233 NA
HETATM    5  N6  UNL     1     -35.062   4.962   4.536  1.00 20.00    -0.212 NA
HETATM    6  F7  UNL     1     -33.554   3.384   3.574  1.00 20.00    -0.182 F 
ENDROOT
BRANCH   2   7
HETATM    7  C4  UNL     1     -32.800   5.843   1.806  1.00 20.00     0.439 C 
HETATM    8  F8  UNL     1     -31.658   5.091   1.957  1.00 20.00    -0.164 F 
HETATM    9  F9  UNL     1     -33.273   5.488   0.564  1.00 20.00    -0.164 F 
HETATM   10  F10 UNL     1     -32.346   7.130   1.649  1.00 20.00    -0.164 F 
ENDBRANCH   2   7
TORSDOF 1
ENDMDL
