MODEL 1
REMARK VINA RESULT:      -0.7      0.000      0.000
REMARK  1 active torsions:
REMARK  status: ('A' for Active; 'I' for Inactive)
REMARK    1  A    between atoms: C6_6  and  N7_7 
ROOT
HETATM    1  C1  UNL     1     -32.405   7.679   2.530  1.00 20.00     0.000 C 
HETATM    2  C2  UNL     1     -33.340   8.251   3.591  1.00 20.00     0.003 C 
HETATM    3  C3  UNL     1     -33.093   6.615   1.679  1.00 20.00     0.003 C 
HETATM    4  C4  UNL     1     -33.951   7.149   4.460  1.00 20.00     0.046 C 
HETATM    5  C5  UNL     1     -33.703   5.509   2.542  1.00 20.00     0.046 C 
HETATM    6  C6  UNL     1     -34.638   6.052   3.633  1.00 20.00     0.136 C 
HETATM    7 CL9  UNL     1     -36.147   6.683   2.898  1.00 20.00    -0.098 Cl
ENDROOT
BRANCH   6   8
HETATM    8  N7  UNL     1     -35.028   4.929   4.544  1.00 20.00    -0.037 NA
HETATM    9  O8  UNL     1     -34.305   3.947   4.382  1.00 20.00    -0.099 OA
ENDBRANCH   6   8
TORSDOF 1
ENDMDL
MODEL 2
REMARK VINA RESULT:      -0.2      3.691      4.067
REMARK  1 active torsions:
REMARK  status: ('A' for Active; 'I' for Inactive)
REMARK    1  A    between atoms: C6_6  and  N7_7 
ROOT
HETATM    1  C1  UNL     1     -34.190   6.102   3.350  1.00 20.00     0.000 C 
HETATM    2  C2  UNL     1     -34.017   7.545   3.815  1.00 20.00     0.003 C 
HETATM    3  C3  UNL     1     -32.964   5.597   2.594  1.00 20.00     0.003 C 
HETATM    4  C4  UNL     1     -33.653   8.473   2.654  1.00 20.00     0.046 C 
HETATM    5  C5  UNL     1     -32.597   6.521   1.430  1.00 20.00     0.046 C 
HETATM    6  C6  UNL     1     -32.432   7.985   1.862  1.00 20.00     0.136 C 
HETATM    7 CL9  UNL     1     -30.940   8.179   2.839  1.00 20.00    -0.098 Cl
ENDROOT
BRANCH   6   8
HETATM    8  N7  UNL     1     -32.271   8.837   0.641  1.00 20.00    -0.037 NA
HETATM    9  O8  UNL     1     -32.640   9.993   0.847  1.00 20.00    -0.099 OA
ENDBRANCH   6   8
TORSDOF 1
ENDMDL
MODEL 3
REMARK VINA RESULT:      -0.2      2.753      3.601
REMARK  1 active torsions:
REMARK  status: ('A' for Active; 'I' for Inactive)
REMARK    1  A    between atoms: C6_6  and  N7_7 
ROOT
HETATM    1  C1  UNL     1     -34.871   5.164   4.492  1.00 20.00     0.000 C 
HETATM    2  C2  UNL     1     -34.022   4.230   3.634  1.00 20.00     0.003 C 
HETATM    3  C3  UNL     1     -35.269   6.428   3.734  1.00 20.00     0.003 C 
HETATM    4  C4  UNL     1     -32.798   4.947   3.059  1.00 20.00     0.046 C 
HETATM    5  C5  UNL     1     -34.049   7.150   3.159  1.00 20.00     0.046 C 
HETATM    6  C6  UNL     1     -33.163   6.234   2.303  1.00 20.00     0.136 C 
HETATM    7 CL9  UNL     1     -33.990   5.835   0.762  1.00 20.00    -0.098 Cl
ENDROOT
BRANCH   6   8
HETATM    8  N7  UNL     1     -31.904   6.964   1.950  1.00 20.00    -0.037 NA
HETATM    9  O8  UNL     1     -32.086   8.180   1.911  1.00 20.00    -0.099 OA
ENDBRANCH   6   8
TORSDOF 1
ENDMDL
MODEL 4
REMARK VINA RESULT:      -0.0      1.593      2.321
REMARK  1 active torsions:
REMARK  status: ('A' for Active; 'I' for Inactive)
REMARK    1  A    between atoms: C6_6  and  N7_7 
ROOT
HETATM    1  C1  UNL     1     -32.094   7.851   1.866  1.00 20.00     0.000 C 
HETATM    2  C2  UNL     1     -32.541   6.474   1.384  1.00 20.00     0.003 C 
HETATM    3  C3  UNL     1     -32.199   7.984   3.383  1.00 20.00     0.003 C 
HETATM    4  C4  UNL     1     -33.947   6.130   1.880  1.00 20.00     0.046 C 
HETATM    5  C5  UNL     1     -33.604   7.643   3.884  1.00 20.00     0.046 C 
HETATM    6  C6  UNL     1     -34.092   6.269   3.402  1.00 20.00     0.136 C 
HETATM    7 CL9  UNL     1     -33.185   4.964   4.234  1.00 20.00    -0.098 Cl
ENDROOT
BRANCH   6   8
HETATM    8  N7  UNL     1     -35.534   6.107   3.771  1.00 20.00    -0.037 NA
HETATM    9  O8  UNL     1     -35.698   5.162   4.540  1.00 20.00    -0.099 OA
ENDBRANCH   6   8
TORSDOF 1
ENDMDL
MODEL 5
REMARK VINA RESULT:       0.0      2.569      3.149
REMARK  1 active torsions:
REMARK  status: ('A' for Active; 'I' for Inactive)
REMARK    1  A    between atoms: C6_6  and  N7_7 
ROOT
HETATM    1  C1  UNL     1     -33.949   7.579   3.942  1.00 20.00     0.000 C 
HETATM    2  C2  UNL     1     -34.531   6.212   3.595  1.00 20.00     0.003 C 
HETATM    3  C3  UNL     1     -33.276   8.233   2.738  1.00 20.00     0.003 C 
HETATM    4  C4  UNL     1     -33.479   5.291   2.975  1.00 20.00     0.046 C 
HETATM    5  C5  UNL     1     -32.221   7.316   2.115  1.00 20.00     0.046 C 
HETATM    6  C6  UNL     1     -32.769   5.924   1.769  1.00 20.00     0.136 C 
HETATM    7 CL9  UNL     1     -33.892   6.030   0.374  1.00 20.00    -0.098 Cl
ENDROOT
BRANCH   6   8
HETATM    8  N7  UNL     1     -31.633   5.042   1.354  1.00 20.00    -0.037 NA
HETATM    9  O8  UNL     1     -31.843   4.523   0.259  1.00 20.00    -0.099 OA
ENDBRANCH   6   8
TORSDOF 1
ENDMDL
MODEL 6
REMARK VINA RESULT:       0.6      2.885      3.448
REMARK  1 active torsions:
REMARK  status: ('A' for Active; 'I' for Inactive)
REMARK    1  A    between atoms: C6_6  and  N7_7 
ROOT
HETATM    1  C1  UNL     1     -34.968   4.775   4.085  1.00 20.00     0.000 C 
HETATM    2  C2  UNL     1     -35.451   6.205   4.306  1.00 20.00     0.003 C 
HETATM    3  C3  UNL     1     -33.449   4.701   3.956  1.00 20.00     0.003 C 
HETATM    4  C4  UNL     1     -34.936   7.151   3.219  1.00 20.00     0.046 C 
HETATM    5  C5  UNL     1     -32.928   5.643   2.868  1.00 20.00     0.046 C 
HETATM    6  C6  UNL     1     -33.410   7.089   3.051  1.00 20.00     0.136 C 
HETATM    7 CL9  UNL     1     -32.600   7.838   4.466  1.00 20.00    -0.098 Cl
ENDROOT
BRANCH   6   8
HETATM    8  N7  UNL     1     -33.021   7.889   1.847  1.00 20.00    -0.037 NA
HETATM    9  O8  UNL     1     -31.808   7.839   1.647  1.00 20.00    -0.099 OA
ENDBRANCH   6   8
TORSDOF 1
ENDMDL
MODEL 7
REMARK VINA RESULT:       0.9      3.192      3.939
REMARK  1 active torsions:
REMARK  status: ('A' for Active; 'I' for Inactive)
REMARK    1  A    between atoms: C6_6  and  N7_7 
ROOT
HETATM    1  C1  UNL     1     -33.914   5.449   2.692  1.00 20.00     0.000 C 
HETATM    2  C2  UNL     1     -32.990   5.582   1.486  1.00 20.00     0.003 C 
HETATM    3  C3  UNL     1     -34.379   6.809   3.206  1.00 20.00     0.003 C 
HETATM    4  C4  UNL     1     -31.805   6.505   1.780  1.00 20.00     0.046 C 
HETATM    5  C5  UNL     1     -33.198   7.734   3.505  1.00 20.00     0.046 C 
HETATM    6  C6  UNL     1     -32.238   7.878   2.315  1.00 20.00     0.136 C 
HETATM    7 CL9  UNL     1     -33.009   8.837   1.009  1.00 20.00    -0.098 Cl
ENDROOT
BRANCH   6   8
HETATM    8  N7  UNL     1     -31.023   8.633   2.757  1.00 20.00    -0.037 NA
HETATM    9  O8  UNL     1     -31.160   9.079   3.895  1.00 20.00    -0.099 OA
ENDBRANCH   6   8
TORSDOF 1
ENDMDL
MODEL 8
REMARK VINA RESULT:       0.9      2.003      2.569
REMARK  1 active torsions:
REMARK  status: ('A' for Active; 'I' for Inactive)
REMARK    1  A    between atoms: C6_6  and  N7_7 
ROOT
HETATM    1  C1  UNL     1     -31.874   6.920   1.103  1.00 20.00     0.000 C 
HETATM    2  C2  UNL     1     -32.044   5.809   2.134  1.00 20.00     0.003 C 
HETATM    3  C3  UNL     1     -32.175   8.295   1.693  1.00 20.00     0.003 C 
HETATM    4  C4  UNL     1     -33.429   5.848   2.783  1.00 20.00     0.046 C 
HETATM    5  C5  UNL     1     -33.560   8.340   2.342  1.00 20.00     0.046 C 
HETATM    6  C6  UNL     1     -33.771   7.223   3.374  1.00 20.00     0.136 C 
HETATM    7 CL9  UNL     1     -32.779   7.535   4.836  1.00 20.00    -0.098 Cl
ENDROOT
BRANCH   6   8
HETATM    8  N7  UNL     1     -35.205   7.224   3.807  1.00 20.00    -0.037 NA
HETATM    9  O8  UNL     1     -35.591   6.091   4.087  1.00 20.00    -0.099 OA
ENDBRANCH   6   8
TORSDOF 1
ENDMDL
MODEL 9
REMARK VINA RESULT:       1.1      1.972      2.404
REMARK  1 active torsions:
REMARK  status: ('A' for Active; 'I' for Inactive)
REMARK    1  A    between atoms: C6_6  and  N7_7 
ROOT
HETATM    1  C1  UNL     1     -32.295   5.703   1.488  1.00 20.00     0.000 C 
HETATM    2  C2  UNL     1     -32.733   7.157   1.338  1.00 20.00     0.003 C 
HETATM    3  C3  UNL     1     -33.287   4.892   2.316  1.00 20.00     0.003 C 
HETATM    4  C4  UNL     1     -32.995   7.811   2.696  1.00 20.00     0.046 C 
HETATM    5  C5  UNL     1     -33.551   5.540   3.676  1.00 20.00     0.046 C 
HETATM    6  C6  UNL     1     -33.978   7.011   3.562  1.00 20.00     0.136 C 
HETATM    7 CL9  UNL     1     -35.636   7.124   2.885  1.00 20.00    -0.098 Cl
ENDROOT
BRANCH   6   8
HETATM    8  N7  UNL     1     -34.021   7.613   4.933  1.00 20.00    -0.037 NA
HETATM    9  O8  UNL     1     -33.010   8.273   5.166  1.00 20.00    -0.099 OA
ENDBRANCH   6   8
TORSDOF 1
ENDMDL
