MODEL 1
REMARK VINA RESULT:       1.2      0.000      0.000
REMARK  1 active torsions:
REMARK  status: ('A' for Active; 'I' for Inactive)
REMARK    1  A    between atoms: C5_5  and  O12_12 
ROOT
HETATM    1  C1  UNL     1     -32.366   8.250   2.075  1.00 20.00     0.006 C 
HETATM    2  C2  UNL     1     -31.528   6.985   1.857  1.00 20.00     0.012 C 
HETATM    3  C3  UNL     1     -33.776   6.595   1.164  1.00 20.00     0.017 C 
HETATM    4  C4  UNL     1     -33.793   7.698   2.234  1.00 20.00    -0.003 C 
HETATM    5  C5  UNL     1     -33.109   5.606   3.249  1.00 20.00     0.137 C 
HETATM    6  C6  UNL     1     -32.591   5.863   1.804  1.00 20.00    -0.017 C 
HETATM    7  C7  UNL     1     -33.961   6.881   3.555  1.00 20.00    -0.017 C 
HETATM    8  C8  UNL     1     -32.128   4.629   1.054  1.00 20.00     0.018 C 
HETATM    9  C9  UNL     1     -33.429   7.610   4.798  1.00 20.00     0.018 C 
HETATM   10  C10 UNL     1     -35.456   6.587   3.800  1.00 20.00     0.018 C 
ENDROOT
BRANCH   5  11
HETATM   11  O12 UNL     1     -33.882   4.414   3.297  1.00 20.00    -0.389 OA
HETATM   12  C11 UNL     1     -33.511   3.596   4.399  1.00 20.00     0.202 C 
ENDBRANCH   5  11
TORSDOF 1
ENDMDL
MODEL 2
REMARK VINA RESULT:       3.1      1.194      3.102
REMARK  1 active torsions:
REMARK  status: ('A' for Active; 'I' for Inactive)
REMARK    1  A    between atoms: C5_5  and  O12_12 
ROOT
HETATM    1  C1  UNL     1     -32.470   8.780   1.013  1.00 20.00     0.006 C 
HETATM    2  C2  UNL     1     -33.413   9.085   2.183  1.00 20.00     0.012 C 
HETATM    3  C3  UNL     1     -31.611   7.715   2.933  1.00 20.00     0.017 C 
HETATM    4  C4  UNL     1     -31.814   7.453   1.433  1.00 20.00    -0.003 C 
HETATM    5  C5  UNL     1     -33.738   6.633   2.659  1.00 20.00     0.137 C 
HETATM    6  C6  UNL     1     -33.103   7.951   3.190  1.00 20.00    -0.017 C 
HETATM    7  C7  UNL     1     -32.836   6.270   1.435  1.00 20.00    -0.017 C 
HETATM    8  C8  UNL     1     -33.452   8.307   4.623  1.00 20.00     0.018 C 
HETATM    9  C9  UNL     1     -33.669   6.179   0.148  1.00 20.00     0.018 C 
HETATM   10  C10 UNL     1     -32.084   4.932   1.591  1.00 20.00     0.018 C 
ENDROOT
BRANCH   5  11
HETATM   11  O12 UNL     1     -33.717   5.630   3.665  1.00 20.00    -0.389 OA
HETATM   12  C11 UNL     1     -35.021   5.357   4.158  1.00 20.00     0.202 C 
ENDBRANCH   5  11
TORSDOF 1
ENDMDL
MODEL 3
REMARK VINA RESULT:       3.7      1.256      3.178
REMARK  1 active torsions:
REMARK  status: ('A' for Active; 'I' for Inactive)
REMARK    1  A    between atoms: C5_5  and  O12_12 
ROOT
HETATM    1  C1  UNL     1     -34.635   8.306   3.626  1.00 20.00     0.006 C 
HETATM    2  C2  UNL     1     -35.152   6.887   3.360  1.00 20.00     0.012 C 
HETATM    3  C3  UNL     1     -32.978   6.785   4.334  1.00 20.00     0.017 C 
HETATM    4  C4  UNL     1     -33.107   8.129   3.599  1.00 20.00    -0.003 C 
HETATM    5  C5  UNL     1     -33.121   6.324   1.981  1.00 20.00     0.137 C 
HETATM    6  C6  UNL     1     -33.857   6.041   3.323  1.00 20.00    -0.017 C 
HETATM    7  C7  UNL     1     -32.583   7.780   2.169  1.00 20.00    -0.017 C 
HETATM    8  C8  UNL     1     -34.086   4.576   3.639  1.00 20.00     0.018 C 
HETATM    9  C9  UNL     1     -33.126   8.711   1.074  1.00 20.00     0.018 C 
HETATM   10  C10 UNL     1     -31.044   7.885   2.137  1.00 20.00     0.018 C 
ENDROOT
BRANCH   5  11
HETATM   11  O12 UNL     1     -32.077   5.383   1.777  1.00 20.00    -0.389 OA
HETATM   12  C11 UNL     1     -32.191   4.742   0.514  1.00 20.00     0.202 C 
ENDBRANCH   5  11
TORSDOF 1
ENDMDL
MODEL 4
REMARK VINA RESULT:       4.1      1.561      3.117
REMARK  1 active torsions:
REMARK  status: ('A' for Active; 'I' for Inactive)
REMARK    1  A    between atoms: C5_5  and  O12_12 
ROOT
HETATM    1  C1  UNL     1     -31.872   5.323   1.164  1.00 20.00     0.006 C 
HETATM    2  C2  UNL     1     -32.441   4.872   2.514  1.00 20.00     0.012 C 
HETATM    3  C3  UNL     1     -34.047   6.211   1.366  1.00 20.00     0.017 C 
HETATM    4  C4  UNL     1     -32.650   6.618   0.874  1.00 20.00    -0.003 C 
HETATM    5  C5  UNL     1     -32.898   7.252   3.201  1.00 20.00     0.137 C 
HETATM    6  C6  UNL     1     -33.560   5.905   2.787  1.00 20.00    -0.017 C 
HETATM    7  C7  UNL     1     -32.267   7.764   1.866  1.00 20.00    -0.017 C 
HETATM    8  C8  UNL     1     -34.634   5.395   3.729  1.00 20.00     0.018 C 
HETATM    9  C9  UNL     1     -30.751   7.963   2.017  1.00 20.00     0.018 C 
HETATM   10  C10 UNL     1     -32.857   9.101   1.370  1.00 20.00     0.018 C 
ENDROOT
BRANCH   5  11
HETATM   11  O12 UNL     1     -33.872   8.148   3.719  1.00 20.00    -0.389 OA
HETATM   12  C11 UNL     1     -33.689   8.370   5.110  1.00 20.00     0.202 C 
ENDBRANCH   5  11
TORSDOF 1
ENDMDL
