MODEL 1
REMARK VINA RESULT:      -1.4      0.000      0.000
REMARK  2 active torsions:
REMARK  status: ('A' for Active; 'I' for Inactive)
REMARK    1  A    between atoms: C1_1  and  C6_6 
REMARK    2  A    between atoms: C1_1  and  O9_9 
ROOT
HETATM    1  C2  UNL     1     -34.270   5.281   3.862  1.00 20.00     0.024 C 
HETATM    2  C3  UNL     1     -34.089   7.314   4.438  1.00 20.00     0.024 C 
HETATM    3  C4  UNL     1     -35.396   6.773   2.860  1.00 20.00     0.024 C 
HETATM    4  C5  UNL     1     -35.314   6.338   4.364  1.00 20.00    -0.011 C 
HETATM    5  C6  UNL     1     -33.865   6.572   3.085  1.00 20.00     0.049 C 
ENDROOT
BRANCH   5   6
HETATM    6  C1  UNL     1     -32.759   6.748   2.111  1.00 20.00     0.267 C 
HETATM    7  O8  UNL     1     -32.379   5.876   1.341  1.00 20.00    -0.264 OA
BRANCH   6   8
HETATM    8  O9  UNL     1     -32.253   8.010   2.218  1.00 20.00    -0.326 OA
HETATM    9  C7  UNL     1     -32.136   8.732   0.989  1.00 20.00     0.213 C 
ENDBRANCH   6   8
ENDBRANCH   5   6
TORSDOF 2
ENDMDL
MODEL 2
REMARK VINA RESULT:      -1.4      0.044      1.223
REMARK  2 active torsions:
REMARK  status: ('A' for Active; 'I' for Inactive)
REMARK    1  A    between atoms: C1_1  and  C6_6 
REMARK    2  A    between atoms: C1_1  and  O9_9 
ROOT
HETATM    1  C2  UNL     1     -35.410   6.781   2.905  1.00 20.00     0.024 C 
HETATM    2  C3  UNL     1     -34.268   5.300   3.904  1.00 20.00     0.024 C 
HETATM    3  C4  UNL     1     -34.072   7.338   4.453  1.00 20.00     0.024 C 
HETATM    4  C5  UNL     1     -35.300   6.364   4.413  1.00 20.00    -0.011 C 
HETATM    5  C6  UNL     1     -33.876   6.580   3.104  1.00 20.00     0.049 C 
ENDROOT
BRANCH   5   6
HETATM    6  C1  UNL     1     -32.792   6.744   2.103  1.00 20.00     0.267 C 
HETATM    7  O8  UNL     1     -32.452   5.874   1.313  1.00 20.00    -0.264 OA
BRANCH   6   8
HETATM    8  O9  UNL     1     -32.255   7.993   2.212  1.00 20.00    -0.326 OA
HETATM    9  C7  UNL     1     -32.119   8.713   0.984  1.00 20.00     0.213 C 
ENDBRANCH   6   8
ENDBRANCH   5   6
TORSDOF 2
ENDMDL
MODEL 3
REMARK VINA RESULT:      -1.4      0.048      1.228
REMARK  2 active torsions:
REMARK  status: ('A' for Active; 'I' for Inactive)
REMARK    1  A    between atoms: C1_1  and  C6_6 
REMARK    2  A    between atoms: C1_1  and  O9_9 
ROOT
HETATM    1  C2  UNL     1     -34.064   7.341   4.429  1.00 20.00     0.024 C 
HETATM    2  C3  UNL     1     -35.371   6.778   2.857  1.00 20.00     0.024 C 
HETATM    3  C4  UNL     1     -34.221   5.305   3.857  1.00 20.00     0.024 C 
HETATM    4  C5  UNL     1     -35.276   6.349   4.361  1.00 20.00    -0.011 C 
HETATM    5  C6  UNL     1     -33.837   6.599   3.076  1.00 20.00     0.049 C 
ENDROOT
BRANCH   5   6
HETATM    6  C1  UNL     1     -32.738   6.793   2.096  1.00 20.00     0.267 C 
HETATM    7  O8  UNL     1     -32.353   5.930   1.319  1.00 20.00    -0.264 OA
BRANCH   6   8
HETATM    8  O9  UNL     1     -32.245   8.059   2.208  1.00 20.00    -0.326 OA
HETATM    9  C7  UNL     1     -32.140   8.788   0.981  1.00 20.00     0.213 C 
ENDBRANCH   6   8
ENDBRANCH   5   6
TORSDOF 2
ENDMDL
MODEL 4
REMARK VINA RESULT:      -0.9      0.785      1.641
REMARK  2 active torsions:
REMARK  status: ('A' for Active; 'I' for Inactive)
REMARK    1  A    between atoms: C1_1  and  C6_6 
REMARK    2  A    between atoms: C1_1  and  O9_9 
ROOT
HETATM    1  C2  UNL     1     -34.222   5.338   3.877  1.00 20.00     0.024 C 
HETATM    2  C3  UNL     1     -34.110   7.369   4.476  1.00 20.00     0.024 C 
HETATM    3  C4  UNL     1     -35.491   6.781   2.980  1.00 20.00     0.024 C 
HETATM    4  C5  UNL     1     -35.283   6.330   4.467  1.00 20.00    -0.011 C 
HETATM    5  C6  UNL     1     -33.940   6.660   3.098  1.00 20.00     0.049 C 
ENDROOT
BRANCH   5   6
HETATM    6  C1  UNL     1     -32.914   6.909   2.054  1.00 20.00     0.267 C 
HETATM    7  O8  UNL     1     -32.194   7.897   2.024  1.00 20.00    -0.264 OA
BRANCH   6   8
HETATM    8  O9  UNL     1     -32.911   5.878   1.161  1.00 20.00    -0.326 OA
HETATM    9  C7  UNL     1     -31.717   5.092   1.134  1.00 20.00     0.213 C 
ENDBRANCH   6   8
ENDBRANCH   5   6
TORSDOF 2
ENDMDL
MODEL 5
REMARK VINA RESULT:      -0.9      0.780      2.049
REMARK  2 active torsions:
REMARK  status: ('A' for Active; 'I' for Inactive)
REMARK    1  A    between atoms: C1_1  and  C6_6 
REMARK    2  A    between atoms: C1_1  and  O9_9 
ROOT
HETATM    1  C2  UNL     1     -34.109   7.366   4.474  1.00 20.00     0.024 C 
HETATM    2  C3  UNL     1     -35.485   6.775   2.972  1.00 20.00     0.024 C 
HETATM    3  C4  UNL     1     -34.212   5.336   3.868  1.00 20.00     0.024 C 
HETATM    4  C5  UNL     1     -35.279   6.322   4.458  1.00 20.00    -0.011 C 
HETATM    5  C6  UNL     1     -33.934   6.661   3.093  1.00 20.00     0.049 C 
ENDROOT
BRANCH   5   6
HETATM    6  C1  UNL     1     -32.908   6.923   2.053  1.00 20.00     0.267 C 
HETATM    7  O8  UNL     1     -32.187   7.912   2.035  1.00 20.00    -0.264 OA
BRANCH   6   8
HETATM    8  O9  UNL     1     -32.906   5.904   1.147  1.00 20.00    -0.326 OA
HETATM    9  C7  UNL     1     -31.727   5.094   1.135  1.00 20.00     0.213 C 
ENDBRANCH   6   8
ENDBRANCH   5   6
TORSDOF 2
ENDMDL
MODEL 6
REMARK VINA RESULT:      -0.9      1.634      3.877
REMARK  2 active torsions:
REMARK  status: ('A' for Active; 'I' for Inactive)
REMARK    1  A    between atoms: C1_1  and  C6_6 
REMARK    2  A    between atoms: C1_1  and  O9_9 
ROOT
HETATM    1  C2  UNL     1     -32.905   8.694   1.325  1.00 20.00     0.024 C 
HETATM    2  C3  UNL     1     -31.266   8.283   2.608  1.00 20.00     0.024 C 
HETATM    3  C4  UNL     1     -32.116   6.729   1.444  1.00 20.00     0.024 C 
HETATM    4  C5  UNL     1     -31.474   8.108   1.064  1.00 20.00    -0.011 C 
HETATM    5  C6  UNL     1     -32.709   7.699   2.511  1.00 20.00     0.049 C 
ENDROOT
BRANCH   5   6
HETATM    6  C1  UNL     1     -33.653   7.390   3.615  1.00 20.00     0.267 C 
HETATM    7  O8  UNL     1     -33.844   8.120   4.578  1.00 20.00    -0.264 OA
BRANCH   6   8
HETATM    8  O9  UNL     1     -34.252   6.188   3.380  1.00 20.00    -0.326 OA
HETATM    9  C7  UNL     1     -35.407   5.911   4.176  1.00 20.00     0.213 C 
ENDBRANCH   6   8
ENDBRANCH   5   6
TORSDOF 2
ENDMDL
MODEL 7
REMARK VINA RESULT:      -0.9      1.633      3.878
REMARK  2 active torsions:
REMARK  status: ('A' for Active; 'I' for Inactive)
REMARK    1  A    between atoms: C1_1  and  C6_6 
REMARK    2  A    between atoms: C1_1  and  O9_9 
ROOT
HETATM    1  C2  UNL     1     -31.269   8.278   2.609  1.00 20.00     0.024 C 
HETATM    2  C3  UNL     1     -32.121   6.729   1.437  1.00 20.00     0.024 C 
HETATM    3  C4  UNL     1     -32.903   8.696   1.323  1.00 20.00     0.024 C 
HETATM    4  C5  UNL     1     -31.474   8.107   1.064  1.00 20.00    -0.011 C 
HETATM    5  C6  UNL     1     -32.714   7.698   2.507  1.00 20.00     0.049 C 
ENDROOT
BRANCH   5   6
HETATM    6  C1  UNL     1     -33.657   7.385   3.609  1.00 20.00     0.267 C 
HETATM    7  O8  UNL     1     -33.842   8.108   4.579  1.00 20.00    -0.264 OA
BRANCH   6   8
HETATM    8  O9  UNL     1     -34.264   6.188   3.366  1.00 20.00    -0.326 OA
HETATM    9  C7  UNL     1     -35.399   5.896   4.185  1.00 20.00     0.213 C 
ENDBRANCH   6   8
ENDBRANCH   5   6
TORSDOF 2
ENDMDL
MODEL 8
REMARK VINA RESULT:      -0.9      1.639      3.879
REMARK  2 active torsions:
REMARK  status: ('A' for Active; 'I' for Inactive)
REMARK    1  A    between atoms: C1_1  and  C6_6 
REMARK    2  A    between atoms: C1_1  and  O9_9 
ROOT
HETATM    1  C2  UNL     1     -32.088   6.739   1.472  1.00 20.00     0.024 C 
HETATM    2  C3  UNL     1     -32.893   8.697   1.340  1.00 20.00     0.024 C 
HETATM    3  C4  UNL     1     -31.255   8.310   2.628  1.00 20.00     0.024 C 
HETATM    4  C5  UNL     1     -31.457   8.122   1.085  1.00 20.00    -0.011 C 
HETATM    5  C6  UNL     1     -32.693   7.712   2.532  1.00 20.00     0.049 C 
ENDROOT
BRANCH   5   6
HETATM    6  C1  UNL     1     -33.636   7.397   3.634  1.00 20.00     0.267 C 
HETATM    7  O8  UNL     1     -33.802   8.105   4.618  1.00 20.00    -0.264 OA
BRANCH   6   8
HETATM    8  O9  UNL     1     -34.267   6.217   3.371  1.00 20.00    -0.326 OA
HETATM    9  C7  UNL     1     -35.418   5.943   4.176  1.00 20.00     0.213 C 
ENDBRANCH   6   8
ENDBRANCH   5   6
TORSDOF 2
ENDMDL
MODEL 9
REMARK VINA RESULT:      -0.6      2.321      3.772
REMARK  2 active torsions:
REMARK  status: ('A' for Active; 'I' for Inactive)
REMARK    1  A    between atoms: C1_1  and  C6_6 
REMARK    2  A    between atoms: C1_1  and  O9_9 
ROOT
HETATM    1  C2  UNL     1     -33.306   6.513   2.576  1.00 20.00     0.024 C 
HETATM    2  C3  UNL     1     -35.233   7.201   3.132  1.00 20.00     0.024 C 
HETATM    3  C4  UNL     1     -33.626   7.331   4.507  1.00 20.00     0.024 C 
HETATM    4  C5  UNL     1     -33.835   7.906   3.063  1.00 20.00    -0.011 C 
HETATM    5  C6  UNL     1     -34.272   6.136   3.742  1.00 20.00     0.049 C 
ENDROOT
BRANCH   5   6
HETATM    6  C1  UNL     1     -34.604   4.783   4.256  1.00 20.00     0.267 C 
HETATM    7  O8  UNL     1     -35.602   4.528   4.917  1.00 20.00    -0.264 OA
BRANCH   6   8
HETATM    8  O9  UNL     1     -33.636   3.901   3.880  1.00 20.00    -0.326 OA
HETATM    9  C7  UNL     1     -33.189   3.005   4.902  1.00 20.00     0.213 C 
ENDBRANCH   6   8
ENDBRANCH   5   6
TORSDOF 2
ENDMDL
