MODEL 1
REMARK VINA RESULT:       1.4      0.000      0.000
REMARK  0 active torsions:
REMARK  status: ('A' for Active; 'I' for Inactive)
ROOT
HETATM    1  C1  UNL     1     -33.652   7.747   2.900  1.00 20.00     0.045 C 
HETATM    2  C2  UNL     1     -33.967   6.488   3.262  1.00 20.00     0.011 C 
HETATM    3  C3  UNL     1     -32.546   8.037   1.953  1.00 20.00     0.028 C 
HETATM    4  C4  UNL     1     -33.204   5.304   2.676  1.00 20.00     0.059 C 
HETATM    5  C5  UNL     1     -31.700   6.895   1.439  1.00 20.00     0.067 C 
HETATM    6  C6  UNL     1     -32.501   5.591   1.326  1.00 20.00    -0.038 C 
HETATM    7  C7  UNL     1     -31.539   4.433   1.004  1.00 20.00     0.015 C 
HETATM    8  C8  UNL     1     -33.532   5.685   0.183  1.00 20.00     0.015 C 
HETATM    9  N9  UNL     1     -32.254   9.239   1.575  1.00 20.00    -0.305 NA
HETATM   10  S10 UNL     1     -35.224   6.040   4.399  1.00 20.00    -0.085 SA
HETATM   11  H22 UNL     1     -31.464   9.201   0.926  1.00 20.00     0.186 HD
ENDROOT
TORSDOF 0
ENDMDL
MODEL 2
REMARK VINA RESULT:       1.7      1.699      3.058
REMARK  0 active torsions:
REMARK  status: ('A' for Active; 'I' for Inactive)
ROOT
HETATM    1  C1  UNL     1     -33.133   5.495   2.524  1.00 20.00     0.045 C 
HETATM    2  C2  UNL     1     -33.881   6.522   2.973  1.00 20.00     0.011 C 
HETATM    3  C3  UNL     1     -32.127   5.671   1.446  1.00 20.00     0.028 C 
HETATM    4  C4  UNL     1     -33.691   7.923   2.401  1.00 20.00     0.059 C 
HETATM    5  C5  UNL     1     -31.991   7.022   0.781  1.00 20.00     0.067 C 
HETATM    6  C6  UNL     1     -32.311   8.172   1.746  1.00 20.00    -0.038 C 
HETATM    7  C7  UNL     1     -32.359   9.494   0.957  1.00 20.00     0.015 C 
HETATM    8  C8  UNL     1     -31.211   8.300   2.820  1.00 20.00     0.015 C 
HETATM    9  N9  UNL     1     -31.382   4.700   1.027  1.00 20.00    -0.305 NA
HETATM   10  S10 UNL     1     -35.119   6.414   4.210  1.00 20.00    -0.085 SA
HETATM   11  H22 UNL     1     -30.767   5.048   0.287  1.00 20.00     0.186 HD
ENDROOT
TORSDOF 0
ENDMDL
MODEL 3
REMARK VINA RESULT:       2.5      2.407      3.503
REMARK  0 active torsions:
REMARK  status: ('A' for Active; 'I' for Inactive)
ROOT
HETATM    1  C1  UNL     1     -33.765   5.559   2.248  1.00 20.00     0.045 C 
HETATM    2  C2  UNL     1     -32.602   5.610   1.569  1.00 20.00     0.011 C 
HETATM    3  C3  UNL     1     -34.119   6.573   3.273  1.00 20.00     0.028 C 
HETATM    4  C4  UNL     1     -31.615   6.747   1.815  1.00 20.00     0.059 C 
HETATM    5  C5  UNL     1     -33.116   7.649   3.619  1.00 20.00     0.067 C 
HETATM    6  C6  UNL     1     -32.241   8.028   2.417  1.00 20.00    -0.038 C 
HETATM    7  C7  UNL     1     -31.114   8.965   2.889  1.00 20.00     0.015 C 
HETATM    8  C8  UNL     1     -33.073   8.780   1.357  1.00 20.00     0.015 C 
HETATM    9  N9  UNL     1     -35.246   6.551   3.910  1.00 20.00    -0.305 NA
HETATM   10  S10 UNL     1     -32.071   4.446   0.370  1.00 20.00    -0.085 SA
HETATM   11  H22 UNL     1     -35.274   7.339   4.562  1.00 20.00     0.186 HD
ENDROOT
TORSDOF 0
ENDMDL
MODEL 4
REMARK VINA RESULT:       2.6      2.329      2.980
REMARK  0 active torsions:
REMARK  status: ('A' for Active; 'I' for Inactive)
ROOT
HETATM    1  C1  UNL     1     -34.731   4.795   4.142  1.00 20.00     0.045 C 
HETATM    2  C2  UNL     1     -33.539   4.198   3.942  1.00 20.00     0.011 C 
HETATM    3  C3  UNL     1     -35.021   6.157   3.628  1.00 20.00     0.028 C 
HETATM    4  C4  UNL     1     -32.449   4.903   3.141  1.00 20.00     0.059 C 
HETATM    5  C5  UNL     1     -33.926   6.927   2.926  1.00 20.00     0.067 C 
HETATM    6  C6  UNL     1     -32.962   5.999   2.175  1.00 20.00    -0.038 C 
HETATM    7  C7  UNL     1     -31.764   6.821   1.665  1.00 20.00     0.015 C 
HETATM    8  C8  UNL     1     -33.659   5.366   0.953  1.00 20.00     0.015 C 
HETATM    9  N9  UNL     1     -36.171   6.728   3.788  1.00 20.00    -0.305 NA
HETATM   10  S10 UNL     1     -33.081   2.614   4.538  1.00 20.00    -0.085 SA
HETATM   11  H22 UNL     1     -36.146   7.655   3.355  1.00 20.00     0.186 HD
ENDROOT
TORSDOF 0
ENDMDL
MODEL 5
REMARK VINA RESULT:       2.6      2.661      3.858
REMARK  0 active torsions:
REMARK  status: ('A' for Active; 'I' for Inactive)
ROOT
HETATM    1  C1  UNL     1     -32.429   7.096   0.883  1.00 20.00     0.045 C 
HETATM    2  C2  UNL     1     -32.527   8.349   1.369  1.00 20.00     0.011 C 
HETATM    3  C3  UNL     1     -32.641   5.904   1.742  1.00 20.00     0.028 C 
HETATM    4  C4  UNL     1     -32.897   8.583   2.830  1.00 20.00     0.059 C 
HETATM    5  C5  UNL     1     -32.900   6.098   3.219  1.00 20.00     0.067 C 
HETATM    6  C6  UNL     1     -33.647   7.407   3.504  1.00 20.00    -0.038 C 
HETATM    7  C7  UNL     1     -33.691   7.644   5.025  1.00 20.00     0.015 C 
HETATM    8  C8  UNL     1     -35.101   7.324   2.994  1.00 20.00     0.015 C 
HETATM    9  N9  UNL     1     -32.578   4.696   1.281  1.00 20.00    -0.305 NA
HETATM   10  S10 UNL     1     -32.259   9.819   0.453  1.00 20.00    -0.085 SA
HETATM   11  H22 UNL     1     -32.756   4.039   2.044  1.00 20.00     0.186 HD
ENDROOT
TORSDOF 0
ENDMDL
MODEL 6
REMARK VINA RESULT:       2.8      2.118      3.489
REMARK  0 active torsions:
REMARK  status: ('A' for Active; 'I' for Inactive)
ROOT
HETATM    1  C1  UNL     1     -32.480   4.576   2.908  1.00 20.00     0.045 C 
HETATM    2  C2  UNL     1     -33.376   4.194   3.838  1.00 20.00     0.011 C 
HETATM    3  C3  UNL     1     -32.731   5.727   2.004  1.00 20.00     0.028 C 
HETATM    4  C4  UNL     1     -34.681   4.964   4.014  1.00 20.00     0.059 C 
HETATM    5  C5  UNL     1     -34.061   6.442   2.077  1.00 20.00     0.067 C 
HETATM    6  C6  UNL     1     -34.647   6.422   3.495  1.00 20.00    -0.038 C 
HETATM    7  C7  UNL     1     -36.083   6.976   3.455  1.00 20.00     0.015 C 
HETATM    8  C8  UNL     1     -33.818   7.318   4.438  1.00 20.00     0.015 C 
HETATM    9  N9  UNL     1     -31.866   6.122   1.127  1.00 20.00    -0.305 NA
HETATM   10  S10 UNL     1     -33.196   2.831   4.926  1.00 20.00    -0.085 SA
HETATM   11  H22 UNL     1     -32.248   6.925   0.620  1.00 20.00     0.186 HD
ENDROOT
TORSDOF 0
ENDMDL
MODEL 7
REMARK VINA RESULT:       3.1      2.523      3.097
REMARK  0 active torsions:
REMARK  status: ('A' for Active; 'I' for Inactive)
ROOT
HETATM    1  C1  UNL     1     -32.858   8.578   2.601  1.00 20.00     0.045 C 
HETATM    2  C2  UNL     1     -32.635   8.508   1.273  1.00 20.00     0.011 C 
HETATM    3  C3  UNL     1     -33.390   7.423   3.368  1.00 20.00     0.028 C 
HETATM    4  C4  UNL     1     -32.896   7.210   0.515  1.00 20.00     0.059 C 
HETATM    5  C5  UNL     1     -33.763   6.159   2.629  1.00 20.00     0.067 C 
HETATM    6  C6  UNL     1     -32.882   5.934   1.392  1.00 20.00    -0.038 C 
HETATM    7  C7  UNL     1     -33.448   4.757   0.577  1.00 20.00     0.015 C 
HETATM    8  C8  UNL     1     -31.442   5.575   1.810  1.00 20.00     0.015 C 
HETATM    9  N9  UNL     1     -33.580   7.469   4.647  1.00 20.00    -0.305 NA
HETATM   10  S10 UNL     1     -32.049   9.820   0.269  1.00 20.00    -0.085 SA
HETATM   11  H22 UNL     1     -33.947   6.567   4.961  1.00 20.00     0.186 HD
ENDROOT
TORSDOF 0
ENDMDL
MODEL 8
REMARK VINA RESULT:       3.1      1.950      3.286
REMARK  0 active torsions:
REMARK  status: ('A' for Active; 'I' for Inactive)
ROOT
HETATM    1  C1  UNL     1     -31.834   7.331   1.152  1.00 20.00     0.045 C 
HETATM    2  C2  UNL     1     -32.164   6.117   1.634  1.00 20.00     0.011 C 
HETATM    3  C3  UNL     1     -32.620   8.546   1.481  1.00 20.00     0.028 C 
HETATM    4  C4  UNL     1     -33.356   5.959   2.574  1.00 20.00     0.059 C 
HETATM    5  C5  UNL     1     -33.871   8.407   2.320  1.00 20.00     0.067 C 
HETATM    6  C6  UNL     1     -33.765   7.251   3.323  1.00 20.00    -0.038 C 
HETATM    7  C7  UNL     1     -35.136   7.034   3.990  1.00 20.00     0.015 C 
HETATM    8  C8  UNL     1     -32.745   7.586   4.431  1.00 20.00     0.015 C 
HETATM    9  N9  UNL     1     -32.296   9.721   1.048  1.00 20.00    -0.305 NA
HETATM   10  S10 UNL     1     -31.329   4.618   1.277  1.00 20.00    -0.085 SA
HETATM   11  H22 UNL     1     -32.973  10.403   1.398  1.00 20.00     0.186 HD
ENDROOT
TORSDOF 0
ENDMDL
MODEL 9
REMARK VINA RESULT:       3.2      0.984      1.064
REMARK  0 active torsions:
REMARK  status: ('A' for Active; 'I' for Inactive)
ROOT
HETATM    1  C1  UNL     1     -32.879   8.612   2.525  1.00 20.00     0.045 C 
HETATM    2  C2  UNL     1     -33.308   7.591   3.293  1.00 20.00     0.011 C 
HETATM    3  C3  UNL     1     -32.060   8.387   1.308  1.00 20.00     0.028 C 
HETATM    4  C4  UNL     1     -32.988   6.150   2.908  1.00 20.00     0.059 C 
HETATM    5  C5  UNL     1     -31.632   6.979   0.960  1.00 20.00     0.067 C 
HETATM    6  C6  UNL     1     -32.664   5.937   1.409  1.00 20.00    -0.038 C 
HETATM    7  C7  UNL     1     -32.075   4.527   1.217  1.00 20.00     0.015 C 
HETATM    8  C8  UNL     1     -33.945   6.037   0.555  1.00 20.00     0.015 C 
HETATM    9  N9  UNL     1     -31.667   9.357   0.546  1.00 20.00    -0.305 NA
HETATM   10  S10 UNL     1     -34.244   7.749   4.767  1.00 20.00    -0.085 SA
HETATM   11  H22 UNL     1     -31.122   8.971  -0.228  1.00 20.00     0.186 HD
ENDROOT
TORSDOF 0
ENDMDL
