MODEL 1
REMARK VINA RESULT:      -2.0      0.000      0.000
REMARK  4 active torsions:
REMARK  status: ('A' for Active; 'I' for Inactive)
REMARK    1  A    between atoms: C1_1  and  C6_6 
REMARK    2  A    between atoms: C1_1  and  C9_9 
REMARK    3  A    between atoms: C7_7  and  C8_8 
REMARK    4  A    between atoms: C8_8  and  N10_10 
ROOT
HETATM    1  C1  UNL     1     -33.121   7.147   2.576  1.00 20.00     0.009 C 
HETATM    2  N10 UNL     1     -32.486   8.262   2.447  1.00 20.00    -0.298 NA
ENDROOT
BRANCH   1   3
HETATM    3  C6  UNL     1     -33.276   6.097   1.488  1.00 20.00     0.050 C 
HETATM    4  C2  UNL     1     -32.050   5.203   1.430  1.00 20.00     0.011 C 
ENDBRANCH   1   3
BRANCH   1   5
HETATM    5  C9  UNL     1     -33.764   6.836   3.930  1.00 20.00     0.025 C 
HETATM    6  C4  UNL     1     -35.200   6.366   3.729  1.00 20.00     0.016 C 
HETATM    7  C5  UNL     1     -33.697   8.049   4.853  1.00 20.00     0.016 C 
ENDBRANCH   1   5
BRANCH   2   8
HETATM    8  C8  UNL     1     -31.849   8.586   1.182  1.00 20.00     0.148 C 
BRANCH   8   9
HETATM    9  C7  UNL     1     -32.321   9.952   0.700  1.00 20.00     0.017 C 
HETATM   10  C3  UNL     1     -32.770   9.937  -0.755  1.00 20.00     0.007 C 
ENDBRANCH   8   9
ENDBRANCH   2   8
TORSDOF 4
ENDMDL
MODEL 2
REMARK VINA RESULT:      -1.6      2.410      5.158
REMARK  4 active torsions:
REMARK  status: ('A' for Active; 'I' for Inactive)
REMARK    1  A    between atoms: C1_1  and  C6_6 
REMARK    2  A    between atoms: C1_1  and  C9_9 
REMARK    3  A    between atoms: C7_7  and  C8_8 
REMARK    4  A    between atoms: C8_8  and  N10_10 
ROOT
HETATM    1  C1  UNL     1     -33.668   6.122   2.879  1.00 20.00     0.009 C 
HETATM    2  N10 UNL     1     -33.484   4.870   3.131  1.00 20.00    -0.298 NA
ENDROOT
BRANCH   1   3
HETATM    3  C6  UNL     1     -34.556   7.056   3.686  1.00 20.00     0.050 C 
HETATM    4  C2  UNL     1     -33.740   7.802   4.725  1.00 20.00     0.011 C 
ENDBRANCH   1   3
BRANCH   1   5
HETATM    5  C9  UNL     1     -32.930   6.733   1.685  1.00 20.00     0.025 C 
HETATM    6  C4  UNL     1     -32.076   5.671   1.002  1.00 20.00     0.016 C 
HETATM    7  C5  UNL     1     -32.089   7.930   2.122  1.00 20.00     0.016 C 
ENDBRANCH   1   5
BRANCH   2   8
HETATM    8  C8  UNL     1     -34.154   4.258   4.265  1.00 20.00     0.148 C 
BRANCH   8   9
HETATM    9  C7  UNL     1     -33.449   2.961   4.643  1.00 20.00     0.017 C 
HETATM   10  C3  UNL     1     -32.598   3.101   5.897  1.00 20.00     0.007 C 
ENDBRANCH   8   9
ENDBRANCH   2   8
TORSDOF 4
ENDMDL
MODEL 3
REMARK VINA RESULT:      -1.5      1.336      2.386
REMARK  4 active torsions:
REMARK  status: ('A' for Active; 'I' for Inactive)
REMARK    1  A    between atoms: C1_1  and  C6_6 
REMARK    2  A    between atoms: C1_1  and  C9_9 
REMARK    3  A    between atoms: C7_7  and  C8_8 
REMARK    4  A    between atoms: C8_8  and  N10_10 
ROOT
HETATM    1  C1  UNL     1     -33.592   6.916   3.044  1.00 20.00     0.009 C 
HETATM    2  N10 UNL     1     -32.695   6.924   2.117  1.00 20.00    -0.298 NA
ENDROOT
BRANCH   1   3
HETATM    3  C6  UNL     1     -33.927   8.092   3.947  1.00 20.00     0.050 C 
HETATM    4  C2  UNL     1     -32.986   8.136   5.138  1.00 20.00     0.011 C 
ENDBRANCH   1   3
BRANCH   1   5
HETATM    5  C9  UNL     1     -34.399   5.633   3.256  1.00 20.00     0.025 C 
HETATM    6  C4  UNL     1     -35.540   5.891   4.234  1.00 20.00     0.016 C 
HETATM    7  C5  UNL     1     -33.498   4.498   3.735  1.00 20.00     0.016 C 
ENDBRANCH   1   5
BRANCH   2   8
HETATM    8  C8  UNL     1     -31.919   8.129   1.875  1.00 20.00     0.148 C 
BRANCH   8   9
HETATM    9  C7  UNL     1     -32.187   8.642   0.465  1.00 20.00     0.017 C 
HETATM   10  C3  UNL     1     -32.539  10.123   0.439  1.00 20.00     0.007 C 
ENDBRANCH   8   9
ENDBRANCH   2   8
TORSDOF 4
ENDMDL
MODEL 4
REMARK VINA RESULT:      -1.1      1.566      4.799
REMARK  4 active torsions:
REMARK  status: ('A' for Active; 'I' for Inactive)
REMARK    1  A    between atoms: C1_1  and  C6_6 
REMARK    2  A    between atoms: C1_1  and  C9_9 
REMARK    3  A    between atoms: C7_7  and  C8_8 
REMARK    4  A    between atoms: C8_8  and  N10_10 
ROOT
HETATM    1  C1  UNL     1     -33.415   7.200   3.043  1.00 20.00     0.009 C 
HETATM    2  N10 UNL     1     -34.087   6.098   3.019  1.00 20.00    -0.298 NA
ENDROOT
BRANCH   1   3
HETATM    3  C6  UNL     1     -33.717   8.389   3.939  1.00 20.00     0.050 C 
HETATM    4  C2  UNL     1     -32.856   8.347   5.189  1.00 20.00     0.011 C 
ENDBRANCH   1   3
BRANCH   1   5
HETATM    5  C9  UNL     1     -32.208   7.328   2.110  1.00 20.00     0.025 C 
HETATM    6  C4  UNL     1     -32.341   8.584   1.256  1.00 20.00     0.016 C 
HETATM    7  C5  UNL     1     -32.055   6.079   1.246  1.00 20.00     0.016 C 
ENDBRANCH   1   5
BRANCH   2   8
HETATM    8  C8  UNL     1     -35.230   5.932   3.900  1.00 20.00     0.148 C 
BRANCH   8   9
HETATM    9  C7  UNL     1     -35.066   4.662   4.725  1.00 20.00     0.017 C 
HETATM   10  C3  UNL     1     -33.878   3.822   4.277  1.00 20.00     0.007 C 
ENDBRANCH   8   9
ENDBRANCH   2   8
TORSDOF 4
ENDMDL
MODEL 5
REMARK VINA RESULT:      -1.0      1.520      4.193
REMARK  4 active torsions:
REMARK  status: ('A' for Active; 'I' for Inactive)
REMARK    1  A    between atoms: C1_1  and  C6_6 
REMARK    2  A    between atoms: C1_1  and  C9_9 
REMARK    3  A    between atoms: C7_7  and  C8_8 
REMARK    4  A    between atoms: C8_8  and  N10_10 
ROOT
HETATM    1  C1  UNL     1     -33.103   6.884   2.360  1.00 20.00     0.009 C 
HETATM    2  N10 UNL     1     -33.890   6.956   3.380  1.00 20.00    -0.298 NA
ENDROOT
BRANCH   1   3
HETATM    3  C6  UNL     1     -33.220   5.870   1.234  1.00 20.00     0.050 C 
HETATM    4  C2  UNL     1     -31.941   5.063   1.108  1.00 20.00     0.011 C 
ENDBRANCH   1   3
BRANCH   1   5
HETATM    5  C9  UNL     1     -31.966   7.904   2.253  1.00 20.00     0.025 C 
HETATM    6  C4  UNL     1     -31.859   8.701   3.548  1.00 20.00     0.016 C 
HETATM    7  C5  UNL     1     -32.170   8.819   1.049  1.00 20.00     0.016 C 
ENDBRANCH   1   5
BRANCH   2   8
HETATM    8  C8  UNL     1     -34.990   6.016   3.509  1.00 20.00     0.148 C 
BRANCH   8   9
HETATM    9  C7  UNL     1     -34.694   5.023   4.625  1.00 20.00     0.017 C 
HETATM   10  C3  UNL     1     -33.863   3.839   4.151  1.00 20.00     0.007 C 
ENDBRANCH   8   9
ENDBRANCH   2   8
TORSDOF 4
ENDMDL
MODEL 6
REMARK VINA RESULT:      -1.0      0.840      2.753
REMARK  4 active torsions:
REMARK  status: ('A' for Active; 'I' for Inactive)
REMARK    1  A    between atoms: C1_1  and  C6_6 
REMARK    2  A    between atoms: C1_1  and  C9_9 
REMARK    3  A    between atoms: C7_7  and  C8_8 
REMARK    4  A    between atoms: C8_8  and  N10_10 
ROOT
HETATM    1  C1  UNL     1     -32.812   7.127   2.102  1.00 20.00     0.009 C 
HETATM    2  N10 UNL     1     -32.140   7.942   1.362  1.00 20.00    -0.298 NA
ENDROOT
BRANCH   1   3
HETATM    3  C6  UNL     1     -33.489   7.491   3.414  1.00 20.00     0.050 C 
HETATM    4  C2  UNL     1     -34.615   6.520   3.720  1.00 20.00     0.011 C 
ENDBRANCH   1   3
BRANCH   1   5
HETATM    5  C9  UNL     1     -32.960   5.679   1.629  1.00 20.00     0.025 C 
HETATM    6  C4  UNL     1     -31.584   5.050   1.441  1.00 20.00     0.016 C 
HETATM    7  C5  UNL     1     -33.786   5.608   0.348  1.00 20.00     0.016 C 
ENDBRANCH   1   5
BRANCH   2   8
HETATM    8  C8  UNL     1     -31.991   9.329   1.769  1.00 20.00     0.148 C 
BRANCH   8   9
HETATM    9  C7  UNL     1     -32.710  10.239   0.781  1.00 20.00     0.017 C 
HETATM   10  C3  UNL     1     -32.613   9.738  -0.653  1.00 20.00     0.007 C 
ENDBRANCH   8   9
ENDBRANCH   2   8
TORSDOF 4
ENDMDL
MODEL 7
REMARK VINA RESULT:      -0.9      1.031      4.065
REMARK  4 active torsions:
REMARK  status: ('A' for Active; 'I' for Inactive)
REMARK    1  A    between atoms: C1_1  and  C6_6 
REMARK    2  A    between atoms: C1_1  and  C9_9 
REMARK    3  A    between atoms: C7_7  and  C8_8 
REMARK    4  A    between atoms: C8_8  and  N10_10 
ROOT
HETATM    1  C1  UNL     1     -32.406   8.030   1.662  1.00 20.00     0.009 C 
HETATM    2  N10 UNL     1     -33.047   8.473   2.690  1.00 20.00    -0.298 NA
ENDROOT
BRANCH   1   3
HETATM    3  C6  UNL     1     -31.734   6.670   1.569  1.00 20.00     0.050 C 
HETATM    4  C2  UNL     1     -32.737   5.606   1.161  1.00 20.00     0.011 C 
ENDBRANCH   1   3
BRANCH   1   5
HETATM    5  C9  UNL     1     -32.318   8.928   0.426  1.00 20.00     0.025 C 
HETATM    6  C4  UNL     1     -30.910   8.872  -0.159  1.00 20.00     0.016 C 
HETATM    7  C5  UNL     1     -32.725  10.359   0.765  1.00 20.00     0.016 C 
ENDBRANCH   1   5
BRANCH   2   8
HETATM    8  C8  UNL     1     -33.167   7.643   3.877  1.00 20.00     0.148 C 
BRANCH   8   9
HETATM    9  C7  UNL     1     -34.637   7.417   4.204  1.00 20.00     0.017 C 
HETATM   10  C3  UNL     1     -35.061   5.967   4.020  1.00 20.00     0.007 C 
ENDBRANCH   8   9
ENDBRANCH   2   8
TORSDOF 4
ENDMDL
MODEL 8
REMARK VINA RESULT:      -0.8      1.740      2.901
REMARK  4 active torsions:
REMARK  status: ('A' for Active; 'I' for Inactive)
REMARK    1  A    between atoms: C1_1  and  C6_6 
REMARK    2  A    between atoms: C1_1  and  C9_9 
REMARK    3  A    between atoms: C7_7  and  C8_8 
REMARK    4  A    between atoms: C8_8  and  N10_10 
ROOT
HETATM    1  C1  UNL     1     -33.794   5.898   3.277  1.00 20.00     0.009 C 
HETATM    2  N10 UNL     1     -33.066   5.523   2.280  1.00 20.00    -0.298 NA
ENDROOT
BRANCH   1   3
HETATM    3  C6  UNL     1     -34.416   7.275   3.437  1.00 20.00     0.050 C 
HETATM    4  C2  UNL     1     -33.752   8.031   4.573  1.00 20.00     0.011 C 
ENDBRANCH   1   3
BRANCH   1   5
HETATM    5  C9  UNL     1     -34.074   4.881   4.386  1.00 20.00     0.025 C 
HETATM    6  C4  UNL     1     -33.615   3.494   3.950  1.00 20.00     0.016 C 
HETATM    7  C5  UNL     1     -35.552   4.886   4.766  1.00 20.00     0.016 C 
ENDBRANCH   1   5
BRANCH   2   8
HETATM    8  C8  UNL     1     -32.790   6.454   1.199  1.00 20.00     0.148 C 
BRANCH   8   9
HETATM    9  C7  UNL     1     -31.732   7.458   1.638  1.00 20.00     0.017 C 
HETATM   10  C3  UNL     1     -32.002   8.861   1.111  1.00 20.00     0.007 C 
ENDBRANCH   8   9
ENDBRANCH   2   8
TORSDOF 4
ENDMDL
MODEL 9
REMARK VINA RESULT:      -0.6      1.309      3.276
REMARK  4 active torsions:
REMARK  status: ('A' for Active; 'I' for Inactive)
REMARK    1  A    between atoms: C1_1  and  C6_6 
REMARK    2  A    between atoms: C1_1  and  C9_9 
REMARK    3  A    between atoms: C7_7  and  C8_8 
REMARK    4  A    between atoms: C8_8  and  N10_10 
ROOT
HETATM    1  C1  UNL     1     -33.063   7.068   2.618  1.00 20.00     0.009 C 
HETATM    2  N10 UNL     1     -33.155   5.876   2.135  1.00 20.00    -0.298 NA
ENDROOT
BRANCH   1   3
HETATM    3  C6  UNL     1     -31.983   8.077   2.260  1.00 20.00     0.050 C 
HETATM    4  C2  UNL     1     -32.408   8.910   1.064  1.00 20.00     0.011 C 
ENDBRANCH   1   3
BRANCH   1   5
HETATM    5  C9  UNL     1     -34.124   7.523   3.624  1.00 20.00     0.025 C 
HETATM    6  C4  UNL     1     -33.452   8.083   4.873  1.00 20.00     0.016 C 
HETATM    7  C5  UNL     1     -35.072   6.377   3.966  1.00 20.00     0.016 C 
ENDBRANCH   1   5
BRANCH   2   8
HETATM    8  C8  UNL     1     -32.177   5.413   1.166  1.00 20.00     0.148 C 
BRANCH   8   9
HETATM    9  C7  UNL     1     -32.841   4.474   0.167  1.00 20.00     0.017 C 
HETATM   10  C3  UNL     1     -34.190   4.991  -0.313  1.00 20.00     0.007 C 
ENDBRANCH   8   9
ENDBRANCH   2   8
TORSDOF 4
ENDMDL
