MODEL 1
REMARK VINA RESULT:      -1.7      0.000      0.000
REMARK  1 active torsions:
REMARK  status: ('A' for Active; 'I' for Inactive)
REMARK    1  A    between atoms: C4_4  and  C5_5 
ROOT
HETATM    1  C1  UNL     1     -32.410   7.924   1.809  1.00 20.00     0.127 C 
HETATM    2  C2  UNL     1     -32.540   8.063   3.335  1.00 20.00     0.084 C 
HETATM    3  C3  UNL     1     -32.909   6.470   1.839  1.00 20.00     0.084 C 
HETATM    4  C4  UNL     1     -33.312   6.713   3.321  1.00 20.00     0.013 C 
HETATM    5  O6  UNL     1     -32.059   8.674   0.924  1.00 20.00    -0.298 OA
ENDROOT
BRANCH   4   6
HETATM    6  C5  UNL     1     -34.808   6.824   3.570  1.00 20.00     0.120 C 
HETATM    7 CL7  UNL     1     -35.406   5.380   4.412  1.00 20.00    -0.130 Cl
ENDBRANCH   4   6
TORSDOF 1
ENDMDL
MODEL 2
REMARK VINA RESULT:      -1.7      3.272      3.805
REMARK  1 active torsions:
REMARK  status: ('A' for Active; 'I' for Inactive)
REMARK    1  A    between atoms: C4_4  and  C5_5 
ROOT
HETATM    1  C1  UNL     1     -34.266   4.769   3.907  1.00 20.00     0.127 C 
HETATM    2  C2  UNL     1     -35.061   6.061   4.157  1.00 20.00     0.084 C 
HETATM    3  C3  UNL     1     -33.630   5.337   2.627  1.00 20.00     0.084 C 
HETATM    4  C4  UNL     1     -34.200   6.721   3.044  1.00 20.00     0.013 C 
HETATM    5  O6  UNL     1     -34.170   3.713   4.497  1.00 20.00    -0.298 OA
ENDROOT
BRANCH   4   6
HETATM    6  C5  UNL     1     -33.164   7.720   3.538  1.00 20.00     0.120 C 
HETATM    7 CL7  UNL     1     -32.099   8.220   2.208  1.00 20.00    -0.130 Cl
ENDBRANCH   4   6
TORSDOF 1
ENDMDL
MODEL 3
REMARK VINA RESULT:      -1.3      3.158      3.853
REMARK  1 active torsions:
REMARK  status: ('A' for Active; 'I' for Inactive)
REMARK    1  A    between atoms: C4_4  and  C5_5 
ROOT
HETATM    1  C1  UNL     1     -33.297   6.814   2.814  1.00 20.00     0.127 C 
HETATM    2  C2  UNL     1     -32.341   6.446   1.667  1.00 20.00     0.084 C 
HETATM    3  C3  UNL     1     -32.714   8.233   2.925  1.00 20.00     0.084 C 
HETATM    4  C4  UNL     1     -31.968   7.953   1.590  1.00 20.00     0.013 C 
HETATM    5  O6  UNL     1     -34.177   6.219   3.398  1.00 20.00    -0.298 OA
ENDROOT
BRANCH   4   6
HETATM    6  C5  UNL     1     -32.518   8.692   0.380  1.00 20.00     0.120 C 
HETATM    7 CL7  UNL     1     -32.388  10.448   0.612  1.00 20.00    -0.130 Cl
ENDBRANCH   4   6
TORSDOF 1
ENDMDL
MODEL 4
REMARK VINA RESULT:      -1.3      2.583      3.221
REMARK  1 active torsions:
REMARK  status: ('A' for Active; 'I' for Inactive)
REMARK    1  A    between atoms: C4_4  and  C5_5 
ROOT
HETATM    1  C1  UNL     1     -34.266   6.783   3.761  1.00 20.00     0.127 C 
HETATM    2  C2  UNL     1     -33.504   5.655   3.046  1.00 20.00     0.084 C 
HETATM    3  C3  UNL     1     -35.346   5.813   4.270  1.00 20.00     0.084 C 
HETATM    4  C4  UNL     1     -34.424   4.653   3.800  1.00 20.00     0.013 C 
HETATM    5  O6  UNL     1     -34.081   7.975   3.884  1.00 20.00    -0.298 OA
ENDROOT
BRANCH   4   6
HETATM    6  C5  UNL     1     -33.748   3.877   4.920  1.00 20.00     0.120 C 
HETATM    7 CL7  UNL     1     -33.267   2.264   4.355  1.00 20.00    -0.130 Cl
ENDBRANCH   4   6
TORSDOF 1
ENDMDL
MODEL 5
REMARK VINA RESULT:      -1.3      3.198      3.796
REMARK  1 active torsions:
REMARK  status: ('A' for Active; 'I' for Inactive)
REMARK    1  A    between atoms: C4_4  and  C5_5 
ROOT
HETATM    1  C1  UNL     1     -34.548   6.550   3.721  1.00 20.00     0.127 C 
HETATM    2  C2  UNL     1     -33.450   6.069   2.757  1.00 20.00     0.084 C 
HETATM    3  C3  UNL     1     -33.751   7.811   4.096  1.00 20.00     0.084 C 
HETATM    4  C4  UNL     1     -32.796   7.471   2.917  1.00 20.00     0.013 C 
HETATM    5  O6  UNL     1     -35.629   6.110   4.050  1.00 20.00    -0.298 OA
ENDROOT
BRANCH   4   6
HETATM    6  C5  UNL     1     -32.923   8.382   1.705  1.00 20.00     0.120 C 
HETATM    7 CL7  UNL     1     -31.389   8.445   0.813  1.00 20.00    -0.130 Cl
ENDBRANCH   4   6
TORSDOF 1
ENDMDL
MODEL 6
REMARK VINA RESULT:      -1.0      1.115      1.679
REMARK  1 active torsions:
REMARK  status: ('A' for Active; 'I' for Inactive)
REMARK    1  A    between atoms: C4_4  and  C5_5 
ROOT
HETATM    1  C1  UNL     1     -32.287   7.325   2.056  1.00 20.00     0.127 C 
HETATM    2  C2  UNL     1     -32.849   6.032   1.442  1.00 20.00     0.084 C 
HETATM    3  C3  UNL     1     -33.478   7.457   3.019  1.00 20.00     0.084 C 
HETATM    4  C4  UNL     1     -33.882   6.014   2.604  1.00 20.00     0.013 C 
HETATM    5  O6  UNL     1     -31.286   7.981   1.861  1.00 20.00    -0.298 OA
ENDROOT
BRANCH   4   6
HETATM    6  C5  UNL     1     -33.640   4.950   3.664  1.00 20.00     0.120 C 
HETATM    7 CL7  UNL     1     -35.112   4.682   4.621  1.00 20.00    -0.130 Cl
ENDBRANCH   4   6
TORSDOF 1
ENDMDL
MODEL 7
REMARK VINA RESULT:      -0.9      1.700      2.212
REMARK  1 active torsions:
REMARK  status: ('A' for Active; 'I' for Inactive)
REMARK    1  A    between atoms: C4_4  and  C5_5 
ROOT
HETATM    1  C1  UNL     1     -32.371   9.358   0.473  1.00 20.00     0.127 C 
HETATM    2  C2  UNL     1     -32.809   9.156   1.933  1.00 20.00     0.084 C 
HETATM    3  C3  UNL     1     -31.384   8.181   0.542  1.00 20.00     0.084 C 
HETATM    4  C4  UNL     1     -32.038   7.805   1.901  1.00 20.00     0.013 C 
HETATM    5  O6  UNL     1     -32.689  10.139  -0.399  1.00 20.00    -0.298 OA
ENDROOT
BRANCH   4   6
HETATM    6  C5  UNL     1     -32.917   6.564   1.869  1.00 20.00     0.120 C 
HETATM    7 CL7  UNL     1     -33.932   6.485   3.324  1.00 20.00    -0.130 Cl
ENDBRANCH   4   6
TORSDOF 1
ENDMDL
MODEL 8
REMARK VINA RESULT:      -0.7      1.736      2.190
REMARK  1 active torsions:
REMARK  status: ('A' for Active; 'I' for Inactive)
REMARK    1  A    between atoms: C4_4  and  C5_5 
ROOT
HETATM    1  C1  UNL     1     -31.997   5.864   1.471  1.00 20.00     0.127 C 
HETATM    2  C2  UNL     1     -33.531   5.843   1.567  1.00 20.00     0.084 C 
HETATM    3  C3  UNL     1     -31.933   7.349   1.866  1.00 20.00     0.084 C 
HETATM    4  C4  UNL     1     -33.437   7.240   2.242  1.00 20.00     0.013 C 
HETATM    5  O6  UNL     1     -31.160   5.030   1.198  1.00 20.00    -0.298 OA
ENDROOT
BRANCH   4   6
HETATM    6  C5  UNL     1     -33.729   7.255   3.735  1.00 20.00     0.120 C 
HETATM    7 CL7  UNL     1     -35.276   6.451   4.072  1.00 20.00    -0.130 Cl
ENDBRANCH   4   6
TORSDOF 1
ENDMDL
MODEL 9
REMARK VINA RESULT:      -0.7      2.403      2.830
REMARK  1 active torsions:
REMARK  status: ('A' for Active; 'I' for Inactive)
REMARK    1  A    between atoms: C4_4  and  C5_5 
ROOT
HETATM    1  C1  UNL     1     -32.399   9.498   0.411  1.00 20.00     0.127 C 
HETATM    2  C2  UNL     1     -32.636   9.245   1.909  1.00 20.00     0.084 C 
HETATM    3  C3  UNL     1     -31.440   8.301   0.299  1.00 20.00     0.084 C 
HETATM    4  C4  UNL     1     -31.909   7.883   1.720  1.00 20.00     0.013 C 
HETATM    5  O6  UNL     1     -32.816  10.319  -0.379  1.00 20.00    -0.298 OA
ENDROOT
BRANCH   4   6
HETATM    6  C5  UNL     1     -32.813   6.660   1.765  1.00 20.00     0.120 C 
HETATM    7 CL7  UNL     1     -31.924   5.213   1.246  1.00 20.00    -0.130 Cl
ENDBRANCH   4   6
TORSDOF 1
ENDMDL
