MODEL 1
REMARK VINA RESULT:      -0.9      0.000      0.000
REMARK  2 active torsions:
REMARK  status: ('A' for Active; 'I' for Inactive)
REMARK    1  A    between atoms: C2_2  and  C4_4 
REMARK    2  A    between atoms: C4_4  and  S5_5 
ROOT
HETATM    1  C1  UNL     1     -33.036   5.837   2.911  1.00 20.00     0.051 A 
HETATM    2  C2  UNL     1     -33.205   7.080   2.080  1.00 20.00     0.036 A 
HETATM    3  C3  UNL     1     -33.881   6.976   3.429  1.00 20.00     0.118 A 
HETATM    4 CL6  UNL     1     -35.631   6.756   3.453  1.00 20.00    -0.101 Cl
HETATM    5 CL7  UNL     1     -33.278   7.891   4.804  1.00 20.00    -0.101 Cl
ENDROOT
BRANCH   2   6
HETATM    6  C4  UNL     1     -32.036   7.972   1.829  1.00 20.00     0.078 C 
BRANCH   6   7
HETATM    7  S5  UNL     1     -32.452   9.291   0.642  1.00 20.00    -0.182 SA
HETATM    8  H13 UNL     1     -31.493   8.984  -0.241  1.00 20.00     0.101 HD
ENDBRANCH   6   7
ENDBRANCH   2   6
TORSDOF 2
ENDMDL
MODEL 2
REMARK VINA RESULT:      -0.7      1.823      2.249
REMARK  2 active torsions:
REMARK  status: ('A' for Active; 'I' for Inactive)
REMARK    1  A    between atoms: C2_2  and  C4_4 
REMARK    2  A    between atoms: C4_4  and  S5_5 
ROOT
HETATM    1  C1  UNL     1     -31.248   7.747   2.227  1.00 20.00     0.051 A 
HETATM    2  C2  UNL     1     -32.179   8.242   1.154  1.00 20.00     0.036 A 
HETATM    3  C3  UNL     1     -32.644   7.183   2.127  1.00 20.00     0.118 A 
HETATM    4 CL6  UNL     1     -32.822   5.536   1.522  1.00 20.00    -0.101 Cl
HETATM    5 CL7  UNL     1     -33.789   7.580   3.402  1.00 20.00    -0.101 Cl
ENDROOT
BRANCH   2   6
HETATM    6  C4  UNL     1     -32.677   9.647   1.191  1.00 20.00     0.078 C 
BRANCH   6   7
HETATM    7  S5  UNL     1     -32.698  10.386  -0.475  1.00 20.00    -0.182 SA
HETATM    8  H13 UNL     1     -33.967  10.810  -0.418  1.00 20.00     0.101 HD
ENDBRANCH   6   7
ENDBRANCH   2   6
TORSDOF 2
ENDMDL
MODEL 3
REMARK VINA RESULT:      -0.5      1.758      2.240
REMARK  2 active torsions:
REMARK  status: ('A' for Active; 'I' for Inactive)
REMARK    1  A    between atoms: C2_2  and  C4_4 
REMARK    2  A    between atoms: C4_4  and  S5_5 
ROOT
HETATM    1  C1  UNL     1     -34.052   7.371   4.230  1.00 20.00     0.051 A 
HETATM    2  C2  UNL     1     -33.628   6.354   3.206  1.00 20.00     0.036 A 
HETATM    3  C3  UNL     1     -35.037   6.331   3.755  1.00 20.00     0.118 A 
HETATM    4 CL6  UNL     1     -35.459   5.030   4.869  1.00 20.00    -0.101 Cl
HETATM    5 CL7  UNL     1     -36.391   6.864   2.769  1.00 20.00    -0.101 Cl
ENDROOT
BRANCH   2   6
HETATM    6  C4  UNL     1     -33.312   6.788   1.814  1.00 20.00     0.078 C 
BRANCH   6   7
HETATM    7  S5  UNL     1     -31.950   7.999   1.791  1.00 20.00    -0.182 SA
HETATM    8  H13 UNL     1     -30.976   7.111   2.026  1.00 20.00     0.101 HD
ENDBRANCH   6   7
ENDBRANCH   2   6
TORSDOF 2
ENDMDL
MODEL 4
REMARK VINA RESULT:      -0.5      3.159      3.682
REMARK  2 active torsions:
REMARK  status: ('A' for Active; 'I' for Inactive)
REMARK    1  A    between atoms: C2_2  and  C4_4 
REMARK    2  A    between atoms: C4_4  and  S5_5 
ROOT
HETATM    1  C1  UNL     1     -35.150   7.027   3.143  1.00 20.00     0.051 A 
HETATM    2  C2  UNL     1     -34.263   5.833   3.369  1.00 20.00     0.036 A 
HETATM    3  C3  UNL     1     -33.712   7.229   3.552  1.00 20.00     0.118 A 
HETATM    4 CL6  UNL     1     -32.588   7.832   2.334  1.00 20.00    -0.101 Cl
HETATM    5 CL7  UNL     1     -33.393   7.861   5.162  1.00 20.00    -0.101 Cl
ENDROOT
BRANCH   2   6
HETATM    6  C4  UNL     1     -34.530   4.914   4.513  1.00 20.00     0.078 C 
BRANCH   6   7
HETATM    7  S5  UNL     1     -33.523   3.399   4.395  1.00 20.00    -0.182 SA
HETATM    8  H13 UNL     1     -33.963   3.040   3.183  1.00 20.00     0.101 HD
ENDBRANCH   6   7
ENDBRANCH   2   6
TORSDOF 2
ENDMDL
MODEL 5
REMARK VINA RESULT:      -0.4      3.143      3.921
REMARK  2 active torsions:
REMARK  status: ('A' for Active; 'I' for Inactive)
REMARK    1  A    between atoms: C2_2  and  C4_4 
REMARK    2  A    between atoms: C4_4  and  S5_5 
ROOT
HETATM    1  C1  UNL     1     -33.511   5.967   2.282  1.00 20.00     0.051 A 
HETATM    2  C2  UNL     1     -33.326   5.239   3.585  1.00 20.00     0.036 A 
HETATM    3  C3  UNL     1     -34.128   6.520   3.543  1.00 20.00     0.118 A 
HETATM    4 CL6  UNL     1     -33.402   7.964   4.248  1.00 20.00    -0.101 Cl
HETATM    5 CL7  UNL     1     -35.880   6.484   3.689  1.00 20.00    -0.101 Cl
ENDROOT
BRANCH   2   6
HETATM    6  C4  UNL     1     -33.953   3.900   3.784  1.00 20.00     0.078 C 
BRANCH   6   7
HETATM    7  S5  UNL     1     -32.992   2.887   4.956  1.00 20.00    -0.182 SA
HETATM    8  H13 UNL     1     -33.522   1.714   4.584  1.00 20.00     0.101 HD
ENDBRANCH   6   7
ENDBRANCH   2   6
TORSDOF 2
ENDMDL
MODEL 6
REMARK VINA RESULT:      -0.3      3.259      3.667
REMARK  2 active torsions:
REMARK  status: ('A' for Active; 'I' for Inactive)
REMARK    1  A    between atoms: C2_2  and  C4_4 
REMARK    2  A    between atoms: C4_4  and  S5_5 
ROOT
HETATM    1  C1  UNL     1     -31.990   8.248   3.244  1.00 20.00     0.051 A 
HETATM    2  C2  UNL     1     -33.323   7.691   2.826  1.00 20.00     0.036 A 
HETATM    3  C3  UNL     1     -32.253   7.945   1.789  1.00 20.00     0.118 A 
HETATM    4 CL6  UNL     1     -32.482   9.310   0.695  1.00 20.00    -0.101 Cl
HETATM    5 CL7  UNL     1     -31.383   6.606   1.054  1.00 20.00    -0.101 Cl
ENDROOT
BRANCH   2   6
HETATM    6  C4  UNL     1     -33.723   6.319   3.254  1.00 20.00     0.078 C 
BRANCH   6   7
HETATM    7  S5  UNL     1     -35.359   6.326   4.058  1.00 20.00    -0.182 SA
HETATM    8  H13 UNL     1     -36.028   5.837   3.006  1.00 20.00     0.101 HD
ENDBRANCH   6   7
ENDBRANCH   2   6
TORSDOF 2
ENDMDL
MODEL 7
REMARK VINA RESULT:      -0.1      1.929      2.200
REMARK  2 active torsions:
REMARK  status: ('A' for Active; 'I' for Inactive)
REMARK    1  A    between atoms: C2_2  and  C4_4 
REMARK    2  A    between atoms: C4_4  and  S5_5 
ROOT
HETATM    1  C1  UNL     1     -31.553   5.799   1.744  1.00 20.00     0.051 A 
HETATM    2  C2  UNL     1     -32.107   7.021   1.063  1.00 20.00     0.036 A 
HETATM    3  C3  UNL     1     -33.045   5.951   1.573  1.00 20.00     0.118 A 
HETATM    4 CL6  UNL     1     -33.844   4.927   0.379  1.00 20.00    -0.101 Cl
HETATM    5 CL7  UNL     1     -34.018   6.225   3.012  1.00 20.00    -0.101 Cl
ENDROOT
BRANCH   2   6
HETATM    6  C4  UNL     1     -31.977   8.357   1.714  1.00 20.00     0.078 C 
BRANCH   6   7
HETATM    7  S5  UNL     1     -32.326   9.704   0.536  1.00 20.00    -0.182 SA
HETATM    8  H13 UNL     1     -32.715  10.592   1.459  1.00 20.00     0.101 HD
ENDBRANCH   6   7
ENDBRANCH   2   6
TORSDOF 2
ENDMDL
MODEL 8
REMARK VINA RESULT:      -0.0      3.071      3.657
REMARK  2 active torsions:
REMARK  status: ('A' for Active; 'I' for Inactive)
REMARK    1  A    between atoms: C2_2  and  C4_4 
REMARK    2  A    between atoms: C4_4  and  S5_5 
ROOT
HETATM    1  C1  UNL     1     -32.895   7.278   4.017  1.00 20.00     0.051 A 
HETATM    2  C2  UNL     1     -34.259   7.485   3.416  1.00 20.00     0.036 A 
HETATM    3  C3  UNL     1     -33.060   7.286   2.517  1.00 20.00     0.118 A 
HETATM    4 CL6  UNL     1     -32.459   8.688   1.631  1.00 20.00    -0.101 Cl
HETATM    5 CL7  UNL     1     -32.831   5.771   1.653  1.00 20.00    -0.101 Cl
ENDROOT
BRANCH   2   6
HETATM    6  C4  UNL     1     -35.316   6.447   3.594  1.00 20.00     0.078 C 
BRANCH   6   7
HETATM    7  S5  UNL     1     -34.646   4.950   4.389  1.00 20.00    -0.182 SA
HETATM    8  H13 UNL     1     -34.321   4.327   3.249  1.00 20.00     0.101 HD
ENDBRANCH   6   7
ENDBRANCH   2   6
TORSDOF 2
ENDMDL
MODEL 9
REMARK VINA RESULT:       0.2      3.363      3.714
REMARK  2 active torsions:
REMARK  status: ('A' for Active; 'I' for Inactive)
REMARK    1  A    between atoms: C2_2  and  C4_4 
REMARK    2  A    between atoms: C4_4  and  S5_5 
ROOT
HETATM    1  C1  UNL     1     -33.671   6.017   0.943  1.00 20.00     0.051 A 
HETATM    2  C2  UNL     1     -33.416   5.784   2.407  1.00 20.00     0.036 A 
HETATM    3  C3  UNL     1     -32.267   6.122   1.485  1.00 20.00     0.118 A 
HETATM    4 CL6  UNL     1     -31.133   4.832   1.083  1.00 20.00    -0.101 Cl
HETATM    5 CL7  UNL     1     -31.518   7.712   1.534  1.00 20.00    -0.101 Cl
ENDROOT
BRANCH   2   6
HETATM    6  C4  UNL     1     -33.949   6.743   3.417  1.00 20.00     0.078 C 
BRANCH   6   7
HETATM    7  S5  UNL     1     -35.419   6.069   4.259  1.00 20.00    -0.182 SA
HETATM    8  H13 UNL     1     -34.763   5.618   5.335  1.00 20.00     0.101 HD
ENDBRANCH   6   7
ENDBRANCH   2   6
TORSDOF 2
ENDMDL
