MODEL 1
REMARK VINA RESULT:      -0.2      0.000      0.000
REMARK  2 active torsions:
REMARK  status: ('A' for Active; 'I' for Inactive)
REMARK    1  A    between atoms: C1_1  and  C7_7 
REMARK    2  A    between atoms: C6_6  and  N8_8 
ROOT
HETATM    1  C1  UNL     1     -33.520   6.671   2.759  1.00 20.00     0.108 C 
HETATM    2  N8  UNL     1     -32.795   7.737   2.710  1.00 20.00    -0.299 NA
ENDROOT
BRANCH   1   3
HETATM    3  C7  UNL     1     -34.619   6.487   3.787  1.00 20.00     0.063 C 
HETATM    4  C4  UNL     1     -34.541   5.068   4.348  1.00 20.00     0.038 C 
HETATM    5  C5  UNL     1     -36.014   6.781   3.241  1.00 20.00     0.038 C 
HETATM    6 CL9  UNL     1     -34.246   7.656   5.094  1.00 20.00    -0.114 Cl
ENDBRANCH   1   3
BRANCH   2   7
HETATM    7  C6  UNL     1     -31.797   7.699   1.647  1.00 20.00     0.099 C 
HETATM    8  C2  UNL     1     -31.867   6.348   0.950  1.00 20.00     0.034 C 
HETATM    9  C3  UNL     1     -32.060   8.846   0.681  1.00 20.00     0.034 C 
ENDBRANCH   2   7
TORSDOF 2
ENDMDL
MODEL 2
REMARK VINA RESULT:      -0.1      1.107      1.522
REMARK  2 active torsions:
REMARK  status: ('A' for Active; 'I' for Inactive)
REMARK    1  A    between atoms: C1_1  and  C7_7 
REMARK    2  A    between atoms: C6_6  and  N8_8 
ROOT
HETATM    1  C1  UNL     1     -33.538   6.673   2.765  1.00 20.00     0.108 C 
HETATM    2  N8  UNL     1     -32.771   7.710   2.747  1.00 20.00    -0.299 NA
ENDROOT
BRANCH   1   3
HETATM    3  C7  UNL     1     -34.600   6.472   3.830  1.00 20.00     0.063 C 
HETATM    4  C4  UNL     1     -34.360   7.467   4.964  1.00 20.00     0.038 C 
HETATM    5  C5  UNL     1     -34.658   5.043   4.362  1.00 20.00     0.038 C 
HETATM    6 CL9  UNL     1     -36.155   6.860   3.028  1.00 20.00    -0.114 Cl
ENDBRANCH   1   3
BRANCH   2   7
HETATM    7  C6  UNL     1     -31.822   7.697   1.639  1.00 20.00     0.099 C 
HETATM    8  C2  UNL     1     -31.920   6.359   0.920  1.00 20.00     0.034 C 
HETATM    9  C3  UNL     1     -32.132   8.862   0.709  1.00 20.00     0.034 C 
ENDBRANCH   2   7
TORSDOF 2
ENDMDL
MODEL 3
REMARK VINA RESULT:       0.0      1.118      1.539
REMARK  2 active torsions:
REMARK  status: ('A' for Active; 'I' for Inactive)
REMARK    1  A    between atoms: C1_1  and  C7_7 
REMARK    2  A    between atoms: C6_6  and  N8_8 
ROOT
HETATM    1  C1  UNL     1     -33.458   6.732   2.734  1.00 20.00     0.108 C 
HETATM    2  N8  UNL     1     -32.706   7.778   2.683  1.00 20.00    -0.299 NA
ENDROOT
BRANCH   1   3
HETATM    3  C7  UNL     1     -34.511   6.545   3.810  1.00 20.00     0.063 C 
HETATM    4  C4  UNL     1     -35.892   6.780   3.199  1.00 20.00     0.038 C 
HETATM    5  C5  UNL     1     -34.296   7.438   5.029  1.00 20.00     0.038 C 
HETATM    6 CL9  UNL     1     -34.377   4.829   4.312  1.00 20.00    -0.114 Cl
ENDBRANCH   1   3
BRANCH   2   7
HETATM    7  C6  UNL     1     -31.762   7.747   1.571  1.00 20.00     0.099 C 
HETATM    8  C2  UNL     1     -31.839   6.386   0.895  1.00 20.00     0.034 C 
HETATM    9  C3  UNL     1     -32.098   8.876   0.606  1.00 20.00     0.034 C 
ENDBRANCH   2   7
TORSDOF 2
ENDMDL
MODEL 4
REMARK VINA RESULT:       0.2      1.568      4.068
REMARK  2 active torsions:
REMARK  status: ('A' for Active; 'I' for Inactive)
REMARK    1  A    between atoms: C1_1  and  C7_7 
REMARK    2  A    between atoms: C6_6  and  N8_8 
ROOT
HETATM    1  C1  UNL     1     -33.289   7.284   2.583  1.00 20.00     0.108 C 
HETATM    2  N8  UNL     1     -33.286   5.997   2.675  1.00 20.00    -0.299 NA
ENDROOT
BRANCH   1   3
HETATM    3  C7  UNL     1     -32.142   8.051   1.953  1.00 20.00     0.063 C 
HETATM    4  C4  UNL     1     -32.713   9.138   1.044  1.00 20.00     0.038 C 
HETATM    5  C5  UNL     1     -31.165   7.161   1.190  1.00 20.00     0.038 C 
HETATM    6 CL9  UNL     1     -31.280   8.824   3.322  1.00 20.00    -0.114 Cl
ENDBRANCH   1   3
BRANCH   2   7
HETATM    7  C6  UNL     1     -34.485   5.470   3.319  1.00 20.00     0.099 C 
HETATM    8  C2  UNL     1     -34.100   4.274   4.177  1.00 20.00     0.034 C 
HETATM    9  C3  UNL     1     -35.128   6.574   4.146  1.00 20.00     0.034 C 
ENDBRANCH   2   7
TORSDOF 2
ENDMDL
MODEL 5
REMARK VINA RESULT:       0.2      1.938      4.186
REMARK  2 active torsions:
REMARK  status: ('A' for Active; 'I' for Inactive)
REMARK    1  A    between atoms: C1_1  and  C7_7 
REMARK    2  A    between atoms: C6_6  and  N8_8 
ROOT
HETATM    1  C1  UNL     1     -33.157   7.659   2.711  1.00 20.00     0.108 C 
HETATM    2  N8  UNL     1     -33.801   6.545   2.788  1.00 20.00    -0.299 NA
ENDROOT
BRANCH   1   3
HETATM    3  C7  UNL     1     -32.028   7.873   1.720  1.00 20.00     0.063 C 
HETATM    4  C4  UNL     1     -30.785   8.339   2.477  1.00 20.00     0.038 C 
HETATM    5  C5  UNL     1     -32.382   8.850   0.602  1.00 20.00     0.038 C 
HETATM    6 CL9  UNL     1     -31.711   6.260   1.007  1.00 20.00    -0.114 Cl
ENDBRANCH   1   3
BRANCH   2   7
HETATM    7  C6  UNL     1     -34.841   6.558   3.811  1.00 20.00     0.099 C 
HETATM    8  C2  UNL     1     -35.007   5.150   4.366  1.00 20.00     0.034 C 
HETATM    9  C3  UNL     1     -34.453   7.550   4.898  1.00 20.00     0.034 C 
ENDBRANCH   2   7
TORSDOF 2
ENDMDL
MODEL 6
REMARK VINA RESULT:       0.3      1.891      4.103
REMARK  2 active torsions:
REMARK  status: ('A' for Active; 'I' for Inactive)
REMARK    1  A    between atoms: C1_1  and  C7_7 
REMARK    2  A    between atoms: C6_6  and  N8_8 
ROOT
HETATM    1  C1  UNL     1     -33.243   7.310   2.622  1.00 20.00     0.108 C 
HETATM    2  N8  UNL     1     -33.333   6.024   2.669  1.00 20.00    -0.299 NA
ENDROOT
BRANCH   1   3
HETATM    3  C7  UNL     1     -32.075   8.015   1.960  1.00 20.00     0.063 C 
HETATM    4  C4  UNL     1     -31.321   7.013   1.086  1.00 20.00     0.038 C 
HETATM    5  C5  UNL     1     -31.132   8.688   2.954  1.00 20.00     0.038 C 
HETATM    6 CL9  UNL     1     -32.810   9.270   0.912  1.00 20.00    -0.114 Cl
ENDBRANCH   1   3
BRANCH   2   7
HETATM    7  C6  UNL     1     -34.534   5.562   3.356  1.00 20.00     0.099 C 
HETATM    8  C2  UNL     1     -34.183   4.349   4.206  1.00 20.00     0.034 C 
HETATM    9  C3  UNL     1     -35.091   6.700   4.199  1.00 20.00     0.034 C 
ENDBRANCH   2   7
TORSDOF 2
ENDMDL
MODEL 7
REMARK VINA RESULT:       0.7      0.828      1.339
REMARK  2 active torsions:
REMARK  status: ('A' for Active; 'I' for Inactive)
REMARK    1  A    between atoms: C1_1  and  C7_7 
REMARK    2  A    between atoms: C6_6  and  N8_8 
ROOT
HETATM    1  C1  UNL     1     -33.467   6.870   2.528  1.00 20.00     0.108 C 
HETATM    2  N8  UNL     1     -33.178   8.096   2.250  1.00 20.00    -0.299 NA
ENDROOT
BRANCH   1   3
HETATM    3  C7  UNL     1     -34.387   6.496   3.675  1.00 20.00     0.063 C 
HETATM    4  C4  UNL     1     -34.086   5.062   4.105  1.00 20.00     0.038 C 
HETATM    5  C5  UNL     1     -35.867   6.666   3.344  1.00 20.00     0.038 C 
HETATM    6 CL9  UNL     1     -33.956   7.612   5.010  1.00 20.00    -0.114 Cl
ENDBRANCH   1   3
BRANCH   2   7
HETATM    7  C6  UNL     1     -32.274   8.224   1.112  1.00 20.00     0.099 C 
HETATM    8  C2  UNL     1     -32.403   9.626   0.534  1.00 20.00     0.034 C 
HETATM    9  C3  UNL     1     -30.854   7.932   1.574  1.00 20.00     0.034 C 
ENDBRANCH   2   7
TORSDOF 2
ENDMDL
MODEL 8
REMARK VINA RESULT:       0.8      2.203      3.962
REMARK  2 active torsions:
REMARK  status: ('A' for Active; 'I' for Inactive)
REMARK    1  A    between atoms: C1_1  and  C7_7 
REMARK    2  A    between atoms: C6_6  and  N8_8 
ROOT
HETATM    1  C1  UNL     1     -33.393   6.227   2.543  1.00 20.00     0.108 C 
HETATM    2  N8  UNL     1     -33.608   7.443   2.914  1.00 20.00    -0.299 NA
ENDROOT
BRANCH   1   3
HETATM    3  C7  UNL     1     -32.517   5.888   1.352  1.00 20.00     0.063 C 
HETATM    4  C4  UNL     1     -33.404   5.414   0.202  1.00 20.00     0.038 C 
HETATM    5  C5  UNL     1     -31.438   4.856   1.668  1.00 20.00     0.038 C 
HETATM    6 CL9  UNL     1     -31.729   7.430   0.888  1.00 20.00    -0.114 Cl
ENDBRANCH   1   3
BRANCH   2   7
HETATM    7  C6  UNL     1     -34.482   7.538   4.078  1.00 20.00     0.099 C 
HETATM    8  C2  UNL     1     -35.161   6.193   4.297  1.00 20.00     0.034 C 
HETATM    9  C3  UNL     1     -33.655   7.955   5.285  1.00 20.00     0.034 C 
ENDBRANCH   2   7
TORSDOF 2
ENDMDL
MODEL 9
REMARK VINA RESULT:       0.9      1.399      2.057
REMARK  2 active torsions:
REMARK  status: ('A' for Active; 'I' for Inactive)
REMARK    1  A    between atoms: C1_1  and  C7_7 
REMARK    2  A    between atoms: C6_6  and  N8_8 
ROOT
HETATM    1  C1  UNL     1     -33.486   6.988   2.462  1.00 20.00     0.108 C 
HETATM    2  N8  UNL     1     -33.132   8.202   2.206  1.00 20.00    -0.299 NA
ENDROOT
BRANCH   1   3
HETATM    3  C7  UNL     1     -34.340   6.631   3.663  1.00 20.00     0.063 C 
HETATM    4  C4  UNL     1     -35.813   6.741   3.275  1.00 20.00     0.038 C 
HETATM    5  C5  UNL     1     -34.036   7.480   4.895  1.00 20.00     0.038 C 
HETATM    6 CL9  UNL     1     -33.955   4.918   4.026  1.00 20.00    -0.114 Cl
ENDBRANCH   1   3
BRANCH   2   7
HETATM    7  C6  UNL     1     -32.311   8.315   1.005  1.00 20.00     0.099 C 
HETATM    8  C2  UNL     1     -32.392   9.743   0.484  1.00 20.00     0.034 C 
HETATM    9  C3  UNL     1     -30.881   7.918   1.345  1.00 20.00     0.034 C 
ENDBRANCH   2   7
TORSDOF 2
ENDMDL
