MODEL 1
REMARK VINA RESULT:      -0.1      0.000      0.000
REMARK  1 active torsions:
REMARK  status: ('A' for Active; 'I' for Inactive)
REMARK    1  A    between atoms: C2_2  and  C5_5 
ROOT
HETATM    1  C1  UNL     1     -31.695   6.687   0.872  1.00 20.00     0.065 A 
HETATM    2  C2  UNL     1     -32.274   7.717   1.582  1.00 20.00     0.015 A 
HETATM    3  C3  UNL     1     -33.188   7.242   2.571  1.00 20.00    -0.031 A 
HETATM    4  C4  UNL     1     -33.266   5.863   2.562  1.00 20.00    -0.010 A 
HETATM    5  C6  UNL     1     -34.004   8.080   3.505  1.00 20.00     0.040 C 
HETATM    6  C7  UNL     1     -34.111   5.044   3.487  1.00 20.00     0.046 C 
HETATM    7  C8  UNL     1     -34.572   7.250   4.666  1.00 20.00     0.005 C 
HETATM    8  C9  UNL     1     -35.167   5.923   4.175  1.00 20.00     0.005 C 
HETATM    9  S11 UNL     1     -32.252   5.154   1.393  1.00 20.00    -0.105 SA
ENDROOT
BRANCH   2  10
HETATM   10  C5  UNL     1     -31.960   9.097   1.315  1.00 20.00     0.271 C 
HETATM   11  O10 UNL     1     -32.360   9.712   0.314  1.00 20.00    -0.301 OA
ENDBRANCH   2  10
TORSDOF 1
ENDMDL
MODEL 2
REMARK VINA RESULT:       0.7      2.794      4.509
REMARK  1 active torsions:
REMARK  status: ('A' for Active; 'I' for Inactive)
REMARK    1  A    between atoms: C2_2  and  C5_5 
ROOT
HETATM    1  C1  UNL     1     -34.304   7.613   4.855  1.00 20.00     0.065 A 
HETATM    2  C2  UNL     1     -34.437   6.551   3.986  1.00 20.00     0.015 A 
HETATM    3  C3  UNL     1     -33.497   6.614   2.913  1.00 20.00    -0.031 A 
HETATM    4  C4  UNL     1     -32.693   7.733   3.013  1.00 20.00    -0.010 A 
HETATM    5  C6  UNL     1     -33.371   5.640   1.783  1.00 20.00     0.040 C 
HETATM    6  C7  UNL     1     -31.590   8.086   2.066  1.00 20.00     0.046 C 
HETATM    7  C8  UNL     1     -32.036   5.801   1.039  1.00 20.00     0.005 C 
HETATM    8  C9  UNL     1     -31.716   7.278   0.764  1.00 20.00     0.005 C 
HETATM    9  S11 UNL     1     -33.055   8.683   4.379  1.00 20.00    -0.105 SA
ENDROOT
BRANCH   2  10
HETATM   10  C5  UNL     1     -35.427   5.524   4.184  1.00 20.00     0.271 C 
HETATM   11  O10 UNL     1     -35.164   4.388   4.607  1.00 20.00    -0.301 OA
ENDBRANCH   2  10
TORSDOF 1
ENDMDL
MODEL 3
REMARK VINA RESULT:       0.8      2.808      4.613
REMARK  1 active torsions:
REMARK  status: ('A' for Active; 'I' for Inactive)
REMARK    1  A    between atoms: C2_2  and  C5_5 
ROOT
HETATM    1  C1  UNL     1     -34.698   6.356   4.493  1.00 20.00     0.065 A 
HETATM    2  C2  UNL     1     -34.060   5.510   3.611  1.00 20.00     0.015 A 
HETATM    3  C3  UNL     1     -33.217   6.218   2.701  1.00 20.00    -0.031 A 
HETATM    4  C4  UNL     1     -33.258   7.579   2.933  1.00 20.00    -0.010 A 
HETATM    5  C6  UNL     1     -32.393   5.621   1.603  1.00 20.00     0.040 C 
HETATM    6  C7  UNL     1     -32.473   8.604   2.175  1.00 20.00     0.046 C 
HETATM    7  C8  UNL     1     -31.336   6.607   1.083  1.00 20.00     0.005 C 
HETATM    8  C9  UNL     1     -31.927   8.008   0.868  1.00 20.00     0.005 C 
HETATM    9  S11 UNL     1     -34.284   7.996   4.226  1.00 20.00    -0.105 SA
ENDROOT
BRANCH   2  10
HETATM   10  C5  UNL     1     -34.259   4.084   3.644  1.00 20.00     0.271 C 
HETATM   11  O10 UNL     1     -33.829   3.351   4.548  1.00 20.00    -0.301 OA
ENDBRANCH   2  10
TORSDOF 1
ENDMDL
MODEL 4
REMARK VINA RESULT:       1.0      2.097      2.891
REMARK  1 active torsions:
REMARK  status: ('A' for Active; 'I' for Inactive)
REMARK    1  A    between atoms: C2_2  and  C5_5 
ROOT
HETATM    1  C1  UNL     1     -31.610   7.037   1.008  1.00 20.00     0.065 A 
HETATM    2  C2  UNL     1     -32.350   5.943   1.401  1.00 20.00     0.015 A 
HETATM    3  C3  UNL     1     -33.219   6.245   2.493  1.00 20.00    -0.031 A 
HETATM    4  C4  UNL     1     -33.092   7.564   2.886  1.00 20.00    -0.010 A 
HETATM    5  C6  UNL     1     -34.147   5.294   3.183  1.00 20.00     0.040 C 
HETATM    6  C7  UNL     1     -33.876   8.212   3.984  1.00 20.00     0.046 C 
HETATM    7  C8  UNL     1     -35.186   6.032   4.040  1.00 20.00     0.005 C 
HETATM    8  C9  UNL     1     -34.542   7.150   4.873  1.00 20.00     0.005 C 
HETATM    9  S11 UNL     1     -31.958   8.423   1.952  1.00 20.00    -0.105 SA
ENDROOT
BRANCH   2  10
HETATM   10  C5  UNL     1     -32.222   4.663   0.752  1.00 20.00     0.271 C 
HETATM   11  O10 UNL     1     -33.024   4.238  -0.094  1.00 20.00    -0.301 OA
ENDBRANCH   2  10
TORSDOF 1
ENDMDL
MODEL 5
REMARK VINA RESULT:       2.4      2.062      3.926
REMARK  1 active torsions:
REMARK  status: ('A' for Active; 'I' for Inactive)
REMARK    1  A    between atoms: C2_2  and  C5_5 
ROOT
HETATM    1  C1  UNL     1     -33.125   5.537   2.617  1.00 20.00     0.065 A 
HETATM    2  C2  UNL     1     -33.582   6.806   2.906  1.00 20.00     0.015 A 
HETATM    3  C3  UNL     1     -32.991   7.795   2.064  1.00 20.00    -0.031 A 
HETATM    4  C4  UNL     1     -32.100   7.230   1.172  1.00 20.00    -0.010 A 
HETATM    5  C6  UNL     1     -33.241   9.270   2.113  1.00 20.00     0.040 C 
HETATM    6  C7  UNL     1     -31.328   7.982   0.134  1.00 20.00     0.046 C 
HETATM    7  C8  UNL     1     -32.743   9.975   0.842  1.00 20.00     0.005 C 
HETATM    8  C9  UNL     1     -31.344   9.489   0.436  1.00 20.00     0.005 C 
HETATM    9  S11 UNL     1     -31.987   5.539   1.338  1.00 20.00    -0.105 SA
ENDROOT
BRANCH   2  10
HETATM   10  C5  UNL     1     -34.544   7.049   3.950  1.00 20.00     0.271 C 
HETATM   11  O10 UNL     1     -35.474   6.273   4.223  1.00 20.00    -0.301 OA
ENDBRANCH   2  10
TORSDOF 1
ENDMDL
MODEL 6
REMARK VINA RESULT:       2.7      2.065      3.673
REMARK  1 active torsions:
REMARK  status: ('A' for Active; 'I' for Inactive)
REMARK    1  A    between atoms: C2_2  and  C5_5 
ROOT
HETATM    1  C1  UNL     1     -34.772   6.163   4.414  1.00 20.00     0.065 A 
HETATM    2  C2  UNL     1     -33.998   7.276   4.166  1.00 20.00     0.015 A 
HETATM    3  C3  UNL     1     -33.183   7.116   3.005  1.00 20.00    -0.031 A 
HETATM    4  C4  UNL     1     -33.372   5.877   2.424  1.00 20.00    -0.010 A 
HETATM    5  C6  UNL     1     -32.211   8.114   2.455  1.00 20.00     0.040 C 
HETATM    6  C7  UNL     1     -32.692   5.398   1.180  1.00 20.00     0.046 C 
HETATM    7  C8  UNL     1     -31.801   7.775   1.014  1.00 20.00     0.005 C 
HETATM    8  C9  UNL     1     -31.478   6.282   0.853  1.00 20.00     0.005 C 
HETATM    9  S11 UNL     1     -34.517   4.929   3.254  1.00 20.00    -0.105 SA
ENDROOT
BRANCH   2  10
HETATM   10  C5  UNL     1     -34.043   8.439   5.014  1.00 20.00     0.271 C 
HETATM   11  O10 UNL     1     -33.113   8.783   5.760  1.00 20.00    -0.301 OA
ENDBRANCH   2  10
TORSDOF 1
ENDMDL
MODEL 7
REMARK VINA RESULT:       2.8      1.679      2.551
REMARK  1 active torsions:
REMARK  status: ('A' for Active; 'I' for Inactive)
REMARK    1  A    between atoms: C2_2  and  C5_5 
ROOT
HETATM    1  C1  UNL     1     -32.950   8.847   3.080  1.00 20.00     0.065 A 
HETATM    2  C2  UNL     1     -32.484   7.977   2.118  1.00 20.00     0.015 A 
HETATM    3  C3  UNL     1     -32.923   6.638   2.345  1.00 20.00    -0.031 A 
HETATM    4  C4  UNL     1     -33.703   6.551   3.482  1.00 20.00    -0.010 A 
HETATM    5  C6  UNL     1     -32.592   5.439   1.512  1.00 20.00     0.040 C 
HETATM    6  C7  UNL     1     -34.344   5.298   3.991  1.00 20.00     0.046 C 
HETATM    7  C8  UNL     1     -33.525   4.258   1.818  1.00 20.00     0.005 C 
HETATM    8  C9  UNL     1     -33.713   4.062   3.330  1.00 20.00     0.005 C 
HETATM    9  S11 UNL     1     -33.911   8.054   4.254  1.00 20.00    -0.105 SA
ENDROOT
BRANCH   2  10
HETATM   10  C5  UNL     1     -31.651   8.421   1.030  1.00 20.00     0.271 C 
HETATM   11  O10 UNL     1     -31.952   9.354   0.269  1.00 20.00    -0.301 OA
ENDBRANCH   2  10
TORSDOF 1
ENDMDL
