MODEL 1
REMARK VINA RESULT:      -1.7      0.000      0.000
REMARK  3 active torsions:
REMARK  status: ('A' for Active; 'I' for Inactive)
REMARK    1  A    between atoms: C1_1  and  C3_3 
REMARK       I    between atoms: C1_1  and  N10_10 
REMARK    2  A    between atoms: C8_8  and  C9_9 
REMARK    3  A    between atoms: C8_8  and  N10_10 
ROOT
HETATM    1  C1  UNL     1     -32.785   6.753   2.109  1.00 20.00     0.222 C 
HETATM    2  N10 UNL     1     -32.287   8.013   1.958  1.00 20.00    -0.360 N 
HETATM    3  O11 UNL     1     -32.786   5.845   1.285  1.00 20.00    -0.273 OA
HETATM    4  H28 UNL     1     -32.355   8.656   2.722  1.00 20.00     0.162 HD
ENDROOT
BRANCH   1   5
HETATM    5  C3  UNL     1     -33.379   6.524   3.458  1.00 20.00     0.082 A 
HETATM    6  C2  UNL     1     -34.123   7.647   4.108  1.00 20.00     0.019 A 
HETATM    7  C4  UNL     1     -34.869   6.456   3.575  1.00 20.00    -0.005 A 
HETATM    8  C5  UNL     1     -35.488   5.478   4.513  1.00 20.00     0.011 C 
ENDBRANCH   1   5
BRANCH   2   9
HETATM    9  C8  UNL     1     -31.650   8.457   0.698  1.00 20.00     0.126 C 
BRANCH   9  10
HETATM   10  C9  UNL     1     -32.089   9.873   0.306  1.00 20.00    -0.005 C 
HETATM   11  C6  UNL     1     -32.834   9.903  -1.029  1.00 20.00     0.011 C 
HETATM   12  C7  UNL     1     -32.922  10.539   1.402  1.00 20.00     0.011 C 
ENDBRANCH   9  10
ENDBRANCH   2   9
TORSDOF 3
ENDMDL
MODEL 2
REMARK VINA RESULT:      -1.5      0.374      1.119
REMARK  3 active torsions:
REMARK  status: ('A' for Active; 'I' for Inactive)
REMARK    1  A    between atoms: C1_1  and  C3_3 
REMARK       I    between atoms: C1_1  and  N10_10 
REMARK    2  A    between atoms: C8_8  and  C9_9 
REMARK    3  A    between atoms: C8_8  and  N10_10 
ROOT
HETATM    1  C1  UNL     1     -32.876   6.848   2.213  1.00 20.00     0.222 C 
HETATM    2  N10 UNL     1     -32.334   8.099   2.189  1.00 20.00    -0.360 N 
HETATM    3  O11 UNL     1     -32.931   6.039   1.294  1.00 20.00    -0.273 OA
HETATM    4  H28 UNL     1     -32.359   8.654   3.021  1.00 20.00     0.162 HD
ENDROOT
BRANCH   1   5
HETATM    5  C3  UNL     1     -33.447   6.491   3.544  1.00 20.00     0.082 A 
HETATM    6  C2  UNL     1     -34.222   7.530   4.289  1.00 20.00     0.019 A 
HETATM    7  C4  UNL     1     -34.932   6.361   3.667  1.00 20.00    -0.005 A 
HETATM    8  C5  UNL     1     -35.506   5.289   4.529  1.00 20.00     0.011 C 
ENDBRANCH   1   5
BRANCH   2   9
HETATM    9  C8  UNL     1     -31.709   8.658   0.969  1.00 20.00     0.126 C 
BRANCH   9  10
HETATM   10  C9  UNL     1     -32.624   9.675   0.277  1.00 20.00    -0.005 C 
HETATM   11  C6  UNL     1     -32.664  11.016   1.010  1.00 20.00     0.011 C 
HETATM   12  C7  UNL     1     -32.251   9.875  -1.193  1.00 20.00     0.011 C 
ENDBRANCH   9  10
ENDBRANCH   2   9
TORSDOF 3
ENDMDL
MODEL 3
REMARK VINA RESULT:      -0.7      1.115      4.790
REMARK  3 active torsions:
REMARK  status: ('A' for Active; 'I' for Inactive)
REMARK    1  A    between atoms: C1_1  and  C3_3 
REMARK       I    between atoms: C1_1  and  N10_10 
REMARK    2  A    between atoms: C8_8  and  C9_9 
REMARK    3  A    between atoms: C8_8  and  N10_10 
ROOT
HETATM    1  C1  UNL     1     -32.066   7.750   1.730  1.00 20.00     0.222 C 
HETATM    2  N10 UNL     1     -32.776   8.157   2.821  1.00 20.00    -0.360 N 
HETATM    3  O11 UNL     1     -31.690   6.614   1.463  1.00 20.00    -0.273 OA
HETATM    4  H28 UNL     1     -33.017   9.124   2.909  1.00 20.00     0.162 HD
ENDROOT
BRANCH   1   5
HETATM    5  C3  UNL     1     -31.749   8.869   0.796  1.00 20.00     0.082 A 
HETATM    6  C2  UNL     1     -32.495   8.950  -0.498  1.00 20.00     0.019 A 
HETATM    7  C4  UNL     1     -32.775   9.940   0.598  1.00 20.00    -0.005 A 
HETATM    8  C5  UNL     1     -32.339  11.357   0.456  1.00 20.00     0.011 C 
ENDBRANCH   1   5
BRANCH   2   9
HETATM    9  C8  UNL     1     -33.200   7.210   3.877  1.00 20.00     0.126 C 
BRANCH   9  10
HETATM   10  C9  UNL     1     -34.218   6.192   3.352  1.00 20.00    -0.005 C 
HETATM   11  C6  UNL     1     -33.773   4.748   3.588  1.00 20.00     0.011 C 
HETATM   12  C7  UNL     1     -35.614   6.426   3.931  1.00 20.00     0.011 C 
ENDBRANCH   9  10
ENDBRANCH   2   9
TORSDOF 3
ENDMDL
MODEL 4
REMARK VINA RESULT:      -0.5      1.800      5.242
REMARK  3 active torsions:
REMARK  status: ('A' for Active; 'I' for Inactive)
REMARK    1  A    between atoms: C1_1  and  C3_3 
REMARK       I    between atoms: C1_1  and  N10_10 
REMARK    2  A    between atoms: C8_8  and  C9_9 
REMARK    3  A    between atoms: C8_8  and  N10_10 
ROOT
HETATM    1  C1  UNL     1     -32.523   6.313   1.796  1.00 20.00     0.222 C 
HETATM    2  N10 UNL     1     -33.368   5.682   2.661  1.00 20.00    -0.360 N 
HETATM    3  O11 UNL     1     -31.716   5.799   1.029  1.00 20.00    -0.273 OA
HETATM    4  H28 UNL     1     -33.978   6.233   3.231  1.00 20.00     0.162 HD
ENDROOT
BRANCH   1   5
HETATM    5  C3  UNL     1     -32.653   7.798   1.841  1.00 20.00     0.082 A 
HETATM    6  C2  UNL     1     -31.484   8.601   2.316  1.00 20.00     0.019 A 
HETATM    7  C4  UNL     1     -31.864   8.610   0.862  1.00 20.00    -0.005 A 
HETATM    8  C5  UNL     1     -32.476   9.825   0.255  1.00 20.00     0.011 C 
ENDBRANCH   1   5
BRANCH   2   9
HETATM    9  C8  UNL     1     -33.409   4.207   2.779  1.00 20.00     0.126 C 
BRANCH   9  10
HETATM   10  C9  UNL     1     -34.101   3.759   4.071  1.00 20.00    -0.005 C 
HETATM   11  C6  UNL     1     -33.118   3.177   5.087  1.00 20.00     0.011 C 
HETATM   12  C7  UNL     1     -34.923   4.884   4.702  1.00 20.00     0.011 C 
ENDBRANCH   9  10
ENDBRANCH   2   9
TORSDOF 3
ENDMDL
MODEL 5
REMARK VINA RESULT:      -0.5      1.832      5.171
REMARK  3 active torsions:
REMARK  status: ('A' for Active; 'I' for Inactive)
REMARK    1  A    between atoms: C1_1  and  C3_3 
REMARK       I    between atoms: C1_1  and  N10_10 
REMARK    2  A    between atoms: C8_8  and  C9_9 
REMARK    3  A    between atoms: C8_8  and  N10_10 
ROOT
HETATM    1  C1  UNL     1     -33.247   7.293   2.842  1.00 20.00     0.222 C 
HETATM    2  N10 UNL     1     -33.076   6.108   2.190  1.00 20.00    -0.360 N 
HETATM    3  O11 UNL     1     -34.019   7.535   3.764  1.00 20.00    -0.273 OA
HETATM    4  H28 UNL     1     -32.404   6.055   1.451  1.00 20.00     0.162 HD
ENDROOT
BRANCH   1   5
HETATM    5  C3  UNL     1     -32.359   8.373   2.323  1.00 20.00     0.082 A 
HETATM    6  C2  UNL     1     -31.242   7.996   1.403  1.00 20.00     0.019 A 
HETATM    7  C4  UNL     1     -32.444   8.725   0.871  1.00 20.00    -0.005 A 
HETATM    8  C5  UNL     1     -32.331  10.151   0.454  1.00 20.00     0.011 C 
ENDBRANCH   1   5
BRANCH   2   9
HETATM    9  C8  UNL     1     -33.854   4.900   2.543  1.00 20.00     0.126 C 
BRANCH   9  10
HETATM   10  C9  UNL     1     -33.901   4.678   4.059  1.00 20.00    -0.005 C 
HETATM   11  C6  UNL     1     -35.285   4.957   4.646  1.00 20.00     0.011 C 
HETATM   12  C7  UNL     1     -33.424   3.278   4.449  1.00 20.00     0.011 C 
ENDBRANCH   9  10
ENDBRANCH   2   9
TORSDOF 3
ENDMDL
MODEL 6
REMARK VINA RESULT:      -0.5      1.570      1.962
REMARK  3 active torsions:
REMARK  status: ('A' for Active; 'I' for Inactive)
REMARK    1  A    between atoms: C1_1  and  C3_3 
REMARK       I    between atoms: C1_1  and  N10_10 
REMARK    2  A    between atoms: C8_8  and  C9_9 
REMARK    3  A    between atoms: C8_8  and  N10_10 
ROOT
HETATM    1  C1  UNL     1     -32.967   7.770   3.608  1.00 20.00     0.222 C 
HETATM    2  N10 UNL     1     -32.819   7.572   2.267  1.00 20.00    -0.360 N 
HETATM    3  O11 UNL     1     -32.415   8.615   4.304  1.00 20.00    -0.273 OA
HETATM    4  H28 UNL     1     -33.338   6.839   1.826  1.00 20.00     0.162 HD
ENDROOT
BRANCH   1   5
HETATM    5  C3  UNL     1     -33.926   6.814   4.232  1.00 20.00     0.082 A 
HETATM    6  C2  UNL     1     -35.253   6.605   3.573  1.00 20.00     0.019 A 
HETATM    7  C4  UNL     1     -34.207   5.526   3.523  1.00 20.00    -0.005 A 
HETATM    8  C5  UNL     1     -34.382   4.276   4.314  1.00 20.00     0.011 C 
ENDBRANCH   1   5
BRANCH   2   9
HETATM    9  C8  UNL     1     -31.917   8.410   1.446  1.00 20.00     0.126 C 
BRANCH   9  10
HETATM   10  C9  UNL     1     -32.697   9.400   0.573  1.00 20.00    -0.005 C 
HETATM   11  C6  UNL     1     -32.642  10.827   1.120  1.00 20.00     0.011 C 
HETATM   12  C7  UNL     1     -32.239   9.364  -0.885  1.00 20.00     0.011 C 
ENDBRANCH   9  10
ENDBRANCH   2   9
TORSDOF 3
ENDMDL
MODEL 7
REMARK VINA RESULT:      -0.3      2.819      5.759
REMARK  3 active torsions:
REMARK  status: ('A' for Active; 'I' for Inactive)
REMARK    1  A    between atoms: C1_1  and  C3_3 
REMARK       I    between atoms: C1_1  and  N10_10 
REMARK    2  A    between atoms: C8_8  and  C9_9 
REMARK    3  A    between atoms: C8_8  and  N10_10 
ROOT
HETATM    1  C1  UNL     1     -34.566   6.290   3.740  1.00 20.00     0.222 C 
HETATM    2  N10 UNL     1     -33.733   5.211   3.715  1.00 20.00    -0.360 N 
HETATM    3  O11 UNL     1     -35.734   6.324   4.110  1.00 20.00    -0.273 OA
HETATM    4  H28 UNL     1     -32.796   5.330   3.386  1.00 20.00     0.162 HD
ENDROOT
BRANCH   1   5
HETATM    5  C3  UNL     1     -33.912   7.537   3.249  1.00 20.00     0.082 A 
HETATM    6  C2  UNL     1     -32.793   8.118   4.052  1.00 20.00     0.019 A 
HETATM    7  C4  UNL     1     -32.509   7.448   2.737  1.00 20.00    -0.005 A 
HETATM    8  C5  UNL     1     -32.106   8.260   1.555  1.00 20.00     0.011 C 
ENDBRANCH   1   5
BRANCH   2   9
HETATM    9  C8  UNL     1     -34.174   3.870   4.161  1.00 20.00     0.126 C 
BRANCH   9  10
HETATM   10  C9  UNL     1     -32.997   3.016   4.647  1.00 20.00    -0.005 C 
HETATM   11  C6  UNL     1     -32.555   3.385   6.063  1.00 20.00     0.011 C 
HETATM   12  C7  UNL     1     -33.294   1.520   4.548  1.00 20.00     0.011 C 
ENDBRANCH   9  10
ENDBRANCH   2   9
TORSDOF 3
ENDMDL
MODEL 8
REMARK VINA RESULT:      -0.2      2.361      3.148
REMARK  3 active torsions:
REMARK  status: ('A' for Active; 'I' for Inactive)
REMARK    1  A    between atoms: C1_1  and  C3_3 
REMARK       I    between atoms: C1_1  and  N10_10 
REMARK    2  A    between atoms: C8_8  and  C9_9 
REMARK    3  A    between atoms: C8_8  and  N10_10 
ROOT
HETATM    1  C1  UNL     1     -34.531   5.958   3.874  1.00 20.00     0.222 C 
HETATM    2  N10 UNL     1     -33.378   6.437   3.324  1.00 20.00    -0.360 N 
HETATM    3  O11 UNL     1     -35.564   6.577   4.102  1.00 20.00    -0.273 OA
HETATM    4  H28 UNL     1     -32.607   5.813   3.195  1.00 20.00     0.162 HD
ENDROOT
BRANCH   1   5
HETATM    5  C3  UNL     1     -34.452   4.507   4.209  1.00 20.00     0.082 A 
HETATM    6  C2  UNL     1     -33.866   3.573   3.198  1.00 20.00     0.019 A 
HETATM    7  C4  UNL     1     -33.102   3.907   4.449  1.00 20.00    -0.005 A 
HETATM    8  C5  UNL     1     -32.934   2.883   5.519  1.00 20.00     0.011 C 
ENDBRANCH   1   5
BRANCH   2   9
HETATM    9  C8  UNL     1     -33.236   7.852   2.913  1.00 20.00     0.126 C 
BRANCH   9  10
HETATM   10  C9  UNL     1     -32.091   8.041   1.912  1.00 20.00    -0.005 C 
HETATM   11  C6  UNL     1     -31.711   6.737   1.209  1.00 20.00     0.011 C 
HETATM   12  C7  UNL     1     -32.398   9.134   0.888  1.00 20.00     0.011 C 
ENDBRANCH   9  10
ENDBRANCH   2   9
TORSDOF 3
ENDMDL
MODEL 9
REMARK VINA RESULT:      -0.1      1.863      2.564
REMARK  3 active torsions:
REMARK  status: ('A' for Active; 'I' for Inactive)
REMARK    1  A    between atoms: C1_1  and  C3_3 
REMARK       I    between atoms: C1_1  and  N10_10 
REMARK    2  A    between atoms: C8_8  and  C9_9 
REMARK    3  A    between atoms: C8_8  and  N10_10 
ROOT
HETATM    1  C1  UNL     1     -33.851   6.587   3.317  1.00 20.00     0.222 C 
HETATM    2  N10 UNL     1     -33.107   6.201   2.241  1.00 20.00    -0.360 N 
HETATM    3  O11 UNL     1     -34.416   7.661   3.490  1.00 20.00    -0.273 OA
HETATM    4  H28 UNL     1     -32.703   5.286   2.235  1.00 20.00     0.162 HD
ENDROOT
BRANCH   1   5
HETATM    5  C3  UNL     1     -33.947   5.528   4.363  1.00 20.00     0.082 A 
HETATM    6  C2  UNL     1     -35.240   4.790   4.513  1.00 20.00     0.019 A 
HETATM    7  C4  UNL     1     -34.042   4.101   3.922  1.00 20.00    -0.005 A 
HETATM    8  C5  UNL     1     -33.328   3.045   4.695  1.00 20.00     0.011 C 
ENDBRANCH   1   5
BRANCH   2   9
HETATM    9  C8  UNL     1     -32.883   7.096   1.084  1.00 20.00     0.126 C 
BRANCH   9  10
HETATM   10  C9  UNL     1     -32.377   8.475   1.521  1.00 20.00    -0.005 C 
HETATM   11  C6  UNL     1     -31.049   8.396   2.275  1.00 20.00     0.011 C 
HETATM   12  C7  UNL     1     -32.271   9.447   0.345  1.00 20.00     0.011 C 
ENDBRANCH   9  10
ENDBRANCH   2   9
TORSDOF 3
ENDMDL
