MODEL 1
REMARK VINA RESULT:      -1.2      0.000      0.000
REMARK  3 active torsions:
REMARK  status: ('A' for Active; 'I' for Inactive)
REMARK    1  A    between atoms: C1_1  and  C3_3 
REMARK       I    between atoms: C1_1  and  N10_10 
REMARK    2  A    between atoms: C8_8  and  C9_9 
REMARK    3  A    between atoms: C8_8  and  N10_10 
ROOT
HETATM    1  C1  UNL     1     -32.127   7.783   1.566  1.00 20.00     0.222 C 
HETATM    2  N10 UNL     1     -33.009   6.748   1.642  1.00 20.00    -0.360 N 
HETATM    3  O11 UNL     1     -31.488   8.292   2.480  1.00 20.00    -0.273 OA
HETATM    4  H28 UNL     1     -33.462   6.433   0.808  1.00 20.00     0.162 HD
ENDROOT
BRANCH   1   5
HETATM    5  C3  UNL     1     -31.968   8.308   0.177  1.00 20.00     0.082 A 
HETATM    6  C2  UNL     1     -30.905   9.326  -0.085  1.00 20.00     0.019 A 
HETATM    7  C4  UNL     1     -32.354   9.718  -0.142  1.00 20.00    -0.005 A 
HETATM    8  C5  UNL     1     -32.912  10.657   0.872  1.00 20.00     0.011 C 
ENDBRANCH   1   5
BRANCH   2   9
HETATM    9  C8  UNL     1     -33.316   6.074   2.924  1.00 20.00     0.126 C 
BRANCH   9  10
HETATM   10  C9  UNL     1     -34.490   6.741   3.651  1.00 20.00    -0.005 C 
HETATM   11  C6  UNL     1     -35.417   5.721   4.313  1.00 20.00     0.011 C 
HETATM   12  C7  UNL     1     -34.019   7.781   4.668  1.00 20.00     0.011 C 
ENDBRANCH   9  10
ENDBRANCH   2   9
TORSDOF 3
ENDMDL
MODEL 2
REMARK VINA RESULT:      -0.8      1.377      4.940
REMARK  3 active torsions:
REMARK  status: ('A' for Active; 'I' for Inactive)
REMARK    1  A    between atoms: C1_1  and  C3_3 
REMARK       I    between atoms: C1_1  and  N10_10 
REMARK    2  A    between atoms: C8_8  and  C9_9 
REMARK    3  A    between atoms: C8_8  and  N10_10 
ROOT
HETATM    1  C1  UNL     1     -33.446   6.724   2.255  1.00 20.00     0.222 C 
HETATM    2  N10 UNL     1     -32.883   7.964   2.290  1.00 20.00    -0.360 N 
HETATM    3  O11 UNL     1     -33.058   5.742   1.632  1.00 20.00    -0.273 OA
HETATM    4  H28 UNL     1     -33.310   8.676   2.846  1.00 20.00     0.162 HD
ENDROOT
BRANCH   1   5
HETATM    5  C3  UNL     1     -34.674   6.623   3.098  1.00 20.00     0.082 A 
HETATM    6  C2  UNL     1     -34.542   6.805   4.576  1.00 20.00     0.019 A 
HETATM    7  C4  UNL     1     -34.864   5.451   4.010  1.00 20.00    -0.005 A 
HETATM    8  C5  UNL     1     -33.876   4.341   4.124  1.00 20.00     0.011 C 
ENDBRANCH   1   5
BRANCH   2   9
HETATM    9  C8  UNL     1     -31.655   8.288   1.529  1.00 20.00     0.126 C 
BRANCH   9  10
HETATM   10  C9  UNL     1     -31.881   9.442   0.546  1.00 20.00    -0.005 C 
HETATM   11  C6  UNL     1     -32.453   8.964  -0.790  1.00 20.00     0.011 C 
HETATM   12  C7  UNL     1     -32.760  10.542   1.144  1.00 20.00     0.011 C 
ENDBRANCH   9  10
ENDBRANCH   2   9
TORSDOF 3
ENDMDL
MODEL 3
REMARK VINA RESULT:      -0.6      1.315      4.679
REMARK  3 active torsions:
REMARK  status: ('A' for Active; 'I' for Inactive)
REMARK    1  A    between atoms: C1_1  and  C3_3 
REMARK       I    between atoms: C1_1  and  N10_10 
REMARK    2  A    between atoms: C8_8  and  C9_9 
REMARK    3  A    between atoms: C8_8  and  N10_10 
ROOT
HETATM    1  C1  UNL     1     -33.122   6.419   2.257  1.00 20.00     0.222 C 
HETATM    2  N10 UNL     1     -32.808   7.741   2.353  1.00 20.00    -0.360 N 
HETATM    3  O11 UNL     1     -32.712   5.609   1.434  1.00 20.00    -0.273 OA
HETATM    4  H28 UNL     1     -33.220   8.287   3.082  1.00 20.00     0.162 HD
ENDROOT
BRANCH   1   5
HETATM    5  C3  UNL     1     -34.081   5.974   3.312  1.00 20.00     0.082 A 
HETATM    6  C2  UNL     1     -35.393   6.681   3.429  1.00 20.00     0.019 A 
HETATM    7  C4  UNL     1     -34.351   6.846   4.498  1.00 20.00    -0.005 A 
HETATM    8  C5  UNL     1     -33.693   8.169   4.700  1.00 20.00     0.011 C 
ENDBRANCH   1   5
BRANCH   2   9
HETATM    9  C8  UNL     1     -31.872   8.393   1.410  1.00 20.00     0.126 C 
BRANCH   9  10
HETATM   10  C9  UNL     1     -32.598   9.350   0.457  1.00 20.00    -0.005 C 
HETATM   11  C6  UNL     1     -32.740  10.756   1.043  1.00 20.00     0.011 C 
HETATM   12  C7  UNL     1     -31.933   9.405  -0.919  1.00 20.00     0.011 C 
ENDBRANCH   9  10
ENDBRANCH   2   9
TORSDOF 3
ENDMDL
MODEL 4
REMARK VINA RESULT:      -0.4      1.278      5.180
REMARK  3 active torsions:
REMARK  status: ('A' for Active; 'I' for Inactive)
REMARK    1  A    between atoms: C1_1  and  C3_3 
REMARK       I    between atoms: C1_1  and  N10_10 
REMARK    2  A    between atoms: C8_8  and  C9_9 
REMARK    3  A    between atoms: C8_8  and  N10_10 
ROOT
HETATM    1  C1  UNL     1     -33.806   7.156   3.440  1.00 20.00     0.222 C 
HETATM    2  N10 UNL     1     -33.218   7.194   2.212  1.00 20.00    -0.360 N 
HETATM    3  O11 UNL     1     -33.495   7.793   4.440  1.00 20.00    -0.273 OA
HETATM    4  H28 UNL     1     -33.579   6.615   1.482  1.00 20.00     0.162 HD
ENDROOT
BRANCH   1   5
HETATM    5  C3  UNL     1     -34.956   6.206   3.501  1.00 20.00     0.082 A 
HETATM    6  C2  UNL     1     -35.378   5.680   4.836  1.00 20.00     0.019 A 
HETATM    7  C4  UNL     1     -34.725   4.766   3.839  1.00 20.00    -0.005 A 
HETATM    8  C5  UNL     1     -33.372   4.205   4.118  1.00 20.00     0.011 C 
ENDBRANCH   1   5
BRANCH   2   9
HETATM    9  C8  UNL     1     -32.059   8.071   1.926  1.00 20.00     0.126 C 
BRANCH   9  10
HETATM   10  C9  UNL     1     -32.264   8.886   0.644  1.00 20.00    -0.005 C 
HETATM   11  C6  UNL     1     -32.706  10.322   0.933  1.00 20.00     0.011 C 
HETATM   12  C7  UNL     1     -31.023   8.874  -0.249  1.00 20.00     0.011 C 
ENDBRANCH   9  10
ENDBRANCH   2   9
TORSDOF 3
ENDMDL
MODEL 5
REMARK VINA RESULT:      -0.2      1.230      1.821
REMARK  3 active torsions:
REMARK  status: ('A' for Active; 'I' for Inactive)
REMARK    1  A    between atoms: C1_1  and  C3_3 
REMARK       I    between atoms: C1_1  and  N10_10 
REMARK    2  A    between atoms: C8_8  and  C9_9 
REMARK    3  A    between atoms: C8_8  and  N10_10 
ROOT
HETATM    1  C1  UNL     1     -32.034   7.938   1.708  1.00 20.00     0.222 C 
HETATM    2  N10 UNL     1     -33.152   7.454   2.318  1.00 20.00    -0.360 N 
HETATM    3  O11 UNL     1     -31.101   7.297   1.237  1.00 20.00    -0.273 OA
HETATM    4  H28 UNL     1     -33.837   8.099   2.657  1.00 20.00     0.162 HD
ENDROOT
BRANCH   1   5
HETATM    5  C3  UNL     1     -32.011   9.429   1.638  1.00 20.00     0.082 A 
HETATM    6  C2  UNL     1     -33.306  10.154   1.453  1.00 20.00     0.019 A 
HETATM    7  C4  UNL     1     -32.294  10.125   0.343  1.00 20.00    -0.005 A 
HETATM    8  C5  UNL     1     -32.597   9.396  -0.921  1.00 20.00     0.011 C 
ENDBRANCH   1   5
BRANCH   2   9
HETATM    9  C8  UNL     1     -33.382   6.002   2.494  1.00 20.00     0.126 C 
BRANCH   9  10
HETATM   10  C9  UNL     1     -34.050   5.690   3.838  1.00 20.00    -0.005 C 
HETATM   11  C6  UNL     1     -35.443   6.312   3.953  1.00 20.00     0.011 C 
HETATM   12  C7  UNL     1     -34.107   4.187   4.115  1.00 20.00     0.011 C 
ENDBRANCH   9  10
ENDBRANCH   2   9
TORSDOF 3
ENDMDL
MODEL 6
REMARK VINA RESULT:      -0.0      2.739      3.628
REMARK  3 active torsions:
REMARK  status: ('A' for Active; 'I' for Inactive)
REMARK    1  A    between atoms: C1_1  and  C3_3 
REMARK       I    between atoms: C1_1  and  N10_10 
REMARK    2  A    between atoms: C8_8  and  C9_9 
REMARK    3  A    between atoms: C8_8  and  N10_10 
ROOT
HETATM    1  C1  UNL     1     -33.894   6.205   3.082  1.00 20.00     0.222 C 
HETATM    2  N10 UNL     1     -33.600   4.881   3.215  1.00 20.00    -0.360 N 
HETATM    3  O11 UNL     1     -34.507   6.919   3.868  1.00 20.00    -0.273 OA
HETATM    4  H28 UNL     1     -33.088   4.422   2.490  1.00 20.00     0.162 HD
ENDROOT
BRANCH   1   5
HETATM    5  C3  UNL     1     -33.375   6.788   1.810  1.00 20.00     0.082 A 
HETATM    6  C2  UNL     1     -31.984   6.444   1.382  1.00 20.00     0.019 A 
HETATM    7  C4  UNL     1     -32.308   7.837   1.843  1.00 20.00    -0.005 A 
HETATM    8  C5  UNL     1     -31.720   8.357   3.111  1.00 20.00     0.011 C 
ENDBRANCH   1   5
BRANCH   2   9
HETATM    9  C8  UNL     1     -34.017   4.102   4.404  1.00 20.00     0.126 C 
BRANCH   9  10
HETATM   10  C9  UNL     1     -32.942   3.097   4.831  1.00 20.00    -0.005 C 
HETATM   11  C6  UNL     1     -32.531   3.273   6.294  1.00 20.00     0.011 C 
HETATM   12  C7  UNL     1     -33.366   1.652   4.561  1.00 20.00     0.011 C 
ENDBRANCH   9  10
ENDBRANCH   2   9
TORSDOF 3
ENDMDL
MODEL 7
REMARK VINA RESULT:      -0.0      0.947      1.389
REMARK  3 active torsions:
REMARK  status: ('A' for Active; 'I' for Inactive)
REMARK    1  A    between atoms: C1_1  and  C3_3 
REMARK       I    between atoms: C1_1  and  N10_10 
REMARK    2  A    between atoms: C8_8  and  C9_9 
REMARK    3  A    between atoms: C8_8  and  N10_10 
ROOT
HETATM    1  C1  UNL     1     -31.992   8.025   1.680  1.00 20.00     0.222 C 
HETATM    2  N10 UNL     1     -33.232   7.790   2.194  1.00 20.00    -0.360 N 
HETATM    3  O11 UNL     1     -31.104   7.209   1.463  1.00 20.00    -0.273 OA
HETATM    4  H28 UNL     1     -33.860   8.558   2.318  1.00 20.00     0.162 HD
ENDROOT
BRANCH   1   5
HETATM    5  C3  UNL     1     -31.760   9.466   1.366  1.00 20.00     0.082 A 
HETATM    6  C2  UNL     1     -32.946  10.361   1.201  1.00 20.00     0.019 A 
HETATM    7  C4  UNL     1     -32.100  10.004   0.012  1.00 20.00    -0.005 A 
HETATM    8  C5  UNL     1     -32.666   9.160  -1.079  1.00 20.00     0.011 C 
ENDBRANCH   1   5
BRANCH   2   9
HETATM    9  C8  UNL     1     -33.677   6.430   2.574  1.00 20.00     0.126 C 
BRANCH   9  10
HETATM   10  C9  UNL     1     -34.693   6.463   3.722  1.00 20.00    -0.005 C 
HETATM   11  C6  UNL     1     -34.886   5.089   4.365  1.00 20.00     0.011 C 
HETATM   12  C7  UNL     1     -34.331   7.507   4.779  1.00 20.00     0.011 C 
ENDBRANCH   9  10
ENDBRANCH   2   9
TORSDOF 3
ENDMDL
MODEL 8
REMARK VINA RESULT:       0.5      3.136      5.777
REMARK  3 active torsions:
REMARK  status: ('A' for Active; 'I' for Inactive)
REMARK    1  A    between atoms: C1_1  and  C3_3 
REMARK       I    between atoms: C1_1  and  N10_10 
REMARK    2  A    between atoms: C8_8  and  C9_9 
REMARK    3  A    between atoms: C8_8  and  N10_10 
ROOT
HETATM    1  C1  UNL     1     -34.206   4.437   4.133  1.00 20.00     0.222 C 
HETATM    2  N10 UNL     1     -33.806   5.558   3.471  1.00 20.00    -0.360 N 
HETATM    3  O11 UNL     1     -35.206   4.293   4.827  1.00 20.00    -0.273 OA
HETATM    4  H28 UNL     1     -32.961   5.533   2.938  1.00 20.00     0.162 HD
ENDROOT
BRANCH   1   5
HETATM    5  C3  UNL     1     -33.269   3.290   3.945  1.00 20.00     0.082 A 
HETATM    6  C2  UNL     1     -33.564   2.005   4.651  1.00 20.00     0.019 A 
HETATM    7  C4  UNL     1     -32.391   2.844   5.072  1.00 20.00    -0.005 A 
HETATM    8  C5  UNL     1     -32.389   3.503   6.409  1.00 20.00     0.011 C 
ENDBRANCH   1   5
BRANCH   2   9
HETATM    9  C8  UNL     1     -34.588   6.815   3.517  1.00 20.00     0.126 C 
BRANCH   9  10
HETATM   10  C9  UNL     1     -33.680   8.047   3.609  1.00 20.00    -0.005 C 
HETATM   11  C6  UNL     1     -33.138   8.264   5.023  1.00 20.00     0.011 C 
HETATM   12  C7  UNL     1     -32.536   7.996   2.596  1.00 20.00     0.011 C 
ENDBRANCH   9  10
ENDBRANCH   2   9
TORSDOF 3
ENDMDL
MODEL 9
REMARK VINA RESULT:       0.6      1.557      2.124
REMARK  3 active torsions:
REMARK  status: ('A' for Active; 'I' for Inactive)
REMARK    1  A    between atoms: C1_1  and  C3_3 
REMARK       I    between atoms: C1_1  and  N10_10 
REMARK    2  A    between atoms: C8_8  and  C9_9 
REMARK    3  A    between atoms: C8_8  and  N10_10 
ROOT
HETATM    1  C1  UNL     1     -32.736   6.708   1.801  1.00 20.00     0.222 C 
HETATM    2  N10 UNL     1     -33.399   7.015   2.951  1.00 20.00    -0.360 N 
HETATM    3  O11 UNL     1     -33.063   5.899   0.940  1.00 20.00    -0.273 OA
HETATM    4  H28 UNL     1     -33.013   7.701   3.566  1.00 20.00     0.162 HD
ENDROOT
BRANCH   1   5
HETATM    5  C3  UNL     1     -31.474   7.488   1.636  1.00 20.00     0.082 A 
HETATM    6  C2  UNL     1     -31.287   8.725   2.455  1.00 20.00     0.019 A 
HETATM    7  C4  UNL     1     -31.501   8.829   0.971  1.00 20.00    -0.005 A 
HETATM    8  C5  UNL     1     -32.749   9.447   0.441  1.00 20.00     0.011 C 
ENDBRANCH   1   5
BRANCH   2   9
HETATM    9  C8  UNL     1     -34.677   6.362   3.316  1.00 20.00     0.126 C 
BRANCH   9  10
HETATM   10  C9  UNL     1     -34.478   5.270   4.374  1.00 20.00    -0.005 C 
HETATM   11  C6  UNL     1     -35.784   4.899   5.078  1.00 20.00     0.011 C 
HETATM   12  C7  UNL     1     -33.805   4.025   3.794  1.00 20.00     0.011 C 
ENDBRANCH   9  10
ENDBRANCH   2   9
TORSDOF 3
ENDMDL
