MODEL 1
REMARK VINA RESULT:      -0.2      0.000      0.000
REMARK  0 active torsions:
REMARK  status: ('A' for Active; 'I' for Inactive)
ROOT
HETATM    1  C1  UNL     1     -35.015   5.005   4.390  1.00 20.00     0.137 A 
HETATM    2  C2  UNL     1     -35.001   6.391   4.341  1.00 20.00     0.118 A 
HETATM    3  C3  UNL     1     -33.549   5.493   2.967  1.00 20.00     0.177 A 
HETATM    4  C4  UNL     1     -33.496   7.806   2.854  1.00 20.00     0.112 A 
HETATM    5  C5  UNL     1     -32.547   7.500   1.949  1.00 20.00    -0.002 A 
HETATM    6  C6  UNL     1     -31.747   8.471   1.155  1.00 20.00     0.058 C 
HETATM    7  N7  UNL     1     -34.096   4.446   3.520  1.00 20.00    -0.235 NA
HETATM    8  N8  UNL     1     -34.047   6.678   3.414  1.00 20.00    -0.309 N 
HETATM    9  S9  UNL     1     -32.314   5.742   1.772  1.00 20.00    -0.055 SA
ENDROOT
TORSDOF 0
ENDMDL
MODEL 2
REMARK VINA RESULT:       0.1      1.726      3.959
REMARK  0 active torsions:
REMARK  status: ('A' for Active; 'I' for Inactive)
ROOT
HETATM    1  C1  UNL     1     -31.597   7.733   1.305  1.00 20.00     0.137 A 
HETATM    2  C2  UNL     1     -32.050   6.423   1.254  1.00 20.00     0.118 A 
HETATM    3  C3  UNL     1     -33.012   7.576   2.851  1.00 20.00     0.177 A 
HETATM    4  C4  UNL     1     -33.795   5.396   2.798  1.00 20.00     0.112 A 
HETATM    5  C5  UNL     1     -34.512   5.884   3.827  1.00 20.00    -0.002 A 
HETATM    6  C6  UNL     1     -35.507   5.131   4.638  1.00 20.00     0.058 C 
HETATM    7  N7  UNL     1     -32.209   8.453   2.315  1.00 20.00    -0.235 NA
HETATM    8  N8  UNL     1     -32.963   6.351   2.262  1.00 20.00    -0.309 N 
HETATM    9  S9  UNL     1     -34.151   7.598   4.161  1.00 20.00    -0.055 SA
ENDROOT
TORSDOF 0
ENDMDL
MODEL 3
REMARK VINA RESULT:       0.6      1.544      3.605
REMARK  0 active torsions:
REMARK  status: ('A' for Active; 'I' for Inactive)
ROOT
HETATM    1  C1  UNL     1     -31.566   8.317   1.425  1.00 20.00     0.137 A 
HETATM    2  C2  UNL     1     -32.372   8.774   2.457  1.00 20.00     0.118 A 
HETATM    3  C3  UNL     1     -32.686   6.646   2.032  1.00 20.00     0.177 A 
HETATM    4  C4  UNL     1     -34.048   7.370   3.760  1.00 20.00     0.112 A 
HETATM    5  C5  UNL     1     -34.415   6.077   3.691  1.00 20.00    -0.002 A 
HETATM    6  C6  UNL     1     -35.433   5.405   4.544  1.00 20.00     0.058 C 
HETATM    7  N7  UNL     1     -31.770   6.975   1.163  1.00 20.00    -0.235 NA
HETATM    8  N8  UNL     1     -33.083   7.675   2.830  1.00 20.00    -0.309 N 
HETATM    9  S9  UNL     1     -33.536   5.184   2.422  1.00 20.00    -0.055 SA
ENDROOT
TORSDOF 0
ENDMDL
MODEL 4
REMARK VINA RESULT:       0.7      1.449      1.788
REMARK  0 active torsions:
REMARK  status: ('A' for Active; 'I' for Inactive)
ROOT
HETATM    1  C1  UNL     1     -35.060   4.843   4.421  1.00 20.00     0.137 A 
HETATM    2  C2  UNL     1     -34.077   4.485   3.512  1.00 20.00     0.118 A 
HETATM    3  C3  UNL     1     -34.324   6.658   3.661  1.00 20.00     0.177 A 
HETATM    4  C4  UNL     1     -32.673   6.101   2.134  1.00 20.00     0.112 A 
HETATM    5  C5  UNL     1     -32.636   7.444   2.048  1.00 20.00    -0.002 A 
HETATM    6  C6  UNL     1     -31.737   8.243   1.172  1.00 20.00     0.058 C 
HETATM    7  N7  UNL     1     -35.210   6.215   4.509  1.00 20.00    -0.235 NA
HETATM    8  N8  UNL     1     -33.618   5.676   3.037  1.00 20.00    -0.309 N 
HETATM    9  S9  UNL     1     -33.819   8.230   3.126  1.00 20.00    -0.055 SA
ENDROOT
TORSDOF 0
ENDMDL
MODEL 5
REMARK VINA RESULT:       1.0      1.604      2.440
REMARK  0 active torsions:
REMARK  status: ('A' for Active; 'I' for Inactive)
ROOT
HETATM    1  C1  UNL     1     -34.615   7.581   4.452  1.00 20.00     0.137 A 
HETATM    2  C2  UNL     1     -34.769   6.284   3.987  1.00 20.00     0.118 A 
HETATM    3  C3  UNL     1     -33.144   7.347   2.970  1.00 20.00     0.177 A 
HETATM    4  C4  UNL     1     -33.369   5.186   2.167  1.00 20.00     0.112 A 
HETATM    5  C5  UNL     1     -32.341   5.617   1.411  1.00 20.00    -0.002 A 
HETATM    6  C6  UNL     1     -31.625   4.829   0.372  1.00 20.00     0.058 C 
HETATM    7  N7  UNL     1     -33.588   8.245   3.805  1.00 20.00    -0.235 NA
HETATM    8  N8  UNL     1     -33.806   6.160   3.033  1.00 20.00    -0.309 N 
HETATM    9  S9  UNL     1     -31.886   7.302   1.775  1.00 20.00    -0.055 SA
ENDROOT
TORSDOF 0
ENDMDL
MODEL 6
REMARK VINA RESULT:       2.4      1.681      2.426
REMARK  0 active torsions:
REMARK  status: ('A' for Active; 'I' for Inactive)
ROOT
HETATM    1  C1  UNL     1     -34.230   8.012   4.305  1.00 20.00     0.137 A 
HETATM    2  C2  UNL     1     -33.226   8.337   3.405  1.00 20.00     0.118 A 
HETATM    3  C3  UNL     1     -33.834   6.236   3.256  1.00 20.00     0.177 A 
HETATM    4  C4  UNL     1     -32.159   6.738   1.737  1.00 20.00     0.112 A 
HETATM    5  C5  UNL     1     -32.353   5.435   1.458  1.00 20.00    -0.002 A 
HETATM    6  C6  UNL     1     -31.626   4.639   0.432  1.00 20.00     0.058 C 
HETATM    7  N7  UNL     1     -34.608   6.686   4.205  1.00 20.00    -0.235 NA
HETATM    8  N8  UNL     1     -32.992   7.172   2.740  1.00 20.00    -0.309 N 
HETATM    9  S9  UNL     1     -33.618   4.700   2.476  1.00 20.00    -0.055 SA
ENDROOT
TORSDOF 0
ENDMDL
MODEL 7
REMARK VINA RESULT:       2.6      1.975      3.210
REMARK  0 active torsions:
REMARK  status: ('A' for Active; 'I' for Inactive)
ROOT
HETATM    1  C1  UNL     1     -32.122   5.772   0.690  1.00 20.00     0.137 A 
HETATM    2  C2  UNL     1     -31.708   6.978   1.234  1.00 20.00     0.118 A 
HETATM    3  C3  UNL     1     -33.342   6.065   2.375  1.00 20.00     0.177 A 
HETATM    4  C4  UNL     1     -32.680   8.077   3.314  1.00 20.00     0.112 A 
HETATM    5  C5  UNL     1     -33.661   7.726   4.167  1.00 20.00    -0.002 A 
HETATM    6  C6  UNL     1     -34.111   8.500   5.355  1.00 20.00     0.058 C 
HETATM    7  N7  UNL     1     -33.152   5.202   1.416  1.00 20.00    -0.235 NA
HETATM    8  N8  UNL     1     -32.512   7.142   2.320  1.00 20.00    -0.309 N 
HETATM    9  S9  UNL     1     -34.420   6.172   3.732  1.00 20.00    -0.055 SA
ENDROOT
TORSDOF 0
ENDMDL
MODEL 8
REMARK VINA RESULT:       2.8      1.609      3.495
REMARK  0 active torsions:
REMARK  status: ('A' for Active; 'I' for Inactive)
ROOT
HETATM    1  C1  UNL     1     -34.294   7.775   3.143  1.00 20.00     0.137 A 
HETATM    2  C2  UNL     1     -34.967   6.970   4.050  1.00 20.00     0.118 A 
HETATM    3  C3  UNL     1     -33.346   5.903   3.030  1.00 20.00     0.177 A 
HETATM    4  C4  UNL     1     -34.444   4.526   4.536  1.00 20.00     0.112 A 
HETATM    5  C5  UNL     1     -33.524   3.670   4.053  1.00 20.00    -0.002 A 
HETATM    6  C6  UNL     1     -33.355   2.246   4.454  1.00 20.00     0.058 C 
HETATM    7  N7  UNL     1     -33.274   7.095   2.504  1.00 20.00    -0.235 NA
HETATM    8  N8  UNL     1     -34.334   5.769   3.957  1.00 20.00    -0.309 N 
HETATM    9  S9  UNL     1     -32.469   4.419   2.827  1.00 20.00    -0.055 SA
ENDROOT
TORSDOF 0
ENDMDL
