MODEL 1
REMARK VINA RESULT:       0.6      0.000      0.000
REMARK  1 active torsions:
REMARK  status: ('A' for Active; 'I' for Inactive)
REMARK    1  A    between atoms: C1_1  and  C4_4 
ROOT
HETATM    1  C2  UNL     1     -34.835   6.580   3.558  1.00 20.00     0.023 C 
HETATM    2  C3  UNL     1     -33.815   7.634   3.961  1.00 20.00     0.075 C 
HETATM    3  C4  UNL     1     -34.085   5.431   2.884  1.00 20.00     0.066 C 
HETATM    4  C5  UNL     1     -33.093   6.054   1.879  1.00 20.00     0.010 C 
HETATM    5  C6  UNL     1     -31.881   5.173   1.565  1.00 20.00     0.027 C 
HETATM    6  C7  UNL     1     -33.802   6.422   0.565  1.00 20.00     0.027 C 
HETATM    7  S9  UNL     1     -32.538   7.613   2.674  1.00 20.00    -0.159 SA
ENDROOT
BRANCH   3   8
HETATM    8  C1  UNL     1     -33.439   4.560   3.927  1.00 20.00     0.237 C 
HETATM    9  O8  UNL     1     -33.924   3.503   4.321  1.00 20.00    -0.306 OA
ENDBRANCH   3   8
TORSDOF 1
ENDMDL
MODEL 2
REMARK VINA RESULT:       1.1      2.975      3.750
REMARK  1 active torsions:
REMARK  status: ('A' for Active; 'I' for Inactive)
REMARK    1  A    between atoms: C1_1  and  C4_4 
ROOT
HETATM    1  C2  UNL     1     -31.865   8.194   3.166  1.00 20.00     0.023 C 
HETATM    2  C3  UNL     1     -33.193   7.943   3.863  1.00 20.00     0.075 C 
HETATM    3  C4  UNL     1     -32.034   7.844   1.687  1.00 20.00     0.066 C 
HETATM    4  C5  UNL     1     -32.766   6.488   1.615  1.00 20.00     0.010 C 
HETATM    5  C6  UNL     1     -33.542   6.261   0.315  1.00 20.00     0.027 C 
HETATM    6  C7  UNL     1     -31.784   5.323   1.825  1.00 20.00     0.027 C 
HETATM    7  S9  UNL     1     -33.928   6.506   3.036  1.00 20.00    -0.159 SA
ENDROOT
BRANCH   3   8
HETATM    8  C1  UNL     1     -32.742   8.965   0.974  1.00 20.00     0.237 C 
HETATM    9  O8  UNL     1     -32.229   9.626   0.076  1.00 20.00    -0.306 OA
ENDBRANCH   3   8
TORSDOF 1
ENDMDL
MODEL 3
REMARK VINA RESULT:       1.2      2.452      3.639
REMARK  1 active torsions:
REMARK  status: ('A' for Active; 'I' for Inactive)
REMARK    1  A    between atoms: C1_1  and  C4_4 
ROOT
HETATM    1  C2  UNL     1     -33.367   6.006   1.296  1.00 20.00     0.023 C 
HETATM    2  C3  UNL     1     -32.759   4.881   2.120  1.00 20.00     0.075 C 
HETATM    3  C4  UNL     1     -33.497   7.234   2.198  1.00 20.00     0.066 C 
HETATM    4  C5  UNL     1     -34.105   6.762   3.535  1.00 20.00     0.010 C 
HETATM    5  C6  UNL     1     -33.766   7.659   4.730  1.00 20.00     0.027 C 
HETATM    6  C7  UNL     1     -35.633   6.626   3.426  1.00 20.00     0.027 C 
HETATM    7  S9  UNL     1     -33.408   5.085   3.801  1.00 20.00    -0.159 SA
ENDROOT
BRANCH   3   8
HETATM    8  C1  UNL     1     -32.161   7.913   2.334  1.00 20.00     0.237 C 
HETATM    9  O8  UNL     1     -31.393   8.091   1.392  1.00 20.00    -0.306 OA
ENDBRANCH   3   8
TORSDOF 1
ENDMDL
MODEL 4
REMARK VINA RESULT:       2.0      2.025      3.304
REMARK  1 active torsions:
REMARK  status: ('A' for Active; 'I' for Inactive)
REMARK    1  A    between atoms: C1_1  and  C4_4 
ROOT
HETATM    1  C2  UNL     1     -31.628   7.771   1.882  1.00 20.00     0.023 C 
HETATM    2  C3  UNL     1     -32.537   8.824   1.266  1.00 20.00     0.075 C 
HETATM    3  C4  UNL     1     -32.510   6.750   2.601  1.00 20.00     0.066 C 
HETATM    4  C5  UNL     1     -33.549   7.538   3.427  1.00 20.00     0.010 C 
HETATM    5  C6  UNL     1     -34.840   6.764   3.714  1.00 20.00     0.027 C 
HETATM    6  C7  UNL     1     -32.943   8.017   4.757  1.00 20.00     0.027 C 
HETATM    7  S9  UNL     1     -33.927   9.021   2.413  1.00 20.00    -0.159 SA
ENDROOT
BRANCH   3   8
HETATM    8  C1  UNL     1     -33.111   5.799   1.601  1.00 20.00     0.237 C 
HETATM    9  O8  UNL     1     -32.442   5.068   0.876  1.00 20.00    -0.306 OA
ENDBRANCH   3   8
TORSDOF 1
ENDMDL
MODEL 5
REMARK VINA RESULT:       2.3      2.159      2.360
REMARK  1 active torsions:
REMARK  status: ('A' for Active; 'I' for Inactive)
REMARK    1  A    between atoms: C1_1  and  C4_4 
ROOT
HETATM    1  C2  UNL     1     -34.439   7.095   2.819  1.00 20.00     0.023 C 
HETATM    2  C3  UNL     1     -33.804   7.439   4.158  1.00 20.00     0.075 C 
HETATM    3  C4  UNL     1     -33.316   6.913   1.797  1.00 20.00     0.066 C 
HETATM    4  C5  UNL     1     -32.337   8.093   1.974  1.00 20.00     0.010 C 
HETATM    5  C6  UNL     1     -30.908   7.797   1.508  1.00 20.00     0.027 C 
HETATM    6  C7  UNL     1     -32.853   9.347   1.249  1.00 20.00     0.027 C 
HETATM    7  S9  UNL     1     -32.342   8.441   3.776  1.00 20.00    -0.159 SA
ENDROOT
BRANCH   3   8
HETATM    8  C1  UNL     1     -32.684   5.557   1.967  1.00 20.00     0.237 C 
HETATM    9  O8  UNL     1     -32.322   4.857   1.027  1.00 20.00    -0.306 OA
ENDBRANCH   3   8
TORSDOF 1
ENDMDL
MODEL 6
REMARK VINA RESULT:       2.7      1.168      2.735
REMARK  1 active torsions:
REMARK  status: ('A' for Active; 'I' for Inactive)
REMARK    1  A    between atoms: C1_1  and  C4_4 
ROOT
HETATM    1  C2  UNL     1     -32.080   5.164   2.449  1.00 20.00     0.023 C 
HETATM    2  C3  UNL     1     -32.804   5.389   1.131  1.00 20.00     0.075 C 
HETATM    3  C4  UNL     1     -33.116   5.226   3.572  1.00 20.00     0.066 C 
HETATM    4  C5  UNL     1     -34.004   6.461   3.313  1.00 20.00     0.010 C 
HETATM    5  C6  UNL     1     -35.404   6.367   3.928  1.00 20.00     0.027 C 
HETATM    6  C7  UNL     1     -33.319   7.744   3.813  1.00 20.00     0.027 C 
HETATM    7  S9  UNL     1     -34.135   6.568   1.485  1.00 20.00    -0.159 SA
ENDROOT
BRANCH   3   8
HETATM    8  C1  UNL     1     -33.872   3.926   3.643  1.00 20.00     0.237 C 
HETATM    9  O8  UNL     1     -33.746   3.118   4.558  1.00 20.00    -0.306 OA
ENDBRANCH   3   8
TORSDOF 1
ENDMDL
MODEL 7
REMARK VINA RESULT:       2.7      2.055      2.693
REMARK  1 active torsions:
REMARK  status: ('A' for Active; 'I' for Inactive)
REMARK    1  A    between atoms: C1_1  and  C4_4 
ROOT
HETATM    1  C2  UNL     1     -32.647   8.185   1.543  1.00 20.00     0.023 C 
HETATM    2  C3  UNL     1     -31.231   7.640   1.645  1.00 20.00     0.075 C 
HETATM    3  C4  UNL     1     -33.572   7.239   2.310  1.00 20.00     0.066 C 
HETATM    4  C5  UNL     1     -33.204   5.799   1.897  1.00 20.00     0.010 C 
HETATM    5  C6  UNL     1     -33.559   4.736   2.942  1.00 20.00     0.027 C 
HETATM    6  C7  UNL     1     -33.862   5.427   0.558  1.00 20.00     0.027 C 
HETATM    7  S9  UNL     1     -31.387   5.834   1.642  1.00 20.00    -0.159 SA
ENDROOT
BRANCH   3   8
HETATM    8  C1  UNL     1     -33.463   7.504   3.788  1.00 20.00     0.237 C 
HETATM    9  O8  UNL     1     -34.434   7.679   4.518  1.00 20.00    -0.306 OA
ENDBRANCH   3   8
TORSDOF 1
ENDMDL
MODEL 8
REMARK VINA RESULT:       3.2      2.379      3.311
REMARK  1 active torsions:
REMARK  status: ('A' for Active; 'I' for Inactive)
REMARK    1  A    between atoms: C1_1  and  C4_4 
ROOT
HETATM    1  C2  UNL     1     -33.293   8.289   2.660  1.00 20.00     0.023 C 
HETATM    2  C3  UNL     1     -32.511   7.119   2.082  1.00 20.00     0.075 C 
HETATM    3  C4  UNL     1     -34.058   7.786   3.884  1.00 20.00     0.066 C 
HETATM    4  C5  UNL     1     -34.728   6.451   3.493  1.00 20.00     0.010 C 
HETATM    5  C6  UNL     1     -35.012   5.522   4.677  1.00 20.00     0.027 C 
HETATM    6  C7  UNL     1     -36.035   6.699   2.723  1.00 20.00     0.027 C 
HETATM    7  S9  UNL     1     -33.540   5.650   2.346  1.00 20.00    -0.159 SA
ENDROOT
BRANCH   3   8
HETATM    8  C1  UNL     1     -33.128   7.686   5.064  1.00 20.00     0.237 C 
HETATM    9  O8  UNL     1     -32.423   8.614   5.450  1.00 20.00    -0.306 OA
ENDBRANCH   3   8
TORSDOF 1
ENDMDL
MODEL 9
REMARK VINA RESULT:       3.5      1.354      2.900
REMARK  1 active torsions:
REMARK  status: ('A' for Active; 'I' for Inactive)
REMARK    1  A    between atoms: C1_1  and  C4_4 
ROOT
HETATM    1  C2  UNL     1     -32.889   5.274   3.094  1.00 20.00     0.023 C 
HETATM    2  C3  UNL     1     -33.019   5.633   1.622  1.00 20.00     0.075 C 
HETATM    3  C4  UNL     1     -33.739   6.261   3.896  1.00 20.00     0.066 C 
HETATM    4  C5  UNL     1     -33.438   7.674   3.356  1.00 20.00     0.010 C 
HETATM    5  C6  UNL     1     -34.568   8.685   3.578  1.00 20.00     0.027 C 
HETATM    6  C7  UNL     1     -32.140   8.230   3.964  1.00 20.00     0.027 C 
HETATM    7  S9  UNL     1     -33.162   7.439   1.557  1.00 20.00    -0.159 SA
ENDROOT
BRANCH   3   8
HETATM    8  C1  UNL     1     -35.189   5.867   3.820  1.00 20.00     0.237 C 
HETATM    9  O8  UNL     1     -35.697   5.011   4.538  1.00 20.00    -0.306 OA
ENDBRANCH   3   8
TORSDOF 1
ENDMDL
