MODEL 1
REMARK VINA RESULT:      -1.9      0.000      0.000
REMARK  2 active torsions:
REMARK  status: ('A' for Active; 'I' for Inactive)
REMARK    1  A    between atoms: C5_5  and  C6_6 
REMARK    2  A    between atoms: C7_7  and  N9_9 
ROOT
HETATM    1  C1  UNL     1     -32.210   9.188   0.801  1.00 20.00     0.079 C 
HETATM    2  C7  UNL     1     -31.678   8.254   1.796  1.00 20.00     0.252 C 
HETATM    3  N8  UNL     1     -32.629   9.928   0.011  1.00 20.00    -0.196 NA
ENDROOT
BRANCH   2   4
HETATM    4  N9  UNL     1     -32.730   7.633   2.571  1.00 20.00    -0.341 N 
HETATM    5  C4  UNL     1     -33.329   8.200   3.665  1.00 20.00     0.092 A 
HETATM    6  C2  UNL     1     -34.277   7.316   4.134  1.00 20.00     0.020 A 
HETATM    7  C3  UNL     1     -34.246   6.178   3.291  1.00 20.00     0.034 A 
HETATM    8  C5  UNL     1     -33.281   6.401   2.334  1.00 20.00     0.073 A 
BRANCH   8   9
HETATM    9  C6  UNL     1     -32.891   5.528   1.268  1.00 20.00     0.288 C 
HETATM   10  O10 UNL     1     -31.774   4.983   1.186  1.00 20.00    -0.300 OA
ENDBRANCH   8   9
ENDBRANCH   2   4
TORSDOF 2
ENDMDL
MODEL 2
REMARK VINA RESULT:      -1.5      2.180      2.679
REMARK  2 active torsions:
REMARK  status: ('A' for Active; 'I' for Inactive)
REMARK    1  A    between atoms: C5_5  and  C6_6 
REMARK    2  A    between atoms: C7_7  and  N9_9 
ROOT
HETATM    1  C1  UNL     1     -32.172   7.025   1.734  1.00 20.00     0.079 C 
HETATM    2  C7  UNL     1     -32.642   5.678   2.066  1.00 20.00     0.252 C 
HETATM    3  N8  UNL     1     -31.797   8.091   1.470  1.00 20.00    -0.196 NA
ENDROOT
BRANCH   2   4
HETATM    4  N9  UNL     1     -33.730   5.706   3.019  1.00 20.00    -0.341 N 
HETATM    5  C4  UNL     1     -34.553   6.781   3.230  1.00 20.00     0.092 A 
HETATM    6  C2  UNL     1     -35.462   6.433   4.206  1.00 20.00     0.020 A 
HETATM    7  C3  UNL     1     -35.175   5.101   4.595  1.00 20.00     0.034 A 
HETATM    8  C5  UNL     1     -34.100   4.676   3.845  1.00 20.00     0.073 A 
BRANCH   8   9
HETATM    9  C6  UNL     1     -33.454   3.400   3.892  1.00 20.00     0.288 C 
HETATM   10  O10 UNL     1     -33.042   2.865   4.939  1.00 20.00    -0.300 OA
ENDBRANCH   8   9
ENDBRANCH   2   4
TORSDOF 2
ENDMDL
MODEL 3
REMARK VINA RESULT:      -1.4      2.698      4.643
REMARK  2 active torsions:
REMARK  status: ('A' for Active; 'I' for Inactive)
REMARK    1  A    between atoms: C5_5  and  C6_6 
REMARK    2  A    between atoms: C7_7  and  N9_9 
ROOT
HETATM    1  C1  UNL     1     -33.811   3.924   4.259  1.00 20.00     0.079 C 
HETATM    2  C7  UNL     1     -34.514   5.096   3.733  1.00 20.00     0.252 C 
HETATM    3  N8  UNL     1     -33.255   2.994   4.676  1.00 20.00    -0.196 NA
ENDROOT
BRANCH   2   4
HETATM    4  N9  UNL     1     -33.641   5.946   2.953  1.00 20.00    -0.341 N 
HETATM    5  C4  UNL     1     -32.986   5.554   1.815  1.00 20.00     0.092 A 
HETATM    6  C2  UNL     1     -32.255   6.628   1.357  1.00 20.00     0.020 A 
HETATM    7  C3  UNL     1     -32.478   7.703   2.251  1.00 20.00     0.034 A 
HETATM    8  C5  UNL     1     -33.339   7.254   3.228  1.00 20.00     0.073 A 
BRANCH   8   9
HETATM    9  C6  UNL     1     -33.848   7.987   4.347  1.00 20.00     0.288 C 
HETATM   10  O10 UNL     1     -33.170   8.294   5.347  1.00 20.00    -0.300 OA
ENDBRANCH   8   9
ENDBRANCH   2   4
TORSDOF 2
ENDMDL
MODEL 4
REMARK VINA RESULT:      -1.2      1.754      2.588
REMARK  2 active torsions:
REMARK  status: ('A' for Active; 'I' for Inactive)
REMARK    1  A    between atoms: C5_5  and  C6_6 
REMARK    2  A    between atoms: C7_7  and  N9_9 
ROOT
HETATM    1  C1  UNL     1     -32.385   9.388   0.640  1.00 20.00     0.079 C 
HETATM    2  C7  UNL     1     -32.010   8.752   1.905  1.00 20.00     0.252 C 
HETATM    3  N8  UNL     1     -32.681   9.894  -0.362  1.00 20.00    -0.196 NA
ENDROOT
BRANCH   2   4
HETATM    4  N9  UNL     1     -32.482   7.387   1.983  1.00 20.00    -0.341 N 
HETATM    5  C4  UNL     1     -32.080   6.375   1.151  1.00 20.00     0.092 A 
HETATM    6  C2  UNL     1     -32.741   5.227   1.531  1.00 20.00     0.020 A 
HETATM    7  C3  UNL     1     -33.570   5.561   2.630  1.00 20.00     0.034 A 
HETATM    8  C5  UNL     1     -33.390   6.902   2.889  1.00 20.00     0.073 A 
BRANCH   8   9
HETATM    9  C6  UNL     1     -34.019   7.686   3.907  1.00 20.00     0.288 C 
HETATM   10  O10 UNL     1     -33.464   8.024   4.970  1.00 20.00    -0.300 OA
ENDBRANCH   8   9
ENDBRANCH   2   4
TORSDOF 2
ENDMDL
MODEL 5
REMARK VINA RESULT:      -1.0      2.144      3.920
REMARK  2 active torsions:
REMARK  status: ('A' for Active; 'I' for Inactive)
REMARK    1  A    between atoms: C5_5  and  C6_6 
REMARK    2  A    between atoms: C7_7  and  N9_9 
ROOT
HETATM    1  C1  UNL     1     -33.856   3.856   4.375  1.00 20.00     0.079 C 
HETATM    2  C7  UNL     1     -34.794   4.860   3.867  1.00 20.00     0.252 C 
HETATM    3  N8  UNL     1     -33.114   3.059   4.777  1.00 20.00    -0.196 NA
ENDROOT
BRANCH   2   4
HETATM    4  N9  UNL     1     -34.147   6.131   3.627  1.00 20.00    -0.341 N 
HETATM    5  C4  UNL     1     -34.290   7.239   4.420  1.00 20.00     0.092 A 
HETATM    6  C2  UNL     1     -33.527   8.250   3.877  1.00 20.00     0.020 A 
HETATM    7  C3  UNL     1     -32.904   7.731   2.715  1.00 20.00     0.034 A 
HETATM    8  C5  UNL     1     -33.305   6.419   2.585  1.00 20.00     0.073 A 
BRANCH   8   9
HETATM    9  C6  UNL     1     -32.933   5.491   1.560  1.00 20.00     0.288 C 
HETATM   10  O10 UNL     1     -31.765   5.325   1.160  1.00 20.00    -0.300 OA
ENDBRANCH   8   9
ENDBRANCH   2   4
TORSDOF 2
ENDMDL
MODEL 6
REMARK VINA RESULT:      -0.7      2.202      4.028
REMARK  2 active torsions:
REMARK  status: ('A' for Active; 'I' for Inactive)
REMARK    1  A    between atoms: C5_5  and  C6_6 
REMARK    2  A    between atoms: C7_7  and  N9_9 
ROOT
HETATM    1  C1  UNL     1     -34.920   6.377   4.065  1.00 20.00     0.079 C 
HETATM    2  C7  UNL     1     -34.009   7.403   3.550  1.00 20.00     0.252 C 
HETATM    3  N8  UNL     1     -35.642   5.567   4.474  1.00 20.00    -0.196 NA
ENDROOT
BRANCH   2   4
HETATM    4  N9  UNL     1     -33.142   6.885   2.515  1.00 20.00    -0.341 N 
HETATM    5  C4  UNL     1     -32.970   5.554   2.236  1.00 20.00     0.092 A 
HETATM    6  C2  UNL     1     -32.075   5.452   1.194  1.00 20.00     0.020 A 
HETATM    7  C3  UNL     1     -31.696   6.768   0.832  1.00 20.00     0.034 A 
HETATM    8  C5  UNL     1     -32.371   7.634   1.664  1.00 20.00     0.073 A 
BRANCH   8   9
HETATM    9  C6  UNL     1     -32.304   9.064   1.674  1.00 20.00     0.288 C 
HETATM   10  O10 UNL     1     -32.366   9.772   0.651  1.00 20.00    -0.300 OA
ENDBRANCH   8   9
ENDBRANCH   2   4
TORSDOF 2
ENDMDL
MODEL 7
REMARK VINA RESULT:      -0.6      2.419      4.104
REMARK  2 active torsions:
REMARK  status: ('A' for Active; 'I' for Inactive)
REMARK    1  A    between atoms: C5_5  and  C6_6 
REMARK    2  A    between atoms: C7_7  and  N9_9 
ROOT
HETATM    1  C1  UNL     1     -33.446   3.487   4.177  1.00 20.00     0.079 C 
HETATM    2  C7  UNL     1     -33.842   4.284   3.014  1.00 20.00     0.252 C 
HETATM    3  N8  UNL     1     -33.132   2.854   5.098  1.00 20.00    -0.196 NA
ENDROOT
BRANCH   2   4
HETATM    4  N9  UNL     1     -33.995   5.684   3.344  1.00 20.00    -0.341 N 
HETATM    5  C4  UNL     1     -34.886   6.174   4.263  1.00 20.00     0.092 A 
HETATM    6  C2  UNL     1     -34.741   7.543   4.304  1.00 20.00     0.020 A 
HETATM    7  C3  UNL     1     -33.727   7.889   3.377  1.00 20.00     0.034 A 
HETATM    8  C5  UNL     1     -33.283   6.720   2.799  1.00 20.00     0.073 A 
BRANCH   8   9
HETATM    9  C6  UNL     1     -32.267   6.571   1.802  1.00 20.00     0.288 C 
HETATM   10  O10 UNL     1     -31.518   7.493   1.427  1.00 20.00    -0.300 OA
ENDBRANCH   8   9
ENDBRANCH   2   4
TORSDOF 2
ENDMDL
MODEL 8
REMARK VINA RESULT:       0.0      2.101      3.136
REMARK  2 active torsions:
REMARK  status: ('A' for Active; 'I' for Inactive)
REMARK    1  A    between atoms: C5_5  and  C6_6 
REMARK    2  A    between atoms: C7_7  and  N9_9 
ROOT
HETATM    1  C1  UNL     1     -33.489   5.005   0.329  1.00 20.00     0.079 C 
HETATM    2  C7  UNL     1     -32.582   5.352   1.426  1.00 20.00     0.252 C 
HETATM    3  N8  UNL     1     -34.206   4.729  -0.541  1.00 20.00    -0.196 NA
ENDROOT
BRANCH   2   4
HETATM    4  N9  UNL     1     -33.235   6.161   2.431  1.00 20.00    -0.341 N 
HETATM    5  C4  UNL     1     -34.217   5.712   3.275  1.00 20.00     0.092 A 
HETATM    6  C2  UNL     1     -34.592   6.762   4.085  1.00 20.00     0.020 A 
HETATM    7  C3  UNL     1     -33.807   7.882   3.715  1.00 20.00     0.034 A 
HETATM    8  C5  UNL     1     -32.977   7.482   2.691  1.00 20.00     0.073 A 
BRANCH   8   9
HETATM    9  C6  UNL     1     -32.008   8.272   1.994  1.00 20.00     0.288 C 
HETATM   10  O10 UNL     1     -32.270   8.988   1.009  1.00 20.00    -0.300 OA
ENDBRANCH   8   9
ENDBRANCH   2   4
TORSDOF 2
ENDMDL
MODEL 9
REMARK VINA RESULT:       0.1      2.308      3.281
REMARK  2 active torsions:
REMARK  status: ('A' for Active; 'I' for Inactive)
REMARK    1  A    between atoms: C5_5  and  C6_6 
REMARK    2  A    between atoms: C7_7  and  N9_9 
ROOT
HETATM    1  C1  UNL     1     -32.264   5.195   1.185  1.00 20.00     0.079 C 
HETATM    2  C7  UNL     1     -33.558   5.746   1.595  1.00 20.00     0.252 C 
HETATM    3  N8  UNL     1     -31.240   4.758   0.859  1.00 20.00    -0.196 NA
ENDROOT
BRANCH   2   4
HETATM    4  N9  UNL     1     -33.419   6.727   2.648  1.00 20.00    -0.341 N 
HETATM    5  C4  UNL     1     -32.437   7.682   2.698  1.00 20.00     0.092 A 
HETATM    6  C2  UNL     1     -32.628   8.427   3.841  1.00 20.00     0.020 A 
HETATM    7  C3  UNL     1     -33.765   7.901   4.503  1.00 20.00     0.034 A 
HETATM    8  C5  UNL     1     -34.234   6.851   3.743  1.00 20.00     0.073 A 
BRANCH   8   9
HETATM    9  C6  UNL     1     -35.363   6.014   4.014  1.00 20.00     0.288 C 
HETATM   10  O10 UNL     1     -35.282   4.871   4.505  1.00 20.00    -0.300 OA
ENDBRANCH   8   9
ENDBRANCH   2   4
TORSDOF 2
ENDMDL
