MODEL 1
REMARK VINA RESULT:      -1.7      0.000      0.000
REMARK  4 active torsions:
REMARK  status: ('A' for Active; 'I' for Inactive)
REMARK    1  A    between atoms: C1_1  and  C6_6 
REMARK    2  A    between atoms: C1_1  and  O8_8 
REMARK    3  A    between atoms: C5_5  and  C6_6 
REMARK    4  A    between atoms: C5_5  and  S9_9 
ROOT
HETATM    1  C2  UNL     1     -33.907   7.720   4.327  1.00 20.00     0.021 C 
HETATM    2  C6  UNL     1     -34.287   6.669   3.281  1.00 20.00     0.090 C 
ENDROOT
BRANCH   2   3
HETATM    3  C1  UNL     1     -34.573   5.323   3.933  1.00 20.00     0.263 C 
HETATM    4  O7  UNL     1     -35.575   5.063   4.587  1.00 20.00    -0.265 OA
BRANCH   3   5
HETATM    5  O8  UNL     1     -33.542   4.464   3.680  1.00 20.00    -0.326 OA
HETATM    6  C3  UNL     1     -33.494   3.297   4.507  1.00 20.00     0.213 C 
ENDBRANCH   3   5
ENDBRANCH   2   3
BRANCH   2   7
HETATM    7  C5  UNL     1     -33.252   6.553   2.152  1.00 20.00     0.087 C 
BRANCH   7   8
HETATM    8  S9  UNL     1     -31.910   7.781   2.216  1.00 20.00    -0.173 SA
HETATM    9  C4  UNL     1     -32.476   8.851   0.876  1.00 20.00     0.089 C 
ENDBRANCH   7   8
ENDBRANCH   2   7
TORSDOF 4
ENDMDL
MODEL 2
REMARK VINA RESULT:      -1.4      2.988      4.868
REMARK  4 active torsions:
REMARK  status: ('A' for Active; 'I' for Inactive)
REMARK    1  A    between atoms: C1_1  and  C6_6 
REMARK    2  A    between atoms: C1_1  and  O8_8 
REMARK    3  A    between atoms: C5_5  and  C6_6 
REMARK    4  A    between atoms: C5_5  and  S9_9 
ROOT
HETATM    1  C2  UNL     1     -32.736   5.794   1.475  1.00 20.00     0.021 C 
HETATM    2  C6  UNL     1     -33.125   7.147   2.077  1.00 20.00     0.090 C 
ENDROOT
BRANCH   2   3
HETATM    3  C1  UNL     1     -32.030   8.182   1.856  1.00 20.00     0.263 C 
HETATM    4  O7  UNL     1     -31.240   8.556   2.713  1.00 20.00    -0.265 OA
BRANCH   3   5
HETATM    5  O8  UNL     1     -32.074   8.626   0.565  1.00 20.00    -0.326 OA
HETATM    6  C3  UNL     1     -32.510   9.978   0.392  1.00 20.00     0.213 C 
ENDBRANCH   3   5
ENDBRANCH   2   3
BRANCH   2   7
HETATM    7  C5  UNL     1     -33.532   7.045   3.554  1.00 20.00     0.087 C 
BRANCH   7   8
HETATM    8  S9  UNL     1     -35.147   6.258   3.850  1.00 20.00    -0.173 SA
HETATM    9  C4  UNL     1     -34.552   4.622   4.328  1.00 20.00     0.089 C 
ENDBRANCH   7   8
ENDBRANCH   2   7
TORSDOF 4
ENDMDL
MODEL 3
REMARK VINA RESULT:      -1.1      1.619      2.388
REMARK  4 active torsions:
REMARK  status: ('A' for Active; 'I' for Inactive)
REMARK    1  A    between atoms: C1_1  and  C6_6 
REMARK    2  A    between atoms: C1_1  and  O8_8 
REMARK    3  A    between atoms: C5_5  and  C6_6 
REMARK    4  A    between atoms: C5_5  and  S9_9 
ROOT
HETATM    1  C2  UNL     1     -32.753   6.021   1.302  1.00 20.00     0.021 C 
HETATM    2  C6  UNL     1     -32.537   6.916   2.524  1.00 20.00     0.090 C 
ENDROOT
BRANCH   2   3
HETATM    3  C1  UNL     1     -33.746   6.884   3.450  1.00 20.00     0.263 C 
HETATM    4  O7  UNL     1     -34.178   7.847   4.069  1.00 20.00    -0.265 OA
BRANCH   3   5
HETATM    5  O8  UNL     1     -34.263   5.619   3.482  1.00 20.00    -0.326 OA
HETATM    6  C3  UNL     1     -35.367   5.427   4.372  1.00 20.00     0.213 C 
ENDBRANCH   3   5
ENDBRANCH   2   3
BRANCH   2   7
HETATM    7  C5  UNL     1     -32.139   8.351   2.148  1.00 20.00     0.087 C 
BRANCH   7   8
HETATM    8  S9  UNL     1     -31.835   8.618   0.373  1.00 20.00    -0.173 SA
HETATM    9  C4  UNL     1     -32.598  10.248   0.224  1.00 20.00     0.089 C 
ENDBRANCH   7   8
ENDBRANCH   2   7
TORSDOF 4
ENDMDL
MODEL 4
REMARK VINA RESULT:      -1.0      1.401      1.924
REMARK  4 active torsions:
REMARK  status: ('A' for Active; 'I' for Inactive)
REMARK    1  A    between atoms: C1_1  and  C6_6 
REMARK    2  A    between atoms: C1_1  and  O8_8 
REMARK    3  A    between atoms: C5_5  and  C6_6 
REMARK    4  A    between atoms: C5_5  and  S9_9 
ROOT
HETATM    1  C2  UNL     1     -33.821   7.932   4.111  1.00 20.00     0.021 C 
HETATM    2  C6  UNL     1     -33.375   7.506   2.710  1.00 20.00     0.090 C 
ENDROOT
BRANCH   2   3
HETATM    3  C1  UNL     1     -33.405   5.991   2.560  1.00 20.00     0.263 C 
HETATM    4  O7  UNL     1     -32.833   5.365   1.678  1.00 20.00    -0.265 OA
BRANCH   3   5
HETATM    5  O8  UNL     1     -34.169   5.449   3.554  1.00 20.00    -0.326 OA
HETATM    6  C3  UNL     1     -33.849   4.101   3.913  1.00 20.00     0.213 C 
ENDBRANCH   3   5
ENDBRANCH   2   3
BRANCH   2   7
HETATM    7  C5  UNL     1     -32.014   8.097   2.314  1.00 20.00     0.087 C 
BRANCH   7   8
HETATM    8  S9  UNL     1     -31.851   8.527   0.552  1.00 20.00    -0.173 SA
HETATM    9  C4  UNL     1     -32.611  10.164   0.616  1.00 20.00     0.089 C 
ENDBRANCH   7   8
ENDBRANCH   2   7
TORSDOF 4
ENDMDL
MODEL 5
REMARK VINA RESULT:      -0.7      2.481      4.185
REMARK  4 active torsions:
REMARK  status: ('A' for Active; 'I' for Inactive)
REMARK    1  A    between atoms: C1_1  and  C6_6 
REMARK    2  A    between atoms: C1_1  and  O8_8 
REMARK    3  A    between atoms: C5_5  and  C6_6 
REMARK    4  A    between atoms: C5_5  and  S9_9 
ROOT
HETATM    1  C2  UNL     1     -33.394   8.305   4.458  1.00 20.00     0.021 C 
HETATM    2  C6  UNL     1     -33.507   6.972   3.715  1.00 20.00     0.090 C 
ENDROOT
BRANCH   2   3
HETATM    3  C1  UNL     1     -32.838   7.044   2.349  1.00 20.00     0.263 C 
HETATM    4  O7  UNL     1     -32.921   6.183   1.484  1.00 20.00    -0.265 OA
BRANCH   3   5
HETATM    5  O8  UNL     1     -32.132   8.209   2.248  1.00 20.00    -0.326 OA
HETATM    6  C3  UNL     1     -32.156   8.835   0.962  1.00 20.00     0.213 C 
ENDBRANCH   3   5
ENDBRANCH   2   3
BRANCH   2   7
HETATM    7  C5  UNL     1     -34.954   6.465   3.621  1.00 20.00     0.087 C 
BRANCH   7   8
HETATM    8  S9  UNL     1     -35.317   4.996   4.633  1.00 20.00    -0.173 SA
HETATM    9  C4  UNL     1     -33.901   3.988   4.139  1.00 20.00     0.089 C 
ENDBRANCH   7   8
ENDBRANCH   2   7
TORSDOF 4
ENDMDL
MODEL 6
REMARK VINA RESULT:      -0.6      1.744      2.545
REMARK  4 active torsions:
REMARK  status: ('A' for Active; 'I' for Inactive)
REMARK    1  A    between atoms: C1_1  and  C6_6 
REMARK    2  A    between atoms: C1_1  and  O8_8 
REMARK    3  A    between atoms: C5_5  and  C6_6 
REMARK    4  A    between atoms: C5_5  and  S9_9 
ROOT
HETATM    1  C2  UNL     1     -32.740   5.628   0.704  1.00 20.00     0.021 C 
HETATM    2  C6  UNL     1     -32.507   6.298   2.061  1.00 20.00     0.090 C 
ENDROOT
BRANCH   2   3
HETATM    3  C1  UNL     1     -33.460   5.751   3.115  1.00 20.00     0.263 C 
HETATM    4  O7  UNL     1     -33.531   4.576   3.449  1.00 20.00    -0.265 OA
BRANCH   3   5
HETATM    5  O8  UNL     1     -34.218   6.770   3.618  1.00 20.00    -0.326 OA
HETATM    6  C3  UNL     1     -35.527   6.402   4.065  1.00 20.00     0.213 C 
ENDBRANCH   3   5
ENDBRANCH   2   3
BRANCH   2   7
HETATM    7  C5  UNL     1     -32.555   7.831   1.982  1.00 20.00     0.087 C 
BRANCH   7   8
HETATM    8  S9  UNL     1     -31.591   8.557   0.619  1.00 20.00    -0.173 SA
HETATM    9  C4  UNL     1     -32.603  10.027   0.342  1.00 20.00     0.089 C 
ENDBRANCH   7   8
ENDBRANCH   2   7
TORSDOF 4
ENDMDL
MODEL 7
REMARK VINA RESULT:      -0.6      2.548      3.798
REMARK  4 active torsions:
REMARK  status: ('A' for Active; 'I' for Inactive)
REMARK    1  A    between atoms: C1_1  and  C6_6 
REMARK    2  A    between atoms: C1_1  and  O8_8 
REMARK    3  A    between atoms: C5_5  and  C6_6 
REMARK    4  A    between atoms: C5_5  and  S9_9 
ROOT
HETATM    1  C2  UNL     1     -33.462   8.330   4.584  1.00 20.00     0.021 C 
HETATM    2  C6  UNL     1     -33.511   7.049   3.747  1.00 20.00     0.090 C 
ENDROOT
BRANCH   2   3
HETATM    3  C1  UNL     1     -32.824   7.243   2.402  1.00 20.00     0.263 C 
HETATM    4  O7  UNL     1     -32.125   8.204   2.108  1.00 20.00    -0.265 OA
BRANCH   3   5
HETATM    5  O8  UNL     1     -33.115   6.189   1.584  1.00 20.00    -0.326 OA
HETATM    6  C3  UNL     1     -31.994   5.402   1.170  1.00 20.00     0.213 C 
ENDBRANCH   3   5
ENDBRANCH   2   3
BRANCH   2   7
HETATM    7  C5  UNL     1     -34.936   6.496   3.591  1.00 20.00     0.087 C 
BRANCH   7   8
HETATM    8  S9  UNL     1     -35.310   5.045   4.626  1.00 20.00    -0.173 SA
HETATM    9  C4  UNL     1     -33.913   4.012   4.135  1.00 20.00     0.089 C 
ENDBRANCH   7   8
ENDBRANCH   2   7
TORSDOF 4
ENDMDL
MODEL 8
REMARK VINA RESULT:      -0.5      1.393      2.453
REMARK  4 active torsions:
REMARK  status: ('A' for Active; 'I' for Inactive)
REMARK    1  A    between atoms: C1_1  and  C6_6 
REMARK    2  A    between atoms: C1_1  and  O8_8 
REMARK    3  A    between atoms: C5_5  and  C6_6 
REMARK    4  A    between atoms: C5_5  and  S9_9 
ROOT
HETATM    1  C2  UNL     1     -33.661   4.363   3.420  1.00 20.00     0.021 C 
HETATM    2  C6  UNL     1     -33.455   5.872   3.271  1.00 20.00     0.090 C 
ENDROOT
BRANCH   2   3
HETATM    3  C1  UNL     1     -34.644   6.648   3.821  1.00 20.00     0.263 C 
HETATM    4  O7  UNL     1     -35.754   6.173   4.023  1.00 20.00    -0.265 OA
BRANCH   3   5
HETATM    5  O8  UNL     1     -34.280   7.945   4.044  1.00 20.00    -0.326 OA
HETATM    6  C3  UNL     1     -33.272   8.140   5.040  1.00 20.00     0.213 C 
ENDBRANCH   3   5
ENDBRANCH   2   3
BRANCH   2   7
HETATM    7  C5  UNL     1     -33.114   6.286   1.832  1.00 20.00     0.087 C 
BRANCH   7   8
HETATM    8  S9  UNL     1     -31.660   7.372   1.673  1.00 20.00    -0.173 SA
HETATM    9  C4  UNL     1     -32.504   8.841   1.048  1.00 20.00     0.089 C 
ENDBRANCH   7   8
ENDBRANCH   2   7
TORSDOF 4
ENDMDL
MODEL 9
REMARK VINA RESULT:      -0.2      1.770      2.213
REMARK  4 active torsions:
REMARK  status: ('A' for Active; 'I' for Inactive)
REMARK    1  A    between atoms: C1_1  and  C6_6 
REMARK    2  A    between atoms: C1_1  and  O8_8 
REMARK    3  A    between atoms: C5_5  and  C6_6 
REMARK    4  A    between atoms: C5_5  and  S9_9 
ROOT
HETATM    1  C2  UNL     1     -33.887   7.871   4.123  1.00 20.00     0.021 C 
HETATM    2  C6  UNL     1     -33.416   7.493   2.716  1.00 20.00     0.090 C 
ENDROOT
BRANCH   2   3
HETATM    3  C1  UNL     1     -33.415   5.982   2.524  1.00 20.00     0.263 C 
HETATM    4  O7  UNL     1     -33.699   5.167   3.392  1.00 20.00    -0.265 OA
BRANCH   3   5
HETATM    5  O8  UNL     1     -33.042   5.685   1.244  1.00 20.00    -0.326 OA
HETATM    6  C3  UNL     1     -31.881   4.859   1.116  1.00 20.00     0.213 C 
ENDBRANCH   3   5
ENDBRANCH   2   3
BRANCH   2   7
HETATM    7  C5  UNL     1     -32.062   8.120   2.354  1.00 20.00     0.087 C 
BRANCH   7   8
HETATM    8  S9  UNL     1     -31.907   8.655   0.620  1.00 20.00    -0.173 SA
HETATM    9  C4  UNL     1     -32.668  10.284   0.785  1.00 20.00     0.089 C 
ENDBRANCH   7   8
ENDBRANCH   2   7
TORSDOF 4
ENDMDL
