MODEL 1
REMARK VINA RESULT:      -0.1      0.000      0.000
REMARK  1 active torsions:
REMARK  status: ('A' for Active; 'I' for Inactive)
REMARK    1  A    between atoms: C3_3  and  C7_7 
ROOT
HETATM    1  C1  UNL     1     -32.267   7.680   1.750  1.00 20.00    -0.030 C 
HETATM    2  C2  UNL     1     -32.384   8.012   3.043  1.00 20.00    -0.025 C 
HETATM    3  C4  UNL     1     -32.897   6.461   1.154  1.00 20.00     0.028 C 
HETATM    4  C5  UNL     1     -33.403   5.477   2.211  1.00 20.00     0.021 C 
HETATM    5  C6  UNL     1     -33.195   7.219   4.045  1.00 20.00     0.018 C 
HETATM    6  C7  UNL     1     -34.144   6.177   3.374  1.00 20.00     0.016 C 
HETATM    7  C8  UNL     1     -33.924   8.190   4.984  1.00 20.00     0.015 C 
HETATM    8  C9  UNL     1     -35.468   6.779   2.875  1.00 20.00     0.023 C 
ENDROOT
BRANCH   6   9
HETATM    9  C3  UNL     1     -34.502   5.102   4.373  1.00 20.00     0.241 C 
HETATM   10  O10 UNL     1     -34.152   3.932   4.262  1.00 20.00    -0.306 OA
ENDBRANCH   6   9
TORSDOF 1
ENDMDL
MODEL 2
REMARK VINA RESULT:       0.5      2.454      3.581
REMARK  1 active torsions:
REMARK  status: ('A' for Active; 'I' for Inactive)
REMARK    1  A    between atoms: C3_3  and  C7_7 
ROOT
HETATM    1  C1  UNL     1     -33.203   5.111   2.575  1.00 20.00    -0.030 C 
HETATM    2  C2  UNL     1     -33.852   6.048   3.279  1.00 20.00    -0.025 C 
HETATM    3  C4  UNL     1     -32.313   5.425   1.413  1.00 20.00     0.028 C 
HETATM    4  C5  UNL     1     -32.473   6.862   0.915  1.00 20.00     0.021 C 
HETATM    5  C6  UNL     1     -33.735   7.533   3.011  1.00 20.00     0.018 C 
HETATM    6  C7  UNL     1     -32.545   7.891   2.066  1.00 20.00     0.016 C 
HETATM    7  C8  UNL     1     -33.698   8.285   4.349  1.00 20.00     0.015 C 
HETATM    8  C9  UNL     1     -31.190   7.980   2.787  1.00 20.00     0.023 C 
ENDROOT
BRANCH   6   9
HETATM    9  C3  UNL     1     -32.792   9.239   1.431  1.00 20.00     0.241 C 
HETATM   10  O10 UNL     1     -32.327   9.571   0.346  1.00 20.00    -0.306 OA
ENDBRANCH   6   9
TORSDOF 1
ENDMDL
MODEL 3
REMARK VINA RESULT:       0.7      2.203      3.843
REMARK  1 active torsions:
REMARK  status: ('A' for Active; 'I' for Inactive)
REMARK    1  A    between atoms: C3_3  and  C7_7 
ROOT
HETATM    1  C1  UNL     1     -34.578   5.008   3.964  1.00 20.00    -0.030 C 
HETATM    2  C2  UNL     1     -33.463   4.566   3.366  1.00 20.00    -0.025 C 
HETATM    3  C4  UNL     1     -35.001   6.443   3.956  1.00 20.00     0.028 C 
HETATM    4  C5  UNL     1     -33.890   7.386   3.489  1.00 20.00     0.021 C 
HETATM    5  C6  UNL     1     -32.521   5.453   2.581  1.00 20.00     0.018 C 
HETATM    6  C7  UNL     1     -33.131   6.852   2.253  1.00 20.00     0.016 C 
HETATM    7  C8  UNL     1     -32.033   4.695   1.338  1.00 20.00     0.015 C 
HETATM    8  C9  UNL     1     -34.052   6.851   1.021  1.00 20.00     0.023 C 
ENDROOT
BRANCH   6   9
HETATM    9  C3  UNL     1     -32.019   7.834   1.966  1.00 20.00     0.241 C 
HETATM   10  O10 UNL     1     -32.110   8.738   1.144  1.00 20.00    -0.306 OA
ENDBRANCH   6   9
TORSDOF 1
ENDMDL
MODEL 4
REMARK VINA RESULT:       1.1      2.302      3.979
REMARK  1 active torsions:
REMARK  status: ('A' for Active; 'I' for Inactive)
REMARK    1  A    between atoms: C3_3  and  C7_7 
ROOT
HETATM    1  C1  UNL     1     -34.564   6.398   3.915  1.00 20.00    -0.030 C 
HETATM    2  C2  UNL     1     -33.987   5.606   3.001  1.00 20.00    -0.025 C 
HETATM    3  C4  UNL     1     -34.104   7.792   4.204  1.00 20.00     0.028 C 
HETATM    4  C5  UNL     1     -32.733   8.101   3.600  1.00 20.00     0.021 C 
HETATM    5  C6  UNL     1     -32.828   6.037   2.128  1.00 20.00     0.018 C 
HETATM    6  C7  UNL     1     -32.585   7.579   2.153  1.00 20.00     0.016 C 
HETATM    7  C8  UNL     1     -33.028   5.475   0.713  1.00 20.00     0.015 C 
HETATM    8  C9  UNL     1     -33.507   8.365   1.206  1.00 20.00     0.023 C 
ENDROOT
BRANCH   6   9
HETATM    9  C3  UNL     1     -31.166   7.873   1.726  1.00 20.00     0.241 C 
HETATM   10  O10 UNL     1     -30.881   8.484   0.702  1.00 20.00    -0.306 OA
ENDBRANCH   6   9
TORSDOF 1
ENDMDL
MODEL 5
REMARK VINA RESULT:       1.2      1.106      1.623
REMARK  1 active torsions:
REMARK  status: ('A' for Active; 'I' for Inactive)
REMARK    1  A    between atoms: C3_3  and  C7_7 
ROOT
HETATM    1  C1  UNL     1     -32.314   8.388   2.401  1.00 20.00    -0.030 C 
HETATM    2  C2  UNL     1     -33.240   8.036   3.303  1.00 20.00    -0.025 C 
HETATM    3  C4  UNL     1     -31.632   7.409   1.498  1.00 20.00     0.028 C 
HETATM    4  C5  UNL     1     -31.853   5.956   1.923  1.00 20.00     0.021 C 
HETATM    5  C6  UNL     1     -33.735   6.618   3.491  1.00 20.00     0.018 C 
HETATM    6  C7  UNL     1     -33.317   5.666   2.326  1.00 20.00     0.016 C 
HETATM    7  C8  UNL     1     -35.249   6.642   3.745  1.00 20.00     0.015 C 
HETATM    8  C9  UNL     1     -34.237   5.756   1.097  1.00 20.00     0.023 C 
ENDROOT
BRANCH   6   9
HETATM    9  C3  UNL     1     -33.363   4.234   2.803  1.00 20.00     0.241 C 
HETATM   10  O10 UNL     1     -33.668   3.910   3.945  1.00 20.00    -0.306 OA
ENDBRANCH   6   9
TORSDOF 1
ENDMDL
MODEL 6
REMARK VINA RESULT:       1.3      1.296      2.484
REMARK  1 active torsions:
REMARK  status: ('A' for Active; 'I' for Inactive)
REMARK    1  A    between atoms: C3_3  and  C7_7 
ROOT
HETATM    1  C1  UNL     1     -31.646   7.069   1.406  1.00 20.00    -0.030 C 
HETATM    2  C2  UNL     1     -32.174   5.874   1.703  1.00 20.00    -0.025 C 
HETATM    3  C4  UNL     1     -32.250   8.366   1.842  1.00 20.00     0.028 C 
HETATM    4  C5  UNL     1     -33.678   8.208   2.370  1.00 20.00     0.021 C 
HETATM    5  C6  UNL     1     -33.418   5.690   2.544  1.00 20.00     0.018 C 
HETATM    6  C7  UNL     1     -33.839   6.987   3.304  1.00 20.00     0.016 C 
HETATM    7  C8  UNL     1     -33.228   4.478   3.467  1.00 20.00     0.015 C 
HETATM    8  C9  UNL     1     -33.065   7.213   4.614  1.00 20.00     0.023 C 
ENDROOT
BRANCH   6   9
HETATM    9  C3  UNL     1     -35.302   6.907   3.669  1.00 20.00     0.241 C 
HETATM   10  O10 UNL     1     -35.781   6.011   4.355  1.00 20.00    -0.306 OA
ENDBRANCH   6   9
TORSDOF 1
ENDMDL
MODEL 7
REMARK VINA RESULT:       1.3      1.119      2.635
REMARK  1 active torsions:
REMARK  status: ('A' for Active; 'I' for Inactive)
REMARK    1  A    between atoms: C3_3  and  C7_7 
ROOT
HETATM    1  C1  UNL     1     -31.849   8.355   2.825  1.00 20.00    -0.030 C 
HETATM    2  C2  UNL     1     -32.357   7.608   1.836  1.00 20.00    -0.025 C 
HETATM    3  C4  UNL     1     -32.431   8.401   4.203  1.00 20.00     0.028 C 
HETATM    4  C5  UNL     1     -33.827   7.780   4.278  1.00 20.00     0.021 C 
HETATM    5  C6  UNL     1     -33.554   6.697   2.000  1.00 20.00     0.018 C 
HETATM    6  C7  UNL     1     -33.935   6.452   3.494  1.00 20.00     0.016 C 
HETATM    7  C8  UNL     1     -33.312   5.400   1.214  1.00 20.00     0.015 C 
HETATM    8  C9  UNL     1     -33.092   5.361   4.176  1.00 20.00     0.023 C 
ENDROOT
BRANCH   6   9
HETATM    9  C3  UNL     1     -35.376   6.009   3.583  1.00 20.00     0.241 C 
HETATM   10  O10 UNL     1     -35.788   5.208   4.414  1.00 20.00    -0.306 OA
ENDBRANCH   6   9
TORSDOF 1
ENDMDL
MODEL 8
REMARK VINA RESULT:       1.8      1.872      2.997
REMARK  1 active torsions:
REMARK  status: ('A' for Active; 'I' for Inactive)
REMARK    1  A    between atoms: C3_3  and  C7_7 
ROOT
HETATM    1  C1  UNL     1     -33.690   8.238   3.326  1.00 20.00    -0.030 C 
HETATM    2  C2  UNL     1     -33.803   7.012   3.855  1.00 20.00    -0.025 C 
HETATM    3  C4  UNL     1     -32.907   8.530   2.085  1.00 20.00     0.028 C 
HETATM    4  C5  UNL     1     -31.998   7.371   1.672  1.00 20.00     0.021 C 
HETATM    5  C6  UNL     1     -33.187   5.773   3.243  1.00 20.00     0.018 C 
HETATM    6  C7  UNL     1     -32.694   5.996   1.778  1.00 20.00     0.016 C 
HETATM    7  C8  UNL     1     -34.168   4.600   3.384  1.00 20.00     0.015 C 
HETATM    8  C9  UNL     1     -33.811   5.881   0.727  1.00 20.00     0.023 C 
ENDROOT
BRANCH   6   9
HETATM    9  C3  UNL     1     -31.657   4.954   1.430  1.00 20.00     0.241 C 
HETATM   10  O10 UNL     1     -31.562   4.438   0.321  1.00 20.00    -0.306 OA
ENDBRANCH   6   9
TORSDOF 1
ENDMDL
MODEL 9
REMARK VINA RESULT:       1.8      1.633      3.109
REMARK  1 active torsions:
REMARK  status: ('A' for Active; 'I' for Inactive)
REMARK    1  A    between atoms: C3_3  and  C7_7 
ROOT
HETATM    1  C1  UNL     1     -33.855   7.754   4.267  1.00 20.00    -0.030 C 
HETATM    2  C2  UNL     1     -33.051   8.256   3.320  1.00 20.00    -0.025 C 
HETATM    3  C4  UNL     1     -34.604   6.468   4.114  1.00 20.00     0.028 C 
HETATM    4  C5  UNL     1     -34.619   5.959   2.671  1.00 20.00     0.021 C 
HETATM    5  C6  UNL     1     -32.774   7.567   2.001  1.00 20.00     0.018 C 
HETATM    6  C7  UNL     1     -33.241   6.078   1.980  1.00 20.00     0.016 C 
HETATM    7  C8  UNL     1     -31.293   7.746   1.640  1.00 20.00     0.015 C 
HETATM    8  C9  UNL     1     -32.236   5.107   2.624  1.00 20.00     0.023 C 
ENDROOT
BRANCH   6   9
HETATM    9  C3  UNL     1     -33.430   5.627   0.551  1.00 20.00     0.241 C 
HETATM   10  O10 UNL     1     -33.039   4.546   0.125  1.00 20.00    -0.306 OA
ENDBRANCH   6   9
TORSDOF 1
ENDMDL
