MODEL 1
REMARK VINA RESULT:      -2.2      0.000      0.000
REMARK  4 active torsions:
REMARK  status: ('A' for Active; 'I' for Inactive)
REMARK    1  A    between atoms: C3_3  and  C4_4 
REMARK    2  A    between atoms: C4_4  and  N7_7 
REMARK    3  A    between atoms: C5_5  and  C6_6 
REMARK    4  A    between atoms: C5_5  and  N7_7 
ROOT
HETATM    1  C2  UNL     1     -32.764   5.886   1.725  1.00 20.00     0.309 C 
HETATM    2  N7  UNL     1     -33.145   7.220   2.191  1.00 20.00     0.085 N 
ENDROOT
BRANCH   2   3
HETATM    3  C4  UNL     1     -32.037   8.158   2.015  1.00 20.00     0.271 C 
BRANCH   3   4
HETATM    4  C3  UNL     1     -31.929   8.666   0.582  1.00 20.00     0.026 C 
HETATM    5  C1  UNL     1     -32.522  10.057   0.405  1.00 20.00     0.007 C 
ENDBRANCH   3   4
ENDBRANCH   2   3
BRANCH   2   6
HETATM    6  C5  UNL     1     -33.557   7.173   3.593  1.00 20.00     0.286 C 
BRANCH   6   7
HETATM    7  C6  UNL     1     -34.978   6.665   3.767  1.00 20.00     0.144 C 
HETATM    8 CL8  UNL     1     -34.997   4.992   4.379  1.00 20.00    -0.129 Cl
ENDBRANCH   6   7
ENDBRANCH   2   6
TORSDOF 4
ENDMDL
MODEL 2
REMARK VINA RESULT:      -1.8      2.862      4.733
REMARK  4 active torsions:
REMARK  status: ('A' for Active; 'I' for Inactive)
REMARK    1  A    between atoms: C3_3  and  C4_4 
REMARK    2  A    between atoms: C4_4  and  N7_7 
REMARK    3  A    between atoms: C5_5  and  C6_6 
REMARK    4  A    between atoms: C5_5  and  N7_7 
ROOT
HETATM    1  C2  UNL     1     -34.976   6.624   4.019  1.00 20.00     0.309 C 
HETATM    2  N7  UNL     1     -33.958   6.410   2.990  1.00 20.00     0.085 N 
ENDROOT
BRANCH   2   3
HETATM    3  C4  UNL     1     -33.339   5.096   3.151  1.00 20.00     0.271 C 
BRANCH   3   4
HETATM    4  C3  UNL     1     -34.117   4.200   4.106  1.00 20.00     0.026 C 
HETATM    5  C1  UNL     1     -33.272   3.069   4.674  1.00 20.00     0.007 C 
ENDBRANCH   3   4
ENDBRANCH   2   3
BRANCH   2   6
HETATM    6  C5  UNL     1     -32.946   7.464   3.046  1.00 20.00     0.286 C 
BRANCH   6   7
HETATM    7  C6  UNL     1     -32.110   7.537   1.780  1.00 20.00     0.144 C 
HETATM    8 CL8  UNL     1     -32.330   9.097   0.948  1.00 20.00    -0.129 Cl
ENDBRANCH   6   7
ENDBRANCH   2   6
TORSDOF 4
ENDMDL
MODEL 3
REMARK VINA RESULT:      -1.8      2.655      4.180
REMARK  4 active torsions:
REMARK  status: ('A' for Active; 'I' for Inactive)
REMARK    1  A    between atoms: C3_3  and  C4_4 
REMARK    2  A    between atoms: C4_4  and  N7_7 
REMARK    3  A    between atoms: C5_5  and  C6_6 
REMARK    4  A    between atoms: C5_5  and  N7_7 
ROOT
HETATM    1  C2  UNL     1     -32.727   5.817   1.460  1.00 20.00     0.309 C 
HETATM    2  N7  UNL     1     -32.482   7.060   2.191  1.00 20.00     0.085 N 
ENDROOT
BRANCH   2   3
HETATM    3  C4  UNL     1     -33.745   7.654   2.627  1.00 20.00     0.271 C 
BRANCH   3   4
HETATM    4  C3  UNL     1     -34.129   7.229   4.039  1.00 20.00     0.026 C 
HETATM    5  C1  UNL     1     -35.265   6.216   4.061  1.00 20.00     0.007 C 
ENDBRANCH   3   4
ENDBRANCH   2   3
BRANCH   2   6
HETATM    6  C5  UNL     1     -31.733   8.002   1.361  1.00 20.00     0.286 C 
BRANCH   6   7
HETATM    7  C6  UNL     1     -32.413   9.357   1.258  1.00 20.00     0.144 C 
HETATM    8 CL8  UNL     1     -32.666   9.827  -0.442  1.00 20.00    -0.129 Cl
ENDBRANCH   6   7
ENDBRANCH   2   6
TORSDOF 4
ENDMDL
MODEL 4
REMARK VINA RESULT:      -1.7      1.408      1.413
REMARK  4 active torsions:
REMARK  status: ('A' for Active; 'I' for Inactive)
REMARK    1  A    between atoms: C3_3  and  C4_4 
REMARK    2  A    between atoms: C4_4  and  N7_7 
REMARK    3  A    between atoms: C5_5  and  C6_6 
REMARK    4  A    between atoms: C5_5  and  N7_7 
ROOT
HETATM    1  C2  UNL     1     -32.151   5.658   1.258  1.00 20.00     0.309 C 
HETATM    2  N7  UNL     1     -32.988   6.706   1.843  1.00 20.00     0.085 N 
ENDROOT
BRANCH   2   3
HETATM    3  C4  UNL     1     -32.219   7.938   2.014  1.00 20.00     0.271 C 
BRANCH   3   4
HETATM    4  C3  UNL     1     -31.816   8.559   0.683  1.00 20.00     0.026 C 
HETATM    5  C1  UNL     1     -32.502   9.893   0.423  1.00 20.00     0.007 C 
ENDBRANCH   3   4
ENDBRANCH   2   3
BRANCH   2   6
HETATM    6  C5  UNL     1     -33.539   6.265   3.123  1.00 20.00     0.286 C 
BRANCH   6   7
HETATM    7  C6  UNL     1     -34.367   7.342   3.804  1.00 20.00     0.144 C 
HETATM    8 CL8  UNL     1     -33.444   8.149   5.096  1.00 20.00    -0.129 Cl
ENDBRANCH   6   7
ENDBRANCH   2   6
TORSDOF 4
ENDMDL
MODEL 5
REMARK VINA RESULT:      -1.6      1.191      1.963
REMARK  4 active torsions:
REMARK  status: ('A' for Active; 'I' for Inactive)
REMARK    1  A    between atoms: C3_3  and  C4_4 
REMARK    2  A    between atoms: C4_4  and  N7_7 
REMARK    3  A    between atoms: C5_5  and  C6_6 
REMARK    4  A    between atoms: C5_5  and  N7_7 
ROOT
HETATM    1  C2  UNL     1     -33.555   8.073   4.342  1.00 20.00     0.309 C 
HETATM    2  N7  UNL     1     -33.696   6.808   3.620  1.00 20.00     0.085 N 
ENDROOT
BRANCH   2   3
HETATM    3  C4  UNL     1     -33.253   6.958   2.234  1.00 20.00     0.271 C 
BRANCH   3   4
HETATM    4  C3  UNL     1     -32.073   7.913   2.103  1.00 20.00     0.026 C 
HETATM    5  C1  UNL     1     -32.215   8.866   0.925  1.00 20.00     0.007 C 
ENDBRANCH   3   4
ENDBRANCH   2   3
BRANCH   2   6
HETATM    6  C5  UNL     1     -35.082   6.345   3.666  1.00 20.00     0.286 C 
BRANCH   6   7
HETATM    7  C6  UNL     1     -35.251   5.092   4.509  1.00 20.00     0.144 C 
HETATM    8 CL8  UNL     1     -33.949   3.919   4.193  1.00 20.00    -0.129 Cl
ENDBRANCH   6   7
ENDBRANCH   2   6
TORSDOF 4
ENDMDL
MODEL 6
REMARK VINA RESULT:      -1.6      2.891      4.855
REMARK  4 active torsions:
REMARK  status: ('A' for Active; 'I' for Inactive)
REMARK    1  A    between atoms: C3_3  and  C4_4 
REMARK    2  A    between atoms: C4_4  and  N7_7 
REMARK    3  A    between atoms: C5_5  and  C6_6 
REMARK    4  A    between atoms: C5_5  and  N7_7 
ROOT
HETATM    1  C2  UNL     1     -34.308   7.248   4.079  1.00 20.00     0.309 C 
HETATM    2  N7  UNL     1     -34.312   5.967   3.371  1.00 20.00     0.085 N 
ENDROOT
BRANCH   2   3
HETATM    3  C4  UNL     1     -34.559   4.869   4.304  1.00 20.00     0.271 C 
BRANCH   3   4
HETATM    4  C3  UNL     1     -33.767   3.617   3.948  1.00 20.00     0.026 C 
HETATM    5  C1  UNL     1     -33.054   3.011   5.149  1.00 20.00     0.007 C 
ENDBRANCH   3   4
ENDBRANCH   2   3
BRANCH   2   6
HETATM    6  C5  UNL     1     -33.046   5.768   2.668  1.00 20.00     0.286 C 
BRANCH   6   7
HETATM    7  C6  UNL     1     -32.924   6.635   1.427  1.00 20.00     0.144 C 
HETATM    8 CL8  UNL     1     -31.760   7.961   1.675  1.00 20.00    -0.129 Cl
ENDBRANCH   6   7
ENDBRANCH   2   6
TORSDOF 4
ENDMDL
MODEL 7
REMARK VINA RESULT:      -1.6      1.679      2.186
REMARK  4 active torsions:
REMARK  status: ('A' for Active; 'I' for Inactive)
REMARK    1  A    between atoms: C3_3  and  C4_4 
REMARK    2  A    between atoms: C4_4  and  N7_7 
REMARK    3  A    between atoms: C5_5  and  C6_6 
REMARK    4  A    between atoms: C5_5  and  N7_7 
ROOT
HETATM    1  C2  UNL     1     -34.527   7.006   3.698  1.00 20.00     0.309 C 
HETATM    2  N7  UNL     1     -33.415   6.243   3.130  1.00 20.00     0.085 N 
ENDROOT
BRANCH   2   3
HETATM    3  C4  UNL     1     -33.059   6.765   1.811  1.00 20.00     0.271 C 
BRANCH   3   4
HETATM    4  C3  UNL     1     -31.963   7.821   1.882  1.00 20.00     0.026 C 
HETATM    5  C1  UNL     1     -32.184   8.966   0.904  1.00 20.00     0.007 C 
ENDBRANCH   3   4
ENDBRANCH   2   3
BRANCH   2   6
HETATM    6  C5  UNL     1     -33.761   4.825   3.043  1.00 20.00     0.286 C 
BRANCH   6   7
HETATM    7  C6  UNL     1     -34.160   4.238   4.386  1.00 20.00     0.144 C 
HETATM    8 CL8  UNL     1     -33.099   2.880   4.841  1.00 20.00    -0.129 Cl
ENDBRANCH   6   7
ENDBRANCH   2   6
TORSDOF 4
ENDMDL
MODEL 8
REMARK VINA RESULT:      -1.2      2.831      3.817
REMARK  4 active torsions:
REMARK  status: ('A' for Active; 'I' for Inactive)
REMARK    1  A    between atoms: C3_3  and  C4_4 
REMARK    2  A    between atoms: C4_4  and  N7_7 
REMARK    3  A    between atoms: C5_5  and  C6_6 
REMARK    4  A    between atoms: C5_5  and  N7_7 
ROOT
HETATM    1  C2  UNL     1     -33.904   4.110   3.900  1.00 20.00     0.309 C 
HETATM    2  N7  UNL     1     -33.711   5.496   3.474  1.00 20.00     0.085 N 
ENDROOT
BRANCH   2   3
HETATM    3  C4  UNL     1     -34.857   6.315   3.865  1.00 20.00     0.271 C 
BRANCH   3   4
HETATM    4  C3  UNL     1     -34.493   7.787   4.019  1.00 20.00     0.026 C 
HETATM    5  C1  UNL     1     -33.296   8.005   4.933  1.00 20.00     0.007 C 
ENDBRANCH   3   4
ENDBRANCH   2   3
BRANCH   2   6
HETATM    6  C5  UNL     1     -33.503   5.563   2.028  1.00 20.00     0.286 C 
BRANCH   6   7
HETATM    7  C6  UNL     1     -32.079   5.944   1.660  1.00 20.00     0.144 C 
HETATM    8 CL8  UNL     1     -31.874   7.713   1.614  1.00 20.00    -0.129 Cl
ENDBRANCH   6   7
ENDBRANCH   2   6
TORSDOF 4
ENDMDL
MODEL 9
REMARK VINA RESULT:      -1.2      1.859      2.687
REMARK  4 active torsions:
REMARK  status: ('A' for Active; 'I' for Inactive)
REMARK    1  A    between atoms: C3_3  and  C4_4 
REMARK    2  A    between atoms: C4_4  and  N7_7 
REMARK    3  A    between atoms: C5_5  and  C6_6 
REMARK    4  A    between atoms: C5_5  and  N7_7 
ROOT
HETATM    1  C2  UNL     1     -33.633   8.139   4.769  1.00 20.00     0.309 C 
HETATM    2  N7  UNL     1     -33.634   7.001   3.849  1.00 20.00     0.085 N 
ENDROOT
BRANCH   2   3
HETATM    3  C4  UNL     1     -33.052   7.382   2.563  1.00 20.00     0.271 C 
BRANCH   3   4
HETATM    4  C3  UNL     1     -33.148   6.268   1.529  1.00 20.00     0.026 C 
HETATM    5  C1  UNL     1     -31.854   5.479   1.391  1.00 20.00     0.007 C 
ENDBRANCH   3   4
ENDBRANCH   2   3
BRANCH   2   6
HETATM    6  C5  UNL     1     -34.993   6.494   3.665  1.00 20.00     0.286 C 
BRANCH   6   7
HETATM    7  C6  UNL     1     -35.256   5.227   4.461  1.00 20.00     0.144 C 
HETATM    8 CL8  UNL     1     -33.991   4.006   4.171  1.00 20.00    -0.129 Cl
ENDBRANCH   6   7
ENDBRANCH   2   6
TORSDOF 4
ENDMDL
