MODEL 1
REMARK VINA RESULT:      -0.4      0.000      0.000
REMARK  1 active torsions:
REMARK  status: ('A' for Active; 'I' for Inactive)
REMARK    1  A    between atoms: C3_3  and  C7_7 
ROOT
HETATM    1  C1  UNL     1     -34.426   7.388   3.994  1.00 20.00    -0.030 C 
HETATM    2  C2  UNL     1     -33.396   8.042   3.438  1.00 20.00    -0.025 C 
HETATM    3  C4  UNL     1     -34.701   5.935   3.757  1.00 20.00     0.028 C 
HETATM    4  C5  UNL     1     -33.538   5.210   3.075  1.00 20.00     0.021 C 
HETATM    5  C6  UNL     1     -32.412   7.401   2.487  1.00 20.00     0.018 C 
HETATM    6  C7  UNL     1     -32.916   6.034   1.926  1.00 20.00     0.016 C 
HETATM    7  C8  UNL     1     -32.029   8.399   1.385  1.00 20.00     0.015 C 
HETATM    8  C9  UNL     1     -33.918   6.178   0.766  1.00 20.00     0.023 C 
ENDROOT
BRANCH   6   9
HETATM    9  C3  UNL     1     -31.737   5.241   1.415  1.00 20.00     0.241 C 
HETATM   10  O10 UNL     1     -31.744   4.626   0.354  1.00 20.00    -0.306 OA
ENDBRANCH   6   9
TORSDOF 1
ENDMDL
MODEL 2
REMARK VINA RESULT:      -0.2      1.820      3.020
REMARK  1 active torsions:
REMARK  status: ('A' for Active; 'I' for Inactive)
REMARK    1  A    between atoms: C3_3  and  C7_7 
ROOT
HETATM    1  C1  UNL     1     -34.197   6.274   3.826  1.00 20.00    -0.030 C 
HETATM    2  C2  UNL     1     -33.691   5.666   2.744  1.00 20.00    -0.025 C 
HETATM    3  C4  UNL     1     -34.148   7.756   4.035  1.00 20.00     0.028 C 
HETATM    4  C5  UNL     1     -33.745   8.525   2.773  1.00 20.00     0.021 C 
HETATM    5  C6  UNL     1     -32.988   6.398   1.624  1.00 20.00     0.018 C 
HETATM    6  C7  UNL     1     -32.578   7.853   2.016  1.00 20.00     0.016 C 
HETATM    7  C8  UNL     1     -31.809   5.558   1.114  1.00 20.00     0.015 C 
HETATM    8  C9  UNL     1     -31.287   7.923   2.850  1.00 20.00     0.023 C 
ENDROOT
BRANCH   6   9
HETATM    9  C3  UNL     1     -32.355   8.663   0.760  1.00 20.00     0.241 C 
HETATM   10  O10 UNL     1     -32.516   9.877   0.701  1.00 20.00    -0.306 OA
ENDBRANCH   6   9
TORSDOF 1
ENDMDL
MODEL 3
REMARK VINA RESULT:       0.2      2.066      3.376
REMARK  1 active torsions:
REMARK  status: ('A' for Active; 'I' for Inactive)
REMARK    1  A    between atoms: C3_3  and  C7_7 
ROOT
HETATM    1  C1  UNL     1     -31.914   7.272   1.630  1.00 20.00    -0.030 C 
HETATM    2  C2  UNL     1     -32.337   8.016   2.661  1.00 20.00    -0.025 C 
HETATM    3  C4  UNL     1     -32.588   6.008   1.195  1.00 20.00     0.028 C 
HETATM    4  C5  UNL     1     -33.964   5.813   1.839  1.00 20.00     0.021 C 
HETATM    5  C6  UNL     1     -33.525   7.653   3.523  1.00 20.00     0.018 C 
HETATM    6  C7  UNL     1     -33.972   6.168   3.342  1.00 20.00     0.016 C 
HETATM    7  C8  UNL     1     -33.237   8.020   4.985  1.00 20.00     0.015 C 
HETATM    8  C9  UNL     1     -33.112   5.167   4.134  1.00 20.00     0.023 C 
ENDROOT
BRANCH   6   9
HETATM    9  C3  UNL     1     -35.399   6.017   3.814  1.00 20.00     0.241 C 
HETATM   10  O10 UNL     1     -35.767   5.136   4.584  1.00 20.00    -0.306 OA
ENDBRANCH   6   9
TORSDOF 1
ENDMDL
MODEL 4
REMARK VINA RESULT:       0.6      1.989      3.084
REMARK  1 active torsions:
REMARK  status: ('A' for Active; 'I' for Inactive)
REMARK    1  A    between atoms: C3_3  and  C7_7 
ROOT
HETATM    1  C1  UNL     1     -32.236   8.388   2.466  1.00 20.00    -0.030 C 
HETATM    2  C2  UNL     1     -32.220   7.264   1.736  1.00 20.00    -0.025 C 
HETATM    3  C4  UNL     1     -32.919   8.498   3.793  1.00 20.00     0.028 C 
HETATM    4  C5  UNL     1     -33.330   7.140   4.369  1.00 20.00     0.021 C 
HETATM    5  C6  UNL     1     -32.913   5.987   2.152  1.00 20.00     0.018 C 
HETATM    6  C7  UNL     1     -33.945   6.206   3.303  1.00 20.00     0.016 C 
HETATM    7  C8  UNL     1     -33.521   5.302   0.921  1.00 20.00     0.015 C 
HETATM    8  C9  UNL     1     -35.296   6.761   2.819  1.00 20.00     0.023 C 
ENDROOT
BRANCH   6   9
HETATM    9  C3  UNL     1     -34.213   4.886   3.989  1.00 20.00     0.241 C 
HETATM   10  O10 UNL     1     -35.255   4.632   4.583  1.00 20.00    -0.306 OA
ENDBRANCH   6   9
TORSDOF 1
ENDMDL
MODEL 5
REMARK VINA RESULT:       1.0      2.237      3.917
REMARK  1 active torsions:
REMARK  status: ('A' for Active; 'I' for Inactive)
REMARK    1  A    between atoms: C3_3  and  C7_7 
ROOT
HETATM    1  C1  UNL     1     -32.613   5.725   1.299  1.00 20.00    -0.030 C 
HETATM    2  C2  UNL     1     -32.959   4.969   2.351  1.00 20.00    -0.025 C 
HETATM    3  C4  UNL     1     -32.661   7.221   1.311  1.00 20.00     0.028 C 
HETATM    4  C5  UNL     1     -32.848   7.803   2.716  1.00 20.00     0.021 C 
HETATM    5  C6  UNL     1     -33.464   5.534   3.658  1.00 20.00     0.018 C 
HETATM    6  C7  UNL     1     -33.898   7.029   3.544  1.00 20.00     0.016 C 
HETATM    7  C8  UNL     1     -34.568   4.629   4.223  1.00 20.00     0.015 C 
HETATM    8  C9  UNL     1     -35.301   7.217   2.939  1.00 20.00     0.023 C 
ENDROOT
BRANCH   6   9
HETATM    9  C3  UNL     1     -33.906   7.652   4.920  1.00 20.00     0.241 C 
HETATM   10  O10 UNL     1     -32.996   8.351   5.351  1.00 20.00    -0.306 OA
ENDBRANCH   6   9
TORSDOF 1
ENDMDL
MODEL 6
REMARK VINA RESULT:       1.1      0.968      2.661
REMARK  1 active torsions:
REMARK  status: ('A' for Active; 'I' for Inactive)
REMARK    1  A    between atoms: C3_3  and  C7_7 
ROOT
HETATM    1  C1  UNL     1     -32.606   8.184   3.481  1.00 20.00    -0.030 C 
HETATM    2  C2  UNL     1     -33.499   7.225   3.765  1.00 20.00    -0.025 C 
HETATM    3  C4  UNL     1     -31.916   8.300   2.157  1.00 20.00     0.028 C 
HETATM    4  C5  UNL     1     -32.546   7.418   1.076  1.00 20.00     0.021 C 
HETATM    5  C6  UNL     1     -33.893   6.135   2.795  1.00 20.00     0.018 C 
HETATM    6  C7  UNL     1     -32.903   6.007   1.594  1.00 20.00     0.016 C 
HETATM    7  C8  UNL     1     -34.093   4.815   3.552  1.00 20.00     0.015 C 
HETATM    8  C9  UNL     1     -31.624   5.221   1.934  1.00 20.00     0.023 C 
ENDROOT
BRANCH   6   9
HETATM    9  C3  UNL     1     -33.592   5.290   0.456  1.00 20.00     0.241 C 
HETATM   10  O10 UNL     1     -33.166   4.256  -0.047  1.00 20.00    -0.306 OA
ENDBRANCH   6   9
TORSDOF 1
ENDMDL
MODEL 7
REMARK VINA RESULT:       1.9      1.512      2.163
REMARK  1 active torsions:
REMARK  status: ('A' for Active; 'I' for Inactive)
REMARK    1  A    between atoms: C3_3  and  C7_7 
ROOT
HETATM    1  C1  UNL     1     -34.964   5.044   4.310  1.00 20.00    -0.030 C 
HETATM    2  C2  UNL     1     -34.934   6.384   4.347  1.00 20.00    -0.025 C 
HETATM    3  C4  UNL     1     -33.984   4.220   3.534  1.00 20.00     0.028 C 
HETATM    4  C5  UNL     1     -32.780   5.029   3.042  1.00 20.00     0.021 C 
HETATM    5  C6  UNL     1     -33.929   7.220   3.588  1.00 20.00     0.018 C 
HETATM    6  C7  UNL     1     -33.182   6.410   2.481  1.00 20.00     0.016 C 
HETATM    7  C8  UNL     1     -34.607   8.488   3.053  1.00 20.00     0.015 C 
HETATM    8  C9  UNL     1     -33.998   6.246   1.186  1.00 20.00     0.023 C 
ENDROOT
BRANCH   6   9
HETATM    9  C3  UNL     1     -31.898   7.122   2.125  1.00 20.00     0.241 C 
HETATM   10  O10 UNL     1     -31.849   8.092   1.375  1.00 20.00    -0.306 OA
ENDBRANCH   6   9
TORSDOF 1
ENDMDL
MODEL 8
REMARK VINA RESULT:       2.5      2.118      3.311
REMARK  1 active torsions:
REMARK  status: ('A' for Active; 'I' for Inactive)
REMARK    1  A    between atoms: C3_3  and  C7_7 
ROOT
HETATM    1  C1  UNL     1     -33.527   5.217   1.892  1.00 20.00    -0.030 C 
HETATM    2  C2  UNL     1     -33.909   5.916   2.970  1.00 20.00    -0.025 C 
HETATM    3  C4  UNL     1     -32.361   5.600   1.034  1.00 20.00     0.028 C 
HETATM    4  C5  UNL     1     -31.477   6.676   1.672  1.00 20.00     0.021 C 
HETATM    5  C6  UNL     1     -33.230   7.186   3.429  1.00 20.00     0.018 C 
HETATM    6  C7  UNL     1     -32.299   7.802   2.337  1.00 20.00     0.016 C 
HETATM    7  C8  UNL     1     -34.278   8.175   3.954  1.00 20.00     0.015 C 
HETATM    8  C9  UNL     1     -33.058   8.613   1.271  1.00 20.00     0.023 C 
ENDROOT
BRANCH   6   9
HETATM    9  C3  UNL     1     -31.306   8.731   2.996  1.00 20.00     0.241 C 
HETATM   10  O10 UNL     1     -31.381   9.078   4.170  1.00 20.00    -0.306 OA
ENDBRANCH   6   9
TORSDOF 1
ENDMDL
MODEL 9
REMARK VINA RESULT:       2.5      2.271      3.494
REMARK  1 active torsions:
REMARK  status: ('A' for Active; 'I' for Inactive)
REMARK    1  A    between atoms: C3_3  and  C7_7 
ROOT
HETATM    1  C1  UNL     1     -33.122   3.979   3.813  1.00 20.00    -0.030 C 
HETATM    2  C2  UNL     1     -32.879   4.765   2.755  1.00 20.00    -0.025 C 
HETATM    3  C4  UNL     1     -34.246   4.215   4.774  1.00 20.00     0.028 C 
HETATM    4  C5  UNL     1     -35.259   5.245   4.267  1.00 20.00     0.021 C 
HETATM    5  C6  UNL     1     -33.692   5.996   2.424  1.00 20.00     0.018 C 
HETATM    6  C7  UNL     1     -34.583   6.472   3.615  1.00 20.00     0.016 C 
HETATM    7  C8  UNL     1     -32.769   7.098   1.886  1.00 20.00     0.015 C 
HETATM    8  C9  UNL     1     -33.813   7.284   4.671  1.00 20.00     0.023 C 
ENDROOT
BRANCH   6   9
HETATM    9  C3  UNL     1     -35.695   7.347   3.086  1.00 20.00     0.241 C 
HETATM   10  O10 UNL     1     -36.824   6.934   2.846  1.00 20.00    -0.306 OA
ENDBRANCH   6   9
TORSDOF 1
ENDMDL
