MODEL 1
REMARK VINA RESULT:      -0.9      0.000      0.000
REMARK  3 active torsions:
REMARK  status: ('A' for Active; 'I' for Inactive)
REMARK    1  A    between atoms: C1_1  and  N8_8 
REMARK    2  A    between atoms: C6_6  and  C7_7 
REMARK    3  A    between atoms: C6_6  and  N8_8 
ROOT
HETATM    1  C2  UNL     1     -34.569   6.830   3.673  1.00 20.00     0.033 C 
HETATM    2  C6  UNL     1     -33.438   5.892   3.244  1.00 20.00     0.087 C 
ENDROOT
BRANCH   2   3
HETATM    3  C7  UNL     1     -32.822   6.201   1.842  1.00 20.00    -0.031 C 
HETATM    4  C3  UNL     1     -33.865   6.100   0.713  1.00 20.00     0.016 C 
HETATM    5  C4  UNL     1     -32.217   7.620   1.822  1.00 20.00     0.016 C 
HETATM    6  C5  UNL     1     -31.680   5.204   1.540  1.00 20.00     0.016 C 
ENDBRANCH   2   3
BRANCH   2   7
HETATM    7  N8  UNL     1     -33.904   4.524   3.342  1.00 20.00    -0.363 N 
HETATM    8  H24 UNL     1     -34.287   4.085   2.512  1.00 20.00     0.162 HD
BRANCH   7   9
HETATM    9  C1  UNL     1     -33.851   3.792   4.504  1.00 20.00     0.348 C 
HETATM   10  O9  UNL     1     -33.059   2.908   4.805  1.00 20.00    -0.284 OA
ENDBRANCH   7   9
ENDBRANCH   2   7
TORSDOF 3
ENDMDL
MODEL 2
REMARK VINA RESULT:      -0.9      0.022      1.444
REMARK  3 active torsions:
REMARK  status: ('A' for Active; 'I' for Inactive)
REMARK    1  A    between atoms: C1_1  and  N8_8 
REMARK    2  A    between atoms: C6_6  and  C7_7 
REMARK    3  A    between atoms: C6_6  and  N8_8 
ROOT
HETATM    1  C2  UNL     1     -34.582   6.828   3.668  1.00 20.00     0.033 C 
HETATM    2  C6  UNL     1     -33.439   5.900   3.250  1.00 20.00     0.087 C 
ENDROOT
BRANCH   2   3
HETATM    3  C7  UNL     1     -32.806   6.221   1.858  1.00 20.00    -0.031 C 
HETATM    4  C3  UNL     1     -32.207   7.639   1.805  1.00 20.00     0.016 C 
HETATM    5  C4  UNL     1     -31.691   5.208   1.528  1.00 20.00     0.016 C 
HETATM    6  C5  UNL     1     -33.882   6.106   0.754  1.00 20.00     0.016 C 
ENDBRANCH   2   3
BRANCH   2   7
HETATM    7  N8  UNL     1     -33.896   4.528   3.335  1.00 20.00    -0.363 N 
HETATM    8  H24 UNL     1     -34.263   4.090   2.497  1.00 20.00     0.162 HD
BRANCH   7   9
HETATM    9  C1  UNL     1     -33.856   3.792   4.495  1.00 20.00     0.348 C 
HETATM   10  O9  UNL     1     -33.060   2.917   4.807  1.00 20.00    -0.284 OA
ENDBRANCH   7   9
ENDBRANCH   2   7
TORSDOF 3
ENDMDL
MODEL 3
REMARK VINA RESULT:      -0.9      0.032      1.436
REMARK  3 active torsions:
REMARK  status: ('A' for Active; 'I' for Inactive)
REMARK    1  A    between atoms: C1_1  and  N8_8 
REMARK    2  A    between atoms: C6_6  and  C7_7 
REMARK    3  A    between atoms: C6_6  and  N8_8 
ROOT
HETATM    1  C2  UNL     1     -34.590   6.822   3.663  1.00 20.00     0.033 C 
HETATM    2  C6  UNL     1     -33.447   5.893   3.250  1.00 20.00     0.087 C 
ENDROOT
BRANCH   2   3
HETATM    3  C7  UNL     1     -32.819   6.203   1.853  1.00 20.00    -0.031 C 
HETATM    4  C3  UNL     1     -31.694   5.215   1.490  1.00 20.00     0.016 C 
HETATM    5  C4  UNL     1     -33.897   6.140   0.752  1.00 20.00     0.016 C 
HETATM    6  C5  UNL     1     -32.231   7.632   1.849  1.00 20.00     0.016 C 
ENDBRANCH   2   3
BRANCH   2   7
HETATM    7  N8  UNL     1     -33.903   4.521   3.347  1.00 20.00    -0.363 N 
HETATM    8  H24 UNL     1     -34.274   4.077   2.515  1.00 20.00     0.162 HD
BRANCH   7   9
HETATM    9  C1  UNL     1     -33.854   3.793   4.511  1.00 20.00     0.348 C 
HETATM   10  O9  UNL     1     -33.067   2.906   4.816  1.00 20.00    -0.284 OA
ENDBRANCH   7   9
ENDBRANCH   2   7
TORSDOF 3
ENDMDL
MODEL 4
REMARK VINA RESULT:      -0.8      3.017      4.340
REMARK  3 active torsions:
REMARK  status: ('A' for Active; 'I' for Inactive)
REMARK    1  A    between atoms: C1_1  and  N8_8 
REMARK    2  A    between atoms: C6_6  and  C7_7 
REMARK    3  A    between atoms: C6_6  and  N8_8 
ROOT
HETATM    1  C2  UNL     1     -33.116   5.824   1.392  1.00 20.00     0.033 C 
HETATM    2  C6  UNL     1     -32.980   6.582   2.715  1.00 20.00     0.087 C 
ENDROOT
BRANCH   2   3
HETATM    3  C7  UNL     1     -34.253   6.555   3.622  1.00 20.00    -0.031 C 
HETATM    4  C3  UNL     1     -35.528   6.934   2.846  1.00 20.00     0.016 C 
HETATM    5  C4  UNL     1     -34.451   5.152   4.230  1.00 20.00     0.016 C 
HETATM    6  C5  UNL     1     -34.083   7.550   4.793  1.00 20.00     0.016 C 
ENDBRANCH   2   3
BRANCH   2   7
HETATM    7  N8  UNL     1     -32.541   7.933   2.437  1.00 20.00    -0.363 N 
HETATM    8  H24 UNL     1     -32.663   8.638   3.156  1.00 20.00     0.162 HD
BRANCH   7   9
HETATM    9  C1  UNL     1     -31.965   8.307   1.246  1.00 20.00     0.348 C 
HETATM   10  O9  UNL     1     -32.245   9.267   0.540  1.00 20.00    -0.284 OA
ENDBRANCH   7   9
ENDBRANCH   2   7
TORSDOF 3
ENDMDL
MODEL 5
REMARK VINA RESULT:      -0.8      3.011      4.313
REMARK  3 active torsions:
REMARK  status: ('A' for Active; 'I' for Inactive)
REMARK    1  A    between atoms: C1_1  and  N8_8 
REMARK    2  A    between atoms: C6_6  and  C7_7 
REMARK    3  A    between atoms: C6_6  and  N8_8 
ROOT
HETATM    1  C2  UNL     1     -33.120   5.816   1.375  1.00 20.00     0.033 C 
HETATM    2  C6  UNL     1     -32.970   6.561   2.703  1.00 20.00     0.087 C 
ENDROOT
BRANCH   2   3
HETATM    3  C7  UNL     1     -34.232   6.527   3.624  1.00 20.00    -0.031 C 
HETATM    4  C3  UNL     1     -34.468   5.132   4.235  1.00 20.00     0.016 C 
HETATM    5  C4  UNL     1     -34.087   7.544   4.773  1.00 20.00     0.016 C 
HETATM    6  C5  UNL     1     -35.486   6.919   2.809  1.00 20.00     0.016 C 
ENDBRANCH   2   3
BRANCH   2   7
HETATM    7  N8  UNL     1     -32.533   7.915   2.432  1.00 20.00    -0.363 N 
HETATM    8  H24 UNL     1     -32.667   8.618   3.150  1.00 20.00     0.162 HD
BRANCH   7   9
HETATM    9  C1  UNL     1     -31.946   8.294   1.248  1.00 20.00     0.348 C 
HETATM   10  O9  UNL     1     -32.231   9.245   0.533  1.00 20.00    -0.284 OA
ENDBRANCH   7   9
ENDBRANCH   2   7
TORSDOF 3
ENDMDL
MODEL 6
REMARK VINA RESULT:      -0.6      1.981      2.604
REMARK  3 active torsions:
REMARK  status: ('A' for Active; 'I' for Inactive)
REMARK    1  A    between atoms: C1_1  and  N8_8 
REMARK    2  A    between atoms: C6_6  and  C7_7 
REMARK    3  A    between atoms: C6_6  and  N8_8 
ROOT
HETATM    1  C2  UNL     1     -33.085   5.598   1.732  1.00 20.00     0.033 C 
HETATM    2  C6  UNL     1     -33.392   7.034   2.164  1.00 20.00     0.087 C 
ENDROOT
BRANCH   2   3
HETATM    3  C7  UNL     1     -32.228   8.052   1.941  1.00 20.00    -0.031 C 
HETATM    4  C3  UNL     1     -32.628   9.192   0.985  1.00 20.00     0.016 C 
HETATM    5  C4  UNL     1     -31.792   8.673   3.283  1.00 20.00     0.016 C 
HETATM    6  C5  UNL     1     -31.002   7.324   1.344  1.00 20.00     0.016 C 
ENDBRANCH   2   3
BRANCH   2   7
HETATM    7  N8  UNL     1     -33.845   7.021   3.540  1.00 20.00    -0.363 N 
HETATM    8  H24 UNL     1     -33.221   7.375   4.256  1.00 20.00     0.162 HD
BRANCH   7   9
HETATM    9  C1  UNL     1     -35.080   6.553   3.921  1.00 20.00     0.348 C 
HETATM   10  O9  UNL     1     -35.369   5.442   4.346  1.00 20.00    -0.284 OA
ENDBRANCH   7   9
ENDBRANCH   2   7
TORSDOF 3
ENDMDL
MODEL 7
REMARK VINA RESULT:      -0.5      1.953      2.933
REMARK  3 active torsions:
REMARK  status: ('A' for Active; 'I' for Inactive)
REMARK    1  A    between atoms: C1_1  and  N8_8 
REMARK    2  A    between atoms: C6_6  and  C7_7 
REMARK    3  A    between atoms: C6_6  and  N8_8 
ROOT
HETATM    1  C2  UNL     1     -33.076   5.620   1.708  1.00 20.00     0.033 C 
HETATM    2  C6  UNL     1     -33.387   7.044   2.173  1.00 20.00     0.087 C 
ENDROOT
BRANCH   2   3
HETATM    3  C7  UNL     1     -32.215   8.064   1.998  1.00 20.00    -0.031 C 
HETATM    4  C3  UNL     1     -31.804   8.712   3.333  1.00 20.00     0.016 C 
HETATM    5  C4  UNL     1     -30.980   7.365   1.394  1.00 20.00     0.016 C 
HETATM    6  C5  UNL     1     -32.639   9.186   1.023  1.00 20.00     0.016 C 
ENDBRANCH   2   3
BRANCH   2   7
HETATM    7  N8  UNL     1     -33.863   6.996   3.540  1.00 20.00    -0.363 N 
HETATM    8  H24 UNL     1     -33.265   7.361   4.272  1.00 20.00     0.162 HD
BRANCH   7   9
HETATM    9  C1  UNL     1     -35.088   6.480   3.892  1.00 20.00     0.348 C 
HETATM   10  O9  UNL     1     -35.337   5.376   4.357  1.00 20.00    -0.284 OA
ENDBRANCH   7   9
ENDBRANCH   2   7
TORSDOF 3
ENDMDL
MODEL 8
REMARK VINA RESULT:      -0.3      3.264      4.073
REMARK  3 active torsions:
REMARK  status: ('A' for Active; 'I' for Inactive)
REMARK    1  A    between atoms: C1_1  and  N8_8 
REMARK    2  A    between atoms: C6_6  and  C7_7 
REMARK    3  A    between atoms: C6_6  and  N8_8 
ROOT
HETATM    1  C2  UNL     1     -33.463   7.654   3.615  1.00 20.00     0.033 C 
HETATM    2  C6  UNL     1     -33.136   7.359   2.149  1.00 20.00     0.087 C 
ENDROOT
BRANCH   2   3
HETATM    3  C7  UNL     1     -33.007   5.843   1.795  1.00 20.00    -0.031 C 
HETATM    4  C3  UNL     1     -33.748   5.485   0.492  1.00 20.00     0.016 C 
HETATM    5  C4  UNL     1     -31.524   5.452   1.635  1.00 20.00     0.016 C 
HETATM    6  C5  UNL     1     -33.594   4.986   2.939  1.00 20.00     0.016 C 
ENDBRANCH   2   3
BRANCH   2   7
HETATM    7  N8  UNL     1     -31.952   8.106   1.776  1.00 20.00    -0.363 N 
HETATM    8  H24 UNL     1     -31.100   7.952   2.303  1.00 20.00     0.162 HD
BRANCH   7   9
HETATM    9  C1  UNL     1     -31.928   9.012   0.743  1.00 20.00     0.348 C 
HETATM   10  O9  UNL     1     -32.631  10.001   0.589  1.00 20.00    -0.284 OA
ENDBRANCH   7   9
ENDBRANCH   2   7
TORSDOF 3
ENDMDL
MODEL 9
REMARK VINA RESULT:      -0.3      3.280      4.233
REMARK  3 active torsions:
REMARK  status: ('A' for Active; 'I' for Inactive)
REMARK    1  A    between atoms: C1_1  and  N8_8 
REMARK    2  A    between atoms: C6_6  and  C7_7 
REMARK    3  A    between atoms: C6_6  and  N8_8 
ROOT
HETATM    1  C2  UNL     1     -33.470   7.666   3.630  1.00 20.00     0.033 C 
HETATM    2  C6  UNL     1     -33.147   7.372   2.163  1.00 20.00     0.087 C 
ENDROOT
BRANCH   2   3
HETATM    3  C7  UNL     1     -32.989   5.856   1.816  1.00 20.00    -0.031 C 
HETATM    4  C3  UNL     1     -31.514   5.456   1.623  1.00 20.00     0.016 C 
HETATM    5  C4  UNL     1     -33.589   4.982   2.935  1.00 20.00     0.016 C 
HETATM    6  C5  UNL     1     -33.753   5.535   0.512  1.00 20.00     0.016 C 
ENDBRANCH   2   3
BRANCH   2   7
HETATM    7  N8  UNL     1     -31.982   8.141   1.778  1.00 20.00    -0.363 N 
HETATM    8  H24 UNL     1     -31.132   8.031   2.318  1.00 20.00     0.162 HD
BRANCH   7   9
HETATM    9  C1  UNL     1     -31.974   9.013   0.715  1.00 20.00     0.348 C 
HETATM   10  O9  UNL     1     -32.597  10.059   0.591  1.00 20.00    -0.284 OA
ENDBRANCH   7   9
ENDBRANCH   2   7
TORSDOF 3
ENDMDL
