MODEL 1
REMARK VINA RESULT:      -0.7      0.000      0.000
REMARK  2 active torsions:
REMARK  status: ('A' for Active; 'I' for Inactive)
REMARK    1  A    between atoms: C2_2  and  C6_6 
REMARK    2  A    between atoms: C3_3  and  C7_7 
ROOT
HETATM    1  C1  UNL     1     -32.932   6.123   2.308  1.00 20.00     0.100 C 
HETATM    2  C2  UNL     1     -33.150   7.036   3.490  1.00 20.00     0.089 C 
HETATM    3  C3  UNL     1     -31.913   7.917   1.391  1.00 20.00     0.168 C 
HETATM    4  N8  UNL     1     -32.330   6.513   1.229  1.00 20.00    -0.289 NA
HETATM    5  S9  UNL     1     -32.267   8.544   3.055  1.00 20.00    -0.132 SA
ENDROOT
BRANCH   2   6
HETATM    6  C6  UNL     1     -34.633   7.298   3.683  1.00 20.00     0.016 C 
HETATM    7  C4  UNL     1     -35.374   6.062   4.088  1.00 20.00     0.006 C 
ENDBRANCH   2   6
BRANCH   3   8
HETATM    8  C7  UNL     1     -32.634   8.762   0.349  1.00 20.00     0.033 C 
HETATM    9  C5  UNL     1     -32.367  10.221   0.534  1.00 20.00     0.008 C 
ENDBRANCH   3   8
TORSDOF 2
ENDMDL
MODEL 2
REMARK VINA RESULT:      -0.7      1.480      4.128
REMARK  2 active torsions:
REMARK  status: ('A' for Active; 'I' for Inactive)
REMARK    1  A    between atoms: C2_2  and  C6_6 
REMARK    2  A    between atoms: C3_3  and  C7_7 
ROOT
HETATM    1  C1  UNL     1     -32.121   8.515   2.828  1.00 20.00     0.100 C 
HETATM    2  C2  UNL     1     -31.949   7.835   1.492  1.00 20.00     0.089 C 
HETATM    3  C3  UNL     1     -33.320   6.677   3.361  1.00 20.00     0.168 C 
HETATM    4  N8  UNL     1     -32.804   7.987   3.794  1.00 20.00    -0.289 NA
HETATM    5  S9  UNL     1     -32.718   6.221   1.713  1.00 20.00    -0.132 SA
ENDROOT
BRANCH   2   6
HETATM    6  C6  UNL     1     -32.643   8.634   0.403  1.00 20.00     0.016 C 
HETATM    7  C4  UNL     1     -32.339  10.097   0.501  1.00 20.00     0.006 C 
ENDBRANCH   2   6
BRANCH   3   8
HETATM    8  C7  UNL     1     -34.842   6.727   3.367  1.00 20.00     0.033 C 
HETATM    9  C5  UNL     1     -35.429   5.705   4.287  1.00 20.00     0.008 C 
ENDBRANCH   3   8
TORSDOF 2
ENDMDL
MODEL 3
REMARK VINA RESULT:      -0.2      2.640      3.386
REMARK  2 active torsions:
REMARK  status: ('A' for Active; 'I' for Inactive)
REMARK    1  A    between atoms: C2_2  and  C6_6 
REMARK    2  A    between atoms: C3_3  and  C7_7 
ROOT
HETATM    1  C1  UNL     1     -35.081   5.510   4.330  1.00 20.00     0.100 C 
HETATM    2  C2  UNL     1     -34.257   4.427   3.675  1.00 20.00     0.089 C 
HETATM    3  C3  UNL     1     -34.044   6.879   2.864  1.00 20.00     0.168 C 
HETATM    4  N8  UNL     1     -35.007   6.752   3.972  1.00 20.00    -0.289 NA
HETATM    5  S9  UNL     1     -33.417   5.267   2.321  1.00 20.00    -0.132 SA
ENDROOT
BRANCH   2   6
HETATM    6  C6  UNL     1     -33.265   3.850   4.669  1.00 20.00     0.016 C 
HETATM    7  C4  UNL     1     -33.227   2.354   4.621  1.00 20.00     0.006 C 
ENDBRANCH   2   6
BRANCH   3   8
HETATM    8  C7  UNL     1     -32.890   7.762   3.321  1.00 20.00     0.033 C 
HETATM    9  C5  UNL     1     -31.946   8.067   2.203  1.00 20.00     0.008 C 
ENDBRANCH   3   8
TORSDOF 2
ENDMDL
MODEL 4
REMARK VINA RESULT:       0.3      2.709      4.599
REMARK  2 active torsions:
REMARK  status: ('A' for Active; 'I' for Inactive)
REMARK    1  A    between atoms: C2_2  and  C6_6 
REMARK    2  A    between atoms: C3_3  and  C7_7 
ROOT
HETATM    1  C1  UNL     1     -33.423   6.343   2.780  1.00 20.00     0.100 C 
HETATM    2  C2  UNL     1     -34.523   6.982   3.593  1.00 20.00     0.089 C 
HETATM    3  C3  UNL     1     -34.196   4.412   3.658  1.00 20.00     0.168 C 
HETATM    4  N8  UNL     1     -33.208   5.066   2.783  1.00 20.00    -0.289 NA
HETATM    5  S9  UNL     1     -35.417   5.588   4.302  1.00 20.00    -0.132 SA
ENDROOT
BRANCH   2   6
HETATM    6  C6  UNL     1     -33.929   7.866   4.675  1.00 20.00     0.016 C 
HETATM    7  C4  UNL     1     -32.551   8.334   4.324  1.00 20.00     0.006 C 
ENDBRANCH   2   6
BRANCH   3   8
HETATM    8  C7  UNL     1     -33.459   3.741   4.810  1.00 20.00     0.033 C 
HETATM    9  C5  UNL     1     -33.152   2.308   4.514  1.00 20.00     0.008 C 
ENDBRANCH   3   8
TORSDOF 2
ENDMDL
MODEL 5
REMARK VINA RESULT:       1.0      1.857      3.734
REMARK  2 active torsions:
REMARK  status: ('A' for Active; 'I' for Inactive)
REMARK    1  A    between atoms: C2_2  and  C6_6 
REMARK    2  A    between atoms: C3_3  and  C7_7 
ROOT
HETATM    1  C1  UNL     1     -32.194   7.330   1.581  1.00 20.00     0.100 C 
HETATM    2  C2  UNL     1     -32.435   5.844   1.458  1.00 20.00     0.089 C 
HETATM    3  C3  UNL     1     -33.095   7.084   3.636  1.00 20.00     0.168 C 
HETATM    4  N8  UNL     1     -32.513   8.001   2.641  1.00 20.00    -0.289 NA
HETATM    5  S9  UNL     1     -33.037   5.357   3.085  1.00 20.00    -0.132 SA
ENDROOT
BRANCH   2   6
HETATM    6  C6  UNL     1     -33.468   5.568   0.380  1.00 20.00     0.016 C 
HETATM    7  C4  UNL     1     -33.376   4.167  -0.140  1.00 20.00     0.006 C 
ENDBRANCH   2   6
BRANCH   3   8
HETATM    8  C7  UNL     1     -34.536   7.501   3.899  1.00 20.00     0.033 C 
HETATM    9  C5  UNL     1     -35.460   6.326   3.921  1.00 20.00     0.008 C 
ENDBRANCH   3   8
TORSDOF 2
ENDMDL
MODEL 6
REMARK VINA RESULT:       1.4      2.176      2.891
REMARK  2 active torsions:
REMARK  status: ('A' for Active; 'I' for Inactive)
REMARK    1  A    between atoms: C2_2  and  C6_6 
REMARK    2  A    between atoms: C3_3  and  C7_7 
ROOT
HETATM    1  C1  UNL     1     -33.966   7.535   4.197  1.00 20.00     0.100 C 
HETATM    2  C2  UNL     1     -34.943   6.483   3.729  1.00 20.00     0.089 C 
HETATM    3  C3  UNL     1     -33.064   7.296   2.140  1.00 20.00     0.168 C 
HETATM    4  N8  UNL     1     -33.002   7.970   3.449  1.00 20.00    -0.289 NA
HETATM    5  S9  UNL     1     -34.516   6.219   2.000  1.00 20.00    -0.132 SA
ENDROOT
BRANCH   2   6
HETATM    6  C6  UNL     1     -34.775   5.212   4.542  1.00 20.00     0.016 C 
HETATM    7  C4  UNL     1     -33.990   4.173   3.803  1.00 20.00     0.006 C 
ENDBRANCH   2   6
BRANCH   3   8
HETATM    8  C7  UNL     1     -31.790   6.485   1.949  1.00 20.00     0.033 C 
HETATM    9  C5  UNL     1     -32.008   5.310   1.051  1.00 20.00     0.008 C 
ENDBRANCH   3   8
TORSDOF 2
ENDMDL
MODEL 7
REMARK VINA RESULT:       1.6      1.685      3.644
REMARK  2 active torsions:
REMARK  status: ('A' for Active; 'I' for Inactive)
REMARK    1  A    between atoms: C2_2  and  C6_6 
REMARK    2  A    between atoms: C3_3  and  C7_7 
ROOT
HETATM    1  C1  UNL     1     -33.398   7.759   3.108  1.00 20.00     0.100 C 
HETATM    2  C2  UNL     1     -32.312   8.508   2.374  1.00 20.00     0.089 C 
HETATM    3  C3  UNL     1     -32.641   5.972   1.952  1.00 20.00     0.168 C 
HETATM    4  N8  UNL     1     -33.613   6.494   2.928  1.00 20.00    -0.289 NA
HETATM    5  S9  UNL     1     -31.431   7.230   1.460  1.00 20.00    -0.132 SA
ENDROOT
BRANCH   2   6
HETATM    6  C6  UNL     1     -32.924   9.535   1.439  1.00 20.00     0.016 C 
HETATM    7  C4  UNL     1     -32.228   9.575   0.114  1.00 20.00     0.006 C 
ENDBRANCH   2   6
BRANCH   3   8
HETATM    8  C7  UNL     1     -33.399   5.470   0.731  1.00 20.00     0.033 C 
HETATM    9  C5  UNL     1     -32.703   4.319   0.079  1.00 20.00     0.008 C 
ENDBRANCH   3   8
TORSDOF 2
ENDMDL
MODEL 8
REMARK VINA RESULT:       1.8      1.889      2.832
REMARK  2 active torsions:
REMARK  status: ('A' for Active; 'I' for Inactive)
REMARK    1  A    between atoms: C2_2  and  C6_6 
REMARK    2  A    between atoms: C3_3  and  C7_7 
ROOT
HETATM    1  C1  UNL     1     -32.331   8.186   2.668  1.00 20.00     0.100 C 
HETATM    2  C2  UNL     1     -33.779   7.768   2.770  1.00 20.00     0.089 C 
HETATM    3  C3  UNL     1     -32.188   6.524   1.146  1.00 20.00     0.168 C 
HETATM    4  N8  UNL     1     -31.490   7.593   1.881  1.00 20.00    -0.289 NA
HETATM    5  S9  UNL     1     -33.966   6.506   1.499  1.00 20.00    -0.132 SA
ENDROOT
BRANCH   2   6
HETATM    6  C6  UNL     1     -34.067   7.209   4.152  1.00 20.00     0.016 C 
HETATM    7  C4  UNL     1     -35.161   6.187   4.128  1.00 20.00     0.006 C 
ENDBRANCH   2   6
BRANCH   3   8
HETATM    8  C7  UNL     1     -31.565   5.187   1.524  1.00 20.00     0.033 C 
HETATM    9  C5  UNL     1     -31.444   4.276   0.344  1.00 20.00     0.008 C 
ENDBRANCH   3   8
TORSDOF 2
ENDMDL
MODEL 9
REMARK VINA RESULT:       2.0      2.278      3.665
REMARK  2 active torsions:
REMARK  status: ('A' for Active; 'I' for Inactive)
REMARK    1  A    between atoms: C2_2  and  C6_6 
REMARK    2  A    between atoms: C3_3  and  C7_7 
ROOT
HETATM    1  C1  UNL     1     -33.847   5.693   2.602  1.00 20.00     0.100 C 
HETATM    2  C2  UNL     1     -32.922   6.071   1.471  1.00 20.00     0.089 C 
HETATM    3  C3  UNL     1     -33.534   7.824   3.280  1.00 20.00     0.168 C 
HETATM    4  N8  UNL     1     -34.178   6.525   3.538  1.00 20.00    -0.289 NA
HETATM    5  S9  UNL     1     -32.632   7.834   1.706  1.00 20.00    -0.132 SA
ENDROOT
BRANCH   2   6
HETATM    6  C6  UNL     1     -31.629   5.280   1.564  1.00 20.00     0.016 C 
HETATM    7  C4  UNL     1     -31.460   4.344   0.408  1.00 20.00     0.006 C 
ENDBRANCH   2   6
BRANCH   3   8
HETATM    8  C7  UNL     1     -32.584   8.133   4.429  1.00 20.00     0.033 C 
HETATM    9  C5  UNL     1     -33.320   8.411   5.700  1.00 20.00     0.008 C 
ENDBRANCH   3   8
TORSDOF 2
ENDMDL
