MODEL 1
REMARK VINA RESULT:      -2.0      0.000      0.000
REMARK  5 active torsions:
REMARK  status: ('A' for Active; 'I' for Inactive)
REMARK    1  A    between atoms: C2_2  and  C4_4 
REMARK    2  A    between atoms: C4_4  and  N7_7 
REMARK    3  A    between atoms: C5_5  and  C6_6 
REMARK    4  A    between atoms: C5_5  and  N7_7 
REMARK    5  A    between atoms: C6_6  and  S8_8 
ROOT
HETATM    1  C1  UNL     1     -33.867   3.998   4.302  1.00 20.00    -0.109 C 
HETATM    2  C2  UNL     1     -34.323   5.082   4.060  1.00 20.00    -0.077 C 
HETATM    3  C3  UNL     1     -33.312   2.678   4.598  1.00 20.00     0.112 C 
ENDROOT
BRANCH   2   4
HETATM    4  C4  UNL     1     -34.875   6.409   3.769  1.00 20.00     0.362 C 
BRANCH   4   5
HETATM    5  N7  UNL     1     -33.811   7.367   3.495  1.00 20.00     0.095 N 
HETATM    6  H18 UNL     1     -34.210   8.303   3.440  1.00 20.00     0.317 HD
BRANCH   5   7
HETATM    7  C5  UNL     1     -33.142   7.055   2.240  1.00 20.00     0.280 C 
BRANCH   7   8
HETATM    8  C6  UNL     1     -31.957   7.969   1.953  1.00 20.00     0.100 C 
BRANCH   8   9
HETATM    9  S8  UNL     1     -32.347   9.229   0.703  1.00 20.00    -0.180 SA
HETATM   10  H19 UNL     1     -31.591   8.701  -0.268  1.00 20.00     0.101 HD
ENDBRANCH   8   9
ENDBRANCH   7   8
ENDBRANCH   5   7
ENDBRANCH   4   5
ENDBRANCH   2   4
TORSDOF 5
ENDMDL
MODEL 2
REMARK VINA RESULT:      -1.7      2.900      5.305
REMARK  5 active torsions:
REMARK  status: ('A' for Active; 'I' for Inactive)
REMARK    1  A    between atoms: C2_2  and  C4_4 
REMARK    2  A    between atoms: C4_4  and  N7_7 
REMARK    3  A    between atoms: C5_5  and  C6_6 
REMARK    4  A    between atoms: C5_5  and  N7_7 
REMARK    5  A    between atoms: C6_6  and  S8_8 
ROOT
HETATM    1  C1  UNL     1     -32.337   9.372   0.660  1.00 20.00    -0.109 C 
HETATM    2  C2  UNL     1     -32.168   8.344   1.257  1.00 20.00    -0.077 C 
HETATM    3  C3  UNL     1     -32.545  10.624  -0.068  1.00 20.00     0.112 C 
ENDROOT
BRANCH   2   4
HETATM    4  C4  UNL     1     -31.967   7.088   1.984  1.00 20.00     0.362 C 
BRANCH   4   5
HETATM    5  N7  UNL     1     -33.242   6.436   2.259  1.00 20.00     0.095 N 
HETATM    6  H18 UNL     1     -33.818   6.460   1.418  1.00 20.00     0.317 HD
BRANCH   5   7
HETATM    7  C5  UNL     1     -33.945   7.106   3.343  1.00 20.00     0.280 C 
BRANCH   7   8
HETATM    8  C6  UNL     1     -34.972   6.214   4.028  1.00 20.00     0.100 C 
BRANCH   8   9
HETATM    9  S8  UNL     1     -34.378   4.508   4.228  1.00 20.00    -0.180 SA
HETATM   10  H19 UNL     1     -34.567   4.449   5.553  1.00 20.00     0.101 HD
ENDBRANCH   8   9
ENDBRANCH   7   8
ENDBRANCH   5   7
ENDBRANCH   4   5
ENDBRANCH   2   4
TORSDOF 5
ENDMDL
MODEL 3
REMARK VINA RESULT:      -1.4      2.912      4.578
REMARK  5 active torsions:
REMARK  status: ('A' for Active; 'I' for Inactive)
REMARK    1  A    between atoms: C2_2  and  C4_4 
REMARK    2  A    between atoms: C4_4  and  N7_7 
REMARK    3  A    between atoms: C5_5  and  C6_6 
REMARK    4  A    between atoms: C5_5  and  N7_7 
REMARK    5  A    between atoms: C6_6  and  S8_8 
ROOT
HETATM    1  C1  UNL     1     -32.636   7.823   2.319  1.00 20.00    -0.109 C 
HETATM    2  C2  UNL     1     -33.409   7.579   3.205  1.00 20.00    -0.077 C 
HETATM    3  C3  UNL     1     -31.693   8.121   1.241  1.00 20.00     0.112 C 
ENDROOT
BRANCH   2   4
HETATM    4  C4  UNL     1     -34.351   7.286   4.289  1.00 20.00     0.362 C 
BRANCH   4   5
HETATM    5  N7  UNL     1     -35.322   6.280   3.878  1.00 20.00     0.095 N 
HETATM    6  H18 UNL     1     -36.256   6.585   4.152  1.00 20.00     0.317 HD
BRANCH   5   7
HETATM    7  C5  UNL     1     -35.034   4.995   4.498  1.00 20.00     0.280 C 
BRANCH   7   8
HETATM    8  C6  UNL     1     -33.974   4.197   3.750  1.00 20.00     0.100 C 
BRANCH   8   9
HETATM    9  S8  UNL     1     -33.174   2.954   4.809  1.00 20.00    -0.180 SA
HETATM   10  H19 UNL     1     -31.917   3.319   4.526  1.00 20.00     0.101 HD
ENDBRANCH   8   9
ENDBRANCH   7   8
ENDBRANCH   5   7
ENDBRANCH   4   5
ENDBRANCH   2   4
TORSDOF 5
ENDMDL
MODEL 4
REMARK VINA RESULT:      -1.3      2.922      5.329
REMARK  5 active torsions:
REMARK  status: ('A' for Active; 'I' for Inactive)
REMARK    1  A    between atoms: C2_2  and  C4_4 
REMARK    2  A    between atoms: C4_4  and  N7_7 
REMARK    3  A    between atoms: C5_5  and  C6_6 
REMARK    4  A    between atoms: C5_5  and  N7_7 
REMARK    5  A    between atoms: C6_6  and  S8_8 
ROOT
HETATM    1  C1  UNL     1     -32.447   9.598   0.370  1.00 20.00    -0.109 C 
HETATM    2  C2  UNL     1     -32.136   8.703   1.107  1.00 20.00    -0.077 C 
HETATM    3  C3  UNL     1     -32.828  10.689  -0.527  1.00 20.00     0.112 C 
ENDROOT
BRANCH   2   4
HETATM    4  C4  UNL     1     -31.762   7.609   2.009  1.00 20.00     0.362 C 
BRANCH   4   5
HETATM    5  N7  UNL     1     -32.162   6.321   1.457  1.00 20.00     0.095 N 
HETATM    6  H18 UNL     1     -32.423   6.442   0.479  1.00 20.00     0.317 HD
BRANCH   5   7
HETATM    7  C5  UNL     1     -33.291   5.768   2.192  1.00 20.00     0.280 C 
BRANCH   7   8
HETATM    8  C6  UNL     1     -33.776   6.679   3.312  1.00 20.00     0.100 C 
BRANCH   8   9
HETATM    9  S8  UNL     1     -35.285   6.049   4.106  1.00 20.00    -0.180 SA
HETATM   10  H19 UNL     1     -36.129   6.877   3.478  1.00 20.00     0.101 HD
ENDBRANCH   8   9
ENDBRANCH   7   8
ENDBRANCH   5   7
ENDBRANCH   4   5
ENDBRANCH   2   4
TORSDOF 5
ENDMDL
MODEL 5
REMARK VINA RESULT:      -1.3      1.200      1.249
REMARK  5 active torsions:
REMARK  status: ('A' for Active; 'I' for Inactive)
REMARK    1  A    between atoms: C2_2  and  C4_4 
REMARK    2  A    between atoms: C4_4  and  N7_7 
REMARK    3  A    between atoms: C5_5  and  C6_6 
REMARK    4  A    between atoms: C5_5  and  N7_7 
REMARK    5  A    between atoms: C6_6  and  S8_8 
ROOT
HETATM    1  C1  UNL     1     -33.894   3.837   4.427  1.00 20.00    -0.109 C 
HETATM    2  C2  UNL     1     -34.537   4.833   4.240  1.00 20.00    -0.077 C 
HETATM    3  C3  UNL     1     -33.111   2.621   4.654  1.00 20.00     0.112 C 
ENDROOT
BRANCH   2   4
HETATM    4  C4  UNL     1     -35.327   6.047   4.017  1.00 20.00     0.362 C 
BRANCH   4   5
HETATM    5  N7  UNL     1     -34.558   7.039   3.275  1.00 20.00     0.095 N 
HETATM    6  H18 UNL     1     -33.993   6.566   2.570  1.00 20.00     0.317 HD
BRANCH   5   7
HETATM    7  C5  UNL     1     -33.685   7.792   4.164  1.00 20.00     0.280 C 
BRANCH   7   8
HETATM    8  C6  UNL     1     -32.421   8.291   3.476  1.00 20.00     0.100 C 
BRANCH   8   9
HETATM    9  S8  UNL     1     -32.217   7.582   1.815  1.00 20.00    -0.180 SA
HETATM   10  H19 UNL     1     -32.798   8.594   1.159  1.00 20.00     0.101 HD
ENDBRANCH   8   9
ENDBRANCH   7   8
ENDBRANCH   5   7
ENDBRANCH   4   5
ENDBRANCH   2   4
TORSDOF 5
ENDMDL
MODEL 6
REMARK VINA RESULT:      -1.2      2.089      2.645
REMARK  5 active torsions:
REMARK  status: ('A' for Active; 'I' for Inactive)
REMARK    1  A    between atoms: C2_2  and  C4_4 
REMARK    2  A    between atoms: C4_4  and  N7_7 
REMARK    3  A    between atoms: C5_5  and  C6_6 
REMARK    4  A    between atoms: C5_5  and  N7_7 
REMARK    5  A    between atoms: C6_6  and  S8_8 
ROOT
HETATM    1  C1  UNL     1     -34.374   6.109   3.338  1.00 20.00    -0.109 C 
HETATM    2  C2  UNL     1     -33.534   6.099   2.481  1.00 20.00    -0.077 C 
HETATM    3  C3  UNL     1     -35.396   6.121   4.385  1.00 20.00     0.112 C 
ENDROOT
BRANCH   2   4
HETATM    4  C4  UNL     1     -32.505   6.082   1.437  1.00 20.00     0.362 C 
BRANCH   4   5
HETATM    5  N7  UNL     1     -31.474   7.077   1.706  1.00 20.00     0.095 N 
HETATM    6  H18 UNL     1     -31.090   6.917   2.637  1.00 20.00     0.317 HD
BRANCH   5   7
HETATM    7  C5  UNL     1     -32.021   8.424   1.637  1.00 20.00     0.280 C 
BRANCH   7   8
HETATM    8  C6  UNL     1     -31.984   9.010   0.231  1.00 20.00     0.100 C 
BRANCH   8   9
HETATM    9  S8  UNL     1     -32.746  10.659   0.153  1.00 20.00    -0.180 SA
HETATM   10  H19 UNL     1     -33.495  10.519   1.254  1.00 20.00     0.101 HD
ENDBRANCH   8   9
ENDBRANCH   7   8
ENDBRANCH   5   7
ENDBRANCH   4   5
ENDBRANCH   2   4
TORSDOF 5
ENDMDL
MODEL 7
REMARK VINA RESULT:      -0.8      2.102      2.777
REMARK  5 active torsions:
REMARK  status: ('A' for Active; 'I' for Inactive)
REMARK    1  A    between atoms: C2_2  and  C4_4 
REMARK    2  A    between atoms: C4_4  and  N7_7 
REMARK    3  A    between atoms: C5_5  and  C6_6 
REMARK    4  A    between atoms: C5_5  and  N7_7 
REMARK    5  A    between atoms: C6_6  and  S8_8 
ROOT
HETATM    1  C1  UNL     1     -34.443   6.575   3.770  1.00 20.00    -0.109 C 
HETATM    2  C2  UNL     1     -33.549   7.256   3.346  1.00 20.00    -0.077 C 
HETATM    3  C3  UNL     1     -35.532   5.747   4.287  1.00 20.00     0.112 C 
ENDROOT
BRANCH   2   4
HETATM    4  C4  UNL     1     -32.455   8.087   2.835  1.00 20.00     0.362 C 
BRANCH   4   5
HETATM    5  N7  UNL     1     -31.943   7.557   1.578  1.00 20.00     0.095 N 
HETATM    6  H18 UNL     1     -31.237   6.848   1.777  1.00 20.00     0.317 HD
BRANCH   5   7
HETATM    7  C5  UNL     1     -31.349   8.613   0.771  1.00 20.00     0.280 C 
BRANCH   7   8
HETATM    8  C6  UNL     1     -32.340   9.258  -0.189  1.00 20.00     0.100 C 
BRANCH   8   9
HETATM    9  S8  UNL     1     -32.844  10.918   0.354  1.00 20.00    -0.180 SA
HETATM   10  H19 UNL     1     -31.871  11.069   1.262  1.00 20.00     0.101 HD
ENDBRANCH   8   9
ENDBRANCH   7   8
ENDBRANCH   5   7
ENDBRANCH   4   5
ENDBRANCH   2   4
TORSDOF 5
ENDMDL
MODEL 8
REMARK VINA RESULT:      -0.6      2.754      3.953
REMARK  5 active torsions:
REMARK  status: ('A' for Active; 'I' for Inactive)
REMARK    1  A    between atoms: C2_2  and  C4_4 
REMARK    2  A    between atoms: C4_4  and  N7_7 
REMARK    3  A    between atoms: C5_5  and  C6_6 
REMARK    4  A    between atoms: C5_5  and  N7_7 
REMARK    5  A    between atoms: C6_6  and  S8_8 
ROOT
HETATM    1  C1  UNL     1     -32.394   5.774   1.340  1.00 20.00    -0.109 C 
HETATM    2  C2  UNL     1     -32.768   6.680   2.034  1.00 20.00    -0.077 C 
HETATM    3  C3  UNL     1     -31.937   4.672   0.493  1.00 20.00     0.112 C 
ENDROOT
BRANCH   2   4
HETATM    4  C4  UNL     1     -33.222   7.790   2.876  1.00 20.00     0.362 C 
BRANCH   4   5
HETATM    5  N7  UNL     1     -33.928   7.295   4.052  1.00 20.00     0.095 N 
HETATM    6  H18 UNL     1     -33.296   6.715   4.602  1.00 20.00     0.317 HD
BRANCH   5   7
HETATM    7  C5  UNL     1     -35.091   6.509   3.668  1.00 20.00     0.280 C 
BRANCH   7   8
HETATM    8  C6  UNL     1     -35.280   5.266   4.528  1.00 20.00     0.100 C 
BRANCH   8   9
HETATM    9  S8  UNL     1     -33.956   4.047   4.275  1.00 20.00    -0.180 SA
HETATM   10  H19 UNL     1     -33.645   4.433   3.032  1.00 20.00     0.101 HD
ENDBRANCH   8   9
ENDBRANCH   7   8
ENDBRANCH   5   7
ENDBRANCH   4   5
ENDBRANCH   2   4
TORSDOF 5
ENDMDL
MODEL 9
REMARK VINA RESULT:      -0.3      2.372      2.970
REMARK  5 active torsions:
REMARK  status: ('A' for Active; 'I' for Inactive)
REMARK    1  A    between atoms: C2_2  and  C4_4 
REMARK    2  A    between atoms: C4_4  and  N7_7 
REMARK    3  A    between atoms: C5_5  and  C6_6 
REMARK    4  A    between atoms: C5_5  and  N7_7 
REMARK    5  A    between atoms: C6_6  and  S8_8 
ROOT
HETATM    1  C1  UNL     1     -33.832   7.289   3.915  1.00 20.00    -0.109 C 
HETATM    2  C2  UNL     1     -33.492   6.634   2.969  1.00 20.00    -0.077 C 
HETATM    3  C3  UNL     1     -34.248   8.088   5.068  1.00 20.00     0.112 C 
ENDROOT
BRANCH   2   4
HETATM    4  C4  UNL     1     -33.083   5.832   1.812  1.00 20.00     0.362 C 
BRANCH   4   5
HETATM    5  N7  UNL     1     -31.956   6.449   1.124  1.00 20.00     0.095 N 
HETATM    6  H18 UNL     1     -31.101   5.950   1.369  1.00 20.00     0.317 HD
BRANCH   5   7
HETATM    7  C5  UNL     1     -31.820   7.849   1.498  1.00 20.00     0.280 C 
BRANCH   7   8
HETATM    8  C6  UNL     1     -31.494   8.753   0.317  1.00 20.00     0.100 C 
BRANCH   8   9
HETATM    9  S8  UNL     1     -32.615  10.180   0.213  1.00 20.00    -0.180 SA
HETATM   10  H19 UNL     1     -33.256   9.774  -0.890  1.00 20.00     0.101 HD
ENDBRANCH   8   9
ENDBRANCH   7   8
ENDBRANCH   5   7
ENDBRANCH   4   5
ENDBRANCH   2   4
TORSDOF 5
ENDMDL
