MODEL 1
REMARK VINA RESULT:       2.0      0.000      0.000
REMARK  0 active torsions:
REMARK  status: ('A' for Active; 'I' for Inactive)
ROOT
HETATM    1  C1  UNL     1     -33.562   6.634   3.128  1.00 20.00     0.037 C 
HETATM    2  C2  UNL     1     -32.227   7.163   1.536  1.00 20.00     0.017 C 
HETATM    3  C3  UNL     1     -34.410   6.821   4.144  1.00 20.00    -0.063 C 
HETATM    4  C4  UNL     1     -33.435   5.347   2.366  1.00 20.00     0.074 C 
HETATM    5  C5  UNL     1     -32.706   5.794   1.091  1.00 20.00    -0.002 C 
HETATM    6  C6  UNL     1     -31.260   7.969   0.726  1.00 20.00     0.066 C 
HETATM    7  C7  UNL     1     -34.501   8.130   4.876  1.00 20.00     0.045 C 
HETATM    8  C8  UNL     1     -35.331   5.735   4.624  1.00 20.00     0.045 C 
HETATM    9  C9  UNL     1     -31.554   4.855   0.745  1.00 20.00     0.021 C 
HETATM   10  C10 UNL     1     -33.672   5.937  -0.087  1.00 20.00     0.021 C 
HETATM   11  N11 UNL     1     -32.728   7.611   2.644  1.00 20.00    -0.262 NA
ENDROOT
TORSDOF 0
ENDMDL
MODEL 2
REMARK VINA RESULT:       2.9      1.696      4.215
REMARK  0 active torsions:
REMARK  status: ('A' for Active; 'I' for Inactive)
ROOT
HETATM    1  C1  UNL     1     -32.683   8.166   1.796  1.00 20.00     0.037 C 
HETATM    2  C2  UNL     1     -33.180   6.337   2.797  1.00 20.00     0.017 C 
HETATM    3  C3  UNL     1     -32.241   8.958   0.814  1.00 20.00    -0.063 C 
HETATM    4  C4  UNL     1     -33.548   8.637   2.929  1.00 20.00     0.074 C 
HETATM    5  C5  UNL     1     -34.116   7.319   3.474  1.00 20.00    -0.002 C 
HETATM    6  C6  UNL     1     -33.156   4.883   3.156  1.00 20.00     0.066 C 
HETATM    7  C7  UNL     1     -31.377   8.440  -0.300  1.00 20.00     0.045 C 
HETATM    8  C8  UNL     1     -32.577  10.422   0.756  1.00 20.00     0.045 C 
HETATM    9  C9  UNL     1     -34.027   7.257   4.996  1.00 20.00     0.021 C 
HETATM   10  C10 UNL     1     -35.551   7.086   2.997  1.00 20.00     0.021 C 
HETATM   11  N11 UNL     1     -32.420   6.822   1.865  1.00 20.00    -0.262 NA
ENDROOT
TORSDOF 0
ENDMDL
MODEL 3
REMARK VINA RESULT:       3.0      1.471      2.660
REMARK  0 active torsions:
REMARK  status: ('A' for Active; 'I' for Inactive)
ROOT
HETATM    1  C1  UNL     1     -33.651   6.271   2.930  1.00 20.00     0.037 C 
HETATM    2  C2  UNL     1     -32.071   6.607   1.520  1.00 20.00     0.017 C 
HETATM    3  C3  UNL     1     -34.389   5.608   3.826  1.00 20.00    -0.063 C 
HETATM    4  C4  UNL     1     -33.669   7.763   2.766  1.00 20.00     0.074 C 
HETATM    5  C5  UNL     1     -32.377   8.021   1.978  1.00 20.00    -0.002 C 
HETATM    6  C6  UNL     1     -31.001   6.311   0.515  1.00 20.00     0.066 C 
HETATM    7  C7  UNL     1     -34.335   4.112   3.952  1.00 20.00     0.045 C 
HETATM    8  C8  UNL     1     -35.323   6.314   4.769  1.00 20.00     0.045 C 
HETATM    9  C9  UNL     1     -32.613   8.975   0.810  1.00 20.00     0.021 C 
HETATM   10  C10 UNL     1     -31.257   8.530   2.886  1.00 20.00     0.021 C 
HETATM   11  N11 UNL     1     -32.767   5.664   2.074  1.00 20.00    -0.262 NA
ENDROOT
TORSDOF 0
ENDMDL
MODEL 4
REMARK VINA RESULT:       3.3      1.251      4.417
REMARK  0 active torsions:
REMARK  status: ('A' for Active; 'I' for Inactive)
ROOT
HETATM    1  C1  UNL     1     -32.786   6.303   2.247  1.00 20.00     0.037 C 
HETATM    2  C2  UNL     1     -34.123   5.553   3.745  1.00 20.00     0.017 C 
HETATM    3  C3  UNL     1     -32.026   6.287   1.147  1.00 20.00    -0.063 C 
HETATM    4  C4  UNL     1     -33.257   7.558   2.924  1.00 20.00     0.074 C 
HETATM    5  C5  UNL     1     -34.406   7.042   3.802  1.00 20.00    -0.002 C 
HETATM    6  C6  UNL     1     -34.838   4.574   4.623  1.00 20.00     0.066 C 
HETATM    7  C7  UNL     1     -31.580   5.004   0.506  1.00 20.00     0.045 C 
HETATM    8  C8  UNL     1     -31.566   7.551   0.476  1.00 20.00     0.045 C 
HETATM    9  C9  UNL     1     -34.321   7.600   5.220  1.00 20.00     0.021 C 
HETATM   10  C10 UNL     1     -35.769   7.339   3.176  1.00 20.00     0.021 C 
HETATM   11  N11 UNL     1     -33.247   5.171   2.869  1.00 20.00    -0.262 NA
ENDROOT
TORSDOF 0
ENDMDL
MODEL 5
REMARK VINA RESULT:       3.8      1.761      3.286
REMARK  0 active torsions:
REMARK  status: ('A' for Active; 'I' for Inactive)
ROOT
HETATM    1  C1  UNL     1     -33.941   5.686   3.611  1.00 20.00     0.037 C 
HETATM    2  C2  UNL     1     -32.782   7.139   2.544  1.00 20.00     0.017 C 
HETATM    3  C3  UNL     1     -34.256   4.497   4.135  1.00 20.00    -0.063 C 
HETATM    4  C4  UNL     1     -34.572   6.982   4.031  1.00 20.00     0.074 C 
HETATM    5  C5  UNL     1     -33.579   8.019   3.487  1.00 20.00    -0.002 C 
HETATM    6  C6  UNL     1     -31.792   7.706   1.573  1.00 20.00     0.066 C 
HETATM    7  C7  UNL     1     -33.596   3.227   3.681  1.00 20.00     0.045 C 
HETATM    8  C8  UNL     1     -35.292   4.350   5.214  1.00 20.00     0.045 C 
HETATM    9  C9  UNL     1     -34.296   9.155   2.761  1.00 20.00     0.021 C 
HETATM   10  C10 UNL     1     -32.670   8.560   4.591  1.00 20.00     0.021 C 
HETATM   11  N11 UNL     1     -32.982   5.862   2.647  1.00 20.00    -0.262 NA
ENDROOT
TORSDOF 0
ENDMDL
MODEL 6
REMARK VINA RESULT:       4.6      1.573      2.324
REMARK  0 active torsions:
REMARK  status: ('A' for Active; 'I' for Inactive)
ROOT
HETATM    1  C1  UNL     1     -33.699   5.578   3.532  1.00 20.00     0.037 C 
HETATM    2  C2  UNL     1     -33.643   7.556   2.705  1.00 20.00     0.017 C 
HETATM    3  C3  UNL     1     -34.195   4.528   4.193  1.00 20.00    -0.063 C 
HETATM    4  C4  UNL     1     -32.551   5.498   2.567  1.00 20.00     0.074 C 
HETATM    5  C5  UNL     1     -32.687   6.815   1.790  1.00 20.00    -0.002 C 
HETATM    6  C6  UNL     1     -33.955   9.009   2.522  1.00 20.00     0.066 C 
HETATM    7  C7  UNL     1     -35.346   4.659   5.149  1.00 20.00     0.045 C 
HETATM    8  C8  UNL     1     -33.635   3.143   4.025  1.00 20.00     0.045 C 
HETATM    9  C9  UNL     1     -31.343   7.525   1.651  1.00 20.00     0.021 C 
HETATM   10  C10 UNL     1     -33.336   6.596   0.422  1.00 20.00     0.021 C 
HETATM   11  N11 UNL     1     -34.202   6.850   3.638  1.00 20.00    -0.262 NA
ENDROOT
TORSDOF 0
ENDMDL
MODEL 7
REMARK VINA RESULT:       4.8      0.989      4.030
REMARK  0 active torsions:
REMARK  status: ('A' for Active; 'I' for Inactive)
ROOT
HETATM    1  C1  UNL     1     -32.925   6.651   2.243  1.00 20.00     0.037 C 
HETATM    2  C2  UNL     1     -33.931   7.309   4.018  1.00 20.00     0.017 C 
HETATM    3  C3  UNL     1     -31.935   6.539   1.352  1.00 20.00    -0.063 C 
HETATM    4  C4  UNL     1     -34.083   5.701   2.334  1.00 20.00     0.074 C 
HETATM    5  C5  UNL     1     -34.638   5.997   3.735  1.00 20.00    -0.002 C 
HETATM    6  C6  UNL     1     -34.282   8.164   5.196  1.00 20.00     0.066 C 
HETATM    7  C7  UNL     1     -30.795   7.517   1.300  1.00 20.00     0.045 C 
HETATM    8  C8  UNL     1     -31.893   5.429   0.340  1.00 20.00     0.045 C 
HETATM    9  C9  UNL     1     -36.157   6.143   3.717  1.00 20.00     0.021 C 
HETATM   10  C10 UNL     1     -34.199   4.938   4.748  1.00 20.00     0.021 C 
HETATM   11  N11 UNL     1     -32.980   7.634   3.198  1.00 20.00    -0.262 NA
ENDROOT
TORSDOF 0
ENDMDL
MODEL 8
REMARK VINA RESULT:       4.9      1.667      3.810
REMARK  0 active torsions:
REMARK  status: ('A' for Active; 'I' for Inactive)
ROOT
HETATM    1  C1  UNL     1     -32.751   8.479   1.061  1.00 20.00     0.037 C 
HETATM    2  C2  UNL     1     -33.374   6.995   2.476  1.00 20.00     0.017 C 
HETATM    3  C3  UNL     1     -32.364   9.679   0.616  1.00 20.00    -0.063 C 
HETATM    4  C4  UNL     1     -32.553   7.199   0.302  1.00 20.00     0.074 C 
HETATM    5  C5  UNL     1     -32.738   6.139   1.397  1.00 20.00    -0.002 C 
HETATM    6  C6  UNL     1     -33.965   6.401   3.717  1.00 20.00     0.066 C 
HETATM    7  C7  UNL     1     -32.584  10.933   1.413  1.00 20.00     0.045 C 
HETATM    8  C8  UNL     1     -31.684   9.857  -0.712  1.00 20.00     0.045 C 
HETATM    9  C9  UNL     1     -33.652   5.008   0.934  1.00 20.00     0.021 C 
HETATM   10  C10 UNL     1     -31.395   5.595   1.885  1.00 20.00     0.021 C 
HETATM   11  N11 UNL     1     -33.348   8.276   2.279  1.00 20.00    -0.262 NA
ENDROOT
TORSDOF 0
ENDMDL
MODEL 9
REMARK VINA RESULT:       4.9      1.684      2.763
REMARK  0 active torsions:
REMARK  status: ('A' for Active; 'I' for Inactive)
ROOT
HETATM    1  C1  UNL     1     -32.845   7.787   2.190  1.00 20.00     0.037 C 
HETATM    2  C2  UNL     1     -32.480   9.705   1.304  1.00 20.00     0.017 C 
HETATM    3  C3  UNL     1     -33.451   6.873   2.955  1.00 20.00    -0.063 C 
HETATM    4  C4  UNL     1     -31.918   7.454   1.058  1.00 20.00     0.074 C 
HETATM    5  C5  UNL     1     -31.878   8.771   0.271  1.00 20.00    -0.002 C 
HETATM    6  C6  UNL     1     -32.481  11.192   1.128  1.00 20.00     0.066 C 
HETATM    7  C7  UNL     1     -34.371   7.257   4.078  1.00 20.00     0.045 C 
HETATM    8  C8  UNL     1     -33.253   5.398   2.743  1.00 20.00     0.045 C 
HETATM    9  C9  UNL     1     -30.449   9.157  -0.103  1.00 20.00     0.021 C 
HETATM   10  C10 UNL     1     -32.774   8.715  -0.967  1.00 20.00     0.021 C 
HETATM   11  N11 UNL     1     -33.024   9.139   2.336  1.00 20.00    -0.262 NA
ENDROOT
TORSDOF 0
ENDMDL
