MODEL 1
REMARK VINA RESULT:      -1.1      0.000      0.000
REMARK  3 active torsions:
REMARK  status: ('A' for Active; 'I' for Inactive)
REMARK    1  A    between atoms: C1_1  and  C5_5 
REMARK    2  A    between atoms: C6_6  and  C8_8 
REMARK    3  A    between atoms: C8_8  and  C9_9 
ROOT
HETATM    1  C2  UNL     1     -32.937   7.433   3.484  1.00 20.00     0.028 C 
HETATM    2  C3  UNL     1     -34.147   6.925   1.812  1.00 20.00     0.028 C 
HETATM    3  C4  UNL     1     -32.429   5.761   2.272  1.00 20.00     0.028 C 
HETATM    4  C5  UNL     1     -33.697   6.148   3.072  1.00 20.00     0.038 C 
HETATM    5  C6  UNL     1     -32.613   7.298   1.940  1.00 20.00    -0.037 C 
ENDROOT
BRANCH   4   6
HETATM    6  C1  UNL     1     -34.529   5.270   3.939  1.00 20.00     0.227 C 
HETATM    7  O10 UNL     1     -35.603   5.647   4.397  1.00 20.00    -0.279 OA
HETATM    8 CL11 UNL     1     -33.793   3.716   4.194  1.00 20.00    -0.043 Cl
ENDBRANCH   4   6
BRANCH   5   9
HETATM    9  C8  UNL     1     -31.789   8.172   1.079  1.00 20.00     0.009 C 
BRANCH   9  10
HETATM   10  C9  UNL     1     -32.364   9.598   0.943  1.00 20.00    -0.004 C 
HETATM   11  C7  UNL     1     -32.685   9.972  -0.495  1.00 20.00     0.005 C 
ENDBRANCH   9  10
ENDBRANCH   5   9
TORSDOF 3
ENDMDL
MODEL 2
REMARK VINA RESULT:      -1.1      1.349      1.386
REMARK  3 active torsions:
REMARK  status: ('A' for Active; 'I' for Inactive)
REMARK    1  A    between atoms: C1_1  and  C5_5 
REMARK    2  A    between atoms: C6_6  and  C8_8 
REMARK    3  A    between atoms: C8_8  and  C9_9 
ROOT
HETATM    1  C2  UNL     1     -32.660   7.736   3.016  1.00 20.00     0.028 C 
HETATM    2  C3  UNL     1     -33.717   7.033   1.310  1.00 20.00     0.028 C 
HETATM    3  C4  UNL     1     -31.911   6.083   1.909  1.00 20.00     0.028 C 
HETATM    4  C5  UNL     1     -33.255   6.360   2.626  1.00 20.00     0.038 C 
HETATM    5  C6  UNL     1     -32.241   7.576   1.497  1.00 20.00    -0.037 C 
ENDROOT
BRANCH   4   6
HETATM    6  C1  UNL     1     -34.033   5.433   3.490  1.00 20.00     0.227 C 
HETATM    7  O10 UNL     1     -33.656   4.286   3.710  1.00 20.00    -0.279 OA
HETATM    8 CL11 UNL     1     -35.479   6.173   4.108  1.00 20.00    -0.043 Cl
ENDBRANCH   4   6
BRANCH   5   9
HETATM    9  C8  UNL     1     -31.470   8.500   0.639  1.00 20.00     0.009 C 
BRANCH   9  10
HETATM   10  C9  UNL     1     -32.366   9.471  -0.158  1.00 20.00    -0.004 C 
HETATM   11  C7  UNL     1     -32.750  10.708   0.636  1.00 20.00     0.005 C 
ENDBRANCH   9  10
ENDBRANCH   5   9
TORSDOF 3
ENDMDL
MODEL 3
REMARK VINA RESULT:       0.4      3.139      5.023
REMARK  3 active torsions:
REMARK  status: ('A' for Active; 'I' for Inactive)
REMARK    1  A    between atoms: C1_1  and  C5_5 
REMARK    2  A    between atoms: C6_6  and  C8_8 
REMARK    3  A    between atoms: C8_8  and  C9_9 
ROOT
HETATM    1  C2  UNL     1     -32.820   6.286   1.912  1.00 20.00     0.028 C 
HETATM    2  C3  UNL     1     -34.267   7.768   2.394  1.00 20.00     0.028 C 
HETATM    3  C4  UNL     1     -32.476   7.620   3.531  1.00 20.00     0.028 C 
HETATM    4  C5  UNL     1     -32.765   7.829   2.025  1.00 20.00     0.038 C 
HETATM    5  C6  UNL     1     -33.636   6.584   3.236  1.00 20.00    -0.037 C 
ENDROOT
BRANCH   4   6
HETATM    6  C1  UNL     1     -32.100   8.782   1.094  1.00 20.00     0.227 C 
HETATM    7  O10 UNL     1     -31.072   8.486   0.494  1.00 20.00    -0.279 OA
HETATM    8 CL11 UNL     1     -32.950  10.294   0.990  1.00 20.00    -0.043 Cl
ENDBRANCH   4   6
BRANCH   5   9
HETATM    9  C8  UNL     1     -34.298   5.637   4.158  1.00 20.00     0.009 C 
BRANCH   9  10
HETATM   10  C9  UNL     1     -34.105   4.162   3.747  1.00 20.00    -0.004 C 
HETATM   11  C7  UNL     1     -33.386   3.342   4.806  1.00 20.00     0.005 C 
ENDBRANCH   9  10
ENDBRANCH   5   9
TORSDOF 3
ENDMDL
MODEL 4
REMARK VINA RESULT:       0.4      3.416      5.013
REMARK  3 active torsions:
REMARK  status: ('A' for Active; 'I' for Inactive)
REMARK    1  A    between atoms: C1_1  and  C5_5 
REMARK    2  A    between atoms: C6_6  and  C8_8 
REMARK    3  A    between atoms: C8_8  and  C9_9 
ROOT
HETATM    1  C2  UNL     1     -32.935   6.958   1.811  1.00 20.00     0.028 C 
HETATM    2  C3  UNL     1     -33.759   8.873   2.235  1.00 20.00     0.028 C 
HETATM    3  C4  UNL     1     -31.854   8.339   3.014  1.00 20.00     0.028 C 
HETATM    4  C5  UNL     1     -32.435   8.406   1.581  1.00 20.00     0.038 C 
HETATM    5  C6  UNL     1     -33.288   7.686   3.173  1.00 20.00    -0.037 C 
ENDROOT
BRANCH   4   6
HETATM    6  C1  UNL     1     -31.786   8.957   0.361  1.00 20.00     0.227 C 
HETATM    7  O10 UNL     1     -30.711   8.527  -0.048  1.00 20.00    -0.279 OA
HETATM    8 CL11 UNL     1     -32.724  10.229  -0.361  1.00 20.00    -0.043 Cl
ENDBRANCH   4   6
BRANCH   5   9
HETATM    9  C8  UNL     1     -33.935   7.139   4.384  1.00 20.00     0.009 C 
BRANCH   9  10
HETATM   10  C9  UNL     1     -35.121   6.206   4.062  1.00 20.00    -0.004 C 
HETATM   11  C7  UNL     1     -34.809   4.741   4.323  1.00 20.00     0.005 C 
ENDBRANCH   9  10
ENDBRANCH   5   9
TORSDOF 3
ENDMDL
MODEL 5
REMARK VINA RESULT:       0.4      3.409      5.013
REMARK  3 active torsions:
REMARK  status: ('A' for Active; 'I' for Inactive)
REMARK    1  A    between atoms: C1_1  and  C5_5 
REMARK    2  A    between atoms: C6_6  and  C8_8 
REMARK    3  A    between atoms: C8_8  and  C9_9 
ROOT
HETATM    1  C2  UNL     1     -33.808   8.834   2.229  1.00 20.00     0.028 C 
HETATM    2  C3  UNL     1     -31.901   8.396   3.063  1.00 20.00     0.028 C 
HETATM    3  C4  UNL     1     -32.893   6.950   1.859  1.00 20.00     0.028 C 
HETATM    4  C5  UNL     1     -32.450   8.414   1.615  1.00 20.00     0.038 C 
HETATM    5  C6  UNL     1     -33.310   7.685   3.199  1.00 20.00    -0.037 C 
ENDROOT
BRANCH   4   6
HETATM    6  C1  UNL     1     -31.791   8.975   0.404  1.00 20.00     0.227 C 
HETATM    7  O10 UNL     1     -30.724   8.534  -0.012  1.00 20.00    -0.279 OA
HETATM    8 CL11 UNL     1     -32.706  10.276  -0.294  1.00 20.00    -0.043 Cl
ENDBRANCH   4   6
BRANCH   5   9
HETATM    9  C8  UNL     1     -33.964   7.130   4.402  1.00 20.00     0.009 C 
BRANCH   9  10
HETATM   10  C9  UNL     1     -35.100   6.141   4.069  1.00 20.00    -0.004 C 
HETATM   11  C7  UNL     1     -34.703   4.690   4.282  1.00 20.00     0.005 C 
ENDBRANCH   9  10
ENDBRANCH   5   9
TORSDOF 3
ENDMDL
MODEL 6
REMARK VINA RESULT:       0.5      1.663      1.967
REMARK  3 active torsions:
REMARK  status: ('A' for Active; 'I' for Inactive)
REMARK    1  A    between atoms: C1_1  and  C5_5 
REMARK    2  A    between atoms: C6_6  and  C8_8 
REMARK    3  A    between atoms: C8_8  and  C9_9 
ROOT
HETATM    1  C2  UNL     1     -33.592   8.756   2.027  1.00 20.00     0.028 C 
HETATM    2  C3  UNL     1     -32.854   6.763   1.954  1.00 20.00     0.028 C 
HETATM    3  C4  UNL     1     -31.812   8.243   3.070  1.00 20.00     0.028 C 
HETATM    4  C5  UNL     1     -33.262   7.703   3.114  1.00 20.00     0.038 C 
HETATM    5  C6  UNL     1     -32.212   8.151   1.540  1.00 20.00    -0.037 C 
ENDROOT
BRANCH   4   6
HETATM    6  C1  UNL     1     -34.069   7.359   4.316  1.00 20.00     0.227 C 
HETATM    7  O10 UNL     1     -33.912   7.939   5.386  1.00 20.00    -0.279 OA
HETATM    8 CL11 UNL     1     -35.205   6.083   3.997  1.00 20.00    -0.043 Cl
ENDBRANCH   4   6
BRANCH   5   9
HETATM    9  C8  UNL     1     -31.412   8.491   0.345  1.00 20.00     0.009 C 
BRANCH   9  10
HETATM   10  C9  UNL     1     -32.112   9.512  -0.577  1.00 20.00    -0.004 C 
HETATM   11  C7  UNL     1     -32.538  10.775   0.154  1.00 20.00     0.005 C 
ENDBRANCH   9  10
ENDBRANCH   5   9
TORSDOF 3
ENDMDL
MODEL 7
REMARK VINA RESULT:       0.6      2.801      4.871
REMARK  3 active torsions:
REMARK  status: ('A' for Active; 'I' for Inactive)
REMARK    1  A    between atoms: C1_1  and  C5_5 
REMARK    2  A    between atoms: C6_6  and  C8_8 
REMARK    3  A    between atoms: C8_8  and  C9_9 
ROOT
HETATM    1  C2  UNL     1     -32.900   7.460   3.828  1.00 20.00     0.028 C 
HETATM    2  C3  UNL     1     -32.893   6.107   2.187  1.00 20.00     0.028 C 
HETATM    3  C4  UNL     1     -34.573   7.368   2.519  1.00 20.00     0.028 C 
HETATM    4  C5  UNL     1     -33.065   7.642   2.299  1.00 20.00     0.038 C 
HETATM    5  C6  UNL     1     -33.870   6.275   3.423  1.00 20.00    -0.037 C 
ENDROOT
BRANCH   4   6
HETATM    6  C1  UNL     1     -32.446   8.687   1.439  1.00 20.00     0.227 C 
HETATM    7  O10 UNL     1     -32.870   9.838   1.417  1.00 20.00    -0.279 OA
HETATM    8 CL11 UNL     1     -31.108   8.068   0.519  1.00 20.00    -0.043 Cl
ENDBRANCH   4   6
BRANCH   5   9
HETATM    9  C8  UNL     1     -34.481   5.236   4.278  1.00 20.00     0.009 C 
BRANCH   9  10
HETATM   10  C9  UNL     1     -33.999   3.812   3.932  1.00 20.00    -0.004 C 
HETATM   11  C7  UNL     1     -33.110   3.210   5.008  1.00 20.00     0.005 C 
ENDBRANCH   9  10
ENDBRANCH   5   9
TORSDOF 3
ENDMDL
MODEL 8
REMARK VINA RESULT:       0.7      3.243      4.762
REMARK  3 active torsions:
REMARK  status: ('A' for Active; 'I' for Inactive)
REMARK    1  A    between atoms: C1_1  and  C5_5 
REMARK    2  A    between atoms: C6_6  and  C8_8 
REMARK    3  A    between atoms: C8_8  and  C9_9 
ROOT
HETATM    1  C2  UNL     1     -31.660   6.378   1.640  1.00 20.00     0.028 C 
HETATM    2  C3  UNL     1     -33.646   6.892   1.082  1.00 20.00     0.028 C 
HETATM    3  C4  UNL     1     -32.819   7.651   2.889  1.00 20.00     0.028 C 
HETATM    4  C5  UNL     1     -32.383   7.727   1.405  1.00 20.00     0.038 C 
HETATM    5  C6  UNL     1     -33.054   6.175   2.364  1.00 20.00    -0.037 C 
ENDROOT
BRANCH   4   6
HETATM    6  C1  UNL     1     -31.870   8.913   0.667  1.00 20.00     0.227 C 
HETATM    7  O10 UNL     1     -30.849   8.858  -0.012  1.00 20.00    -0.279 OA
HETATM    8 CL11 UNL     1     -32.875  10.312   0.899  1.00 20.00    -0.043 Cl
ENDBRANCH   4   6
BRANCH   5   9
HETATM    9  C8  UNL     1     -33.563   4.995   3.094  1.00 20.00     0.009 C 
BRANCH   9  10
HETATM   10  C9  UNL     1     -34.495   5.369   4.266  1.00 20.00    -0.004 C 
HETATM   11  C7  UNL     1     -35.575   6.362   3.870  1.00 20.00     0.005 C 
ENDBRANCH   9  10
ENDBRANCH   5   9
TORSDOF 3
ENDMDL
MODEL 9
REMARK VINA RESULT:       1.0      3.109      4.682
REMARK  3 active torsions:
REMARK  status: ('A' for Active; 'I' for Inactive)
REMARK    1  A    between atoms: C1_1  and  C5_5 
REMARK    2  A    between atoms: C6_6  and  C8_8 
REMARK    3  A    between atoms: C8_8  and  C9_9 
ROOT
HETATM    1  C2  UNL     1     -33.027   7.773   2.858  1.00 20.00     0.028 C 
HETATM    2  C3  UNL     1     -31.638   6.667   1.688  1.00 20.00     0.028 C 
HETATM    3  C4  UNL     1     -33.637   6.919   1.009  1.00 20.00     0.028 C 
HETATM    4  C5  UNL     1     -32.515   7.910   1.403  1.00 20.00     0.038 C 
HETATM    5  C6  UNL     1     -33.035   6.280   2.327  1.00 20.00    -0.037 C 
ENDROOT
BRANCH   4   6
HETATM    6  C1  UNL     1     -32.114   9.158   0.698  1.00 20.00     0.227 C 
HETATM    7  O10 UNL     1     -32.691  10.223   0.893  1.00 20.00    -0.279 OA
HETATM    8 CL11 UNL     1     -30.780   8.897  -0.385  1.00 20.00    -0.043 Cl
ENDBRANCH   4   6
BRANCH   5   9
HETATM    9  C8  UNL     1     -33.430   5.042   3.029  1.00 20.00     0.009 C 
BRANCH   9  10
HETATM   10  C9  UNL     1     -34.353   5.303   4.238  1.00 20.00    -0.004 C 
HETATM   11  C7  UNL     1     -35.528   6.207   3.901  1.00 20.00     0.005 C 
ENDBRANCH   9  10
ENDBRANCH   5   9
TORSDOF 3
ENDMDL
