MODEL 1
REMARK VINA RESULT:      -2.8      0.000      0.000
REMARK  1 active torsions:
REMARK  status: ('A' for Active; 'I' for Inactive)
REMARK    1  A    between atoms: C1_1  and  C2_2 
ROOT
HETATM    1  C2  UNL     1     -34.107   6.520   3.429  1.00 20.00     0.462 C 
HETATM    2  F4  UNL     1     -33.756   7.456   4.347  1.00 20.00    -0.163 F 
HETATM    3  F5  UNL     1     -35.379   6.799   3.050  1.00 20.00    -0.163 F 
HETATM    4  F6  UNL     1     -34.140   5.328   4.078  1.00 20.00    -0.163 F 
ENDROOT
BRANCH   1   5
HETATM    5  C1  UNL     1     -33.170   6.497   2.268  1.00 20.00     0.300 C 
HETATM    6  O3  UNL     1     -33.017   5.546   1.516  1.00 20.00    -0.275 OA
HETATM    7 BR7  UNL     1     -32.130   8.050   1.909  1.00 20.00     0.001 Br
ENDBRANCH   1   5
TORSDOF 1
ENDMDL
MODEL 2
REMARK VINA RESULT:      -2.8      0.002      1.427
REMARK  1 active torsions:
REMARK  status: ('A' for Active; 'I' for Inactive)
REMARK    1  A    between atoms: C1_1  and  C2_2 
ROOT
HETATM    1  C2  UNL     1     -34.105   6.520   3.430  1.00 20.00     0.462 C 
HETATM    2  F4  UNL     1     -35.378   6.799   3.052  1.00 20.00    -0.163 F 
HETATM    3  F5  UNL     1     -34.140   5.329   4.079  1.00 20.00    -0.163 F 
HETATM    4  F6  UNL     1     -33.753   7.458   4.346  1.00 20.00    -0.163 F 
ENDROOT
BRANCH   1   5
HETATM    5  C1  UNL     1     -33.170   6.497   2.268  1.00 20.00     0.300 C 
HETATM    6  O3  UNL     1     -33.018   5.546   1.515  1.00 20.00    -0.275 OA
HETATM    7 BR7  UNL     1     -32.130   8.050   1.909  1.00 20.00     0.001 Br
ENDBRANCH   1   5
TORSDOF 1
ENDMDL
MODEL 3
REMARK VINA RESULT:      -2.8      2.708      3.093
REMARK  1 active torsions:
REMARK  status: ('A' for Active; 'I' for Inactive)
REMARK    1  A    between atoms: C1_1  and  C2_2 
ROOT
HETATM    1  C2  UNL     1     -32.062   7.962   1.990  1.00 20.00     0.462 C 
HETATM    2  F4  UNL     1     -30.981   7.581   1.263  1.00 20.00    -0.163 F 
HETATM    3  F5  UNL     1     -32.652   8.979   1.313  1.00 20.00    -0.163 F 
HETATM    4  F6  UNL     1     -31.591   8.482   3.151  1.00 20.00    -0.163 F 
ENDROOT
BRANCH   1   5
HETATM    5  C1  UNL     1     -33.003   6.828   2.228  1.00 20.00     0.300 C 
HETATM    6  O3  UNL     1     -33.018   5.789   1.584  1.00 20.00    -0.275 OA
HETATM    7 BR7  UNL     1     -34.277   6.985   3.634  1.00 20.00     0.001 Br
ENDBRANCH   1   5
TORSDOF 1
ENDMDL
MODEL 4
REMARK VINA RESULT:      -2.7      2.524      2.927
REMARK  1 active torsions:
REMARK  status: ('A' for Active; 'I' for Inactive)
REMARK    1  A    between atoms: C1_1  and  C2_2 
ROOT
HETATM    1  C2  UNL     1     -32.790   5.834   1.695  1.00 20.00     0.462 C 
HETATM    2  F4  UNL     1     -31.538   5.461   1.328  1.00 20.00    -0.163 F 
HETATM    3  F5  UNL     1     -33.251   4.881   2.545  1.00 20.00    -0.163 F 
HETATM    4  F6  UNL     1     -33.560   5.773   0.579  1.00 20.00    -0.163 F 
ENDROOT
BRANCH   1   5
HETATM    5  C1  UNL     1     -32.810   7.192   2.313  1.00 20.00     0.300 C 
HETATM    6  O3  UNL     1     -32.135   8.138   1.935  1.00 20.00    -0.275 OA
HETATM    7 BR7  UNL     1     -33.965   7.498   3.795  1.00 20.00     0.001 Br
ENDBRANCH   1   5
TORSDOF 1
ENDMDL
MODEL 5
REMARK VINA RESULT:      -2.7      2.524      2.944
REMARK  1 active torsions:
REMARK  status: ('A' for Active; 'I' for Inactive)
REMARK    1  A    between atoms: C1_1  and  C2_2 
ROOT
HETATM    1  C2  UNL     1     -32.788   5.834   1.695  1.00 20.00     0.462 C 
HETATM    2  F4  UNL     1     -33.560   5.771   0.580  1.00 20.00    -0.163 F 
HETATM    3  F5  UNL     1     -31.537   5.460   1.328  1.00 20.00    -0.163 F 
HETATM    4  F6  UNL     1     -33.251   4.883   2.546  1.00 20.00    -0.163 F 
ENDROOT
BRANCH   1   5
HETATM    5  C1  UNL     1     -32.808   7.192   2.312  1.00 20.00     0.300 C 
HETATM    6  O3  UNL     1     -32.133   8.138   1.933  1.00 20.00    -0.275 OA
HETATM    7 BR7  UNL     1     -33.961   7.499   3.795  1.00 20.00     0.001 Br
ENDBRANCH   1   5
TORSDOF 1
ENDMDL
MODEL 6
REMARK VINA RESULT:      -2.7      2.523      2.819
REMARK  1 active torsions:
REMARK  status: ('A' for Active; 'I' for Inactive)
REMARK    1  A    between atoms: C1_1  and  C2_2 
ROOT
HETATM    1  C2  UNL     1     -32.794   5.836   1.698  1.00 20.00     0.462 C 
HETATM    2  F4  UNL     1     -33.244   4.879   2.548  1.00 20.00    -0.163 F 
HETATM    3  F5  UNL     1     -33.575   5.774   0.589  1.00 20.00    -0.163 F 
HETATM    4  F6  UNL     1     -31.543   5.470   1.321  1.00 20.00    -0.163 F 
ENDROOT
BRANCH   1   5
HETATM    5  C1  UNL     1     -32.814   7.191   2.321  1.00 20.00     0.300 C 
HETATM    6  O3  UNL     1     -32.137   8.139   1.949  1.00 20.00    -0.275 OA
HETATM    7 BR7  UNL     1     -33.973   7.493   3.801  1.00 20.00     0.001 Br
ENDBRANCH   1   5
TORSDOF 1
ENDMDL
MODEL 7
REMARK VINA RESULT:      -2.5      1.671      2.141
REMARK  1 active torsions:
REMARK  status: ('A' for Active; 'I' for Inactive)
REMARK    1  A    between atoms: C1_1  and  C2_2 
ROOT
HETATM    1  C2  UNL     1     -35.016   6.359   3.931  1.00 20.00     0.462 C 
HETATM    2  F4  UNL     1     -35.936   6.738   3.008  1.00 20.00    -0.163 F 
HETATM    3  F5  UNL     1     -35.696   5.761   4.941  1.00 20.00    -0.163 F 
HETATM    4  F6  UNL     1     -34.476   7.497   4.437  1.00 20.00    -0.163 F 
ENDROOT
BRANCH   1   5
HETATM    5  C1  UNL     1     -33.976   5.461   3.347  1.00 20.00     0.300 C 
HETATM    6  O3  UNL     1     -33.742   4.325   3.733  1.00 20.00    -0.275 OA
HETATM    7 BR7  UNL     1     -32.932   6.106   1.893  1.00 20.00     0.001 Br
ENDBRANCH   1   5
TORSDOF 1
ENDMDL
MODEL 8
REMARK VINA RESULT:      -2.5      1.671      2.136
REMARK  1 active torsions:
REMARK  status: ('A' for Active; 'I' for Inactive)
REMARK    1  A    between atoms: C1_1  and  C2_2 
ROOT
HETATM    1  C2  UNL     1     -35.015   6.360   3.930  1.00 20.00     0.462 C 
HETATM    2  F4  UNL     1     -35.696   5.761   4.940  1.00 20.00    -0.163 F 
HETATM    3  F5  UNL     1     -34.477   7.497   4.438  1.00 20.00    -0.163 F 
HETATM    4  F6  UNL     1     -35.935   6.737   3.007  1.00 20.00    -0.163 F 
ENDROOT
BRANCH   1   5
HETATM    5  C1  UNL     1     -33.976   5.461   3.347  1.00 20.00     0.300 C 
HETATM    6  O3  UNL     1     -33.742   4.325   3.734  1.00 20.00    -0.275 OA
HETATM    7 BR7  UNL     1     -32.931   6.105   1.892  1.00 20.00     0.001 Br
ENDBRANCH   1   5
TORSDOF 1
ENDMDL
MODEL 9
REMARK VINA RESULT:      -2.5      1.672      1.672
REMARK  1 active torsions:
REMARK  status: ('A' for Active; 'I' for Inactive)
REMARK    1  A    between atoms: C1_1  and  C2_2 
ROOT
HETATM    1  C2  UNL     1     -35.017   6.358   3.930  1.00 20.00     0.462 C 
HETATM    2  F4  UNL     1     -34.478   7.494   4.440  1.00 20.00    -0.163 F 
HETATM    3  F5  UNL     1     -35.936   6.738   3.007  1.00 20.00    -0.163 F 
HETATM    4  F6  UNL     1     -35.696   5.758   4.940  1.00 20.00    -0.163 F 
ENDROOT
BRANCH   1   5
HETATM    5  C1  UNL     1     -33.977   5.459   3.348  1.00 20.00     0.300 C 
HETATM    6  O3  UNL     1     -33.742   4.324   3.735  1.00 20.00    -0.275 OA
HETATM    7 BR7  UNL     1     -32.932   6.104   1.893  1.00 20.00     0.001 Br
ENDBRANCH   1   5
TORSDOF 1
ENDMDL
