MODEL 1
REMARK VINA RESULT:      -2.1      0.000      0.000
REMARK  1 active torsions:
REMARK  status: ('A' for Active; 'I' for Inactive)
REMARK    1  A    between atoms: C3_3  and  C6_6 
ROOT
HETATM    1  C1  UNL     1     -33.089   7.642   3.198  1.00 20.00    -0.030 C 
HETATM    2  C2  UNL     1     -34.073   7.662   4.101  1.00 20.00    -0.030 C 
HETATM    3  C4  UNL     1     -33.144   6.425   2.335  1.00 20.00     0.038 C 
HETATM    4  C5  UNL     1     -34.955   6.462   3.997  1.00 20.00     0.038 C 
HETATM    5  C6  UNL     1     -34.213   5.563   3.009  1.00 20.00     0.054 C 
ENDROOT
BRANCH   5   6
HETATM    6  C3  UNL     1     -33.566   4.412   3.725  1.00 20.00     0.236 C 
HETATM    7  O7  UNL     1     -34.177   3.647   4.465  1.00 20.00    -0.306 OA
ENDBRANCH   5   6
TORSDOF 1
ENDMDL
MODEL 2
REMARK VINA RESULT:      -1.8      3.110      3.910
REMARK  1 active torsions:
REMARK  status: ('A' for Active; 'I' for Inactive)
REMARK    1  A    between atoms: C3_3  and  C6_6 
ROOT
HETATM    1  C1  UNL     1     -33.776   6.479   2.844  1.00 20.00    -0.030 C 
HETATM    2  C2  UNL     1     -33.559   7.541   3.625  1.00 20.00    -0.030 C 
HETATM    3  C4  UNL     1     -32.762   6.368   1.754  1.00 20.00     0.038 C 
HETATM    4  C5  UNL     1     -32.364   8.322   3.191  1.00 20.00     0.038 C 
HETATM    5  C6  UNL     1     -31.994   7.687   1.851  1.00 20.00     0.054 C 
ENDROOT
BRANCH   5   6
HETATM    6  C3  UNL     1     -32.381   8.590   0.714  1.00 20.00     0.236 C 
HETATM    7  O7  UNL     1     -32.407   9.814   0.802  1.00 20.00    -0.306 OA
ENDBRANCH   5   6
TORSDOF 1
ENDMDL
MODEL 3
REMARK VINA RESULT:      -1.6      1.771      2.582
REMARK  1 active torsions:
REMARK  status: ('A' for Active; 'I' for Inactive)
REMARK    1  A    between atoms: C3_3  and  C6_6 
ROOT
HETATM    1  C1  UNL     1     -35.222   5.231   4.160  1.00 20.00    -0.030 C 
HETATM    2  C2  UNL     1     -35.376   6.555   4.073  1.00 20.00    -0.030 C 
HETATM    3  C4  UNL     1     -33.841   4.801   3.788  1.00 20.00     0.038 C 
HETATM    4  C5  UNL     1     -34.125   7.237   3.628  1.00 20.00     0.038 C 
HETATM    5  C6  UNL     1     -33.213   6.078   3.229  1.00 20.00     0.054 C 
ENDROOT
BRANCH   5   6
HETATM    6  C3  UNL     1     -33.103   5.983   1.734  1.00 20.00     0.236 C 
HETATM    7  O7  UNL     1     -32.203   5.379   1.159  1.00 20.00    -0.306 OA
ENDBRANCH   5   6
TORSDOF 1
ENDMDL
MODEL 4
REMARK VINA RESULT:      -1.6      1.539      2.489
REMARK  1 active torsions:
REMARK  status: ('A' for Active; 'I' for Inactive)
REMARK    1  A    between atoms: C3_3  and  C6_6 
ROOT
HETATM    1  C1  UNL     1     -32.257   7.856   1.715  1.00 20.00    -0.030 C 
HETATM    2  C2  UNL     1     -32.477   6.615   1.271  1.00 20.00    -0.030 C 
HETATM    3  C4  UNL     1     -32.622   8.011   3.154  1.00 20.00     0.038 C 
HETATM    4  C5  UNL     1     -33.027   5.728   2.338  1.00 20.00     0.038 C 
HETATM    5  C6  UNL     1     -33.330   6.695   3.481  1.00 20.00     0.054 C 
ENDROOT
BRANCH   5   6
HETATM    6  C3  UNL     1     -34.809   6.924   3.601  1.00 20.00     0.236 C 
HETATM    7  O7  UNL     1     -35.584   6.104   4.082  1.00 20.00    -0.306 OA
ENDBRANCH   5   6
TORSDOF 1
ENDMDL
MODEL 5
REMARK VINA RESULT:      -1.5      1.922      3.135
REMARK  1 active torsions:
REMARK  status: ('A' for Active; 'I' for Inactive)
REMARK    1  A    between atoms: C3_3  and  C6_6 
ROOT
HETATM    1  C1  UNL     1     -35.025   4.877   4.511  1.00 20.00    -0.030 C 
HETATM    2  C2  UNL     1     -33.967   4.403   3.848  1.00 20.00    -0.030 C 
HETATM    3  C4  UNL     1     -35.399   6.251   4.062  1.00 20.00     0.038 C 
HETATM    4  C5  UNL     1     -33.452   5.379   2.842  1.00 20.00     0.038 C 
HETATM    5  C6  UNL     1     -34.240   6.652   3.148  1.00 20.00     0.054 C 
ENDROOT
BRANCH   5   6
HETATM    6  C3  UNL     1     -33.367   7.660   3.839  1.00 20.00     0.236 C 
HETATM    7  O7  UNL     1     -33.593   8.090   4.966  1.00 20.00    -0.306 OA
ENDBRANCH   5   6
TORSDOF 1
ENDMDL
MODEL 6
REMARK VINA RESULT:      -1.2      1.641      2.542
REMARK  1 active torsions:
REMARK  status: ('A' for Active; 'I' for Inactive)
REMARK    1  A    between atoms: C3_3  and  C6_6 
ROOT
HETATM    1  C1  UNL     1     -31.747   6.164   1.500  1.00 20.00    -0.030 C 
HETATM    2  C2  UNL     1     -31.569   7.438   1.859  1.00 20.00    -0.030 C 
HETATM    3  C4  UNL     1     -33.178   5.750   1.594  1.00 20.00     0.038 C 
HETATM    4  C5  UNL     1     -32.850   8.094   2.255  1.00 20.00     0.038 C 
HETATM    5  C6  UNL     1     -33.842   6.933   2.299  1.00 20.00     0.054 C 
ENDROOT
BRANCH   5   6
HETATM    6  C3  UNL     1     -34.165   6.569   3.720  1.00 20.00     0.236 C 
HETATM    7  O7  UNL     1     -35.296   6.289   4.106  1.00 20.00    -0.306 OA
ENDBRANCH   5   6
TORSDOF 1
ENDMDL
MODEL 7
REMARK VINA RESULT:      -1.0      1.947      2.085
REMARK  1 active torsions:
REMARK  status: ('A' for Active; 'I' for Inactive)
REMARK    1  A    between atoms: C3_3  and  C6_6 
ROOT
HETATM    1  C1  UNL     1     -32.929   8.149   4.114  1.00 20.00    -0.030 C 
HETATM    2  C2  UNL     1     -33.992   7.445   4.512  1.00 20.00    -0.030 C 
HETATM    3  C4  UNL     1     -32.641   7.957   2.662  1.00 20.00     0.038 C 
HETATM    4  C5  UNL     1     -34.596   6.661   3.395  1.00 20.00     0.038 C 
HETATM    5  C6  UNL     1     -33.583   6.820   2.263  1.00 20.00     0.054 C 
ENDROOT
BRANCH   5   6
HETATM    6  C3  UNL     1     -32.802   5.552   2.071  1.00 20.00     0.236 C 
HETATM    7  O7  UNL     1     -31.884   5.438   1.265  1.00 20.00    -0.306 OA
ENDBRANCH   5   6
TORSDOF 1
ENDMDL
MODEL 8
REMARK VINA RESULT:      -0.9      3.392      4.366
REMARK  1 active torsions:
REMARK  status: ('A' for Active; 'I' for Inactive)
REMARK    1  A    between atoms: C3_3  and  C6_6 
ROOT
HETATM    1  C1  UNL     1     -32.135   5.976   1.367  1.00 20.00    -0.030 C 
HETATM    2  C2  UNL     1     -33.228   6.334   2.046  1.00 20.00    -0.030 C 
HETATM    3  C4  UNL     1     -31.156   7.097   1.249  1.00 20.00     0.038 C 
HETATM    4  C5  UNL     1     -33.168   7.755   2.498  1.00 20.00     0.038 C 
HETATM    5  C6  UNL     1     -31.932   8.301   1.783  1.00 20.00     0.054 C 
ENDROOT
BRANCH   5   6
HETATM    6  C3  UNL     1     -32.332   9.198   0.647  1.00 20.00     0.236 C 
HETATM    7  O7  UNL     1     -32.904  10.272   0.803  1.00 20.00    -0.306 OA
ENDBRANCH   5   6
TORSDOF 1
ENDMDL
MODEL 9
REMARK VINA RESULT:      -0.4      3.133      4.200
REMARK  1 active torsions:
REMARK  status: ('A' for Active; 'I' for Inactive)
REMARK    1  A    between atoms: C3_3  and  C6_6 
ROOT
HETATM    1  C1  UNL     1     -32.819  10.183   0.694  1.00 20.00    -0.030 C 
HETATM    2  C2  UNL     1     -32.222   9.555  -0.323  1.00 20.00    -0.030 C 
HETATM    3  C4  UNL     1     -32.540   9.521   2.003  1.00 20.00     0.038 C 
HETATM    4  C5  UNL     1     -31.444   8.366   0.131  1.00 20.00     0.038 C 
HETATM    5  C6  UNL     1     -31.842   8.222   1.600  1.00 20.00     0.054 C 
ENDROOT
BRANCH   5   6
HETATM    6  C3  UNL     1     -32.776   7.060   1.782  1.00 20.00     0.236 C 
HETATM    7  O7  UNL     1     -32.501   5.912   1.448  1.00 20.00    -0.306 OA
ENDBRANCH   5   6
TORSDOF 1
ENDMDL
