MODEL 1
REMARK VINA RESULT:      -1.9      0.000      0.000
REMARK  0 active torsions:
REMARK  status: ('A' for Active; 'I' for Inactive)
ROOT
HETATM    1  C1  UNL     1     -32.280   8.466   1.428  1.00 20.00     0.099 C 
HETATM    2  C2  UNL     1     -34.316   7.556   4.182  1.00 20.00    -0.026 C 
HETATM    3  C3  UNL     1     -33.255   8.130   3.601  1.00 20.00     0.019 C 
HETATM    4  C4  UNL     1     -34.769   6.182   3.799  1.00 20.00     0.057 C 
HETATM    5  C5  UNL     1     -33.700   5.418   3.011  1.00 20.00     0.277 C 
HETATM    6  C6  UNL     1     -32.475   7.461   2.492  1.00 20.00     0.350 C 
HETATM    7  C7  UNL     1     -32.215   5.460   1.122  1.00 20.00     0.312 C 
HETATM    8  N8  UNL     1     -32.127   9.255   0.592  1.00 20.00    -0.195 NA
HETATM    9  N9  UNL     1     -33.136   6.256   1.941  1.00 20.00     0.106 N 
ENDROOT
TORSDOF 0
ENDMDL
MODEL 2
REMARK VINA RESULT:      -1.2      1.416      3.330
REMARK  0 active torsions:
REMARK  status: ('A' for Active; 'I' for Inactive)
ROOT
HETATM    1  C1  UNL     1     -33.940   4.490   3.712  1.00 20.00     0.099 C 
HETATM    2  C2  UNL     1     -33.777   8.016   4.024  1.00 20.00    -0.026 C 
HETATM    3  C3  UNL     1     -34.408   6.838   3.945  1.00 20.00     0.019 C 
HETATM    4  C4  UNL     1     -32.649   8.363   3.103  1.00 20.00     0.057 C 
HETATM    5  C5  UNL     1     -32.587   7.431   1.887  1.00 20.00     0.277 C 
HETATM    6  C6  UNL     1     -34.000   5.762   2.964  1.00 20.00     0.350 C 
HETATM    7  C7  UNL     1     -32.509   5.151   1.134  1.00 20.00     0.312 C 
HETATM    8  N8  UNL     1     -33.894   3.491   4.299  1.00 20.00    -0.195 NA
HETATM    9  N9  UNL     1     -32.704   6.023   2.297  1.00 20.00     0.106 N 
ENDROOT
TORSDOF 0
ENDMDL
MODEL 3
REMARK VINA RESULT:      -0.3      1.832      3.687
REMARK  0 active torsions:
REMARK  status: ('A' for Active; 'I' for Inactive)
ROOT
HETATM    1  C1  UNL     1     -33.612   3.609   4.084  1.00 20.00     0.099 C 
HETATM    2  C2  UNL     1     -34.845   6.921   4.336  1.00 20.00    -0.026 C 
HETATM    3  C3  UNL     1     -34.965   5.593   4.217  1.00 20.00     0.019 C 
HETATM    4  C4  UNL     1     -33.847   7.692   3.530  1.00 20.00     0.057 C 
HETATM    5  C5  UNL     1     -33.306   6.880   2.348  1.00 20.00     0.277 C 
HETATM    6  C6  UNL     1     -34.076   4.775   3.307  1.00 20.00     0.350 C 
HETATM    7  C7  UNL     1     -32.283   4.819   1.655  1.00 20.00     0.312 C 
HETATM    8  N8  UNL     1     -33.248   2.692   4.694  1.00 20.00    -0.195 NA
HETATM    9  N9  UNL     1     -32.917   5.527   2.773  1.00 20.00     0.106 N 
ENDROOT
TORSDOF 0
ENDMDL
MODEL 4
REMARK VINA RESULT:       0.1      1.147      2.693
REMARK  0 active torsions:
REMARK  status: ('A' for Active; 'I' for Inactive)
ROOT
HETATM    1  C1  UNL     1     -32.213   5.471   1.343  1.00 20.00     0.099 C 
HETATM    2  C2  UNL     1     -34.493   6.258   3.940  1.00 20.00    -0.026 C 
HETATM    3  C3  UNL     1     -34.144   5.754   2.750  1.00 20.00     0.019 C 
HETATM    4  C4  UNL     1     -34.002   7.596   4.396  1.00 20.00     0.057 C 
HETATM    5  C5  UNL     1     -33.426   8.426   3.243  1.00 20.00     0.277 C 
HETATM    6  C6  UNL     1     -33.198   6.467   1.809  1.00 20.00     0.350 C 
HETATM    7  C7  UNL     1     -31.870   8.472   1.412  1.00 20.00     0.312 C 
HETATM    8  N8  UNL     1     -31.440   4.689   0.976  1.00 20.00    -0.195 NA
HETATM    9  N9  UNL     1     -32.505   7.622   2.425  1.00 20.00     0.106 N 
ENDROOT
TORSDOF 0
ENDMDL
MODEL 5
REMARK VINA RESULT:       0.2      1.725      3.118
REMARK  0 active torsions:
REMARK  status: ('A' for Active; 'I' for Inactive)
ROOT
HETATM    1  C1  UNL     1     -33.278   8.142   4.607  1.00 20.00     0.099 C 
HETATM    2  C2  UNL     1     -31.804   7.201   1.525  1.00 20.00    -0.026 C 
HETATM    3  C3  UNL     1     -32.418   8.046   2.363  1.00 20.00     0.019 C 
HETATM    4  C4  UNL     1     -32.247   5.779   1.384  1.00 20.00     0.057 C 
HETATM    5  C5  UNL     1     -33.644   5.547   1.973  1.00 20.00     0.277 C 
HETATM    6  C6  UNL     1     -33.560   7.618   3.256  1.00 20.00     0.350 C 
HETATM    7  C7  UNL     1     -35.054   5.802   3.901  1.00 20.00     0.312 C 
HETATM    8  N8  UNL     1     -33.057   8.554   5.668  1.00 20.00    -0.195 NA
HETATM    9  N9  UNL     1     -33.758   6.151   3.309  1.00 20.00     0.106 N 
ENDROOT
TORSDOF 0
ENDMDL
MODEL 6
REMARK VINA RESULT:       0.2      1.629      3.883
REMARK  0 active torsions:
REMARK  status: ('A' for Active; 'I' for Inactive)
ROOT
HETATM    1  C1  UNL     1     -34.756   6.108   3.778  1.00 20.00     0.099 C 
HETATM    2  C2  UNL     1     -32.465   6.429   1.093  1.00 20.00    -0.026 C 
HETATM    3  C3  UNL     1     -33.075   5.775   2.089  1.00 20.00     0.019 C 
HETATM    4  C4  UNL     1     -31.971   7.831   1.266  1.00 20.00     0.057 C 
HETATM    5  C5  UNL     1     -31.895   8.241   2.741  1.00 20.00     0.277 C 
HETATM    6  C6  UNL     1     -33.354   6.413   3.431  1.00 20.00     0.350 C 
HETATM    7  C7  UNL     1     -33.084   8.398   4.823  1.00 20.00     0.312 C 
HETATM    8  N8  UNL     1     -35.857   5.867   4.050  1.00 20.00    -0.195 NA
HETATM    9  N9  UNL     1     -33.130   7.878   3.452  1.00 20.00     0.106 N 
ENDROOT
TORSDOF 0
ENDMDL
MODEL 7
REMARK VINA RESULT:       0.9      1.222      2.594
REMARK  0 active torsions:
REMARK  status: ('A' for Active; 'I' for Inactive)
ROOT
HETATM    1  C1  UNL     1     -32.238   7.702   2.001  1.00 20.00     0.099 C 
HETATM    2  C2  UNL     1     -33.298   4.347   2.425  1.00 20.00    -0.026 C 
HETATM    3  C3  UNL     1     -33.076   5.464   1.722  1.00 20.00     0.019 C 
HETATM    4  C4  UNL     1     -33.942   4.388   3.775  1.00 20.00     0.057 C 
HETATM    5  C5  UNL     1     -34.633   5.729   4.047  1.00 20.00     0.277 C 
HETATM    6  C6  UNL     1     -33.410   6.840   2.254  1.00 20.00     0.350 C 
HETATM    7  C7  UNL     1     -34.385   8.118   4.087  1.00 20.00     0.312 C 
HETATM    8  N8  UNL     1     -31.319   8.379   1.803  1.00 20.00    -0.195 NA
HETATM    9  N9  UNL     1     -33.753   6.854   3.695  1.00 20.00     0.106 N 
ENDROOT
TORSDOF 0
ENDMDL
