MODEL 1
REMARK VINA RESULT:      -1.3      0.000      0.000
REMARK  2 active torsions:
REMARK  status: ('A' for Active; 'I' for Inactive)
REMARK    1  A    between atoms: C1_1  and  C8_8 
REMARK    2  A    between atoms: C2_2  and  C3_3 
ROOT
HETATM    1  C1  UNL     1     -33.818   5.828   2.585  1.00 20.00    -0.009 C 
HETATM    2  C3  UNL     1     -34.301   6.514   3.638  1.00 20.00    -0.027 C 
HETATM    3  C4  UNL     1     -33.955   7.894   4.098  1.00 20.00     0.051 C 
ENDROOT
BRANCH   1   4
HETATM    4  C8  UNL     1     -32.754   6.222   1.562  1.00 20.00    -0.033 C 
HETATM    5  C5  UNL     1     -33.439   6.353   0.181  1.00 20.00     0.018 C 
HETATM    6  C6  UNL     1     -32.138   7.588   1.905  1.00 20.00     0.018 C 
HETATM    7  C7  UNL     1     -31.657   5.152   1.425  1.00 20.00     0.018 C 
ENDBRANCH   1   4
BRANCH   2   8
HETATM    8  C2  UNL     1     -35.332   5.800   4.447  1.00 20.00     0.265 C 
HETATM    9  O9  UNL     1     -35.305   4.591   4.647  1.00 20.00    -0.302 OA
ENDBRANCH   2   8
TORSDOF 2
ENDMDL
MODEL 2
REMARK VINA RESULT:      -1.2      1.311      1.853
REMARK  2 active torsions:
REMARK  status: ('A' for Active; 'I' for Inactive)
REMARK    1  A    between atoms: C1_1  and  C8_8 
REMARK    2  A    between atoms: C2_2  and  C3_3 
ROOT
HETATM    1  C1  UNL     1     -33.527   7.214   2.516  1.00 20.00    -0.009 C 
HETATM    2  C3  UNL     1     -34.094   7.257   3.737  1.00 20.00    -0.027 C 
HETATM    3  C4  UNL     1     -33.674   8.040   4.940  1.00 20.00     0.051 C 
ENDROOT
BRANCH   1   4
HETATM    4  C8  UNL     1     -32.275   7.913   1.991  1.00 20.00    -0.033 C 
HETATM    5  C5  UNL     1     -31.398   6.858   1.276  1.00 20.00     0.018 C 
HETATM    6  C6  UNL     1     -32.637   8.991   0.957  1.00 20.00     0.018 C 
HETATM    7  C7  UNL     1     -31.427   8.513   3.126  1.00 20.00     0.018 C 
ENDBRANCH   1   4
BRANCH   2   8
HETATM    8  C2  UNL     1     -35.315   6.416   3.904  1.00 20.00     0.265 C 
HETATM    9  O9  UNL     1     -35.294   5.298   4.407  1.00 20.00    -0.302 OA
ENDBRANCH   2   8
TORSDOF 2
ENDMDL
MODEL 3
REMARK VINA RESULT:      -1.2      0.071      1.434
REMARK  2 active torsions:
REMARK  status: ('A' for Active; 'I' for Inactive)
REMARK    1  A    between atoms: C1_1  and  C8_8 
REMARK    2  A    between atoms: C2_2  and  C3_3 
ROOT
HETATM    1  C1  UNL     1     -33.818   5.831   2.579  1.00 20.00    -0.009 C 
HETATM    2  C3  UNL     1     -34.317   6.491   3.642  1.00 20.00    -0.027 C 
HETATM    3  C4  UNL     1     -34.033   7.886   4.099  1.00 20.00     0.051 C 
ENDROOT
BRANCH   1   4
HETATM    4  C8  UNL     1     -32.794   6.280   1.539  1.00 20.00    -0.033 C 
HETATM    5  C5  UNL     1     -31.702   5.189   1.436  1.00 20.00     0.018 C 
HETATM    6  C6  UNL     1     -33.441   6.420   0.152  1.00 20.00     0.018 C 
HETATM    7  C7  UNL     1     -32.091   7.588   1.945  1.00 20.00     0.018 C 
ENDBRANCH   1   4
BRANCH   2   8
HETATM    8  C2  UNL     1     -35.296   5.724   4.467  1.00 20.00     0.265 C 
HETATM    9  O9  UNL     1     -35.221   4.513   4.642  1.00 20.00    -0.302 OA
ENDBRANCH   2   8
TORSDOF 2
ENDMDL
MODEL 4
REMARK VINA RESULT:      -1.1      1.863      3.780
REMARK  2 active torsions:
REMARK  status: ('A' for Active; 'I' for Inactive)
REMARK    1  A    between atoms: C1_1  and  C8_8 
REMARK    2  A    between atoms: C2_2  and  C3_3 
ROOT
HETATM    1  C1  UNL     1     -33.682   5.864   2.726  1.00 20.00    -0.009 C 
HETATM    2  C3  UNL     1     -32.745   6.462   1.965  1.00 20.00    -0.027 C 
HETATM    3  C4  UNL     1     -32.383   7.910   1.887  1.00 20.00     0.051 C 
ENDROOT
BRANCH   1   4
HETATM    4  C8  UNL     1     -34.680   6.471   3.709  1.00 20.00    -0.033 C 
HETATM    5  C5  UNL     1     -35.204   5.339   4.625  1.00 20.00     0.018 C 
HETATM    6  C6  UNL     1     -34.002   7.518   4.609  1.00 20.00     0.018 C 
HETATM    7  C7  UNL     1     -35.901   7.078   2.996  1.00 20.00     0.018 C 
ENDBRANCH   1   4
BRANCH   2   8
HETATM    8  C2  UNL     1     -31.953   5.547   1.091  1.00 20.00     0.265 C 
HETATM    9  O9  UNL     1     -32.463   4.656   0.420  1.00 20.00    -0.302 OA
ENDBRANCH   2   8
TORSDOF 2
ENDMDL
MODEL 5
REMARK VINA RESULT:      -1.1      1.267      2.118
REMARK  2 active torsions:
REMARK  status: ('A' for Active; 'I' for Inactive)
REMARK    1  A    between atoms: C1_1  and  C8_8 
REMARK    2  A    between atoms: C2_2  and  C3_3 
ROOT
HETATM    1  C1  UNL     1     -33.570   7.083   2.529  1.00 20.00    -0.009 C 
HETATM    2  C3  UNL     1     -34.142   7.165   3.746  1.00 20.00    -0.027 C 
HETATM    3  C4  UNL     1     -33.748   8.010   4.914  1.00 20.00     0.051 C 
ENDROOT
BRANCH   1   4
HETATM    4  C8  UNL     1     -32.336   7.793   1.977  1.00 20.00    -0.033 C 
HETATM    5  C5  UNL     1     -31.566   8.416   3.165  1.00 20.00     0.018 C 
HETATM    6  C6  UNL     1     -31.391   6.798   1.284  1.00 20.00     0.018 C 
HETATM    7  C7  UNL     1     -32.706   8.942   1.023  1.00 20.00     0.018 C 
ENDBRANCH   1   4
BRANCH   2   8
HETATM    8  C2  UNL     1     -35.341   6.299   3.946  1.00 20.00     0.265 C 
HETATM    9  O9  UNL     1     -35.276   5.157   4.387  1.00 20.00    -0.302 OA
ENDBRANCH   2   8
TORSDOF 2
ENDMDL
MODEL 6
REMARK VINA RESULT:      -1.1      1.323      1.559
REMARK  2 active torsions:
REMARK  status: ('A' for Active; 'I' for Inactive)
REMARK    1  A    between atoms: C1_1  and  C8_8 
REMARK    2  A    between atoms: C2_2  and  C3_3 
ROOT
HETATM    1  C1  UNL     1     -33.507   7.177   2.542  1.00 20.00    -0.009 C 
HETATM    2  C3  UNL     1     -34.090   7.253   3.755  1.00 20.00    -0.027 C 
HETATM    3  C4  UNL     1     -33.685   8.069   4.940  1.00 20.00     0.051 C 
ENDROOT
BRANCH   1   4
HETATM    4  C8  UNL     1     -32.249   7.862   2.014  1.00 20.00    -0.033 C 
HETATM    5  C5  UNL     1     -32.682   8.970   1.025  1.00 20.00     0.018 C 
HETATM    6  C6  UNL     1     -31.468   8.537   3.153  1.00 20.00     0.018 C 
HETATM    7  C7  UNL     1     -31.343   6.890   1.237  1.00 20.00     0.018 C 
ENDBRANCH   1   4
BRANCH   2   8
HETATM    8  C2  UNL     1     -35.313   6.417   3.929  1.00 20.00     0.265 C 
HETATM    9  O9  UNL     1     -35.286   5.277   4.381  1.00 20.00    -0.302 OA
ENDBRANCH   2   8
TORSDOF 2
ENDMDL
MODEL 7
REMARK VINA RESULT:      -1.1      1.864      3.761
REMARK  2 active torsions:
REMARK  status: ('A' for Active; 'I' for Inactive)
REMARK    1  A    between atoms: C1_1  and  C8_8 
REMARK    2  A    between atoms: C2_2  and  C3_3 
ROOT
HETATM    1  C1  UNL     1     -33.678   5.837   2.742  1.00 20.00    -0.009 C 
HETATM    2  C3  UNL     1     -32.750   6.444   1.978  1.00 20.00    -0.027 C 
HETATM    3  C4  UNL     1     -32.381   7.891   1.920  1.00 20.00     0.051 C 
ENDROOT
BRANCH   1   4
HETATM    4  C8  UNL     1     -34.657   6.431   3.752  1.00 20.00    -0.033 C 
HETATM    5  C5  UNL     1     -35.833   7.062   2.970  1.00 20.00     0.018 C 
HETATM    6  C6  UNL     1     -35.241   5.339   4.663  1.00 20.00     0.018 C 
HETATM    7  C7  UNL     1     -34.017   7.552   4.590  1.00 20.00     0.018 C 
ENDBRANCH   1   4
BRANCH   2   8
HETATM    8  C2  UNL     1     -31.977   5.541   1.074  1.00 20.00     0.265 C 
HETATM    9  O9  UNL     1     -32.505   4.682   0.376  1.00 20.00    -0.302 OA
ENDBRANCH   2   8
TORSDOF 2
ENDMDL
MODEL 8
REMARK VINA RESULT:      -1.0      1.024      1.778
REMARK  2 active torsions:
REMARK  status: ('A' for Active; 'I' for Inactive)
REMARK    1  A    between atoms: C1_1  and  C8_8 
REMARK    2  A    between atoms: C2_2  and  C3_3 
ROOT
HETATM    1  C1  UNL     1     -33.265   5.187   2.629  1.00 20.00    -0.009 C 
HETATM    2  C3  UNL     1     -34.173   5.493   3.576  1.00 20.00    -0.027 C 
HETATM    3  C4  UNL     1     -34.959   6.752   3.751  1.00 20.00     0.051 C 
ENDROOT
BRANCH   1   4
HETATM    4  C8  UNL     1     -32.733   6.030   1.472  1.00 20.00    -0.033 C 
HETATM    5  C5  UNL     1     -31.534   5.282   0.843  1.00 20.00     0.018 C 
HETATM    6  C6  UNL     1     -33.799   6.201   0.378  1.00 20.00     0.018 C 
HETATM    7  C7  UNL     1     -32.215   7.401   1.943  1.00 20.00     0.018 C 
ENDBRANCH   1   4
BRANCH   2   8
HETATM    8  C2  UNL     1     -34.436   4.419   4.579  1.00 20.00     0.265 C 
HETATM    9  O9  UNL     1     -33.901   3.317   4.534  1.00 20.00    -0.302 OA
ENDBRANCH   2   8
TORSDOF 2
ENDMDL
MODEL 9
REMARK VINA RESULT:      -1.0      2.521      4.234
REMARK  2 active torsions:
REMARK  status: ('A' for Active; 'I' for Inactive)
REMARK    1  A    between atoms: C1_1  and  C8_8 
REMARK    2  A    between atoms: C2_2  and  C3_3 
ROOT
HETATM    1  C1  UNL     1     -33.322   7.566   2.729  1.00 20.00    -0.009 C 
HETATM    2  C3  UNL     1     -32.557   7.087   1.730  1.00 20.00    -0.027 C 
HETATM    3  C4  UNL     1     -32.416   5.679   1.248  1.00 20.00     0.051 C 
ENDROOT
BRANCH   1   4
HETATM    4  C8  UNL     1     -34.248   6.830   3.695  1.00 20.00    -0.033 C 
HETATM    5  C5  UNL     1     -34.151   7.520   5.076  1.00 20.00     0.018 C 
HETATM    6  C6  UNL     1     -35.711   6.920   3.233  1.00 20.00     0.018 C 
HETATM    7  C7  UNL     1     -33.831   5.362   3.891  1.00 20.00     0.018 C 
ENDBRANCH   1   4
BRANCH   2   8
HETATM    8  C2  UNL     1     -31.750   8.108   0.998  1.00 20.00     0.265 C 
HETATM    9  O9  UNL     1     -32.195   9.200   0.666  1.00 20.00    -0.302 OA
ENDBRANCH   2   8
TORSDOF 2
ENDMDL
