MODEL 1
REMARK VINA RESULT:      -1.6      0.000      0.000
REMARK  0 active torsions:
REMARK  status: ('A' for Active; 'I' for Inactive)
ROOT
HETATM    1  C1  UNL     1     -33.169   7.766   3.463  1.00 20.00     0.149 C 
HETATM    2  C2  UNL     1     -33.808   6.635   3.132  1.00 20.00     0.010 C 
HETATM    3  C3  UNL     1     -33.373   5.799   1.968  1.00 20.00     0.050 C 
HETATM    4  C4  UNL     1     -31.982   6.223   1.498  1.00 20.00     0.032 C 
HETATM    5  C5  UNL     1     -31.873   7.744   1.493  1.00 20.00     0.174 C 
HETATM    6  O6  UNL     1     -32.113   8.317   2.785  1.00 20.00    -0.362 OA
HETATM    7 BR7  UNL     1     -35.249   5.978   4.115  1.00 20.00    -0.054 Br
ENDROOT
TORSDOF 0
ENDMDL
MODEL 2
REMARK VINA RESULT:      -1.1      1.147      1.900
REMARK  0 active torsions:
REMARK  status: ('A' for Active; 'I' for Inactive)
ROOT
HETATM    1  C1  UNL     1     -33.316   5.722   2.114  1.00 20.00     0.149 C 
HETATM    2  C2  UNL     1     -33.805   6.498   3.091  1.00 20.00     0.010 C 
HETATM    3  C3  UNL     1     -33.269   7.873   3.345  1.00 20.00     0.050 C 
HETATM    4  C4  UNL     1     -32.406   8.334   2.170  1.00 20.00     0.032 C 
HETATM    5  C5  UNL     1     -31.519   7.191   1.693  1.00 20.00     0.174 C 
HETATM    6  O6  UNL     1     -32.272   6.042   1.284  1.00 20.00    -0.362 OA
HETATM    7 BR7  UNL     1     -35.221   5.961   4.178  1.00 20.00    -0.054 Br
ENDROOT
TORSDOF 0
ENDMDL
MODEL 3
REMARK VINA RESULT:      -0.8      2.535      3.519
REMARK  0 active torsions:
REMARK  status: ('A' for Active; 'I' for Inactive)
ROOT
HETATM    1  C1  UNL     1     -33.219   5.941   2.493  1.00 20.00     0.149 C 
HETATM    2  C2  UNL     1     -32.988   7.261   2.518  1.00 20.00     0.010 C 
HETATM    3  C3  UNL     1     -33.691   8.163   3.486  1.00 20.00     0.050 C 
HETATM    4  C4  UNL     1     -34.370   7.342   4.582  1.00 20.00     0.032 C 
HETATM    5  C5  UNL     1     -35.045   6.117   3.975  1.00 20.00     0.174 C 
HETATM    6  O6  UNL     1     -34.123   5.271   3.275  1.00 20.00    -0.362 OA
HETATM    7 BR7  UNL     1     -31.743   8.079   1.397  1.00 20.00    -0.054 Br
ENDROOT
TORSDOF 0
ENDMDL
MODEL 4
REMARK VINA RESULT:      -0.8      1.924      2.665
REMARK  0 active torsions:
REMARK  status: ('A' for Active; 'I' for Inactive)
ROOT
HETATM    1  C1  UNL     1     -32.379   7.390   2.013  1.00 20.00     0.149 C 
HETATM    2  C2  UNL     1     -32.807   6.120   1.978  1.00 20.00     0.010 C 
HETATM    3  C3  UNL     1     -33.844   5.615   2.934  1.00 20.00     0.050 C 
HETATM    4  C4  UNL     1     -34.532   6.782   3.640  1.00 20.00     0.032 C 
HETATM    5  C5  UNL     1     -33.501   7.832   4.039  1.00 20.00     0.174 C 
HETATM    6  O6  UNL     1     -32.773   8.344   2.916  1.00 20.00    -0.362 OA
HETATM    7 BR7  UNL     1     -32.195   4.895   0.714  1.00 20.00    -0.054 Br
ENDROOT
TORSDOF 0
ENDMDL
MODEL 5
REMARK VINA RESULT:      -0.8      2.347      3.179
REMARK  0 active torsions:
REMARK  status: ('A' for Active; 'I' for Inactive)
ROOT
HETATM    1  C1  UNL     1     -33.138   5.173   3.013  1.00 20.00     0.149 C 
HETATM    2  C2  UNL     1     -33.797   4.480   3.953  1.00 20.00     0.010 C 
HETATM    3  C3  UNL     1     -34.999   5.045   4.645  1.00 20.00     0.050 C 
HETATM    4  C4  UNL     1     -35.514   6.276   3.900  1.00 20.00     0.032 C 
HETATM    5  C5  UNL     1     -34.344   7.149   3.462  1.00 20.00     0.174 C 
HETATM    6  O6  UNL     1     -33.425   6.452   2.611  1.00 20.00    -0.362 OA
HETATM    7 BR7  UNL     1     -33.314   2.747   4.439  1.00 20.00    -0.054 Br
ENDROOT
TORSDOF 0
ENDMDL
MODEL 6
REMARK VINA RESULT:      -0.2      2.399      2.892
REMARK  0 active torsions:
REMARK  status: ('A' for Active; 'I' for Inactive)
ROOT
HETATM    1  C1  UNL     1     -33.451   7.833   3.068  1.00 20.00     0.149 C 
HETATM    2  C2  UNL     1     -32.652   7.555   2.028  1.00 20.00     0.010 C 
HETATM    3  C3  UNL     1     -32.499   6.159   1.506  1.00 20.00     0.050 C 
HETATM    4  C4  UNL     1     -33.594   5.256   2.072  1.00 20.00     0.032 C 
HETATM    5  C5  UNL     1     -33.802   5.552   3.553  1.00 20.00     0.174 C 
HETATM    6  O6  UNL     1     -34.165   6.917   3.796  1.00 20.00    -0.362 OA
HETATM    7 BR7  UNL     1     -31.709   8.876   1.112  1.00 20.00    -0.054 Br
ENDROOT
TORSDOF 0
ENDMDL
MODEL 7
REMARK VINA RESULT:      -0.1      2.564      3.247
REMARK  0 active torsions:
REMARK  status: ('A' for Active; 'I' for Inactive)
ROOT
HETATM    1  C1  UNL     1     -34.486   7.130   3.482  1.00 20.00     0.149 C 
HETATM    2  C2  UNL     1     -33.356   6.727   2.886  1.00 20.00     0.010 C 
HETATM    3  C3  UNL     1     -32.935   5.289   2.892  1.00 20.00     0.050 C 
HETATM    4  C4  UNL     1     -34.097   4.396   3.329  1.00 20.00     0.032 C 
HETATM    5  C5  UNL     1     -34.832   5.033   4.502  1.00 20.00     0.174 C 
HETATM    6  O6  UNL     1     -35.348   6.332   4.189  1.00 20.00    -0.362 OA
HETATM    7 BR7  UNL     1     -32.242   7.899   1.959  1.00 20.00    -0.054 Br
ENDROOT
TORSDOF 0
ENDMDL
MODEL 8
REMARK VINA RESULT:       0.2      1.424      1.747
REMARK  0 active torsions:
REMARK  status: ('A' for Active; 'I' for Inactive)
ROOT
HETATM    1  C1  UNL     1     -32.326   7.855   2.601  1.00 20.00     0.149 C 
HETATM    2  C2  UNL     1     -33.260   7.368   3.431  1.00 20.00     0.010 C 
HETATM    3  C3  UNL     1     -33.895   6.031   3.199  1.00 20.00     0.050 C 
HETATM    4  C4  UNL     1     -33.100   5.236   2.164  1.00 20.00     0.032 C 
HETATM    5  C5  UNL     1     -32.680   6.146   1.015  1.00 20.00     0.174 C 
HETATM    6  O6  UNL     1     -31.880   7.252   1.454  1.00 20.00    -0.362 OA
HETATM    7 BR7  UNL     1     -33.808   8.277   4.962  1.00 20.00    -0.054 Br
ENDROOT
TORSDOF 0
ENDMDL
