MODEL 1
REMARK VINA RESULT:      -2.4      0.000      0.000
REMARK  2 active torsions:
REMARK  status: ('A' for Active; 'I' for Inactive)
REMARK    1  A    between atoms: C2_2  and  C7_7 
REMARK    2  A    between atoms: C3_3  and  C7_7 
ROOT
HETATM    1  C6  UNL     1     -32.673   5.818   1.149  1.00 20.00     0.022 C 
HETATM    2  C7  UNL     1     -32.549   6.731   2.365  1.00 20.00     0.073 C 
ENDROOT
BRANCH   2   3
HETATM    3  C2  UNL     1     -32.599   8.180   1.969  1.00 20.00    -0.019 C 
HETATM    4  C1  UNL     1     -32.289   8.626   0.742  1.00 20.00    -0.034 C 
HETATM    5  C4  UNL     1     -32.337  10.063   0.342  1.00 20.00     0.036 C 
ENDBRANCH   2   3
BRANCH   2   6
HETATM    6  C3  UNL     1     -33.691   6.491   3.345  1.00 20.00     0.130 C 
HETATM    7  C5  UNL     1     -34.198   7.690   4.105  1.00 20.00     0.091 C 
HETATM    8  O8  UNL     1     -34.159   5.371   3.549  1.00 20.00    -0.298 OA
ENDBRANCH   2   6
TORSDOF 2
ENDMDL
MODEL 2
REMARK VINA RESULT:      -2.1      2.069      4.112
REMARK  2 active torsions:
REMARK  status: ('A' for Active; 'I' for Inactive)
REMARK    1  A    between atoms: C2_2  and  C7_7 
REMARK    2  A    between atoms: C3_3  and  C7_7 
ROOT
HETATM    1  C6  UNL     1     -32.754   6.686   1.909  1.00 20.00     0.022 C 
HETATM    2  C7  UNL     1     -33.778   5.823   2.639  1.00 20.00     0.073 C 
ENDROOT
BRANCH   2   3
HETATM    3  C2  UNL     1     -33.114   4.709   3.399  1.00 20.00    -0.019 C 
HETATM    4  C1  UNL     1     -33.783   3.820   4.149  1.00 20.00    -0.034 C 
HETATM    5  C4  UNL     1     -33.131   2.711   4.905  1.00 20.00     0.036 C 
ENDBRANCH   2   3
BRANCH   2   6
HETATM    6  C3  UNL     1     -34.567   6.650   3.647  1.00 20.00     0.130 C 
HETATM    7  C5  UNL     1     -33.840   7.796   4.302  1.00 20.00     0.091 C 
HETATM    8  O8  UNL     1     -35.728   6.381   3.955  1.00 20.00    -0.298 OA
ENDBRANCH   2   6
TORSDOF 2
ENDMDL
MODEL 3
REMARK VINA RESULT:      -2.0      1.535      2.679
REMARK  2 active torsions:
REMARK  status: ('A' for Active; 'I' for Inactive)
REMARK    1  A    between atoms: C2_2  and  C7_7 
REMARK    2  A    between atoms: C3_3  and  C7_7 
ROOT
HETATM    1  C6  UNL     1     -34.185   7.610   4.690  1.00 20.00     0.022 C 
HETATM    2  C7  UNL     1     -34.500   6.633   3.562  1.00 20.00     0.073 C 
ENDROOT
BRANCH   2   3
HETATM    3  C2  UNL     1     -33.391   6.590   2.549  1.00 20.00    -0.019 C 
HETATM    4  C1  UNL     1     -32.597   7.636   2.273  1.00 20.00    -0.034 C 
HETATM    5  C4  UNL     1     -31.494   7.600   1.269  1.00 20.00     0.036 C 
ENDBRANCH   2   3
BRANCH   2   6
HETATM    6  C3  UNL     1     -34.675   5.218   4.101  1.00 20.00     0.130 C 
HETATM    7  C5  UNL     1     -33.590   4.226   3.767  1.00 20.00     0.091 C 
HETATM    8  O8  UNL     1     -35.668   4.875   4.743  1.00 20.00    -0.298 OA
ENDBRANCH   2   6
TORSDOF 2
ENDMDL
MODEL 4
REMARK VINA RESULT:      -1.9      2.403      4.746
REMARK  2 active torsions:
REMARK  status: ('A' for Active; 'I' for Inactive)
REMARK    1  A    between atoms: C2_2  and  C7_7 
REMARK    2  A    between atoms: C3_3  and  C7_7 
ROOT
HETATM    1  C6  UNL     1     -35.437   6.447   3.760  1.00 20.00     0.022 C 
HETATM    2  C7  UNL     1     -33.981   5.993   3.775  1.00 20.00     0.073 C 
ENDROOT
BRANCH   2   3
HETATM    3  C2  UNL     1     -33.873   4.498   3.654  1.00 20.00    -0.019 C 
HETATM    4  C1  UNL     1     -33.436   3.704   4.644  1.00 20.00    -0.034 C 
HETATM    5  C4  UNL     1     -33.326   2.220   4.531  1.00 20.00     0.036 C 
ENDBRANCH   2   3
BRANCH   2   6
HETATM    6  C3  UNL     1     -33.210   6.597   2.607  1.00 20.00     0.130 C 
HETATM    7  C5  UNL     1     -32.888   5.677   1.457  1.00 20.00     0.091 C 
HETATM    8  O8  UNL     1     -32.824   7.766   2.608  1.00 20.00    -0.298 OA
ENDBRANCH   2   6
TORSDOF 2
ENDMDL
MODEL 5
REMARK VINA RESULT:      -1.8      1.666      3.611
REMARK  2 active torsions:
REMARK  status: ('A' for Active; 'I' for Inactive)
REMARK    1  A    between atoms: C2_2  and  C7_7 
REMARK    2  A    between atoms: C3_3  and  C7_7 
ROOT
HETATM    1  C6  UNL     1     -31.801   5.591   1.101  1.00 20.00     0.022 C 
HETATM    2  C7  UNL     1     -32.834   6.605   1.582  1.00 20.00     0.073 C 
ENDROOT
BRANCH   2   3
HETATM    3  C2  UNL     1     -33.491   6.155   2.857  1.00 20.00    -0.019 C 
HETATM    4  C1  UNL     1     -34.716   6.548   3.239  1.00 20.00    -0.034 C 
HETATM    5  C4  UNL     1     -35.374   6.105   4.503  1.00 20.00     0.036 C 
ENDBRANCH   2   3
BRANCH   2   6
HETATM    6  C3  UNL     1     -32.183   7.955   1.860  1.00 20.00     0.130 C 
HETATM    7  C5  UNL     1     -32.183   8.953   0.731  1.00 20.00     0.091 C 
HETATM    8  O8  UNL     1     -31.642   8.216   2.934  1.00 20.00    -0.298 OA
ENDBRANCH   2   6
TORSDOF 2
ENDMDL
MODEL 6
REMARK VINA RESULT:      -1.7      2.206      4.062
REMARK  2 active torsions:
REMARK  status: ('A' for Active; 'I' for Inactive)
REMARK    1  A    between atoms: C2_2  and  C7_7 
REMARK    2  A    between atoms: C3_3  and  C7_7 
ROOT
HETATM    1  C6  UNL     1     -32.414   5.459   1.462  1.00 20.00     0.022 C 
HETATM    2  C7  UNL     1     -33.565   5.950   2.335  1.00 20.00     0.073 C 
ENDROOT
BRANCH   2   3
HETATM    3  C2  UNL     1     -33.840   4.997   3.465  1.00 20.00    -0.019 C 
HETATM    4  C1  UNL     1     -33.110   3.896   3.702  1.00 20.00    -0.034 C 
HETATM    5  C4  UNL     1     -33.377   2.947   4.822  1.00 20.00     0.036 C 
ENDBRANCH   2   3
BRANCH   2   6
HETATM    6  C3  UNL     1     -33.239   7.304   2.954  1.00 20.00     0.130 C 
HETATM    7  C5  UNL     1     -34.047   7.710   4.161  1.00 20.00     0.091 C 
HETATM    8  O8  UNL     1     -32.391   8.059   2.479  1.00 20.00    -0.298 OA
ENDBRANCH   2   6
TORSDOF 2
ENDMDL
MODEL 7
REMARK VINA RESULT:      -1.6      1.682      2.890
REMARK  2 active torsions:
REMARK  status: ('A' for Active; 'I' for Inactive)
REMARK    1  A    between atoms: C2_2  and  C7_7 
REMARK    2  A    between atoms: C3_3  and  C7_7 
ROOT
HETATM    1  C6  UNL     1     -32.013   8.277   2.452  1.00 20.00     0.022 C 
HETATM    2  C7  UNL     1     -33.307   7.471   2.392  1.00 20.00     0.073 C 
ENDROOT
BRANCH   2   3
HETATM    3  C2  UNL     1     -33.067   6.091   1.846  1.00 20.00    -0.019 C 
HETATM    4  C1  UNL     1     -32.007   5.765   1.091  1.00 20.00    -0.034 C 
HETATM    5  C4  UNL     1     -31.763   4.397   0.547  1.00 20.00     0.036 C 
ENDBRANCH   2   3
BRANCH   2   6
HETATM    6  C3  UNL     1     -33.912   7.309   3.781  1.00 20.00     0.130 C 
HETATM    7  C5  UNL     1     -35.066   6.347   3.911  1.00 20.00     0.091 C 
HETATM    8  O8  UNL     1     -33.518   7.957   4.751  1.00 20.00    -0.298 OA
ENDBRANCH   2   6
TORSDOF 2
ENDMDL
MODEL 8
REMARK VINA RESULT:      -1.4      1.241      1.956
REMARK  2 active torsions:
REMARK  status: ('A' for Active; 'I' for Inactive)
REMARK    1  A    between atoms: C2_2  and  C7_7 
REMARK    2  A    between atoms: C3_3  and  C7_7 
ROOT
HETATM    1  C6  UNL     1     -33.101   8.122   4.806  1.00 20.00     0.022 C 
HETATM    2  C7  UNL     1     -33.583   7.748   3.407  1.00 20.00     0.073 C 
ENDROOT
BRANCH   2   3
HETATM    3  C2  UNL     1     -32.473   7.852   2.399  1.00 20.00    -0.019 C 
HETATM    4  C1  UNL     1     -32.490   8.702   1.361  1.00 20.00    -0.034 C 
HETATM    5  C4  UNL     1     -31.391   8.811   0.357  1.00 20.00     0.036 C 
ENDBRANCH   2   3
BRANCH   2   6
HETATM    6  C3  UNL     1     -34.092   6.313   3.372  1.00 20.00     0.130 C 
HETATM    7  C5  UNL     1     -35.342   6.017   4.162  1.00 20.00     0.091 C 
HETATM    8  O8  UNL     1     -33.499   5.417   2.770  1.00 20.00    -0.298 OA
ENDBRANCH   2   6
TORSDOF 2
ENDMDL
MODEL 9
REMARK VINA RESULT:      -1.2      1.401      2.723
REMARK  2 active torsions:
REMARK  status: ('A' for Active; 'I' for Inactive)
REMARK    1  A    between atoms: C2_2  and  C7_7 
REMARK    2  A    between atoms: C3_3  and  C7_7 
ROOT
HETATM    1  C6  UNL     1     -32.133   8.232   2.427  1.00 20.00     0.022 C 
HETATM    2  C7  UNL     1     -33.378   7.358   2.318  1.00 20.00     0.073 C 
ENDROOT
BRANCH   2   3
HETATM    3  C2  UNL     1     -33.039   5.983   1.814  1.00 20.00    -0.019 C 
HETATM    4  C1  UNL     1     -31.958   5.712   1.065  1.00 20.00    -0.034 C 
HETATM    5  C4  UNL     1     -31.615   4.350   0.563  1.00 20.00     0.036 C 
ENDBRANCH   2   3
BRANCH   2   6
HETATM    6  C3  UNL     1     -34.045   7.189   3.677  1.00 20.00     0.130 C 
HETATM    7  C5  UNL     1     -33.519   8.043   4.803  1.00 20.00     0.091 C 
HETATM    8  O8  UNL     1     -34.942   6.369   3.874  1.00 20.00    -0.298 OA
ENDBRANCH   2   6
TORSDOF 2
ENDMDL
