MODEL 1
REMARK VINA RESULT:      -1.5      0.000      0.000
REMARK  2 active torsions:
REMARK  status: ('A' for Active; 'I' for Inactive)
REMARK    1  A    between atoms: C2_2  and  C3_3 
REMARK    2  A    between atoms: C4_4  and  C5_5 
ROOT
HETATM    1  C1  UNL     1     -34.724   6.649   3.535  1.00 20.00    -0.020 C 
HETATM    2  C2  UNL     1     -33.638   6.221   2.881  1.00 20.00    -0.062 C 
HETATM    3  C6  UNL     1     -35.196   5.650   4.537  1.00 20.00     0.028 C 
HETATM    4  C7  UNL     1     -33.212   4.864   3.343  1.00 20.00     0.038 C 
HETATM    5  C8  UNL     1     -34.422   4.389   4.149  1.00 20.00     0.008 C 
ENDROOT
BRANCH   2   6
HETATM    6  C3  UNL     1     -32.923   6.934   1.872  1.00 20.00     0.010 C 
HETATM    7  C4  UNL     1     -32.758   8.267   1.889  1.00 20.00     0.050 C 
BRANCH   7   8
HETATM    8  C5  UNL     1     -32.003   8.955   0.805  1.00 20.00     0.145 C 
HETATM    9  C9  UNL     1     -32.570  10.259   0.309  1.00 20.00     0.096 C 
HETATM   10  O10 UNL     1     -30.957   8.502   0.346  1.00 20.00    -0.294 OA
ENDBRANCH   7   8
ENDBRANCH   2   6
TORSDOF 2
ENDMDL
MODEL 2
REMARK VINA RESULT:      -1.4      0.120      1.258
REMARK  2 active torsions:
REMARK  status: ('A' for Active; 'I' for Inactive)
REMARK    1  A    between atoms: C2_2  and  C3_3 
REMARK    2  A    between atoms: C4_4  and  C5_5 
ROOT
HETATM    1  C1  UNL     1     -33.343   4.888   3.169  1.00 20.00    -0.020 C 
HETATM    2  C2  UNL     1     -33.601   6.139   2.771  1.00 20.00    -0.062 C 
HETATM    3  C6  UNL     1     -34.363   4.397   4.140  1.00 20.00     0.028 C 
HETATM    4  C7  UNL     1     -34.835   6.683   3.415  1.00 20.00     0.038 C 
HETATM    5  C8  UNL     1     -35.099   5.677   4.536  1.00 20.00     0.008 C 
ENDROOT
BRANCH   2   6
HETATM    6  C3  UNL     1     -32.837   6.903   1.835  1.00 20.00     0.010 C 
HETATM    7  C4  UNL     1     -32.843   8.246   1.803  1.00 20.00     0.050 C 
BRANCH   7   8
HETATM    8  C5  UNL     1     -32.026   8.986   0.802  1.00 20.00     0.145 C 
HETATM    9  C9  UNL     1     -32.561  10.319   0.346  1.00 20.00     0.096 C 
HETATM   10  O10 UNL     1     -30.958   8.553   0.378  1.00 20.00    -0.294 OA
ENDBRANCH   7   8
ENDBRANCH   2   6
TORSDOF 2
ENDMDL
MODEL 3
REMARK VINA RESULT:      -1.0      2.284      5.245
REMARK  2 active torsions:
REMARK  status: ('A' for Active; 'I' for Inactive)
REMARK    1  A    between atoms: C2_2  and  C3_3 
REMARK    2  A    between atoms: C4_4  and  C5_5 
ROOT
HETATM    1  C1  UNL     1     -31.606   7.671   1.230  1.00 20.00    -0.020 C 
HETATM    2  C2  UNL     1     -32.643   8.098   1.959  1.00 20.00    -0.062 C 
HETATM    3  C6  UNL     1     -31.115   8.727   0.297  1.00 20.00     0.028 C 
HETATM    4  C7  UNL     1     -33.011   9.509   1.627  1.00 20.00     0.038 C 
HETATM    5  C8  UNL     1     -32.242   9.759   0.329  1.00 20.00     0.008 C 
ENDROOT
BRANCH   2   6
HETATM    6  C3  UNL     1     -33.340   7.350   2.957  1.00 20.00     0.010 C 
HETATM    7  C4  UNL     1     -33.753   6.085   2.773  1.00 20.00     0.050 C 
BRANCH   7   8
HETATM    8  C5  UNL     1     -34.478   5.358   3.853  1.00 20.00     0.145 C 
HETATM    9  C9  UNL     1     -33.925   4.014   4.251  1.00 20.00     0.096 C 
HETATM   10  O10 UNL     1     -35.465   5.830   4.412  1.00 20.00    -0.294 OA
ENDBRANCH   7   8
ENDBRANCH   2   6
TORSDOF 2
ENDMDL
MODEL 4
REMARK VINA RESULT:      -0.8      2.212      5.130
REMARK  2 active torsions:
REMARK  status: ('A' for Active; 'I' for Inactive)
REMARK    1  A    between atoms: C2_2  and  C3_3 
REMARK    2  A    between atoms: C4_4  and  C5_5 
ROOT
HETATM    1  C1  UNL     1     -31.571   7.720   1.030  1.00 20.00    -0.020 C 
HETATM    2  C2  UNL     1     -32.601   8.119   1.785  1.00 20.00    -0.062 C 
HETATM    3  C6  UNL     1     -31.094   8.809   0.128  1.00 20.00     0.028 C 
HETATM    4  C7  UNL     1     -32.978   9.538   1.504  1.00 20.00     0.038 C 
HETATM    5  C8  UNL     1     -32.225   9.834   0.207  1.00 20.00     0.008 C 
ENDROOT
BRANCH   2   6
HETATM    6  C3  UNL     1     -33.284   7.335   2.765  1.00 20.00     0.010 C 
HETATM    7  C4  UNL     1     -33.503   6.017   2.631  1.00 20.00     0.050 C 
BRANCH   7   8
HETATM    8  C5  UNL     1     -34.224   5.254   3.688  1.00 20.00     0.145 C 
HETATM    9  C9  UNL     1     -35.410   5.933   4.322  1.00 20.00     0.096 C 
HETATM   10  O10 UNL     1     -33.891   4.118   4.019  1.00 20.00    -0.294 OA
ENDBRANCH   7   8
ENDBRANCH   2   6
TORSDOF 2
ENDMDL
MODEL 5
REMARK VINA RESULT:      -0.8      2.439      5.136
REMARK  2 active torsions:
REMARK  status: ('A' for Active; 'I' for Inactive)
REMARK    1  A    between atoms: C2_2  and  C3_3 
REMARK    2  A    between atoms: C4_4  and  C5_5 
ROOT
HETATM    1  C1  UNL     1     -33.063   8.754   2.196  1.00 20.00    -0.020 C 
HETATM    2  C2  UNL     1     -32.902   7.429   2.289  1.00 20.00    -0.062 C 
HETATM    3  C6  UNL     1     -32.278   9.327   1.064  1.00 20.00     0.028 C 
HETATM    4  C7  UNL     1     -31.981   6.906   1.234  1.00 20.00     0.038 C 
HETATM    5  C8  UNL     1     -31.336   8.182   0.690  1.00 20.00     0.008 C 
ENDROOT
BRANCH   2   6
HETATM    6  C3  UNL     1     -33.521   6.567   3.246  1.00 20.00     0.010 C 
HETATM    7  C4  UNL     1     -33.551   5.231   3.122  1.00 20.00     0.050 C 
BRANCH   7   8
HETATM    8  C5  UNL     1     -34.214   4.385   4.154  1.00 20.00     0.145 C 
HETATM    9  C9  UNL     1     -33.456   3.170   4.621  1.00 20.00     0.096 C 
HETATM   10  O10 UNL     1     -35.314   4.667   4.624  1.00 20.00    -0.294 OA
ENDBRANCH   7   8
ENDBRANCH   2   6
TORSDOF 2
ENDMDL
MODEL 6
REMARK VINA RESULT:      -0.7      0.925      1.102
REMARK  2 active torsions:
REMARK  status: ('A' for Active; 'I' for Inactive)
REMARK    1  A    between atoms: C2_2  and  C3_3 
REMARK    2  A    between atoms: C4_4  and  C5_5 
ROOT
HETATM    1  C1  UNL     1     -34.594   6.881   3.555  1.00 20.00    -0.020 C 
HETATM    2  C2  UNL     1     -33.528   6.475   2.856  1.00 20.00    -0.062 C 
HETATM    3  C6  UNL     1     -35.108   5.806   4.452  1.00 20.00     0.028 C 
HETATM    4  C7  UNL     1     -33.162   5.061   3.175  1.00 20.00     0.038 C 
HETATM    5  C8  UNL     1     -34.391   4.559   3.934  1.00 20.00     0.008 C 
ENDROOT
BRANCH   2   6
HETATM    6  C3  UNL     1     -32.782   7.256   1.921  1.00 20.00     0.010 C 
HETATM    7  C4  UNL     1     -32.995   8.567   1.722  1.00 20.00     0.050 C 
BRANCH   7   8
HETATM    8  C5  UNL     1     -32.185   9.328   0.730  1.00 20.00     0.145 C 
HETATM    9  C9  UNL     1     -31.055   8.584   0.068  1.00 20.00     0.096 C 
HETATM   10  O10 UNL     1     -32.431  10.497   0.442  1.00 20.00    -0.294 OA
ENDBRANCH   7   8
ENDBRANCH   2   6
TORSDOF 2
ENDMDL
MODEL 7
REMARK VINA RESULT:      -0.3      2.209      4.976
REMARK  2 active torsions:
REMARK  status: ('A' for Active; 'I' for Inactive)
REMARK    1  A    between atoms: C2_2  and  C3_3 
REMARK    2  A    between atoms: C4_4  and  C5_5 
ROOT
HETATM    1  C1  UNL     1     -33.062   9.333   1.444  1.00 20.00    -0.020 C 
HETATM    2  C2  UNL     1     -32.695   8.098   1.804  1.00 20.00    -0.062 C 
HETATM    3  C6  UNL     1     -32.199   9.869   0.351  1.00 20.00     0.028 C 
HETATM    4  C7  UNL     1     -31.526   7.612   1.009  1.00 20.00     0.038 C 
HETATM    5  C8  UNL     1     -31.023   8.891   0.337  1.00 20.00     0.008 C 
ENDROOT
BRANCH   2   6
HETATM    6  C3  UNL     1     -33.316   7.289   2.805  1.00 20.00     0.010 C 
HETATM    7  C4  UNL     1     -33.563   5.979   2.643  1.00 20.00     0.050 C 
BRANCH   7   8
HETATM    8  C5  UNL     1     -34.216   5.188   3.723  1.00 20.00     0.145 C 
HETATM    9  C9  UNL     1     -35.403   5.823   4.401  1.00 20.00     0.096 C 
HETATM   10  O10 UNL     1     -33.830   4.066   4.039  1.00 20.00    -0.294 OA
ENDBRANCH   7   8
ENDBRANCH   2   6
TORSDOF 2
ENDMDL
MODEL 8
REMARK VINA RESULT:       1.3      2.515      3.607
REMARK  2 active torsions:
REMARK  status: ('A' for Active; 'I' for Inactive)
REMARK    1  A    between atoms: C2_2  and  C3_3 
REMARK    2  A    between atoms: C4_4  and  C5_5 
ROOT
HETATM    1  C1  UNL     1     -34.347   6.765   3.772  1.00 20.00    -0.020 C 
HETATM    2  C2  UNL     1     -33.412   6.750   2.815  1.00 20.00    -0.062 C 
HETATM    3  C6  UNL     1     -34.131   7.882   4.737  1.00 20.00     0.028 C 
HETATM    4  C7  UNL     1     -32.422   7.856   2.990  1.00 20.00     0.038 C 
HETATM    5  C8  UNL     1     -32.711   8.343   4.411  1.00 20.00     0.008 C 
ENDROOT
BRANCH   2   6
HETATM    6  C3  UNL     1     -33.331   5.828   1.727  1.00 20.00     0.010 C 
HETATM    7  C4  UNL     1     -32.174   5.299   1.296  1.00 20.00     0.050 C 
BRANCH   7   8
HETATM    8  C5  UNL     1     -32.154   4.343   0.154  1.00 20.00     0.145 C 
HETATM    9  C9  UNL     1     -33.483   4.008  -0.471  1.00 20.00     0.096 C 
HETATM   10  O10 UNL     1     -31.110   3.862  -0.280  1.00 20.00    -0.294 OA
ENDBRANCH   7   8
ENDBRANCH   2   6
TORSDOF 2
ENDMDL
MODEL 9
REMARK VINA RESULT:       1.3      1.818      5.101
REMARK  2 active torsions:
REMARK  status: ('A' for Active; 'I' for Inactive)
REMARK    1  A    between atoms: C2_2  and  C3_3 
REMARK    2  A    between atoms: C4_4  and  C5_5 
ROOT
HETATM    1  C1  UNL     1     -32.602   9.950   1.671  1.00 20.00    -0.020 C 
HETATM    2  C2  UNL     1     -32.288   8.857   0.966  1.00 20.00    -0.062 C 
HETATM    3  C6  UNL     1     -32.772  11.144   0.791  1.00 20.00     0.028 C 
HETATM    4  C7  UNL     1     -32.197   9.148  -0.498  1.00 20.00     0.038 C 
HETATM    5  C8  UNL     1     -32.172  10.676  -0.535  1.00 20.00     0.008 C 
ENDROOT
BRANCH   2   6
HETATM    6  C3  UNL     1     -32.073   7.546   1.491  1.00 20.00     0.010 C 
HETATM    7  C4  UNL     1     -33.063   6.660   1.687  1.00 20.00     0.050 C 
BRANCH   7   8
HETATM    8  C5  UNL     1     -32.775   5.308   2.240  1.00 20.00     0.145 C 
HETATM    9  C9  UNL     1     -33.653   4.839   3.371  1.00 20.00     0.096 C 
HETATM   10  O10 UNL     1     -31.883   4.592   1.790  1.00 20.00    -0.294 OA
ENDBRANCH   7   8
ENDBRANCH   2   6
TORSDOF 2
ENDMDL
