MODEL 1
REMARK VINA RESULT:      -0.9      0.000      0.000
REMARK  3 active torsions:
REMARK  status: ('A' for Active; 'I' for Inactive)
REMARK    1  A    between atoms: C1_1  and  C3_3 
REMARK    2  A    between atoms: C2_2  and  C8_8 
REMARK    3  A    between atoms: C3_3  and  O10_10 
ROOT
HETATM    1  C1  UNL     1     -33.753   6.202   3.288  1.00 20.00     0.079 C 
HETATM    2  C2  UNL     1     -33.573   7.379   2.672  1.00 20.00    -0.012 C 
ENDROOT
BRANCH   1   3
HETATM    3  C3  UNL     1     -35.076   5.864   3.860  1.00 20.00     0.282 C 
HETATM    4  O9  UNL     1     -36.086   6.543   3.761  1.00 20.00    -0.260 OA
BRANCH   3   5
HETATM    5  O10 UNL     1     -34.953   4.672   4.505  1.00 20.00    -0.323 OA
HETATM    6  C7  UNL     1     -33.817   3.885   4.134  1.00 20.00     0.213 C 
ENDBRANCH   3   5
ENDBRANCH   1   3
BRANCH   2   7
HETATM    7  C8  UNL     1     -32.291   7.890   2.029  1.00 20.00    -0.034 C 
HETATM    8  C4  UNL     1     -32.510   8.963   0.944  1.00 20.00     0.018 C 
HETATM    9  C5  UNL     1     -31.403   8.488   3.133  1.00 20.00     0.018 C 
HETATM   10  C6  UNL     1     -31.562   6.695   1.390  1.00 20.00     0.018 C 
ENDBRANCH   2   7
TORSDOF 3
ENDMDL
MODEL 2
REMARK VINA RESULT:      -0.8      0.087      1.380
REMARK  3 active torsions:
REMARK  status: ('A' for Active; 'I' for Inactive)
REMARK    1  A    between atoms: C1_1  and  C3_3 
REMARK    2  A    between atoms: C2_2  and  C8_8 
REMARK    3  A    between atoms: C3_3  and  O10_10 
ROOT
HETATM    1  C1  UNL     1     -33.748   6.171   3.247  1.00 20.00     0.079 C 
HETATM    2  C2  UNL     1     -33.527   7.375   2.700  1.00 20.00    -0.012 C 
ENDROOT
BRANCH   1   3
HETATM    3  C3  UNL     1     -35.067   5.867   3.847  1.00 20.00     0.282 C 
HETATM    4  O9  UNL     1     -36.065   6.565   3.759  1.00 20.00    -0.260 OA
BRANCH   3   5
HETATM    5  O10 UNL     1     -34.957   4.679   4.501  1.00 20.00    -0.323 OA
HETATM    6  C7  UNL     1     -33.822   3.883   4.147  1.00 20.00     0.213 C 
ENDBRANCH   3   5
ENDBRANCH   1   3
BRANCH   2   7
HETATM    7  C8  UNL     1     -32.242   7.860   2.041  1.00 20.00    -0.034 C 
HETATM    8  C4  UNL     1     -31.220   8.472   3.019  1.00 20.00     0.018 C 
HETATM    9  C5  UNL     1     -31.583   6.663   1.334  1.00 20.00     0.018 C 
HETATM   10  C6  UNL     1     -32.610   8.924   0.992  1.00 20.00     0.018 C 
ENDBRANCH   2   7
TORSDOF 3
ENDMDL
MODEL 3
REMARK VINA RESULT:      -0.6      0.100      1.378
REMARK  3 active torsions:
REMARK  status: ('A' for Active; 'I' for Inactive)
REMARK    1  A    between atoms: C1_1  and  C3_3 
REMARK    2  A    between atoms: C2_2  and  C8_8 
REMARK    3  A    between atoms: C3_3  and  O10_10 
ROOT
HETATM    1  C1  UNL     1     -33.764   6.250   3.325  1.00 20.00     0.079 C 
HETATM    2  C2  UNL     1     -33.574   7.406   2.672  1.00 20.00    -0.012 C 
ENDROOT
BRANCH   1   3
HETATM    3  C3  UNL     1     -35.109   5.910   3.842  1.00 20.00     0.282 C 
HETATM    4  O9  UNL     1     -36.119   6.579   3.688  1.00 20.00    -0.260 OA
BRANCH   3   5
HETATM    5  O10 UNL     1     -35.005   4.729   4.510  1.00 20.00    -0.323 OA
HETATM    6  C7  UNL     1     -33.879   3.920   4.160  1.00 20.00     0.213 C 
ENDBRANCH   3   5
ENDBRANCH   1   3
BRANCH   2   7
HETATM    7  C8  UNL     1     -32.270   7.916   2.073  1.00 20.00    -0.034 C 
HETATM    8  C4  UNL     1     -31.409   6.825   1.407  1.00 20.00     0.018 C 
HETATM    9  C5  UNL     1     -32.609   8.982   1.017  1.00 20.00     0.018 C 
HETATM   10  C6  UNL     1     -31.445   8.568   3.197  1.00 20.00     0.018 C 
ENDBRANCH   2   7
TORSDOF 3
ENDMDL
MODEL 4
REMARK VINA RESULT:      -0.6      2.813      4.857
REMARK  3 active torsions:
REMARK  status: ('A' for Active; 'I' for Inactive)
REMARK    1  A    between atoms: C1_1  and  C3_3 
REMARK    2  A    between atoms: C2_2  and  C8_8 
REMARK    3  A    between atoms: C3_3  and  O10_10 
ROOT
HETATM    1  C1  UNL     1     -32.731   8.068   2.553  1.00 20.00     0.079 C 
HETATM    2  C2  UNL     1     -33.562   7.016   2.535  1.00 20.00    -0.012 C 
ENDROOT
BRANCH   1   3
HETATM    3  C3  UNL     1     -31.964   8.421   1.337  1.00 20.00     0.282 C 
HETATM    4  O9  UNL     1     -31.156   7.699   0.773  1.00 20.00    -0.260 OA
BRANCH   3   5
HETATM    5  O10 UNL     1     -32.328   9.680   0.972  1.00 20.00    -0.323 OA
HETATM    6  C7  UNL     1     -32.649   9.853  -0.411  1.00 20.00     0.213 C 
ENDBRANCH   3   5
ENDBRANCH   1   3
BRANCH   2   7
HETATM    7  C8  UNL     1     -34.425   6.511   3.684  1.00 20.00    -0.034 C 
HETATM    8  C4  UNL     1     -34.171   5.041   4.069  1.00 20.00     0.018 C 
HETATM    9  C5  UNL     1     -34.151   7.392   4.915  1.00 20.00     0.018 C 
HETATM   10  C6  UNL     1     -35.903   6.659   3.278  1.00 20.00     0.018 C 
ENDBRANCH   2   7
TORSDOF 3
ENDMDL
MODEL 5
REMARK VINA RESULT:      -0.6      2.832      4.865
REMARK  3 active torsions:
REMARK  status: ('A' for Active; 'I' for Inactive)
REMARK    1  A    between atoms: C1_1  and  C3_3 
REMARK    2  A    between atoms: C2_2  and  C8_8 
REMARK    3  A    between atoms: C3_3  and  O10_10 
ROOT
HETATM    1  C1  UNL     1     -32.732   8.102   2.504  1.00 20.00     0.079 C 
HETATM    2  C2  UNL     1     -33.515   7.013   2.516  1.00 20.00    -0.012 C 
ENDROOT
BRANCH   1   3
HETATM    3  C3  UNL     1     -31.940   8.427   1.297  1.00 20.00     0.282 C 
HETATM    4  O9  UNL     1     -31.151   7.677   0.743  1.00 20.00    -0.260 OA
BRANCH   3   5
HETATM    5  O10 UNL     1     -32.254   9.698   0.928  1.00 20.00    -0.323 OA
HETATM    6  C7  UNL     1     -32.675   9.859  -0.430  1.00 20.00     0.213 C 
ENDBRANCH   3   5
ENDBRANCH   1   3
BRANCH   2   7
HETATM    7  C8  UNL     1     -34.394   6.529   3.661  1.00 20.00    -0.034 C 
HETATM    8  C4  UNL     1     -35.906   6.586   3.366  1.00 20.00     0.018 C 
HETATM    9  C5  UNL     1     -34.014   5.072   3.977  1.00 20.00     0.018 C 
HETATM   10  C6  UNL     1     -34.105   7.403   4.894  1.00 20.00     0.018 C 
ENDBRANCH   2   7
TORSDOF 3
ENDMDL
MODEL 6
REMARK VINA RESULT:      -0.3      2.845      4.860
REMARK  3 active torsions:
REMARK  status: ('A' for Active; 'I' for Inactive)
REMARK    1  A    between atoms: C1_1  and  C3_3 
REMARK    2  A    between atoms: C2_2  and  C8_8 
REMARK    3  A    between atoms: C3_3  and  O10_10 
ROOT
HETATM    1  C1  UNL     1     -32.641   8.096   2.516  1.00 20.00     0.079 C 
HETATM    2  C2  UNL     1     -33.543   7.104   2.499  1.00 20.00    -0.012 C 
ENDROOT
BRANCH   1   3
HETATM    3  C3  UNL     1     -31.927   8.464   1.273  1.00 20.00     0.282 C 
HETATM    4  O9  UNL     1     -31.123   7.760   0.681  1.00 20.00    -0.260 OA
BRANCH   3   5
HETATM    5  O10 UNL     1     -32.334   9.713   0.919  1.00 20.00    -0.323 OA
HETATM    6  C7  UNL     1     -32.666   9.885  -0.462  1.00 20.00     0.213 C 
ENDBRANCH   3   5
ENDBRANCH   1   3
BRANCH   2   7
HETATM    7  C8  UNL     1     -34.367   6.594   3.674  1.00 20.00    -0.034 C 
HETATM    8  C4  UNL     1     -34.144   7.368   4.988  1.00 20.00     0.018 C 
HETATM    9  C5  UNL     1     -35.855   6.693   3.296  1.00 20.00     0.018 C 
HETATM   10  C6  UNL     1     -34.006   5.117   3.912  1.00 20.00     0.018 C 
ENDBRANCH   2   7
TORSDOF 3
ENDMDL
MODEL 7
REMARK VINA RESULT:       0.3      1.746      2.909
REMARK  3 active torsions:
REMARK  status: ('A' for Active; 'I' for Inactive)
REMARK    1  A    between atoms: C1_1  and  C3_3 
REMARK    2  A    between atoms: C2_2  and  C8_8 
REMARK    3  A    between atoms: C3_3  and  O10_10 
ROOT
HETATM    1  C1  UNL     1     -32.309   7.609   1.832  1.00 20.00     0.079 C 
HETATM    2  C2  UNL     1     -32.936   8.582   1.155  1.00 20.00    -0.012 C 
ENDROOT
BRANCH   1   3
HETATM    3  C3  UNL     1     -33.098   6.564   2.520  1.00 20.00     0.282 C 
HETATM    4  O9  UNL     1     -33.114   5.378   2.228  1.00 20.00    -0.260 OA
BRANCH   3   5
HETATM    5  O10 UNL     1     -33.789   7.166   3.526  1.00 20.00    -0.323 OA
HETATM    6  C7  UNL     1     -34.969   6.481   3.959  1.00 20.00     0.213 C 
ENDBRANCH   3   5
ENDBRANCH   1   3
BRANCH   2   7
HETATM    7  C8  UNL     1     -32.291   9.730   0.391  1.00 20.00    -0.034 C 
HETATM    8  C4  UNL     1     -32.297  11.075   1.143  1.00 20.00     0.018 C 
HETATM    9  C5  UNL     1     -30.832   9.347   0.089  1.00 20.00     0.018 C 
HETATM   10  C6  UNL     1     -33.048   9.912  -0.936  1.00 20.00     0.018 C 
ENDBRANCH   2   7
TORSDOF 3
ENDMDL
MODEL 8
REMARK VINA RESULT:       0.7      1.368      2.565
REMARK  3 active torsions:
REMARK  status: ('A' for Active; 'I' for Inactive)
REMARK    1  A    between atoms: C1_1  and  C3_3 
REMARK    2  A    between atoms: C2_2  and  C8_8 
REMARK    3  A    between atoms: C3_3  and  O10_10 
ROOT
HETATM    1  C1  UNL     1     -33.774   4.482   2.953  1.00 20.00     0.079 C 
HETATM    2  C2  UNL     1     -32.941   5.518   2.779  1.00 20.00    -0.012 C 
ENDROOT
BRANCH   1   3
HETATM    3  C3  UNL     1     -34.094   4.016   4.321  1.00 20.00     0.282 C 
HETATM    4  O9  UNL     1     -33.428   3.230   4.977  1.00 20.00    -0.260 OA
BRANCH   3   5
HETATM    5  O10 UNL     1     -35.251   4.623   4.701  1.00 20.00    -0.323 OA
HETATM    6  C7  UNL     1     -35.416   5.971   4.253  1.00 20.00     0.213 C 
ENDBRANCH   3   5
ENDBRANCH   1   3
BRANCH   2   7
HETATM    7  C8  UNL     1     -32.503   6.129   1.454  1.00 20.00    -0.034 C 
HETATM    8  C4  UNL     1     -31.952   7.564   1.570  1.00 20.00     0.018 C 
HETATM    9  C5  UNL     1     -31.407   5.233   0.850  1.00 20.00     0.018 C 
HETATM   10  C6  UNL     1     -33.716   6.148   0.507  1.00 20.00     0.018 C 
ENDBRANCH   2   7
TORSDOF 3
ENDMDL
MODEL 9
REMARK VINA RESULT:       0.7      1.915      2.654
REMARK  3 active torsions:
REMARK  status: ('A' for Active; 'I' for Inactive)
REMARK    1  A    between atoms: C1_1  and  C3_3 
REMARK    2  A    between atoms: C2_2  and  C8_8 
REMARK    3  A    between atoms: C3_3  and  O10_10 
ROOT
HETATM    1  C1  UNL     1     -32.499   7.823   2.079  1.00 20.00     0.079 C 
HETATM    2  C2  UNL     1     -33.012   8.870   1.418  1.00 20.00    -0.012 C 
ENDROOT
BRANCH   1   3
HETATM    3  C3  UNL     1     -33.342   7.073   3.037  1.00 20.00     0.282 C 
HETATM    4  O9  UNL     1     -33.894   7.546   4.019  1.00 20.00    -0.260 OA
BRANCH   3   5
HETATM    5  O10 UNL     1     -33.386   5.778   2.621  1.00 20.00    -0.323 OA
HETATM    6  C7  UNL     1     -32.646   5.488   1.431  1.00 20.00     0.213 C 
ENDBRANCH   3   5
ENDBRANCH   1   3
BRANCH   2   7
HETATM    7  C8  UNL     1     -32.298   9.751   0.401  1.00 20.00    -0.034 C 
HETATM    8  C4  UNL     1     -33.016   9.860  -0.958  1.00 20.00     0.018 C 
HETATM    9  C5  UNL     1     -32.164  11.163   0.997  1.00 20.00     0.018 C 
HETATM   10  C6  UNL     1     -30.892   9.170   0.163  1.00 20.00     0.018 C 
ENDBRANCH   2   7
TORSDOF 3
ENDMDL
