MODEL 1
REMARK VINA RESULT:      -0.6      0.000      0.000
REMARK  2 active torsions:
REMARK  status: ('A' for Active; 'I' for Inactive)
REMARK    1  A    between atoms: C2_2  and  C6_6 
REMARK    2  A    between atoms: C3_3  and  C7_7 
ROOT
HETATM    1  C1  UNL     1     -32.099   6.428   1.400  1.00 20.00     0.100 A 
HETATM    2  C2  UNL     1     -31.620   7.836   1.660  1.00 20.00     0.089 A 
HETATM    3  C3  UNL     1     -33.858   7.023   2.686  1.00 20.00     0.168 A 
HETATM    4  N8  UNL     1     -33.210   5.971   1.884  1.00 20.00    -0.289 NA
HETATM    5  S9  UNL     1     -32.847   8.523   2.787  1.00 20.00    -0.132 SA
ENDROOT
BRANCH   2   6
HETATM    6  C6  UNL     1     -31.564   8.619   0.360  1.00 20.00     0.016 C 
HETATM    7  C4  UNL     1     -32.449   9.825   0.395  1.00 20.00     0.006 C 
ENDBRANCH   2   6
BRANCH   3   8
HETATM    8  C7  UNL     1     -34.120   6.476   4.082  1.00 20.00     0.033 C 
HETATM    9  C5  UNL     1     -35.448   5.798   4.175  1.00 20.00     0.008 C 
ENDBRANCH   3   8
TORSDOF 2
ENDMDL
MODEL 2
REMARK VINA RESULT:      -0.4      1.474      4.238
REMARK  2 active torsions:
REMARK  status: ('A' for Active; 'I' for Inactive)
REMARK    1  A    between atoms: C2_2  and  C6_6 
REMARK    2  A    between atoms: C3_3  and  C7_7 
ROOT
HETATM    1  C1  UNL     1     -33.666   5.597   2.221  1.00 20.00     0.100 A 
HETATM    2  C2  UNL     1     -34.597   5.990   3.342  1.00 20.00     0.089 A 
HETATM    3  C3  UNL     1     -32.549   7.480   2.782  1.00 20.00     0.168 A 
HETATM    4  N8  UNL     1     -32.627   6.301   1.900  1.00 20.00    -0.289 NA
HETATM    5  S9  UNL     1     -33.958   7.575   3.917  1.00 20.00    -0.132 SA
ENDROOT
BRANCH   2   6
HETATM    6  C6  UNL     1     -34.560   4.948   4.445  1.00 20.00     0.016 C 
HETATM    7  C4  UNL     1     -33.731   3.761   4.065  1.00 20.00     0.006 C 
ENDBRANCH   2   6
BRANCH   3   8
HETATM    8  C7  UNL     1     -32.493   8.730   1.915  1.00 20.00     0.033 C 
HETATM    9  C5  UNL     1     -31.736   8.495   0.648  1.00 20.00     0.008 C 
ENDBRANCH   3   8
TORSDOF 2
ENDMDL
MODEL 3
REMARK VINA RESULT:      -0.3      1.019      4.058
REMARK  2 active torsions:
REMARK  status: ('A' for Active; 'I' for Inactive)
REMARK    1  A    between atoms: C2_2  and  C6_6 
REMARK    2  A    between atoms: C3_3  and  C7_7 
ROOT
HETATM    1  C1  UNL     1     -33.070   5.713   1.814  1.00 20.00     0.100 A 
HETATM    2  C2  UNL     1     -34.051   6.477   2.669  1.00 20.00     0.089 A 
HETATM    3  C3  UNL     1     -31.834   7.601   1.929  1.00 20.00     0.168 A 
HETATM    4  N8  UNL     1     -31.947   6.223   1.418  1.00 20.00    -0.289 NA
HETATM    5  S9  UNL     1     -33.319   8.115   2.832  1.00 20.00    -0.132 SA
ENDROOT
BRANCH   2   6
HETATM    6  C6  UNL     1     -34.204   5.803   4.021  1.00 20.00     0.016 C 
HETATM    7  C4  UNL     1     -34.064   4.316   3.925  1.00 20.00     0.006 C 
ENDBRANCH   2   6
BRANCH   3   8
HETATM    8  C7  UNL     1     -31.590   8.535   0.753  1.00 20.00     0.033 C 
HETATM    9  C5  UNL     1     -32.581   9.653   0.714  1.00 20.00     0.008 C 
ENDBRANCH   3   8
TORSDOF 2
ENDMDL
MODEL 4
REMARK VINA RESULT:      -0.2      1.938      2.241
REMARK  2 active torsions:
REMARK  status: ('A' for Active; 'I' for Inactive)
REMARK    1  A    between atoms: C2_2  and  C6_6 
REMARK    2  A    between atoms: C3_3  and  C7_7 
ROOT
HETATM    1  C1  UNL     1     -33.894   7.583   2.966  1.00 20.00     0.100 A 
HETATM    2  C2  UNL     1     -33.126   7.282   1.703  1.00 20.00     0.089 A 
HETATM    3  C3  UNL     1     -33.237   5.515   3.597  1.00 20.00     0.168 A 
HETATM    4  N8  UNL     1     -33.980   6.739   3.945  1.00 20.00    -0.289 NA
HETATM    5  S9  UNL     1     -32.558   5.586   1.919  1.00 20.00    -0.132 SA
ENDROOT
BRANCH   2   6
HETATM    6  C6  UNL     1     -31.957   8.241   1.559  1.00 20.00     0.016 C 
HETATM    7  C4  UNL     1     -32.266   9.363   0.617  1.00 20.00     0.006 C 
ENDBRANCH   2   6
BRANCH   3   8
HETATM    8  C7  UNL     1     -34.174   4.324   3.731  1.00 20.00     0.033 C 
HETATM    9  C5  UNL     1     -33.549   3.206   4.502  1.00 20.00     0.008 C 
ENDBRANCH   3   8
TORSDOF 2
ENDMDL
MODEL 5
REMARK VINA RESULT:       0.3      1.830      4.466
REMARK  2 active torsions:
REMARK  status: ('A' for Active; 'I' for Inactive)
REMARK    1  A    between atoms: C2_2  and  C6_6 
REMARK    2  A    between atoms: C3_3  and  C7_7 
ROOT
HETATM    1  C1  UNL     1     -33.605   7.132   3.807  1.00 20.00     0.100 A 
HETATM    2  C2  UNL     1     -33.102   5.750   3.470  1.00 20.00     0.089 A 
HETATM    3  C3  UNL     1     -33.081   7.609   1.662  1.00 20.00     0.168 A 
HETATM    4  N8  UNL     1     -33.620   8.098   2.944  1.00 20.00    -0.289 NA
HETATM    5  S9  UNL     1     -32.511   5.893   1.773  1.00 20.00    -0.132 SA
ENDROOT
BRANCH   2   6
HETATM    6  C6  UNL     1     -34.231   4.741   3.578  1.00 20.00     0.016 C 
HETATM    7  C4  UNL     1     -33.823   3.525   4.349  1.00 20.00     0.006 C 
ENDBRANCH   2   6
BRANCH   3   8
HETATM    8  C7  UNL     1     -31.930   8.514   1.244  1.00 20.00     0.033 C 
HETATM    9  C5  UNL     1     -32.393   9.636   0.371  1.00 20.00     0.008 C 
ENDBRANCH   3   8
TORSDOF 2
ENDMDL
MODEL 6
REMARK VINA RESULT:       0.5      1.581      1.847
REMARK  2 active torsions:
REMARK  status: ('A' for Active; 'I' for Inactive)
REMARK    1  A    between atoms: C2_2  and  C6_6 
REMARK    2  A    between atoms: C3_3  and  C7_7 
ROOT
HETATM    1  C1  UNL     1     -33.616   7.978   2.994  1.00 20.00     0.100 A 
HETATM    2  C2  UNL     1     -33.115   7.629   1.615  1.00 20.00     0.089 A 
HETATM    3  C3  UNL     1     -33.203   5.805   3.456  1.00 20.00     0.168 A 
HETATM    4  N8  UNL     1     -33.679   7.108   3.953  1.00 20.00    -0.289 NA
HETATM    5  S9  UNL     1     -32.797   5.856   1.691  1.00 20.00    -0.132 SA
ENDROOT
BRANCH   2   6
HETATM    6  C6  UNL     1     -31.847   8.404   1.305  1.00 20.00     0.016 C 
HETATM    7  C4  UNL     1     -32.115   9.592   0.436  1.00 20.00     0.006 C 
ENDBRANCH   2   6
BRANCH   3   8
HETATM    8  C7  UNL     1     -34.286   4.766   3.712  1.00 20.00     0.033 C 
HETATM    9  C5  UNL     1     -35.451   5.344   4.447  1.00 20.00     0.008 C 
ENDBRANCH   3   8
TORSDOF 2
ENDMDL
MODEL 7
REMARK VINA RESULT:       0.8      1.861      2.833
REMARK  2 active torsions:
REMARK  status: ('A' for Active; 'I' for Inactive)
REMARK    1  A    between atoms: C2_2  and  C6_6 
REMARK    2  A    between atoms: C3_3  and  C7_7 
ROOT
HETATM    1  C1  UNL     1     -32.348   7.273   1.487  1.00 20.00     0.100 A 
HETATM    2  C2  UNL     1     -32.600   5.793   1.337  1.00 20.00     0.089 A 
HETATM    3  C3  UNL     1     -33.161   6.977   3.574  1.00 20.00     0.168 A 
HETATM    4  N8  UNL     1     -32.606   7.915   2.582  1.00 20.00    -0.289 NA
HETATM    5  S9  UNL     1     -33.369   5.311   2.893  1.00 20.00    -0.132 SA
ENDROOT
BRANCH   2   6
HETATM    6  C6  UNL     1     -31.290   5.057   1.117  1.00 20.00     0.016 C 
HETATM    7  C4  UNL     1     -31.391   4.049   0.016  1.00 20.00     0.006 C 
ENDBRANCH   2   6
BRANCH   3   8
HETATM    8  C7  UNL     1     -34.501   7.516   4.054  1.00 20.00     0.033 C 
HETATM    9  C5  UNL     1     -35.567   6.468   4.021  1.00 20.00     0.008 C 
ENDBRANCH   3   8
TORSDOF 2
ENDMDL
MODEL 8
REMARK VINA RESULT:       1.0      1.949      3.946
REMARK  2 active torsions:
REMARK  status: ('A' for Active; 'I' for Inactive)
REMARK    1  A    between atoms: C2_2  and  C6_6 
REMARK    2  A    between atoms: C3_3  and  C7_7 
ROOT
HETATM    1  C1  UNL     1     -32.608   7.891   2.619  1.00 20.00     0.100 A 
HETATM    2  C2  UNL     1     -33.208   7.043   3.713  1.00 20.00     0.089 A 
HETATM    3  C3  UNL     1     -32.602   5.968   1.433  1.00 20.00     0.168 A 
HETATM    4  N8  UNL     1     -32.289   7.408   1.460  1.00 20.00    -0.289 NA
HETATM    5  S9  UNL     1     -33.222   5.376   3.029  1.00 20.00    -0.132 SA
ENDROOT
BRANCH   2   6
HETATM    6  C6  UNL     1     -34.614   7.519   4.034  1.00 20.00     0.016 C 
HETATM    7  C4  UNL     1     -35.611   6.404   3.972  1.00 20.00     0.006 C 
ENDBRANCH   2   6
BRANCH   3   8
HETATM    8  C7  UNL     1     -31.342   5.206   1.047  1.00 20.00     0.033 C 
HETATM    9  C5  UNL     1     -31.627   4.126   0.054  1.00 20.00     0.008 C 
ENDBRANCH   3   8
TORSDOF 2
ENDMDL
MODEL 9
REMARK VINA RESULT:       1.4      3.062      3.886
REMARK  2 active torsions:
REMARK  status: ('A' for Active; 'I' for Inactive)
REMARK    1  A    between atoms: C2_2  and  C6_6 
REMARK    2  A    between atoms: C3_3  and  C7_7 
ROOT
HETATM    1  C1  UNL     1     -35.590   5.969   4.088  1.00 20.00     0.100 A 
HETATM    2  C2  UNL     1     -34.643   6.768   3.225  1.00 20.00     0.089 A 
HETATM    3  C3  UNL     1     -33.821   4.592   4.373  1.00 20.00     0.168 A 
HETATM    4  N8  UNL     1     -35.233   4.878   4.687  1.00 20.00    -0.289 NA
HETATM    5  S9  UNL     1     -33.127   5.793   3.207  1.00 20.00    -0.132 SA
ENDROOT
BRANCH   2   6
HETATM    6  C6  UNL     1     -34.411   8.140   3.832  1.00 20.00     0.016 C 
HETATM    7  C4  UNL     1     -33.346   8.113   4.884  1.00 20.00     0.006 C 
ENDBRANCH   2   6
BRANCH   3   8
HETATM    8  C7  UNL     1     -33.729   3.189   3.791  1.00 20.00     0.033 C 
HETATM    9  C5  UNL     1     -33.092   2.231   4.746  1.00 20.00     0.008 C 
ENDBRANCH   3   8
TORSDOF 2
ENDMDL
