MODEL 1
REMARK VINA RESULT:      -0.3      0.000      0.000
REMARK  2 active torsions:
REMARK  status: ('A' for Active; 'I' for Inactive)
REMARK       I    between atoms: C1_1  and  N9_9 
REMARK    1  A    between atoms: C7_7  and  C8_8 
REMARK    2  A    between atoms: C7_7  and  N9_9 
ROOT
HETATM    1  C3  UNL     1     -33.008   5.624   1.510  1.00 20.00     0.033 C 
HETATM    2  C7  UNL     1     -33.087   6.783   2.505  1.00 20.00     0.087 C 
ENDROOT
BRANCH   2   3
HETATM    3  C8  UNL     1     -34.198   6.640   3.596  1.00 20.00    -0.031 C 
HETATM    4  C4  UNL     1     -35.603   6.942   3.039  1.00 20.00     0.016 C 
HETATM    5  C5  UNL     1     -34.201   5.210   4.177  1.00 20.00     0.016 C 
HETATM    6  C6  UNL     1     -33.916   7.616   4.761  1.00 20.00     0.016 C 
ENDBRANCH   2   3
BRANCH   2   7
HETATM    7  N9  UNL     1     -33.207   8.024   1.770  1.00 20.00    -0.356 N 
HETATM    8  C1  UNL     1     -32.141   8.627   1.133  1.00 20.00     0.213 C 
HETATM    9  C2  UNL     1     -32.493   9.898   0.434  1.00 20.00     0.117 C 
HETATM   10  O10 UNL     1     -30.986   8.218   1.097  1.00 20.00    -0.274 OA
HETATM   11  H27 UNL     1     -34.115   8.471   1.720  1.00 20.00     0.162 HD
ENDBRANCH   2   7
TORSDOF 2
ENDMDL
MODEL 2
REMARK VINA RESULT:      -0.3      0.186      1.373
REMARK  2 active torsions:
REMARK  status: ('A' for Active; 'I' for Inactive)
REMARK       I    between atoms: C1_1  and  N9_9 
REMARK    1  A    between atoms: C7_7  and  C8_8 
REMARK    2  A    between atoms: C7_7  and  N9_9 
ROOT
HETATM    1  C3  UNL     1     -33.161   5.468   1.564  1.00 20.00     0.033 C 
HETATM    2  C7  UNL     1     -33.177   6.636   2.550  1.00 20.00     0.087 C 
ENDROOT
BRANCH   2   3
HETATM    3  C8  UNL     1     -34.293   6.562   3.643  1.00 20.00    -0.031 C 
HETATM    4  C4  UNL     1     -34.411   5.156   4.260  1.00 20.00     0.016 C 
HETATM    5  C5  UNL     1     -34.003   7.569   4.776  1.00 20.00     0.016 C 
HETATM    6  C6  UNL     1     -35.657   6.939   3.023  1.00 20.00     0.016 C 
ENDBRANCH   2   3
BRANCH   2   7
HETATM    7  N9  UNL     1     -33.230   7.876   1.806  1.00 20.00    -0.356 N 
HETATM    8  C1  UNL     1     -32.112   8.471   1.253  1.00 20.00     0.213 C 
HETATM    9  C2  UNL     1     -32.400   9.743   0.527  1.00 20.00     0.117 C 
HETATM   10  O10 UNL     1     -30.961   8.055   1.310  1.00 20.00    -0.274 OA
HETATM   11  H27 UNL     1     -34.128   8.330   1.683  1.00 20.00     0.162 HD
ENDBRANCH   2   7
TORSDOF 2
ENDMDL
MODEL 3
REMARK VINA RESULT:       0.6      2.703      4.719
REMARK  2 active torsions:
REMARK  status: ('A' for Active; 'I' for Inactive)
REMARK       I    between atoms: C1_1  and  N9_9 
REMARK    1  A    between atoms: C7_7  and  C8_8 
REMARK    2  A    between atoms: C7_7  and  N9_9 
ROOT
HETATM    1  C3  UNL     1     -34.870   6.445   3.338  1.00 20.00     0.033 C 
HETATM    2  C7  UNL     1     -33.371   6.194   3.177  1.00 20.00     0.087 C 
ENDROOT
BRANCH   2   3
HETATM    3  C8  UNL     1     -32.799   6.505   1.755  1.00 20.00    -0.031 C 
HETATM    4  C4  UNL     1     -32.146   7.898   1.683  1.00 20.00     0.016 C 
HETATM    5  C5  UNL     1     -31.743   5.451   1.359  1.00 20.00     0.016 C 
HETATM    6  C6  UNL     1     -33.934   6.443   0.710  1.00 20.00     0.016 C 
ENDBRANCH   2   3
BRANCH   2   7
HETATM    7  N9  UNL     1     -33.075   4.840   3.595  1.00 20.00    -0.356 N 
HETATM    8  C1  UNL     1     -33.965   4.061   4.308  1.00 20.00     0.213 C 
HETATM    9  C2  UNL     1     -33.451   2.697   4.631  1.00 20.00     0.117 C 
HETATM   10  O10 UNL     1     -35.086   4.387   4.677  1.00 20.00    -0.274 OA
HETATM   11  H27 UNL     1     -32.174   4.444   3.352  1.00 20.00     0.162 HD
ENDBRANCH   2   7
TORSDOF 2
ENDMDL
MODEL 4
REMARK VINA RESULT:       0.9      2.665      4.337
REMARK  2 active torsions:
REMARK  status: ('A' for Active; 'I' for Inactive)
REMARK       I    between atoms: C1_1  and  N9_9 
REMARK    1  A    between atoms: C7_7  and  C8_8 
REMARK    2  A    between atoms: C7_7  and  N9_9 
ROOT
HETATM    1  C3  UNL     1     -32.754   5.799   1.217  1.00 20.00     0.033 C 
HETATM    2  C7  UNL     1     -33.547   5.846   2.523  1.00 20.00     0.087 C 
ENDROOT
BRANCH   2   3
HETATM    3  C8  UNL     1     -33.552   7.234   3.243  1.00 20.00    -0.031 C 
HETATM    4  C4  UNL     1     -32.960   7.155   4.663  1.00 20.00     0.016 C 
HETATM    5  C5  UNL     1     -32.735   8.262   2.432  1.00 20.00     0.016 C 
HETATM    6  C6  UNL     1     -34.999   7.765   3.346  1.00 20.00     0.016 C 
ENDBRANCH   2   3
BRANCH   2   7
HETATM    7  N9  UNL     1     -33.078   4.787   3.393  1.00 20.00    -0.356 N 
HETATM    8  C1  UNL     1     -33.903   4.117   4.275  1.00 20.00     0.213 C 
HETATM    9  C2  UNL     1     -33.208   3.063   5.071  1.00 20.00     0.117 C 
HETATM   10  O10 UNL     1     -35.101   4.311   4.444  1.00 20.00    -0.274 OA
HETATM   11  H27 UNL     1     -32.100   4.525   3.353  1.00 20.00     0.162 HD
ENDBRANCH   2   7
TORSDOF 2
ENDMDL
MODEL 5
REMARK VINA RESULT:       1.1      1.710      2.756
REMARK  2 active torsions:
REMARK  status: ('A' for Active; 'I' for Inactive)
REMARK       I    between atoms: C1_1  and  N9_9 
REMARK    1  A    between atoms: C7_7  and  C8_8 
REMARK    2  A    between atoms: C7_7  and  N9_9 
ROOT
HETATM    1  C3  UNL     1     -31.566   8.212   3.045  1.00 20.00     0.033 C 
HETATM    2  C7  UNL     1     -32.607   7.887   1.974  1.00 20.00     0.087 C 
ENDROOT
BRANCH   2   3
HETATM    3  C8  UNL     1     -32.934   6.366   1.811  1.00 20.00    -0.031 C 
HETATM    4  C4  UNL     1     -31.662   5.508   1.687  1.00 20.00     0.016 C 
HETATM    5  C5  UNL     1     -33.748   5.860   3.021  1.00 20.00     0.016 C 
HETATM    6  C6  UNL     1     -33.795   6.148   0.547  1.00 20.00     0.016 C 
ENDBRANCH   2   3
BRANCH   2   7
HETATM    7  N9  UNL     1     -32.196   8.488   0.723  1.00 20.00    -0.356 N 
HETATM    8  C1  UNL     1     -32.499   9.791   0.378  1.00 20.00     0.213 C 
HETATM    9  C2  UNL     1     -31.973  10.201  -0.957  1.00 20.00     0.117 C 
HETATM   10  O10 UNL     1     -33.134  10.594   1.051  1.00 20.00    -0.274 OA
HETATM   11  H27 UNL     1     -31.660   7.928   0.070  1.00 20.00     0.162 HD
ENDBRANCH   2   7
TORSDOF 2
ENDMDL
MODEL 6
REMARK VINA RESULT:       1.1      1.670      2.681
REMARK  2 active torsions:
REMARK  status: ('A' for Active; 'I' for Inactive)
REMARK       I    between atoms: C1_1  and  N9_9 
REMARK    1  A    between atoms: C7_7  and  C8_8 
REMARK    2  A    between atoms: C7_7  and  N9_9 
ROOT
HETATM    1  C3  UNL     1     -31.244   8.152   2.776  1.00 20.00     0.033 C 
HETATM    2  C7  UNL     1     -32.492   7.903   1.927  1.00 20.00     0.087 C 
ENDROOT
BRANCH   2   3
HETATM    3  C8  UNL     1     -32.935   6.407   1.830  1.00 20.00    -0.031 C 
HETATM    4  C4  UNL     1     -33.759   5.963   3.054  1.00 20.00     0.016 C 
HETATM    5  C5  UNL     1     -33.786   6.180   0.562  1.00 20.00     0.016 C 
HETATM    6  C6  UNL     1     -31.691   5.497   1.725  1.00 20.00     0.016 C 
ENDBRANCH   2   3
BRANCH   2   7
HETATM    7  N9  UNL     1     -32.295   8.495   0.621  1.00 20.00    -0.356 N 
HETATM    8  C1  UNL     1     -32.551   9.824   0.350  1.00 20.00     0.213 C 
HETATM    9  C2  UNL     1     -32.276  10.218  -1.063  1.00 20.00     0.117 C 
HETATM   10  O10 UNL     1     -32.966  10.663   1.141  1.00 20.00    -0.274 OA
HETATM   11  H27 UNL     1     -31.952   7.906  -0.131  1.00 20.00     0.162 HD
ENDBRANCH   2   7
TORSDOF 2
ENDMDL
MODEL 7
REMARK VINA RESULT:       1.2      1.709      2.520
REMARK  2 active torsions:
REMARK  status: ('A' for Active; 'I' for Inactive)
REMARK       I    between atoms: C1_1  and  N9_9 
REMARK    1  A    between atoms: C7_7  and  C8_8 
REMARK    2  A    between atoms: C7_7  and  N9_9 
ROOT
HETATM    1  C3  UNL     1     -31.579   8.195   3.031  1.00 20.00     0.033 C 
HETATM    2  C7  UNL     1     -32.622   7.880   1.959  1.00 20.00     0.087 C 
ENDROOT
BRANCH   2   3
HETATM    3  C8  UNL     1     -32.961   6.362   1.793  1.00 20.00    -0.031 C 
HETATM    4  C4  UNL     1     -33.809   6.089   0.536  1.00 20.00     0.016 C 
HETATM    5  C5  UNL     1     -31.664   5.530   1.696  1.00 20.00     0.016 C 
HETATM    6  C6  UNL     1     -33.744   5.863   3.027  1.00 20.00     0.016 C 
ENDBRANCH   2   3
BRANCH   2   7
HETATM    7  N9  UNL     1     -32.205   8.481   0.709  1.00 20.00    -0.356 N 
HETATM    8  C1  UNL     1     -32.497   9.786   0.367  1.00 20.00     0.213 C 
HETATM    9  C2  UNL     1     -31.967  10.195  -0.967  1.00 20.00     0.117 C 
HETATM   10  O10 UNL     1     -33.126  10.594   1.041  1.00 20.00    -0.274 OA
HETATM   11  H27 UNL     1     -31.673   7.918   0.055  1.00 20.00     0.162 HD
ENDBRANCH   2   7
TORSDOF 2
ENDMDL
MODEL 8
REMARK VINA RESULT:       1.2      1.769      3.052
REMARK  2 active torsions:
REMARK  status: ('A' for Active; 'I' for Inactive)
REMARK       I    between atoms: C1_1  and  N9_9 
REMARK    1  A    between atoms: C7_7  and  C8_8 
REMARK    2  A    between atoms: C7_7  and  N9_9 
ROOT
HETATM    1  C3  UNL     1     -32.421   8.394   2.558  1.00 20.00     0.033 C 
HETATM    2  C7  UNL     1     -33.276   7.149   2.323  1.00 20.00     0.087 C 
ENDROOT
BRANCH   2   3
HETATM    3  C8  UNL     1     -34.121   6.687   3.556  1.00 20.00    -0.031 C 
HETATM    4  C4  UNL     1     -33.818   5.231   3.956  1.00 20.00     0.016 C 
HETATM    5  C5  UNL     1     -33.839   7.596   4.771  1.00 20.00     0.016 C 
HETATM    6  C6  UNL     1     -35.627   6.799   3.229  1.00 20.00     0.016 C 
ENDBRANCH   2   3
BRANCH   2   7
HETATM    7  N9  UNL     1     -32.430   6.087   1.819  1.00 20.00    -0.356 N 
HETATM    8  C1  UNL     1     -32.762   5.318   0.722  1.00 20.00     0.213 C 
HETATM    9  C2  UNL     1     -31.742   4.283   0.379  1.00 20.00     0.117 C 
HETATM   10  O10 UNL     1     -33.777   5.414   0.043  1.00 20.00    -0.274 OA
HETATM   11  H27 UNL     1     -31.554   5.901   2.293  1.00 20.00     0.162 HD
ENDBRANCH   2   7
TORSDOF 2
ENDMDL
MODEL 9
REMARK VINA RESULT:       1.2      2.189      3.999
REMARK  2 active torsions:
REMARK  status: ('A' for Active; 'I' for Inactive)
REMARK       I    between atoms: C1_1  and  N9_9 
REMARK    1  A    between atoms: C7_7  and  C8_8 
REMARK    2  A    between atoms: C7_7  and  N9_9 
ROOT
HETATM    1  C3  UNL     1     -32.488   5.525   0.917  1.00 20.00     0.033 C 
HETATM    2  C7  UNL     1     -33.203   6.541   1.808  1.00 20.00     0.087 C 
ENDROOT
BRANCH   2   3
HETATM    3  C8  UNL     1     -32.377   7.829   2.134  1.00 20.00    -0.031 C 
HETATM    4  C4  UNL     1     -32.563   8.285   3.593  1.00 20.00     0.016 C 
HETATM    5  C5  UNL     1     -30.874   7.579   1.889  1.00 20.00     0.016 C 
HETATM    6  C6  UNL     1     -32.816   8.981   1.203  1.00 20.00     0.016 C 
ENDBRANCH   2   3
BRANCH   2   7
HETATM    7  N9  UNL     1     -33.658   5.873   3.008  1.00 20.00    -0.356 N 
HETATM    8  C1  UNL     1     -34.909   6.080   3.556  1.00 20.00     0.213 C 
HETATM    9  C2  UNL     1     -35.166   5.285   4.793  1.00 20.00     0.117 C 
HETATM   10  O10 UNL     1     -35.779   6.828   3.127  1.00 20.00    -0.274 OA
HETATM   11  H27 UNL     1     -33.031   5.222   3.468  1.00 20.00     0.162 HD
ENDBRANCH   2   7
TORSDOF 2
ENDMDL
