MODEL 1
REMARK VINA RESULT:       1.1      0.000      0.000
REMARK  0 active torsions:
REMARK  status: ('A' for Active; 'I' for Inactive)
ROOT
HETATM    1  C1  UNL     1     -33.163   7.688   3.366  1.00 20.00     0.292 C 
HETATM    2  C2  UNL     1     -33.521   5.574   2.395  1.00 20.00     0.346 C 
HETATM    3  C3  UNL     1     -32.212   7.872   2.170  1.00 20.00     0.029 C 
HETATM    4  C4  UNL     1     -30.855   8.419   2.609  1.00 20.00     0.028 C 
HETATM    5  C5  UNL     1     -32.822   8.757   1.077  1.00 20.00     0.028 C 
HETATM    6  C6  UNL     1     -35.103   6.390   4.036  1.00 20.00     0.310 C 
HETATM    7  N7  UNL     1     -34.207   6.745   2.944  1.00 20.00     0.094 N 
HETATM    8  S8  UNL     1     -32.038   6.171   1.526  1.00 20.00    -0.128 SA
ENDROOT
TORSDOF 0
ENDMDL
MODEL 2
REMARK VINA RESULT:       1.2      1.820      3.641
REMARK  0 active torsions:
REMARK  status: ('A' for Active; 'I' for Inactive)
ROOT
HETATM    1  C1  UNL     1     -33.379   6.248   2.583  1.00 20.00     0.292 C 
HETATM    2  C2  UNL     1     -32.628   8.232   3.604  1.00 20.00     0.346 C 
HETATM    3  C3  UNL     1     -34.478   6.330   3.658  1.00 20.00     0.029 C 
HETATM    4  C4  UNL     1     -34.668   4.992   4.370  1.00 20.00     0.028 C 
HETATM    5  C5  UNL     1     -35.810   6.831   3.087  1.00 20.00     0.028 C 
HETATM    6  C6  UNL     1     -31.811   7.672   1.395  1.00 20.00     0.310 C 
HETATM    7  N7  UNL     1     -32.944   7.624   2.310  1.00 20.00     0.094 N 
HETATM    8  S8  UNL     1     -33.821   7.583   4.814  1.00 20.00    -0.128 SA
ENDROOT
TORSDOF 0
ENDMDL
MODEL 3
REMARK VINA RESULT:       1.4      1.641      3.275
REMARK  0 active torsions:
REMARK  status: ('A' for Active; 'I' for Inactive)
ROOT
HETATM    1  C1  UNL     1     -33.708   8.214   2.437  1.00 20.00     0.292 C 
HETATM    2  C2  UNL     1     -32.071   6.748   1.593  1.00 20.00     0.346 C 
HETATM    3  C3  UNL     1     -33.845   7.137   3.528  1.00 20.00     0.029 C 
HETATM    4  C4  UNL     1     -35.307   6.772   3.777  1.00 20.00     0.028 C 
HETATM    5  C5  UNL     1     -33.161   7.550   4.837  1.00 20.00     0.028 C 
HETATM    6  C6  UNL     1     -32.106   9.038   0.808  1.00 20.00     0.310 C 
HETATM    7  N7  UNL     1     -32.327   8.147   1.939  1.00 20.00     0.094 N 
HETATM    8  S8  UNL     1     -32.944   5.718   2.811  1.00 20.00    -0.128 SA
ENDROOT
TORSDOF 0
ENDMDL
MODEL 4
REMARK VINA RESULT:       1.7      1.533      2.051
REMARK  0 active torsions:
REMARK  status: ('A' for Active; 'I' for Inactive)
ROOT
HETATM    1  C1  UNL     1     -33.904   7.351   2.204  1.00 20.00     0.292 C 
HETATM    2  C2  UNL     1     -33.362   7.728   4.463  1.00 20.00     0.346 C 
HETATM    3  C3  UNL     1     -32.467   7.851   1.967  1.00 20.00     0.029 C 
HETATM    4  C4  UNL     1     -32.413   8.904   0.862  1.00 20.00     0.028 C 
HETATM    5  C5  UNL     1     -31.498   6.702   1.666  1.00 20.00     0.028 C 
HETATM    6  C6  UNL     1     -35.277   6.344   3.935  1.00 20.00     0.310 C 
HETATM    7  N7  UNL     1     -33.933   6.745   3.541  1.00 20.00     0.094 N 
HETATM    8  S8  UNL     1     -32.026   8.589   3.579  1.00 20.00    -0.128 SA
ENDROOT
TORSDOF 0
ENDMDL
MODEL 5
REMARK VINA RESULT:       1.9      1.473      2.742
REMARK  0 active torsions:
REMARK  status: ('A' for Active; 'I' for Inactive)
ROOT
HETATM    1  C1  UNL     1     -33.799   6.343   2.635  1.00 20.00     0.292 C 
HETATM    2  C2  UNL     1     -32.539   8.326   2.783  1.00 20.00     0.346 C 
HETATM    3  C3  UNL     1     -32.779   5.996   1.536  1.00 20.00     0.029 C 
HETATM    4  C4  UNL     1     -33.467   5.483   0.272  1.00 20.00     0.028 C 
HETATM    5  C5  UNL     1     -31.725   4.993   2.021  1.00 20.00     0.028 C 
HETATM    6  C6  UNL     1     -34.028   7.748   4.602  1.00 20.00     0.310 C 
HETATM    7  N7  UNL     1     -33.123   7.245   3.578  1.00 20.00     0.094 N 
HETATM    8  S8  UNL     1     -31.966   7.601   1.217  1.00 20.00    -0.128 SA
ENDROOT
TORSDOF 0
ENDMDL
MODEL 6
REMARK VINA RESULT:       2.1      2.384      2.974
REMARK  0 active torsions:
REMARK  status: ('A' for Active; 'I' for Inactive)
ROOT
HETATM    1  C1  UNL     1     -33.969   5.415   4.563  1.00 20.00     0.292 C 
HETATM    2  C2  UNL     1     -33.026   4.566   2.581  1.00 20.00     0.346 C 
HETATM    3  C3  UNL     1     -34.322   6.614   3.664  1.00 20.00     0.029 C 
HETATM    4  C4  UNL     1     -33.943   7.940   4.320  1.00 20.00     0.028 C 
HETATM    5  C5  UNL     1     -35.800   6.615   3.257  1.00 20.00     0.028 C 
HETATM    6  C6  UNL     1     -33.461   3.045   4.414  1.00 20.00     0.310 C 
HETATM    7  N7  UNL     1     -33.912   4.230   3.697  1.00 20.00     0.094 N 
HETATM    8  S8  UNL     1     -33.300   6.319   2.178  1.00 20.00    -0.128 SA
ENDROOT
TORSDOF 0
ENDMDL
MODEL 7
REMARK VINA RESULT:       2.3      1.678      2.871
REMARK  0 active torsions:
REMARK  status: ('A' for Active; 'I' for Inactive)
ROOT
HETATM    1  C1  UNL     1     -33.114   6.043   3.134  1.00 20.00     0.292 C 
HETATM    2  C2  UNL     1     -32.078   7.267   1.411  1.00 20.00     0.346 C 
HETATM    3  C3  UNL     1     -33.625   7.431   3.561  1.00 20.00     0.029 C 
HETATM    4  C4  UNL     1     -33.420   7.669   5.056  1.00 20.00     0.028 C 
HETATM    5  C5  UNL     1     -35.093   7.650   3.176  1.00 20.00     0.028 C 
HETATM    6  C6  UNL     1     -32.300   4.868   1.170  1.00 20.00     0.310 C 
HETATM    7  N7  UNL     1     -32.906   6.091   1.680  1.00 20.00     0.094 N 
HETATM    8  S8  UNL     1     -32.580   8.565   2.581  1.00 20.00    -0.128 SA
ENDROOT
TORSDOF 0
ENDMDL
MODEL 8
REMARK VINA RESULT:       2.3      2.139      2.925
REMARK  0 active torsions:
REMARK  status: ('A' for Active; 'I' for Inactive)
ROOT
HETATM    1  C1  UNL     1     -33.144   5.474   3.304  1.00 20.00     0.292 C 
HETATM    2  C2  UNL     1     -35.298   5.124   4.188  1.00 20.00     0.346 C 
HETATM    3  C3  UNL     1     -33.575   6.952   3.330  1.00 20.00     0.029 C 
HETATM    4  C4  UNL     1     -33.270   7.649   2.006  1.00 20.00     0.028 C 
HETATM    5  C5  UNL     1     -32.945   7.717   4.500  1.00 20.00     0.028 C 
HETATM    6  C6  UNL     1     -33.656   3.354   4.372  1.00 20.00     0.310 C 
HETATM    7  N7  UNL     1     -33.884   4.792   4.375  1.00 20.00     0.094 N 
HETATM    8  S8  UNL     1     -35.379   6.842   3.597  1.00 20.00    -0.128 SA
ENDROOT
TORSDOF 0
ENDMDL
MODEL 9
REMARK VINA RESULT:       2.4      1.700      2.650
REMARK  0 active torsions:
REMARK  status: ('A' for Active; 'I' for Inactive)
ROOT
HETATM    1  C1  UNL     1     -32.039   7.041   0.932  1.00 20.00     0.292 C 
HETATM    2  C2  UNL     1     -33.404   5.882   2.460  1.00 20.00     0.346 C 
HETATM    3  C3  UNL     1     -32.256   8.211   1.909  1.00 20.00     0.029 C 
HETATM    4  C4  UNL     1     -32.649   9.491   1.174  1.00 20.00     0.028 C 
HETATM    5  C5  UNL     1     -31.033   8.454   2.801  1.00 20.00     0.028 C 
HETATM    6  C6  UNL     1     -32.084   4.614   0.876  1.00 20.00     0.310 C 
HETATM    7  N7  UNL     1     -32.147   5.803   1.715  1.00 20.00     0.094 N 
HETATM    8  S8  UNL     1     -33.638   7.619   2.948  1.00 20.00    -0.128 SA
ENDROOT
TORSDOF 0
ENDMDL
