MODEL 1
REMARK VINA RESULT:      -0.4      0.000      0.000
REMARK  1 active torsions:
REMARK  status: ('A' for Active; 'I' for Inactive)
REMARK    1  A    between atoms: C1_1  and  C6_6 
ROOT
HETATM    1  C2  UNL     1     -32.741   5.618   1.241  1.00 20.00     0.001 C 
HETATM    2  C3  UNL     1     -33.714   5.335   2.381  1.00 20.00     0.011 C 
HETATM    3  C4  UNL     1     -31.643   6.593   1.663  1.00 20.00     0.009 C 
HETATM    4  C5  UNL     1     -33.199   7.598   3.387  1.00 20.00     0.020 C 
HETATM    5  C6  UNL     1     -34.300   6.623   2.959  1.00 20.00     0.048 C 
HETATM    6  C7  UNL     1     -32.186   7.911   2.261  1.00 20.00    -0.047 C 
HETATM    7  C8  UNL     1     -31.012   8.714   2.852  1.00 20.00     0.015 C 
HETATM    8  C9  UNL     1     -32.844   8.772   1.165  1.00 20.00     0.015 C 
ENDROOT
BRANCH   5   9
HETATM    9  C1  UNL     1     -35.160   6.282   4.138  1.00 20.00     0.235 C 
HETATM   10  O10 UNL     1     -35.409   5.132   4.483  1.00 20.00    -0.306 OA
ENDBRANCH   5   9
TORSDOF 1
ENDMDL
MODEL 2
REMARK VINA RESULT:       0.3      1.929      3.886
REMARK  1 active torsions:
REMARK  status: ('A' for Active; 'I' for Inactive)
REMARK    1  A    between atoms: C1_1  and  C6_6 
ROOT
HETATM    1  C2  UNL     1     -33.334   8.344   3.512  1.00 20.00     0.001 C 
HETATM    2  C3  UNL     1     -32.376   7.586   2.598  1.00 20.00     0.011 C 
HETATM    3  C4  UNL     1     -34.071   7.403   4.464  1.00 20.00     0.009 C 
HETATM    4  C5  UNL     1     -33.818   5.517   2.795  1.00 20.00     0.020 C 
HETATM    5  C6  UNL     1     -33.084   6.464   1.840  1.00 20.00     0.048 C 
HETATM    6  C7  UNL     1     -34.799   6.245   3.743  1.00 20.00    -0.047 C 
HETATM    7  C8  UNL     1     -35.312   5.244   4.797  1.00 20.00     0.015 C 
HETATM    8  C9  UNL     1     -36.017   6.773   2.961  1.00 20.00     0.015 C 
ENDROOT
BRANCH   5   9
HETATM    9  C1  UNL     1     -32.070   5.696   1.046  1.00 20.00     0.235 C 
HETATM   10  O10 UNL     1     -32.334   4.670   0.428  1.00 20.00    -0.306 OA
ENDBRANCH   5   9
TORSDOF 1
ENDMDL
MODEL 3
REMARK VINA RESULT:       0.4      2.460      3.853
REMARK  1 active torsions:
REMARK  status: ('A' for Active; 'I' for Inactive)
REMARK    1  A    between atoms: C1_1  and  C6_6 
ROOT
HETATM    1  C2  UNL     1     -31.888   6.103   1.844  1.00 20.00     0.001 C 
HETATM    2  C3  UNL     1     -31.843   7.327   0.935  1.00 20.00     0.011 C 
HETATM    3  C4  UNL     1     -33.264   5.925   2.486  1.00 20.00     0.009 C 
HETATM    4  C5  UNL     1     -33.668   8.417   2.305  1.00 20.00     0.020 C 
HETATM    5  C6  UNL     1     -32.287   8.593   1.667  1.00 20.00     0.048 C 
HETATM    6  C7  UNL     1     -33.761   7.184   3.234  1.00 20.00    -0.047 C 
HETATM    7  C8  UNL     1     -35.231   6.974   3.643  1.00 20.00     0.015 C 
HETATM    8  C9  UNL     1     -32.940   7.410   4.518  1.00 20.00     0.015 C 
ENDROOT
BRANCH   5   9
HETATM    9  C1  UNL     1     -32.321   9.733   0.694  1.00 20.00     0.235 C 
HETATM   10  O10 UNL     1     -32.726   9.625  -0.459  1.00 20.00    -0.306 OA
ENDBRANCH   5   9
TORSDOF 1
ENDMDL
MODEL 4
REMARK VINA RESULT:       0.5      1.835      2.794
REMARK  1 active torsions:
REMARK  status: ('A' for Active; 'I' for Inactive)
REMARK    1  A    between atoms: C1_1  and  C6_6 
ROOT
HETATM    1  C2  UNL     1     -33.104   5.843   1.643  1.00 20.00     0.001 C 
HETATM    2  C3  UNL     1     -32.850   4.535   2.387  1.00 20.00     0.011 C 
HETATM    3  C4  UNL     1     -33.175   7.033   2.599  1.00 20.00     0.009 C 
HETATM    4  C5  UNL     1     -33.945   5.495   4.455  1.00 20.00     0.020 C 
HETATM    5  C6  UNL     1     -33.878   4.305   3.494  1.00 20.00     0.048 C 
HETATM    6  C7  UNL     1     -34.198   6.844   3.743  1.00 20.00    -0.047 C 
HETATM    7  C8  UNL     1     -34.027   7.989   4.760  1.00 20.00     0.015 C 
HETATM    8  C9  UNL     1     -35.638   6.907   3.197  1.00 20.00     0.015 C 
ENDROOT
BRANCH   5   9
HETATM    9  C1  UNL     1     -33.511   3.064   4.251  1.00 20.00     0.235 C 
HETATM   10  O10 UNL     1     -32.763   3.063   5.223  1.00 20.00    -0.306 OA
ENDBRANCH   5   9
TORSDOF 1
ENDMDL
MODEL 5
REMARK VINA RESULT:       0.6      1.703      2.967
REMARK  1 active torsions:
REMARK  status: ('A' for Active; 'I' for Inactive)
REMARK    1  A    between atoms: C1_1  and  C6_6 
ROOT
HETATM    1  C2  UNL     1     -35.579   6.524   4.165  1.00 20.00     0.001 C 
HETATM    2  C3  UNL     1     -35.249   5.035   4.184  1.00 20.00     0.011 C 
HETATM    3  C4  UNL     1     -34.854   7.249   3.031  1.00 20.00     0.009 C 
HETATM    4  C5  UNL     1     -33.016   5.511   3.095  1.00 20.00     0.020 C 
HETATM    5  C6  UNL     1     -33.742   4.789   4.235  1.00 20.00     0.048 C 
HETATM    6  C7  UNL     1     -33.325   7.025   3.035  1.00 20.00    -0.047 C 
HETATM    7  C8  UNL     1     -32.731   7.607   1.739  1.00 20.00     0.015 C 
HETATM    8  C9  UNL     1     -32.673   7.757   4.224  1.00 20.00     0.015 C 
ENDROOT
BRANCH   5   9
HETATM    9  C1  UNL     1     -33.484   3.315   4.144  1.00 20.00     0.235 C 
HETATM   10  O10 UNL     1     -32.970   2.662   5.047  1.00 20.00    -0.306 OA
ENDBRANCH   5   9
TORSDOF 1
ENDMDL
MODEL 6
REMARK VINA RESULT:       0.7      0.872      2.633
REMARK  1 active torsions:
REMARK  status: ('A' for Active; 'I' for Inactive)
REMARK    1  A    between atoms: C1_1  and  C6_6 
ROOT
HETATM    1  C2  UNL     1     -32.382   8.002   2.646  1.00 20.00     0.001 C 
HETATM    2  C3  UNL     1     -33.672   7.756   3.423  1.00 20.00     0.011 C 
HETATM    3  C4  UNL     1     -32.366   7.241   1.321  1.00 20.00     0.009 C 
HETATM    4  C5  UNL     1     -33.922   5.503   2.301  1.00 20.00     0.020 C 
HETATM    5  C6  UNL     1     -33.932   6.265   3.630  1.00 20.00     0.048 C 
HETATM    6  C7  UNL     1     -32.632   5.727   1.478  1.00 20.00    -0.047 C 
HETATM    7  C8  UNL     1     -32.815   5.104   0.081  1.00 20.00     0.015 C 
HETATM    8  C9  UNL     1     -31.432   5.032   2.151  1.00 20.00     0.015 C 
ENDROOT
BRANCH   5   9
HETATM    9  C1  UNL     1     -35.261   6.090   4.302  1.00 20.00     0.235 C 
HETATM   10  O10 UNL     1     -35.686   5.005   4.685  1.00 20.00    -0.306 OA
ENDBRANCH   5   9
TORSDOF 1
ENDMDL
MODEL 7
REMARK VINA RESULT:       0.8      2.447      3.839
REMARK  1 active torsions:
REMARK  status: ('A' for Active; 'I' for Inactive)
REMARK    1  A    between atoms: C1_1  and  C6_6 
ROOT
HETATM    1  C2  UNL     1     -33.995   6.545   3.286  1.00 20.00     0.001 C 
HETATM    2  C3  UNL     1     -33.390   7.926   3.052  1.00 20.00     0.011 C 
HETATM    3  C4  UNL     1     -33.038   5.430   2.864  1.00 20.00     0.009 C 
HETATM    4  C5  UNL     1     -31.962   6.989   1.187  1.00 20.00     0.020 C 
HETATM    5  C6  UNL     1     -32.925   8.104   1.608  1.00 20.00     0.048 C 
HETATM    6  C7  UNL     1     -32.533   5.570   1.410  1.00 20.00    -0.047 C 
HETATM    7  C8  UNL     1     -31.417   4.536   1.167  1.00 20.00     0.015 C 
HETATM    8  C9  UNL     1     -33.670   5.281   0.411  1.00 20.00     0.015 C 
ENDROOT
BRANCH   5   9
HETATM    9  C1  UNL     1     -32.248   9.434   1.473  1.00 20.00     0.235 C 
HETATM   10  O10 UNL     1     -32.383  10.165   0.497  1.00 20.00    -0.306 OA
ENDBRANCH   5   9
TORSDOF 1
ENDMDL
MODEL 8
REMARK VINA RESULT:       0.8      1.216      2.445
REMARK  1 active torsions:
REMARK  status: ('A' for Active; 'I' for Inactive)
REMARK    1  A    between atoms: C1_1  and  C6_6 
ROOT
HETATM    1  C2  UNL     1     -34.299   8.031   4.053  1.00 20.00     0.001 C 
HETATM    2  C3  UNL     1     -34.618   6.542   3.965  1.00 20.00     0.011 C 
HETATM    3  C4  UNL     1     -33.786   8.579   2.721  1.00 20.00     0.009 C 
HETATM    4  C5  UNL     1     -32.917   6.282   2.112  1.00 20.00     0.020 C 
HETATM    5  C6  UNL     1     -33.427   5.736   3.450  1.00 20.00     0.048 C 
HETATM    6  C7  UNL     1     -32.583   7.791   2.154  1.00 20.00    -0.047 C 
HETATM    7  C8  UNL     1     -32.295   8.281   0.722  1.00 20.00     0.015 C 
HETATM    8  C9  UNL     1     -31.321   8.043   3.002  1.00 20.00     0.015 C 
ENDROOT
BRANCH   5   9
HETATM    9  C1  UNL     1     -33.840   4.304   3.287  1.00 20.00     0.235 C 
HETATM   10  O10 UNL     1     -33.946   3.521   4.225  1.00 20.00    -0.306 OA
ENDBRANCH   5   9
TORSDOF 1
ENDMDL
MODEL 9
REMARK VINA RESULT:       1.2      1.303      1.303
REMARK  1 active torsions:
REMARK  status: ('A' for Active; 'I' for Inactive)
REMARK    1  A    between atoms: C1_1  and  C6_6 
ROOT
HETATM    1  C2  UNL     1     -33.101   5.574   1.405  1.00 20.00     0.001 C 
HETATM    2  C3  UNL     1     -33.771   5.750   2.764  1.00 20.00     0.011 C 
HETATM    3  C4  UNL     1     -31.784   6.343   1.319  1.00 20.00     0.009 C 
HETATM    4  C5  UNL     1     -32.638   7.995   3.035  1.00 20.00     0.020 C 
HETATM    5  C6  UNL     1     -33.960   7.225   3.115  1.00 20.00     0.048 C 
HETATM    6  C7  UNL     1     -31.922   7.842   1.674  1.00 20.00    -0.047 C 
HETATM    7  C8  UNL     1     -30.516   8.463   1.774  1.00 20.00     0.015 C 
HETATM    8  C9  UNL     1     -32.692   8.591   0.569  1.00 20.00     0.015 C 
ENDROOT
BRANCH   5   9
HETATM    9  C1  UNL     1     -34.523   7.329   4.501  1.00 20.00     0.235 C 
HETATM   10  O10 UNL     1     -34.072   8.082   5.358  1.00 20.00    -0.306 OA
ENDBRANCH   5   9
TORSDOF 1
ENDMDL
