MODEL 1
REMARK VINA RESULT:       0.3      0.000      0.000
REMARK  0 active torsions:
REMARK  status: ('A' for Active; 'I' for Inactive)
ROOT
HETATM    1  C1  UNL     1     -34.475   7.265   4.441  1.00 20.00     0.143 A 
HETATM    2  C2  UNL     1     -33.020   7.704   2.767  1.00 20.00     0.059 A 
HETATM    3  C3  UNL     1     -33.147   6.404   2.312  1.00 20.00     0.063 A 
HETATM    4  C4  UNL     1     -34.607   5.963   3.983  1.00 20.00     0.048 A 
HETATM    5  C5  UNL     1     -32.109   8.504   1.887  1.00 20.00     0.062 C 
HETATM    6  C6  UNL     1     -31.358   7.379   1.156  1.00 20.00     0.016 C 
HETATM    7  C7  UNL     1     -32.336   6.186   1.062  1.00 20.00     0.036 C 
HETATM    8  C8  UNL     1     -35.508   5.010   4.691  1.00 20.00     0.072 C 
HETATM    9  C9  UNL     1     -31.623   4.846   1.007  1.00 20.00     0.016 C 
HETATM   10  N10 UNL     1     -33.678   8.173   3.835  1.00 20.00    -0.261 NA
HETATM   11  N11 UNL     1     -33.947   5.502   2.898  1.00 20.00    -0.254 NA
ENDROOT
TORSDOF 0
ENDMDL
MODEL 2
REMARK VINA RESULT:       1.1      1.164      4.329
REMARK  0 active torsions:
REMARK  status: ('A' for Active; 'I' for Inactive)
ROOT
HETATM    1  C1  UNL     1     -31.868   6.432   0.916  1.00 20.00     0.143 A 
HETATM    2  C2  UNL     1     -33.344   5.794   2.505  1.00 20.00     0.059 A 
HETATM    3  C3  UNL     1     -33.448   7.104   2.938  1.00 20.00     0.063 A 
HETATM    4  C4  UNL     1     -31.976   7.746   1.345  1.00 20.00     0.048 A 
HETATM    5  C5  UNL     1     -34.249   4.888   3.283  1.00 20.00     0.062 C 
HETATM    6  C6  UNL     1     -34.523   5.755   4.524  1.00 20.00     0.016 C 
HETATM    7  C7  UNL     1     -34.448   7.226   4.058  1.00 20.00     0.036 C 
HETATM    8  C8  UNL     1     -31.191   8.818   0.671  1.00 20.00     0.072 C 
HETATM    9  C9  UNL     1     -34.027   8.172   5.168  1.00 20.00     0.016 C 
HETATM   10  N10 UNL     1     -32.560   5.420   1.486  1.00 20.00    -0.261 NA
HETATM   11  N11 UNL     1     -32.778   8.114   2.369  1.00 20.00    -0.254 NA
ENDROOT
TORSDOF 0
ENDMDL
MODEL 3
REMARK VINA RESULT:       1.4      1.120      3.567
REMARK  0 active torsions:
REMARK  status: ('A' for Active; 'I' for Inactive)
ROOT
HETATM    1  C1  UNL     1     -31.712   6.845   1.079  1.00 20.00     0.143 A 
HETATM    2  C2  UNL     1     -32.830   7.586   2.898  1.00 20.00     0.059 A 
HETATM    3  C3  UNL     1     -33.435   6.350   3.034  1.00 20.00     0.063 A 
HETATM    4  C4  UNL     1     -32.314   5.603   1.216  1.00 20.00     0.048 A 
HETATM    5  C5  UNL     1     -33.243   8.519   3.995  1.00 20.00     0.062 C 
HETATM    6  C6  UNL     1     -34.520   7.824   4.496  1.00 20.00     0.016 C 
HETATM    7  C7  UNL     1     -34.322   6.311   4.250  1.00 20.00     0.036 C 
HETATM    8  C8  UNL     1     -32.002   4.511   0.251  1.00 20.00     0.072 C 
HETATM    9  C9  UNL     1     -35.634   5.575   4.042  1.00 20.00     0.016 C 
HETATM   10  N10 UNL     1     -31.953   7.870   1.926  1.00 20.00    -0.261 NA
HETATM   11  N11 UNL     1     -33.190   5.324   2.207  1.00 20.00    -0.254 NA
ENDROOT
TORSDOF 0
ENDMDL
MODEL 4
REMARK VINA RESULT:       2.2      1.554      2.372
REMARK  0 active torsions:
REMARK  status: ('A' for Active; 'I' for Inactive)
ROOT
HETATM    1  C1  UNL     1     -34.842   4.558   4.762  1.00 20.00     0.143 A 
HETATM    2  C2  UNL     1     -34.577   6.510   3.653  1.00 20.00     0.059 A 
HETATM    3  C3  UNL     1     -33.524   5.965   2.940  1.00 20.00     0.063 A 
HETATM    4  C4  UNL     1     -33.790   4.009   4.045  1.00 20.00     0.048 A 
HETATM    5  C5  UNL     1     -34.862   7.915   3.218  1.00 20.00     0.062 C 
HETATM    6  C6  UNL     1     -33.542   8.268   2.512  1.00 20.00     0.016 C 
HETATM    7  C7  UNL     1     -32.986   6.947   1.934  1.00 20.00     0.036 C 
HETATM    8  C8  UNL     1     -33.373   2.599   4.292  1.00 20.00     0.072 C 
HETATM    9  C9  UNL     1     -31.472   6.952   1.816  1.00 20.00     0.016 C 
HETATM   10  N10 UNL     1     -35.266   5.828   4.577  1.00 20.00    -0.261 NA
HETATM   11  N11 UNL     1     -33.107   4.702   3.108  1.00 20.00    -0.254 NA
ENDROOT
TORSDOF 0
ENDMDL
MODEL 5
REMARK VINA RESULT:       2.4      1.189      2.712
REMARK  0 active torsions:
REMARK  status: ('A' for Active; 'I' for Inactive)
ROOT
HETATM    1  C1  UNL     1     -33.572   5.416   2.734  1.00 20.00     0.143 A 
HETATM    2  C2  UNL     1     -32.201   6.731   1.508  1.00 20.00     0.059 A 
HETATM    3  C3  UNL     1     -32.766   7.857   2.079  1.00 20.00     0.063 A 
HETATM    4  C4  UNL     1     -34.136   6.544   3.310  1.00 20.00     0.048 A 
HETATM    5  C5  UNL     1     -31.099   7.094   0.561  1.00 20.00     0.062 C 
HETATM    6  C6  UNL     1     -31.423   8.574   0.298  1.00 20.00     0.016 C 
HETATM    7  C7  UNL     1     -32.096   9.111   1.582  1.00 20.00     0.036 C 
HETATM    8  C8  UNL     1     -35.223   6.401   4.320  1.00 20.00     0.072 C 
HETATM    9  C9  UNL     1     -33.050  10.260   1.306  1.00 20.00     0.016 C 
HETATM   10  N10 UNL     1     -32.580   5.484   1.817  1.00 20.00    -0.261 NA
HETATM   11  N11 UNL     1     -33.739   7.797   2.999  1.00 20.00    -0.254 NA
ENDROOT
TORSDOF 0
ENDMDL
MODEL 6
REMARK VINA RESULT:       3.3      1.432      4.094
REMARK  0 active torsions:
REMARK  status: ('A' for Active; 'I' for Inactive)
ROOT
HETATM    1  C1  UNL     1     -31.462   7.336   1.329  1.00 20.00     0.143 A 
HETATM    2  C2  UNL     1     -32.587   5.686   2.389  1.00 20.00     0.059 A 
HETATM    3  C3  UNL     1     -33.629   6.558   2.646  1.00 20.00     0.063 A 
HETATM    4  C4  UNL     1     -32.509   8.210   1.582  1.00 20.00     0.048 A 
HETATM    5  C5  UNL     1     -32.887   4.310   2.899  1.00 20.00     0.062 C 
HETATM    6  C6  UNL     1     -34.016   4.615   3.898  1.00 20.00     0.016 C 
HETATM    7  C7  UNL     1     -34.758   5.858   3.355  1.00 20.00     0.036 C 
HETATM    8  C8  UNL     1     -32.431   9.623   1.114  1.00 20.00     0.072 C 
HETATM    9  C9  UNL     1     -35.407   6.679   4.455  1.00 20.00     0.016 C 
HETATM   10  N10 UNL     1     -31.480   6.043   1.724  1.00 20.00    -0.261 NA
HETATM   11  N11 UNL     1     -33.625   7.836   2.245  1.00 20.00    -0.254 NA
ENDROOT
TORSDOF 0
ENDMDL
