MODEL 1
REMARK VINA RESULT:       1.1      0.000      0.000
REMARK  0 active torsions:
REMARK  status: ('A' for Active; 'I' for Inactive)
ROOT
HETATM    1  C1  UNL     1     -33.774   4.798   3.394  1.00 20.00     0.131 C 
HETATM    2  C2  UNL     1     -34.636   5.243   4.546  1.00 20.00     0.079 C 
HETATM    3  C3  UNL     1     -35.419   6.398   3.936  1.00 20.00     0.013 C 
HETATM    4  C4  UNL     1     -32.294   6.339   2.032  1.00 20.00     0.021 C 
HETATM    5  C5  UNL     1     -33.450   7.963   3.389  1.00 20.00     0.014 C 
HETATM    6  C6  UNL     1     -33.715   5.825   2.281  1.00 20.00     0.060 C 
HETATM    7  C7  UNL     1     -34.513   6.996   2.868  1.00 20.00    -0.002 C 
HETATM    8  C8  UNL     1     -32.314   7.847   2.360  1.00 20.00    -0.047 C 
HETATM    9  C9  UNL     1     -30.980   8.312   2.951  1.00 20.00     0.015 C 
HETATM   10  C10 UNL     1     -32.618   8.672   1.098  1.00 20.00     0.015 C 
HETATM   11  O11 UNL     1     -33.168   3.734   3.376  1.00 20.00    -0.298 OA
ENDROOT
TORSDOF 0
ENDMDL
MODEL 2
REMARK VINA RESULT:       1.3      1.764      2.911
REMARK  0 active torsions:
REMARK  status: ('A' for Active; 'I' for Inactive)
ROOT
HETATM    1  C1  UNL     1     -33.415   7.475   3.659  1.00 20.00     0.131 C 
HETATM    2  C2  UNL     1     -34.268   6.355   3.126  1.00 20.00     0.079 C 
HETATM    3  C3  UNL     1     -33.322   5.661   2.156  1.00 20.00     0.013 C 
HETATM    4  C4  UNL     1     -32.155   9.130   2.212  1.00 20.00     0.021 C 
HETATM    5  C5  UNL     1     -32.946   7.609   0.515  1.00 20.00     0.014 C 
HETATM    6  C6  UNL     1     -32.183   7.721   2.812  1.00 20.00     0.060 C 
HETATM    7  C7  UNL     1     -32.383   6.745   1.645  1.00 20.00    -0.002 C 
HETATM    8  C8  UNL     1     -32.214   8.950   0.680  1.00 20.00    -0.047 C 
HETATM    9  C9  UNL     1     -32.984  10.090   0.008  1.00 20.00     0.015 C 
HETATM   10  C10 UNL     1     -30.795   8.887   0.087  1.00 20.00     0.015 C 
HETATM   11  O11 UNL     1     -33.705   8.131   4.652  1.00 20.00    -0.298 OA
ENDROOT
TORSDOF 0
ENDMDL
MODEL 3
REMARK VINA RESULT:       2.7      2.182      3.843
REMARK  0 active torsions:
REMARK  status: ('A' for Active; 'I' for Inactive)
ROOT
HETATM    1  C1  UNL     1     -32.184   8.017   1.176  1.00 20.00     0.131 C 
HETATM    2  C2  UNL     1     -31.094   6.980   1.230  1.00 20.00     0.079 C 
HETATM    3  C3  UNL     1     -31.886   5.682   1.301  1.00 20.00     0.013 C 
HETATM    4  C4  UNL     1     -34.106   8.164   2.820  1.00 20.00     0.021 C 
HETATM    5  C5  UNL     1     -33.105   6.088   3.532  1.00 20.00     0.014 C 
HETATM    6  C6  UNL     1     -33.534   7.463   1.584  1.00 20.00     0.060 C 
HETATM    7  C7  UNL     1     -33.190   6.029   2.006  1.00 20.00    -0.002 C 
HETATM    8  C8  UNL     1     -34.206   7.087   3.922  1.00 20.00    -0.047 C 
HETATM    9  C9  UNL     1     -33.954   7.677   5.311  1.00 20.00     0.015 C 
HETATM   10  C10 UNL     1     -35.594   6.422   3.904  1.00 20.00     0.015 C 
HETATM   11  O11 UNL     1     -31.990   9.185   0.863  1.00 20.00    -0.298 OA
ENDROOT
TORSDOF 0
ENDMDL
MODEL 4
REMARK VINA RESULT:       2.8      1.931      3.987
REMARK  0 active torsions:
REMARK  status: ('A' for Active; 'I' for Inactive)
ROOT
HETATM    1  C1  UNL     1     -31.962   8.516   3.481  1.00 20.00     0.131 C 
HETATM    2  C2  UNL     1     -31.149   8.042   2.305  1.00 20.00     0.079 C 
HETATM    3  C3  UNL     1     -32.213   7.846   1.234  1.00 20.00     0.013 C 
HETATM    4  C4  UNL     1     -34.009   7.325   4.381  1.00 20.00     0.021 C 
HETATM    5  C5  UNL     1     -33.605   6.017   2.396  1.00 20.00     0.014 C 
HETATM    6  C6  UNL     1     -33.444   8.257   3.304  1.00 20.00     0.060 C 
HETATM    7  C7  UNL     1     -33.491   7.484   1.980  1.00 20.00    -0.002 C 
HETATM    8  C8  UNL     1     -34.497   6.059   3.646  1.00 20.00    -0.047 C 
HETATM    9  C9  UNL     1     -34.312   4.804   4.503  1.00 20.00     0.015 C 
HETATM   10  C10 UNL     1     -35.983   6.191   3.267  1.00 20.00     0.015 C 
HETATM   11  O11 UNL     1     -31.471   9.028   4.479  1.00 20.00    -0.298 OA
ENDROOT
TORSDOF 0
ENDMDL
MODEL 5
REMARK VINA RESULT:       3.1      2.104      4.298
REMARK  0 active torsions:
REMARK  status: ('A' for Active; 'I' for Inactive)
ROOT
HETATM    1  C1  UNL     1     -34.233   6.494   3.497  1.00 20.00     0.131 C 
HETATM    2  C2  UNL     1     -33.025   6.965   2.732  1.00 20.00     0.079 C 
HETATM    3  C3  UNL     1     -32.702   5.758   1.862  1.00 20.00     0.013 C 
HETATM    4  C4  UNL     1     -34.347   4.325   4.802  1.00 20.00     0.021 C 
HETATM    5  C5  UNL     1     -32.204   4.053   3.727  1.00 20.00     0.014 C 
HETATM    6  C6  UNL     1     -34.417   4.992   3.425  1.00 20.00     0.060 C 
HETATM    7  C7  UNL     1     -33.173   4.542   2.649  1.00 20.00    -0.002 C 
HETATM    8  C8  UNL     1     -33.120   3.389   4.768  1.00 20.00    -0.047 C 
HETATM    9  C9  UNL     1     -32.437   3.305   6.135  1.00 20.00     0.015 C 
HETATM   10  C10 UNL     1     -33.530   1.973   4.326  1.00 20.00     0.015 C 
HETATM   11  O11 UNL     1     -34.966   7.243   4.131  1.00 20.00    -0.298 OA
ENDROOT
TORSDOF 0
ENDMDL
MODEL 6
REMARK VINA RESULT:       3.2      1.374      3.648
REMARK  0 active torsions:
REMARK  status: ('A' for Active; 'I' for Inactive)
ROOT
HETATM    1  C1  UNL     1     -32.292   6.379   1.613  1.00 20.00     0.131 C 
HETATM    2  C2  UNL     1     -31.949   7.838   1.475  1.00 20.00     0.079 C 
HETATM    3  C3  UNL     1     -31.949   8.309   2.923  1.00 20.00     0.013 C 
HETATM    4  C4  UNL     1     -34.285   5.491   2.902  1.00 20.00     0.021 C 
HETATM    5  C5  UNL     1     -34.413   7.826   3.493  1.00 20.00     0.014 C 
HETATM    6  C6  UNL     1     -32.857   6.041   2.978  1.00 20.00     0.060 C 
HETATM    7  C7  UNL     1     -32.948   7.418   3.649  1.00 20.00    -0.002 C 
HETATM    8  C8  UNL     1     -35.180   6.503   3.648  1.00 20.00    -0.047 C 
HETATM    9  C9  UNL     1     -36.573   6.592   3.020  1.00 20.00     0.015 C 
HETATM   10  C10 UNL     1     -35.323   6.112   5.129  1.00 20.00     0.015 C 
HETATM   11  O11 UNL     1     -32.155   5.564   0.709  1.00 20.00    -0.298 OA
ENDROOT
TORSDOF 0
ENDMDL
MODEL 7
REMARK VINA RESULT:       3.3      1.962      4.035
REMARK  0 active torsions:
REMARK  status: ('A' for Active; 'I' for Inactive)
ROOT
HETATM    1  C1  UNL     1     -32.442   8.449   1.055  1.00 20.00     0.131 C 
HETATM    2  C2  UNL     1     -32.127   9.635   1.927  1.00 20.00     0.079 C 
HETATM    3  C3  UNL     1     -31.511   8.979   3.155  1.00 20.00     0.013 C 
HETATM    4  C4  UNL     1     -33.761   6.423   1.813  1.00 20.00     0.021 C 
HETATM    5  C5  UNL     1     -33.539   7.585   3.914  1.00 20.00     0.014 C 
HETATM    6  C6  UNL     1     -32.408   7.140   1.818  1.00 20.00     0.060 C 
HETATM    7  C7  UNL     1     -32.157   7.604   3.259  1.00 20.00    -0.002 C 
HETATM    8  C8  UNL     1     -34.227   6.365   3.283  1.00 20.00    -0.047 C 
HETATM    9  C9  UNL     1     -35.751   6.467   3.395  1.00 20.00     0.015 C 
HETATM   10  C10 UNL     1     -33.763   5.057   3.948  1.00 20.00     0.015 C 
HETATM   11  O11 UNL     1     -32.723   8.540  -0.134  1.00 20.00    -0.298 OA
ENDROOT
TORSDOF 0
ENDMDL
MODEL 8
REMARK VINA RESULT:       3.6      1.963      3.031
REMARK  0 active torsions:
REMARK  status: ('A' for Active; 'I' for Inactive)
ROOT
HETATM    1  C1  UNL     1     -34.474   6.990   3.974  1.00 20.00     0.131 C 
HETATM    2  C2  UNL     1     -35.423   5.905   4.409  1.00 20.00     0.079 C 
HETATM    3  C3  UNL     1     -34.513   4.686   4.471  1.00 20.00     0.013 C 
HETATM    4  C4  UNL     1     -32.949   6.836   1.956  1.00 20.00     0.021 C 
HETATM    5  C5  UNL     1     -33.819   4.587   1.994  1.00 20.00     0.014 C 
HETATM    6  C6  UNL     1     -33.176   6.439   3.418  1.00 20.00     0.060 C 
HETATM    7  C7  UNL     1     -33.426   4.925   3.432  1.00 20.00    -0.002 C 
HETATM    8  C8  UNL     1     -32.944   5.523   1.145  1.00 20.00    -0.047 C 
HETATM    9  C9  UNL     1     -33.536   5.722  -0.253  1.00 20.00     0.015 C 
HETATM   10  C10 UNL     1     -31.512   4.976   1.009  1.00 20.00     0.015 C 
HETATM   11  O11 UNL     1     -34.737   8.184   4.038  1.00 20.00    -0.298 OA
ENDROOT
TORSDOF 0
ENDMDL
MODEL 9
REMARK VINA RESULT:       3.8      1.850      3.466
REMARK  0 active torsions:
REMARK  status: ('A' for Active; 'I' for Inactive)
ROOT
HETATM    1  C1  UNL     1     -33.009   8.035   3.971  1.00 20.00     0.131 C 
HETATM    2  C2  UNL     1     -31.863   8.959   3.658  1.00 20.00     0.079 C 
HETATM    3  C3  UNL     1     -32.038   9.197   2.164  1.00 20.00     0.013 C 
HETATM    4  C4  UNL     1     -33.505   5.890   2.716  1.00 20.00     0.021 C 
HETATM    5  C5  UNL     1     -31.733   6.776   1.342  1.00 20.00     0.014 C 
HETATM    6  C6  UNL     1     -33.615   7.417   2.726  1.00 20.00     0.060 C 
HETATM    7  C7  UNL     1     -32.691   7.936   1.616  1.00 20.00    -0.002 C 
HETATM    8  C8  UNL     1     -32.611   5.527   1.512  1.00 20.00    -0.047 C 
HETATM    9  C9  UNL     1     -31.761   4.285   1.795  1.00 20.00     0.015 C 
HETATM   10  C10 UNL     1     -33.467   5.273   0.258  1.00 20.00     0.015 C 
HETATM   11  O11 UNL     1     -33.389   7.790   5.109  1.00 20.00    -0.298 OA
ENDROOT
TORSDOF 0
ENDMDL
