MODEL 1
REMARK VINA RESULT:      -2.8      0.000      0.000
REMARK  3 active torsions:
REMARK  status: ('A' for Active; 'I' for Inactive)
REMARK    1  A    between atoms: C5_5  and  N8_8 
REMARK    2  A    between atoms: C6_6  and  C7_7 
REMARK    3  A    between atoms: C7_7  and  N8_8 
ROOT
HETATM    1  C1  UNL     1     -35.381   6.125   4.073  1.00 20.00     0.013 C 
HETATM    2  C2  UNL     1     -34.415   6.772   3.775  1.00 20.00    -0.087 C 
HETATM    3  C5  UNL     1     -33.235   7.562   3.417  1.00 20.00     0.364 C 
ENDROOT
BRANCH   3   4
HETATM    4  N8  UNL     1     -32.919   7.403   1.998  1.00 20.00     0.095 N 
HETATM    5  C4  UNL     1     -32.670   5.997   1.684  1.00 20.00     0.310 C 
BRANCH   4   6
HETATM    6  C7  UNL     1     -31.761   8.221   1.637  1.00 20.00     0.272 C 
BRANCH   6   7
HETATM    7  C6  UNL     1     -31.939   8.920   0.295  1.00 20.00     0.026 C 
HETATM    8  C3  UNL     1     -32.601  10.285   0.427  1.00 20.00     0.007 C 
ENDBRANCH   6   7
ENDBRANCH   4   6
ENDBRANCH   3   4
TORSDOF 3
ENDMDL
MODEL 2
REMARK VINA RESULT:      -2.2      2.023      3.030
REMARK  3 active torsions:
REMARK  status: ('A' for Active; 'I' for Inactive)
REMARK    1  A    between atoms: C5_5  and  N8_8 
REMARK    2  A    between atoms: C6_6  and  C7_7 
REMARK    3  A    between atoms: C7_7  and  N8_8 
ROOT
HETATM    1  C1  UNL     1     -33.127   2.883   4.698  1.00 20.00     0.013 C 
HETATM    2  C2  UNL     1     -33.799   3.820   4.365  1.00 20.00    -0.087 C 
HETATM    3  C5  UNL     1     -34.623   4.962   3.962  1.00 20.00     0.364 C 
ENDROOT
BRANCH   3   4
HETATM    4  N8  UNL     1     -33.783   6.088   3.557  1.00 20.00     0.095 N 
HETATM    5  C4  UNL     1     -34.364   7.350   4.013  1.00 20.00     0.310 C 
BRANCH   4   6
HETATM    6  C7  UNL     1     -33.609   6.100   2.105  1.00 20.00     0.272 C 
BRANCH   6   7
HETATM    7  C6  UNL     1     -32.176   6.417   1.694  1.00 20.00     0.026 C 
HETATM    8  C3  UNL     1     -31.898   7.912   1.634  1.00 20.00     0.007 C 
ENDBRANCH   6   7
ENDBRANCH   4   6
ENDBRANCH   3   4
TORSDOF 3
ENDMDL
MODEL 3
REMARK VINA RESULT:      -2.1      2.002      4.812
REMARK  3 active torsions:
REMARK  status: ('A' for Active; 'I' for Inactive)
REMARK    1  A    between atoms: C5_5  and  N8_8 
REMARK    2  A    between atoms: C6_6  and  C7_7 
REMARK    3  A    between atoms: C7_7  and  N8_8 
ROOT
HETATM    1  C1  UNL     1     -32.011   8.164   1.535  1.00 20.00     0.013 C 
HETATM    2  C2  UNL     1     -32.520   7.156   1.944  1.00 20.00    -0.087 C 
HETATM    3  C5  UNL     1     -33.136   5.925   2.442  1.00 20.00     0.364 C 
ENDROOT
BRANCH   3   4
HETATM    4  N8  UNL     1     -34.276   6.230   3.305  1.00 20.00     0.095 N 
HETATM    5  C4  UNL     1     -34.016   7.439   4.086  1.00 20.00     0.310 C 
BRANCH   4   6
HETATM    6  C7  UNL     1     -34.565   5.102   4.191  1.00 20.00     0.272 C 
BRANCH   6   7
HETATM    7  C6  UNL     1     -33.810   3.841   3.790  1.00 20.00     0.026 C 
HETATM    8  C3  UNL     1     -33.190   3.123   4.981  1.00 20.00     0.007 C 
ENDBRANCH   6   7
ENDBRANCH   4   6
ENDBRANCH   3   4
TORSDOF 3
ENDMDL
MODEL 4
REMARK VINA RESULT:      -2.1      0.580      3.942
REMARK  3 active torsions:
REMARK  status: ('A' for Active; 'I' for Inactive)
REMARK    1  A    between atoms: C5_5  and  N8_8 
REMARK    2  A    between atoms: C6_6  and  C7_7 
REMARK    3  A    between atoms: C7_7  and  N8_8 
ROOT
HETATM    1  C1  UNL     1     -32.592   9.784   0.167  1.00 20.00     0.013 C 
HETATM    2  C2  UNL     1     -32.082   8.977   0.895  1.00 20.00    -0.087 C 
HETATM    3  C5  UNL     1     -31.456   7.996   1.784  1.00 20.00     0.364 C 
ENDROOT
BRANCH   3   4
HETATM    4  N8  UNL     1     -32.449   7.050   2.290  1.00 20.00     0.095 N 
HETATM    5  C4  UNL     1     -32.762   6.046   1.274  1.00 20.00     0.310 C 
BRANCH   4   6
HETATM    6  C7  UNL     1     -33.662   7.754   2.704  1.00 20.00     0.272 C 
BRANCH   6   7
HETATM    7  C6  UNL     1     -34.153   7.307   4.075  1.00 20.00     0.026 C 
HETATM    8  C3  UNL     1     -35.270   6.276   3.993  1.00 20.00     0.007 C 
ENDBRANCH   6   7
ENDBRANCH   4   6
ENDBRANCH   3   4
TORSDOF 3
ENDMDL
MODEL 5
REMARK VINA RESULT:      -1.9      1.265      4.493
REMARK  3 active torsions:
REMARK  status: ('A' for Active; 'I' for Inactive)
REMARK    1  A    between atoms: C5_5  and  N8_8 
REMARK    2  A    between atoms: C6_6  and  C7_7 
REMARK    3  A    between atoms: C7_7  and  N8_8 
ROOT
HETATM    1  C1  UNL     1     -32.361   9.787   0.316  1.00 20.00     0.013 C 
HETATM    2  C2  UNL     1     -32.222   8.840   1.041  1.00 20.00    -0.087 C 
HETATM    3  C5  UNL     1     -32.047   7.686   1.926  1.00 20.00     0.364 C 
ENDROOT
BRANCH   3   4
HETATM    4  N8  UNL     1     -33.329   7.274   2.495  1.00 20.00     0.095 N 
HETATM    5  C4  UNL     1     -33.498   7.836   3.834  1.00 20.00     0.310 C 
BRANCH   4   6
HETATM    6  C7  UNL     1     -33.424   5.814   2.538  1.00 20.00     0.272 C 
BRANCH   6   7
HETATM    7  C6  UNL     1     -34.239   5.320   3.727  1.00 20.00     0.026 C 
HETATM    8  C3  UNL     1     -33.862   3.908   4.152  1.00 20.00     0.007 C 
ENDBRANCH   6   7
ENDBRANCH   4   6
ENDBRANCH   3   4
TORSDOF 3
ENDMDL
MODEL 6
REMARK VINA RESULT:      -1.3      1.646      3.847
REMARK  3 active torsions:
REMARK  status: ('A' for Active; 'I' for Inactive)
REMARK    1  A    between atoms: C5_5  and  N8_8 
REMARK    2  A    between atoms: C6_6  and  C7_7 
REMARK    3  A    between atoms: C7_7  and  N8_8 
ROOT
HETATM    1  C1  UNL     1     -31.802   7.725   1.554  1.00 20.00     0.013 C 
HETATM    2  C2  UNL     1     -32.489   6.768   1.785  1.00 20.00    -0.087 C 
HETATM    3  C5  UNL     1     -33.326   5.598   2.062  1.00 20.00     0.364 C 
ENDROOT
BRANCH   3   4
HETATM    4  N8  UNL     1     -33.678   5.539   3.480  1.00 20.00     0.095 N 
HETATM    5  C4  UNL     1     -33.877   4.153   3.900  1.00 20.00     0.310 C 
BRANCH   4   6
HETATM    6  C7  UNL     1     -34.880   6.330   3.741  1.00 20.00     0.272 C 
BRANCH   6   7
HETATM    7  C6  UNL     1     -34.560   7.786   4.059  1.00 20.00     0.026 C 
HETATM    8  C3  UNL     1     -33.390   7.934   5.022  1.00 20.00     0.007 C 
ENDBRANCH   6   7
ENDBRANCH   4   6
ENDBRANCH   3   4
TORSDOF 3
ENDMDL
MODEL 7
REMARK VINA RESULT:      -1.3      1.148      3.845
REMARK  3 active torsions:
REMARK  status: ('A' for Active; 'I' for Inactive)
REMARK    1  A    between atoms: C5_5  and  N8_8 
REMARK    2  A    between atoms: C6_6  and  C7_7 
REMARK    3  A    between atoms: C7_7  and  N8_8 
ROOT
HETATM    1  C1  UNL     1     -32.483   9.743   0.161  1.00 20.00     0.013 C 
HETATM    2  C2  UNL     1     -32.310   8.999   1.088  1.00 20.00    -0.087 C 
HETATM    3  C5  UNL     1     -32.094   8.095   2.220  1.00 20.00     0.364 C 
ENDROOT
BRANCH   3   4
HETATM    4  N8  UNL     1     -33.342   7.433   2.597  1.00 20.00     0.095 N 
HETATM    5  C4  UNL     1     -33.715   7.787   3.966  1.00 20.00     0.310 C 
BRANCH   4   6
HETATM    6  C7  UNL     1     -33.214   5.983   2.461  1.00 20.00     0.272 C 
BRANCH   6   7
HETATM    7  C6  UNL     1     -32.922   5.557   1.028  1.00 20.00     0.026 C 
HETATM    8  C3  UNL     1     -31.604   4.808   0.893  1.00 20.00     0.007 C 
ENDBRANCH   6   7
ENDBRANCH   4   6
ENDBRANCH   3   4
TORSDOF 3
ENDMDL
MODEL 8
REMARK VINA RESULT:      -1.1      0.966      2.769
REMARK  3 active torsions:
REMARK  status: ('A' for Active; 'I' for Inactive)
REMARK    1  A    between atoms: C5_5  and  N8_8 
REMARK    2  A    between atoms: C6_6  and  C7_7 
REMARK    3  A    between atoms: C7_7  and  N8_8 
ROOT
HETATM    1  C1  UNL     1     -35.260   6.105   4.057  1.00 20.00     0.013 C 
HETATM    2  C2  UNL     1     -34.425   6.934   3.814  1.00 20.00    -0.087 C 
HETATM    3  C5  UNL     1     -33.409   7.947   3.523  1.00 20.00     0.364 C 
ENDROOT
BRANCH   3   4
HETATM    4  N8  UNL     1     -32.484   7.470   2.496  1.00 20.00     0.095 N 
HETATM    5  C4  UNL     1     -32.175   8.541   1.549  1.00 20.00     0.310 C 
BRANCH   4   6
HETATM    6  C7  UNL     1     -33.048   6.316   1.795  1.00 20.00     0.272 C 
BRANCH   6   7
HETATM    7  C6  UNL     1     -31.980   5.313   1.376  1.00 20.00     0.026 C 
HETATM    8  C3  UNL     1     -32.431   4.421   0.228  1.00 20.00     0.007 C 
ENDBRANCH   6   7
ENDBRANCH   4   6
ENDBRANCH   3   4
TORSDOF 3
ENDMDL
MODEL 9
REMARK VINA RESULT:      -0.9      1.670      2.744
REMARK  3 active torsions:
REMARK  status: ('A' for Active; 'I' for Inactive)
REMARK    1  A    between atoms: C5_5  and  N8_8 
REMARK    2  A    between atoms: C6_6  and  C7_7 
REMARK    3  A    between atoms: C7_7  and  N8_8 
ROOT
HETATM    1  C1  UNL     1     -33.417   8.238   4.946  1.00 20.00     0.013 C 
HETATM    2  C2  UNL     1     -34.137   7.439   4.412  1.00 20.00    -0.087 C 
HETATM    3  C5  UNL     1     -35.019   6.468   3.761  1.00 20.00     0.364 C 
ENDROOT
BRANCH   3   4
HETATM    4  N8  UNL     1     -34.251   5.331   3.257  1.00 20.00     0.095 N 
HETATM    5  C4  UNL     1     -34.204   4.263   4.255  1.00 20.00     0.310 C 
BRANCH   4   6
HETATM    6  C7  UNL     1     -32.898   5.748   2.891  1.00 20.00     0.272 C 
BRANCH   6   7
HETATM    7  C6  UNL     1     -32.841   6.387   1.509  1.00 20.00     0.026 C 
HETATM    8  C3  UNL     1     -31.998   7.654   1.481  1.00 20.00     0.007 C 
ENDBRANCH   6   7
ENDBRANCH   4   6
ENDBRANCH   3   4
TORSDOF 3
ENDMDL
