MODEL 1
REMARK VINA RESULT:      -1.5      0.000      0.000
REMARK  0 active torsions:
REMARK  status: ('A' for Active; 'I' for Inactive)
ROOT
HETATM    1  C1  UNL     1     -33.536   6.082   2.668  1.00 20.00     0.011 C 
HETATM    2  C2  UNL     1     -34.475   5.235   3.482  1.00 20.00     0.054 C 
HETATM    3  C3  UNL     1     -35.179   6.281   4.347  1.00 20.00     0.006 C 
HETATM    4  C4  UNL     1     -31.899   7.926   1.367  1.00 20.00     0.022 C 
HETATM    5  C5  UNL     1     -34.218   7.471   4.397  1.00 20.00     0.011 C 
HETATM    6  C6  UNL     1     -32.370   8.262   2.776  1.00 20.00     0.012 C 
HETATM    7  C7  UNL     1     -31.696   6.423   1.197  1.00 20.00     0.148 C 
HETATM    8  C8  UNL     1     -33.681   7.543   2.974  1.00 20.00     0.033 C 
HETATM    9  N9  UNL     1     -32.701   5.565   1.841  1.00 20.00    -0.298 NA
ENDROOT
TORSDOF 0
ENDMDL
MODEL 2
REMARK VINA RESULT:      -1.2      1.229      3.737
REMARK  0 active torsions:
REMARK  status: ('A' for Active; 'I' for Inactive)
ROOT
HETATM    1  C1  UNL     1     -33.077   7.455   2.770  1.00 20.00     0.011 C 
HETATM    2  C2  UNL     1     -31.943   8.048   1.979  1.00 20.00     0.054 C 
HETATM    3  C3  UNL     1     -31.692   6.968   0.925  1.00 20.00     0.006 C 
HETATM    4  C4  UNL     1     -35.129   6.060   4.040  1.00 20.00     0.022 C 
HETATM    5  C5  UNL     1     -32.239   5.677   1.537  1.00 20.00     0.011 C 
HETATM    6  C6  UNL     1     -34.059   5.252   3.320  1.00 20.00     0.012 C 
HETATM    7  C7  UNL     1     -34.546   7.337   4.639  1.00 20.00     0.148 C 
HETATM    8  C8  UNL     1     -33.521   6.133   2.219  1.00 20.00     0.033 C 
HETATM    9  N9  UNL     1     -33.554   8.037   3.809  1.00 20.00    -0.298 NA
ENDROOT
TORSDOF 0
ENDMDL
MODEL 3
REMARK VINA RESULT:      -1.0      1.099      2.081
REMARK  0 active torsions:
REMARK  status: ('A' for Active; 'I' for Inactive)
ROOT
HETATM    1  C1  UNL     1     -33.197   7.418   3.153  1.00 20.00     0.011 C 
HETATM    2  C2  UNL     1     -34.076   7.975   4.238  1.00 20.00     0.054 C 
HETATM    3  C3  UNL     1     -34.899   6.750   4.640  1.00 20.00     0.006 C 
HETATM    4  C4  UNL     1     -31.762   6.087   1.168  1.00 20.00     0.022 C 
HETATM    5  C5  UNL     1     -34.864   5.826   3.420  1.00 20.00     0.011 C 
HETATM    6  C6  UNL     1     -33.161   5.583   1.494  1.00 20.00     0.012 C 
HETATM    7  C7  UNL     1     -31.668   7.601   1.338  1.00 20.00     0.148 C 
HETATM    8  C8  UNL     1     -33.427   5.953   2.932  1.00 20.00     0.033 C 
HETATM    9  N9  UNL     1     -32.380   8.160   2.496  1.00 20.00    -0.298 NA
ENDROOT
TORSDOF 0
ENDMDL
MODEL 4
REMARK VINA RESULT:      -0.6      0.931      3.172
REMARK  0 active torsions:
REMARK  status: ('A' for Active; 'I' for Inactive)
ROOT
HETATM    1  C1  UNL     1     -33.254   6.218   2.520  1.00 20.00     0.011 C 
HETATM    2  C2  UNL     1     -32.516   5.729   1.304  1.00 20.00     0.054 C 
HETATM    3  C3  UNL     1     -31.520   6.863   1.060  1.00 20.00     0.006 C 
HETATM    4  C4  UNL     1     -34.441   7.431   4.732  1.00 20.00     0.022 C 
HETATM    5  C5  UNL     1     -32.141   8.093   1.726  1.00 20.00     0.011 C 
HETATM    6  C6  UNL     1     -33.819   8.333   3.674  1.00 20.00     0.012 C 
HETATM    7  C7  UNL     1     -35.029   6.170   4.105  1.00 20.00     0.148 C 
HETATM    8  C8  UNL     1     -32.724   7.531   3.014  1.00 20.00     0.033 C 
HETATM    9  N9  UNL     1     -34.240   5.567   3.021  1.00 20.00    -0.298 NA
ENDROOT
TORSDOF 0
ENDMDL
MODEL 5
REMARK VINA RESULT:      -0.3      1.228      2.138
REMARK  0 active torsions:
REMARK  status: ('A' for Active; 'I' for Inactive)
ROOT
HETATM    1  C1  UNL     1     -33.843   6.778   3.345  1.00 20.00     0.011 C 
HETATM    2  C2  UNL     1     -35.003   6.509   4.264  1.00 20.00     0.054 C 
HETATM    3  C3  UNL     1     -34.926   4.992   4.437  1.00 20.00     0.006 C 
HETATM    4  C4  UNL     1     -31.660   6.921   1.617  1.00 20.00     0.022 C 
HETATM    5  C5  UNL     1     -34.173   4.485   3.205  1.00 20.00     0.011 C 
HETATM    6  C6  UNL     1     -32.467   5.630   1.639  1.00 20.00     0.012 C 
HETATM    7  C7  UNL     1     -32.551   8.133   1.875  1.00 20.00     0.148 C 
HETATM    8  C8  UNL     1     -33.081   5.530   3.014  1.00 20.00     0.033 C 
HETATM    9  N9  UNL     1     -33.592   7.955   2.897  1.00 20.00    -0.298 NA
ENDROOT
TORSDOF 0
ENDMDL
