MODEL 1
REMARK VINA RESULT:      -1.4      0.000      0.000
REMARK  3 active torsions:
REMARK  status: ('A' for Active; 'I' for Inactive)
REMARK    1  A    between atoms: C2_2  and  C7_7 
REMARK    2  A    between atoms: C5_5  and  C8_8 
REMARK    3  A    between atoms: C7_7  and  C8_8 
ROOT
HETATM    1  C3  UNL     1     -34.364   4.349   4.467  1.00 20.00     0.281 C 
HETATM    2  C4  UNL     1     -35.455   5.408   4.427  1.00 20.00     0.106 C 
HETATM    3  C5  UNL     1     -33.227   5.907   3.114  1.00 20.00     0.282 C 
HETATM    4  N9  UNL     1     -33.580   4.491   3.239  1.00 20.00     0.098 N 
HETATM    5  S10 UNL     1     -34.615   6.875   3.786  1.00 20.00    -0.132 SA
HETATM    6  H25 UNL     1     -32.740   3.915   3.281  1.00 20.00     0.317 HD
ENDROOT
BRANCH   3   7
HETATM    7  C8  UNL     1     -32.967   6.261   1.660  1.00 20.00     0.050 C 
BRANCH   7   8
HETATM    8  C7  UNL     1     -31.719   7.133   1.511  1.00 20.00     0.030 C 
BRANCH   8   9
HETATM    9  C2  UNL     1     -32.081   8.588   1.433  1.00 20.00    -0.031 C 
HETATM   10  C1  UNL     1     -32.281   9.245   0.281  1.00 20.00    -0.035 C 
HETATM   11  C6  UNL     1     -32.634  10.693   0.201  1.00 20.00     0.036 C 
ENDBRANCH   8   9
ENDBRANCH   7   8
ENDBRANCH   3   7
TORSDOF 3
ENDMDL
MODEL 2
REMARK VINA RESULT:      -1.1      1.497      1.702
REMARK  3 active torsions:
REMARK  status: ('A' for Active; 'I' for Inactive)
REMARK    1  A    between atoms: C2_2  and  C7_7 
REMARK    2  A    between atoms: C5_5  and  C8_8 
REMARK    3  A    between atoms: C7_7  and  C8_8 
ROOT
HETATM    1  C3  UNL     1     -35.340   5.980   4.228  1.00 20.00     0.281 C 
HETATM    2  C4  UNL     1     -34.399   4.819   3.946  1.00 20.00     0.106 C 
HETATM    3  C5  UNL     1     -33.789   7.160   2.903  1.00 20.00     0.282 C 
HETATM    4  N9  UNL     1     -34.545   7.207   4.157  1.00 20.00     0.098 N 
HETATM    5  S10 UNL     1     -33.362   5.418   2.591  1.00 20.00    -0.132 SA
HETATM    6  H25 UNL     1     -35.147   8.029   4.180  1.00 20.00     0.317 HD
ENDROOT
BRANCH   3   7
HETATM    7  C8  UNL     1     -32.540   8.018   3.005  1.00 20.00     0.050 C 
BRANCH   7   8
HETATM    8  C7  UNL     1     -31.583   7.754   1.841  1.00 20.00     0.030 C 
BRANCH   8   9
HETATM    9  C2  UNL     1     -31.991   8.524   0.618  1.00 20.00    -0.031 C 
HETATM   10  C1  UNL     1     -32.464   9.779   0.651  1.00 20.00    -0.035 C 
HETATM   11  C6  UNL     1     -32.876  10.542  -0.563  1.00 20.00     0.036 C 
ENDBRANCH   8   9
ENDBRANCH   7   8
ENDBRANCH   3   7
TORSDOF 3
ENDMDL
MODEL 3
REMARK VINA RESULT:      -0.9      2.068      5.216
REMARK  3 active torsions:
REMARK  status: ('A' for Active; 'I' for Inactive)
REMARK    1  A    between atoms: C2_2  and  C7_7 
REMARK    2  A    between atoms: C5_5  and  C8_8 
REMARK    3  A    between atoms: C7_7  and  C8_8 
ROOT
HETATM    1  C3  UNL     1     -31.434   8.380   2.569  1.00 20.00     0.281 C 
HETATM    2  C4  UNL     1     -31.993   7.875   1.248  1.00 20.00     0.106 C 
HETATM    3  C5  UNL     1     -33.194   7.091   3.458  1.00 20.00     0.282 C 
HETATM    4  N9  UNL     1     -32.540   8.400   3.527  1.00 20.00     0.098 N 
HETATM    5  S10 UNL     1     -33.095   6.525   1.731  1.00 20.00    -0.132 SA
HETATM    6  H25 UNL     1     -32.197   8.578   4.470  1.00 20.00     0.317 HD
ENDROOT
BRANCH   3   7
HETATM    7  C8  UNL     1     -34.639   7.196   3.916  1.00 20.00     0.050 C 
BRANCH   7   8
HETATM    8  C7  UNL     1     -35.345   5.841   3.855  1.00 20.00     0.030 C 
BRANCH   8   9
HETATM    9  C2  UNL     1     -34.591   4.801   4.634  1.00 20.00    -0.031 C 
HETATM   10  C1  UNL     1     -33.886   3.811   4.066  1.00 20.00    -0.035 C 
HETATM   11  C6  UNL     1     -33.142   2.773   4.838  1.00 20.00     0.036 C 
ENDBRANCH   8   9
ENDBRANCH   7   8
ENDBRANCH   3   7
TORSDOF 3
ENDMDL
MODEL 4
REMARK VINA RESULT:      -0.7      1.987      5.087
REMARK  3 active torsions:
REMARK  status: ('A' for Active; 'I' for Inactive)
REMARK    1  A    between atoms: C2_2  and  C7_7 
REMARK    2  A    between atoms: C5_5  and  C8_8 
REMARK    3  A    between atoms: C7_7  and  C8_8 
ROOT
HETATM    1  C3  UNL     1     -32.267   6.450   0.995  1.00 20.00     0.281 C 
HETATM    2  C4  UNL     1     -31.327   7.461   1.633  1.00 20.00     0.106 C 
HETATM    3  C5  UNL     1     -33.772   7.298   2.597  1.00 20.00     0.282 C 
HETATM    4  N9  UNL     1     -33.241   6.062   2.016  1.00 20.00     0.098 N 
HETATM    5  S10 UNL     1     -32.421   8.517   2.611  1.00 20.00    -0.132 SA
HETATM    6  H25 UNL     1     -33.992   5.509   1.606  1.00 20.00     0.317 HD
ENDROOT
BRANCH   3   7
HETATM    7  C8  UNL     1     -34.292   7.042   4.002  1.00 20.00     0.050 C 
BRANCH   7   8
HETATM    8  C7  UNL     1     -35.315   5.905   4.021  1.00 20.00     0.030 C 
BRANCH   8   9
HETATM    9  C2  UNL     1     -34.757   4.684   4.694  1.00 20.00    -0.031 C 
HETATM   10  C1  UNL     1     -33.811   3.902   4.153  1.00 20.00    -0.035 C 
HETATM   11  C6  UNL     1     -33.260   2.685   4.817  1.00 20.00     0.036 C 
ENDBRANCH   8   9
ENDBRANCH   7   8
ENDBRANCH   3   7
TORSDOF 3
ENDMDL
MODEL 5
REMARK VINA RESULT:       0.4      2.655      5.258
REMARK  3 active torsions:
REMARK  status: ('A' for Active; 'I' for Inactive)
REMARK    1  A    between atoms: C2_2  and  C7_7 
REMARK    2  A    between atoms: C5_5  and  C8_8 
REMARK    3  A    between atoms: C7_7  and  C8_8 
ROOT
HETATM    1  C3  UNL     1     -32.718  10.821   0.287  1.00 20.00     0.281 C 
HETATM    2  C4  UNL     1     -32.758   9.770  -0.811  1.00 20.00     0.106 C 
HETATM    3  C5  UNL     1     -31.695   9.077   1.497  1.00 20.00     0.282 C 
HETATM    4  N9  UNL     1     -32.733  10.109   1.566  1.00 20.00     0.098 N 
HETATM    5  S10 UNL     1     -31.634   8.482  -0.223  1.00 20.00    -0.132 SA
HETATM    6  H25 UNL     1     -32.548  10.749   2.337  1.00 20.00     0.317 HD
ENDROOT
BRANCH   3   7
HETATM    7  C8  UNL     1     -32.012   7.942   2.456  1.00 20.00     0.050 C 
BRANCH   7   8
HETATM    8  C7  UNL     1     -32.502   6.700   1.711  1.00 20.00     0.030 C 
BRANCH   8   9
HETATM    9  C2  UNL     1     -33.629   6.035   2.447  1.00 20.00    -0.031 C 
HETATM   10  C1  UNL     1     -34.264   6.586   3.493  1.00 20.00    -0.035 C 
HETATM   11  C6  UNL     1     -35.379   5.923   4.230  1.00 20.00     0.036 C 
ENDBRANCH   8   9
ENDBRANCH   7   8
ENDBRANCH   3   7
TORSDOF 3
ENDMDL
MODEL 6
REMARK VINA RESULT:       0.6      2.482      5.442
REMARK  3 active torsions:
REMARK  status: ('A' for Active; 'I' for Inactive)
REMARK    1  A    between atoms: C2_2  and  C7_7 
REMARK    2  A    between atoms: C5_5  and  C8_8 
REMARK    3  A    between atoms: C7_7  and  C8_8 
ROOT
HETATM    1  C3  UNL     1     -32.729  10.534   0.919  1.00 20.00     0.281 C 
HETATM    2  C4  UNL     1     -32.412   9.892  -0.423  1.00 20.00     0.106 C 
HETATM    3  C5  UNL     1     -32.140   8.403   1.733  1.00 20.00     0.282 C 
HETATM    4  N9  UNL     1     -33.149   9.461   1.822  1.00 20.00     0.098 N 
HETATM    5  S10 UNL     1     -31.531   8.376   0.017  1.00 20.00    -0.132 SA
HETATM    6  H25 UNL     1     -33.222   9.805   2.779  1.00 20.00     0.317 HD
ENDROOT
BRANCH   3   7
HETATM    7  C8  UNL     1     -32.742   7.063   2.120  1.00 20.00     0.050 C 
BRANCH   7   8
HETATM    8  C7  UNL     1     -33.915   7.236   3.087  1.00 20.00     0.030 C 
BRANCH   8   9
HETATM    9  C2  UNL     1     -34.244   5.944   3.777  1.00 20.00    -0.031 C 
HETATM   10  C1  UNL     1     -33.512   4.827   3.656  1.00 20.00    -0.035 C 
HETATM   11  C6  UNL     1     -33.841   3.540   4.335  1.00 20.00     0.036 C 
ENDBRANCH   8   9
ENDBRANCH   7   8
ENDBRANCH   3   7
TORSDOF 3
ENDMDL
MODEL 7
REMARK VINA RESULT:       1.4      1.815      5.349
REMARK  3 active torsions:
REMARK  status: ('A' for Active; 'I' for Inactive)
REMARK    1  A    between atoms: C2_2  and  C7_7 
REMARK    2  A    between atoms: C5_5  and  C8_8 
REMARK    3  A    between atoms: C7_7  and  C8_8 
ROOT
HETATM    1  C3  UNL     1     -32.502   6.946   1.647  1.00 20.00     0.281 C 
HETATM    2  C4  UNL     1     -32.359   7.923   2.804  1.00 20.00     0.106 C 
HETATM    3  C5  UNL     1     -34.195   6.047   3.017  1.00 20.00     0.282 C 
HETATM    4  N9  UNL     1     -33.031   5.698   2.200  1.00 20.00     0.098 N 
HETATM    5  S10 UNL     1     -33.859   7.665   3.780  1.00 20.00    -0.132 SA
HETATM    6  H25 UNL     1     -33.298   5.058   1.453  1.00 20.00     0.317 HD
ENDROOT
BRANCH   3   7
HETATM    7  C8  UNL     1     -34.438   4.983   4.074  1.00 20.00     0.050 C 
BRANCH   7   8
HETATM    8  C7  UNL     1     -33.815   3.645   3.675  1.00 20.00     0.030 C 
BRANCH   8   9
HETATM    9  C2  UNL     1     -33.117   3.003   4.839  1.00 20.00    -0.031 C 
HETATM   10  C1  UNL     1     -32.724   3.671   5.933  1.00 20.00    -0.035 C 
HETATM   11  C6  UNL     1     -32.024   3.036   7.088  1.00 20.00     0.036 C 
ENDBRANCH   8   9
ENDBRANCH   7   8
ENDBRANCH   3   7
TORSDOF 3
ENDMDL
