MODEL 1
REMARK VINA RESULT:       0.3      0.000      0.000
REMARK  1 active torsions:
REMARK  status: ('A' for Active; 'I' for Inactive)
REMARK    1  A    between atoms: C1_1  and  C5_5 
ROOT
HETATM    1  C2  UNL     1     -31.545   6.594   1.796  1.00 20.00     0.006 C 
HETATM    2  C3  UNL     1     -32.334   7.910   1.856  1.00 20.00     0.006 C 
HETATM    3  C4  UNL     1     -33.802   6.200   1.173  1.00 20.00     0.011 C 
HETATM    4  C5  UNL     1     -33.150   5.501   3.383  1.00 20.00     0.059 C 
HETATM    5  C6  UNL     1     -32.648   5.526   1.918  1.00 20.00    -0.003 C 
HETATM    6  C7  UNL     1     -33.785   7.438   2.078  1.00 20.00    -0.006 C 
HETATM    7  C8  UNL     1     -33.991   6.811   3.496  1.00 20.00    -0.034 C 
HETATM    8  C9  UNL     1     -35.495   6.581   3.754  1.00 20.00     0.016 C 
HETATM    9  C10 UNL     1     -33.471   7.699   4.639  1.00 20.00     0.016 C 
ENDROOT
BRANCH   4  10
HETATM   10  C1  UNL     1     -33.903   4.235   3.662  1.00 20.00     0.236 C 
HETATM   11  O11 UNL     1     -33.541   3.401   4.487  1.00 20.00    -0.306 OA
ENDBRANCH   4  10
TORSDOF 1
ENDMDL
MODEL 2
REMARK VINA RESULT:       1.6      1.506      3.033
REMARK  1 active torsions:
REMARK  status: ('A' for Active; 'I' for Inactive)
REMARK    1  A    between atoms: C1_1  and  C5_5 
ROOT
HETATM    1  C2  UNL     1     -32.716   9.280   1.239  1.00 20.00     0.006 C 
HETATM    2  C3  UNL     1     -31.800   8.336   0.446  1.00 20.00     0.006 C 
HETATM    3  C4  UNL     1     -31.429   7.969   2.742  1.00 20.00     0.011 C 
HETATM    4  C5  UNL     1     -33.738   7.345   2.462  1.00 20.00     0.059 C 
HETATM    5  C6  UNL     1     -32.823   8.586   2.609  1.00 20.00    -0.003 C 
HETATM    6  C7  UNL     1     -31.553   7.179   1.434  1.00 20.00    -0.006 C 
HETATM    7  C8  UNL     1     -32.843   6.330   1.684  1.00 20.00    -0.034 C 
HETATM    8  C9  UNL     1     -32.486   5.056   2.478  1.00 20.00     0.016 C 
HETATM    9  C10 UNL     1     -33.534   5.872   0.388  1.00 20.00     0.016 C 
ENDROOT
BRANCH   4  10
HETATM   10  C1  UNL     1     -34.212   6.876   3.805  1.00 20.00     0.236 C 
HETATM   11  O11 UNL     1     -35.322   6.390   3.998  1.00 20.00    -0.306 OA
ENDBRANCH   4  10
TORSDOF 1
ENDMDL
MODEL 3
REMARK VINA RESULT:       2.8      2.190      3.630
REMARK  1 active torsions:
REMARK  status: ('A' for Active; 'I' for Inactive)
REMARK    1  A    between atoms: C1_1  and  C5_5 
ROOT
HETATM    1  C2  UNL     1     -33.906   7.605   4.889  1.00 20.00     0.006 C 
HETATM    2  C3  UNL     1     -34.790   6.378   4.618  1.00 20.00     0.006 C 
HETATM    3  C4  UNL     1     -34.865   7.776   2.724  1.00 20.00     0.011 C 
HETATM    4  C5  UNL     1     -32.544   7.142   2.836  1.00 20.00     0.059 C 
HETATM    5  C6  UNL     1     -33.573   8.109   3.473  1.00 20.00    -0.003 C 
HETATM    6  C7  UNL     1     -34.795   6.286   3.079  1.00 20.00    -0.006 C 
HETATM    7  C8  UNL     1     -33.397   5.876   2.508  1.00 20.00    -0.034 C 
HETATM    8  C9  UNL     1     -33.518   5.563   1.001  1.00 20.00     0.016 C 
HETATM    9  C10 UNL     1     -32.804   4.626   3.180  1.00 20.00     0.016 C 
ENDROOT
BRANCH   4  10
HETATM   10  C1  UNL     1     -31.876   7.782   1.656  1.00 20.00     0.236 C 
HETATM   11  O11 UNL     1     -32.162   8.902   1.243  1.00 20.00    -0.306 OA
ENDBRANCH   4  10
TORSDOF 1
ENDMDL
MODEL 4
REMARK VINA RESULT:       3.0      1.191      2.795
REMARK  1 active torsions:
REMARK  status: ('A' for Active; 'I' for Inactive)
REMARK    1  A    between atoms: C1_1  and  C5_5 
ROOT
HETATM    1  C2  UNL     1     -33.858   8.814   2.559  1.00 20.00     0.006 C 
HETATM    2  C3  UNL     1     -32.863   8.757   1.390  1.00 20.00     0.006 C 
HETATM    3  C4  UNL     1     -31.898   7.657   3.235  1.00 20.00     0.011 C 
HETATM    4  C5  UNL     1     -33.841   6.315   2.762  1.00 20.00     0.059 C 
HETATM    5  C6  UNL     1     -33.413   7.637   3.447  1.00 20.00    -0.003 C 
HETATM    6  C7  UNL     1     -32.016   7.510   1.713  1.00 20.00    -0.006 C 
HETATM    7  C8  UNL     1     -32.838   6.186   1.573  1.00 20.00    -0.034 C 
HETATM    8  C9  UNL     1     -31.891   4.970   1.667  1.00 20.00     0.016 C 
HETATM    9  C10 UNL     1     -33.586   6.069   0.235  1.00 20.00     0.016 C 
ENDROOT
BRANCH   4  10
HETATM   10  C1  UNL     1     -33.816   5.180   3.742  1.00 20.00     0.236 C 
HETATM   11  O11 UNL     1     -34.827   4.689   4.233  1.00 20.00    -0.306 OA
ENDBRANCH   4  10
TORSDOF 1
ENDMDL
MODEL 5
REMARK VINA RESULT:       3.0      1.668      3.228
REMARK  1 active torsions:
REMARK  status: ('A' for Active; 'I' for Inactive)
REMARK    1  A    between atoms: C1_1  and  C5_5 
ROOT
HETATM    1  C2  UNL     1     -35.156   6.848   3.389  1.00 20.00     0.006 C 
HETATM    2  C3  UNL     1     -34.495   8.152   3.860  1.00 20.00     0.006 C 
HETATM    3  C4  UNL     1     -32.953   6.396   4.150  1.00 20.00     0.011 C 
HETATM    4  C5  UNL     1     -33.291   6.429   1.766  1.00 20.00     0.059 C 
HETATM    5  C6  UNL     1     -33.949   5.942   3.081  1.00 20.00    -0.003 C 
HETATM    6  C7  UNL     1     -32.990   7.860   3.695  1.00 20.00    -0.006 C 
HETATM    7  C8  UNL     1     -32.572   7.747   2.191  1.00 20.00    -0.034 C 
HETATM    8  C9  UNL     1     -31.033   7.699   2.077  1.00 20.00     0.016 C 
HETATM    9  C10 UNL     1     -33.048   8.932   1.334  1.00 20.00     0.016 C 
ENDROOT
BRANCH   4  10
HETATM   10  C1  UNL     1     -32.394   5.369   1.199  1.00 20.00     0.236 C 
HETATM   11  O11 UNL     1     -32.734   4.606   0.301  1.00 20.00    -0.306 OA
ENDBRANCH   4  10
TORSDOF 1
ENDMDL
MODEL 6
REMARK VINA RESULT:       3.3      1.663      2.761
REMARK  1 active torsions:
REMARK  status: ('A' for Active; 'I' for Inactive)
REMARK    1  A    between atoms: C1_1  and  C5_5 
ROOT
HETATM    1  C2  UNL     1     -32.186   4.709   2.198  1.00 20.00     0.006 C 
HETATM    2  C3  UNL     1     -31.501   5.386   1.001  1.00 20.00     0.006 C 
HETATM    3  C4  UNL     1     -33.767   6.028   1.015  1.00 20.00     0.011 C 
HETATM    4  C5  UNL     1     -32.937   6.929   3.089  1.00 20.00     0.059 C 
HETATM    5  C6  UNL     1     -33.414   5.605   2.443  1.00 20.00    -0.003 C 
HETATM    6  C7  UNL     1     -32.380   6.628   0.753  1.00 20.00    -0.006 C 
HETATM    7  C8  UNL     1     -32.253   7.680   1.904  1.00 20.00    -0.034 C 
HETATM    8  C9  UNL     1     -32.954   8.993   1.493  1.00 20.00     0.016 C 
HETATM    9  C10 UNL     1     -30.798   8.038   2.249  1.00 20.00     0.016 C 
ENDROOT
BRANCH   4  10
HETATM   10  C1  UNL     1     -34.087   7.653   3.722  1.00 20.00     0.236 C 
HETATM   11  O11 UNL     1     -35.078   7.085   4.173  1.00 20.00    -0.306 OA
ENDBRANCH   4  10
TORSDOF 1
ENDMDL
