MODEL 1
REMARK VINA RESULT:      -1.2      0.000      0.000
REMARK  2 active torsions:
REMARK  status: ('A' for Active; 'I' for Inactive)
REMARK    1  A    between atoms: C1_1  and  C6_6 
REMARK    2  A    between atoms: C7_7  and  N8_8 
ROOT
HETATM    1  C3  UNL     1     -33.926   7.499   4.671  1.00 20.00     0.039 C 
HETATM    2  C4  UNL     1     -35.822   6.730   3.212  1.00 20.00     0.039 C 
HETATM    3  C5  UNL     1     -34.208   5.051   4.158  1.00 20.00     0.039 C 
HETATM    4  C7  UNL     1     -34.374   6.476   3.628  1.00 20.00     0.042 C 
ENDROOT
BRANCH   4   5
HETATM    5  N8  UNL     1     -33.529   6.630   2.436  1.00 20.00    -0.296 NA
HETATM    6  C1  UNL     1     -32.761   7.657   2.507  1.00 20.00     0.084 C 
BRANCH   6   7
HETATM    7  C6  UNL     1     -31.826   7.984   1.377  1.00 20.00     0.042 C 
HETATM    8  C2  UNL     1     -32.265   9.267   0.699  1.00 20.00     0.010 C 
ENDBRANCH   6   7
ENDBRANCH   4   5
TORSDOF 2
ENDMDL
MODEL 2
REMARK VINA RESULT:      -1.2      0.043      1.540
REMARK  2 active torsions:
REMARK  status: ('A' for Active; 'I' for Inactive)
REMARK    1  A    between atoms: C1_1  and  C6_6 
REMARK    2  A    between atoms: C7_7  and  N8_8 
ROOT
HETATM    1  C3  UNL     1     -34.241   5.073   4.180  1.00 20.00     0.039 C 
HETATM    2  C4  UNL     1     -33.958   7.520   4.682  1.00 20.00     0.039 C 
HETATM    3  C5  UNL     1     -35.830   6.755   3.190  1.00 20.00     0.039 C 
HETATM    4  C7  UNL     1     -34.392   6.493   3.636  1.00 20.00     0.042 C 
ENDROOT
BRANCH   4   5
HETATM    5  N8  UNL     1     -33.510   6.638   2.470  1.00 20.00    -0.296 NA
HETATM    6  C1  UNL     1     -32.771   7.687   2.541  1.00 20.00     0.084 C 
BRANCH   6   7
HETATM    7  C6  UNL     1     -31.806   8.010   1.435  1.00 20.00     0.042 C 
HETATM    8  C2  UNL     1     -32.279   9.237   0.680  1.00 20.00     0.010 C 
ENDBRANCH   6   7
ENDBRANCH   4   5
TORSDOF 2
ENDMDL
MODEL 3
REMARK VINA RESULT:      -1.2      0.023      1.540
REMARK  2 active torsions:
REMARK  status: ('A' for Active; 'I' for Inactive)
REMARK    1  A    between atoms: C1_1  and  C6_6 
REMARK    2  A    between atoms: C7_7  and  N8_8 
ROOT
HETATM    1  C3  UNL     1     -35.836   6.749   3.202  1.00 20.00     0.039 C 
HETATM    2  C4  UNL     1     -34.226   5.071   4.156  1.00 20.00     0.039 C 
HETATM    3  C5  UNL     1     -33.946   7.513   4.678  1.00 20.00     0.039 C 
HETATM    4  C7  UNL     1     -34.391   6.495   3.627  1.00 20.00     0.042 C 
ENDROOT
BRANCH   4   5
HETATM    5  N8  UNL     1     -33.528   6.641   2.446  1.00 20.00    -0.296 NA
HETATM    6  C1  UNL     1     -32.774   7.678   2.514  1.00 20.00     0.084 C 
BRANCH   6   7
HETATM    7  C6  UNL     1     -31.825   7.999   1.395  1.00 20.00     0.042 C 
HETATM    8  C2  UNL     1     -32.270   9.264   0.687  1.00 20.00     0.010 C 
ENDBRANCH   6   7
ENDBRANCH   4   5
TORSDOF 2
ENDMDL
MODEL 4
REMARK VINA RESULT:      -0.9      1.090      4.055
REMARK  2 active torsions:
REMARK  status: ('A' for Active; 'I' for Inactive)
REMARK    1  A    between atoms: C1_1  and  C6_6 
REMARK    2  A    between atoms: C7_7  and  N8_8 
ROOT
HETATM    1  C3  UNL     1     -31.088   8.386   2.902  1.00 20.00     0.039 C 
HETATM    2  C4  UNL     1     -31.985   6.558   1.429  1.00 20.00     0.039 C 
HETATM    3  C5  UNL     1     -32.418   8.964   0.845  1.00 20.00     0.039 C 
HETATM    4  C7  UNL     1     -32.232   7.960   1.984  1.00 20.00     0.042 C 
ENDROOT
BRANCH   4   5
HETATM    5  N8  UNL     1     -33.471   7.920   2.774  1.00 20.00    -0.296 NA
HETATM    6  C1  UNL     1     -33.751   6.737   3.186  1.00 20.00     0.084 C 
BRANCH   6   7
HETATM    7  C6  UNL     1     -34.987   6.494   4.007  1.00 20.00     0.042 C 
HETATM    8  C2  UNL     1     -35.067   5.031   4.398  1.00 20.00     0.010 C 
ENDBRANCH   6   7
ENDBRANCH   4   5
TORSDOF 2
ENDMDL
MODEL 5
REMARK VINA RESULT:      -0.9      1.076      4.051
REMARK  2 active torsions:
REMARK  status: ('A' for Active; 'I' for Inactive)
REMARK    1  A    between atoms: C1_1  and  C6_6 
REMARK    2  A    between atoms: C7_7  and  N8_8 
ROOT
HETATM    1  C3  UNL     1     -32.415   9.003   0.817  1.00 20.00     0.039 C 
HETATM    2  C4  UNL     1     -31.097   8.377   2.864  1.00 20.00     0.039 C 
HETATM    3  C5  UNL     1     -31.999   6.580   1.356  1.00 20.00     0.039 C 
HETATM    4  C7  UNL     1     -32.241   7.975   1.933  1.00 20.00     0.042 C 
ENDROOT
BRANCH   4   5
HETATM    5  N8  UNL     1     -33.477   7.940   2.728  1.00 20.00    -0.296 NA
HETATM    6  C1  UNL     1     -33.746   6.763   3.166  1.00 20.00     0.084 C 
BRANCH   6   7
HETATM    7  C6  UNL     1     -34.977   6.527   3.995  1.00 20.00     0.042 C 
HETATM    8  C2  UNL     1     -35.066   5.062   4.379  1.00 20.00     0.010 C 
ENDBRANCH   6   7
ENDBRANCH   4   5
TORSDOF 2
ENDMDL
MODEL 6
REMARK VINA RESULT:      -0.9      1.095      4.061
REMARK  2 active torsions:
REMARK  status: ('A' for Active; 'I' for Inactive)
REMARK    1  A    between atoms: C1_1  and  C6_6 
REMARK    2  A    between atoms: C7_7  and  N8_8 
ROOT
HETATM    1  C3  UNL     1     -31.983   6.563   1.429  1.00 20.00     0.039 C 
HETATM    2  C4  UNL     1     -32.429   8.962   0.827  1.00 20.00     0.039 C 
HETATM    3  C5  UNL     1     -31.102   8.415   2.889  1.00 20.00     0.039 C 
HETATM    4  C7  UNL     1     -32.241   7.968   1.972  1.00 20.00     0.042 C 
ENDROOT
BRANCH   4   5
HETATM    5  N8  UNL     1     -33.484   7.942   2.755  1.00 20.00    -0.296 NA
HETATM    6  C1  UNL     1     -33.768   6.766   3.186  1.00 20.00     0.084 C 
BRANCH   6   7
HETATM    7  C6  UNL     1     -35.009   6.538   4.002  1.00 20.00     0.042 C 
HETATM    8  C2  UNL     1     -35.103   5.077   4.401  1.00 20.00     0.010 C 
ENDBRANCH   6   7
ENDBRANCH   4   5
TORSDOF 2
ENDMDL
MODEL 7
REMARK VINA RESULT:      -0.5      1.901      4.064
REMARK  2 active torsions:
REMARK  status: ('A' for Active; 'I' for Inactive)
REMARK    1  A    between atoms: C1_1  and  C6_6 
REMARK    2  A    between atoms: C7_7  and  N8_8 
ROOT
HETATM    1  C3  UNL     1     -33.911   7.679   4.413  1.00 20.00     0.039 C 
HETATM    2  C4  UNL     1     -33.499   6.329   2.334  1.00 20.00     0.039 C 
HETATM    3  C5  UNL     1     -35.839   6.592   3.214  1.00 20.00     0.039 C 
HETATM    4  C7  UNL     1     -34.361   6.475   3.588  1.00 20.00     0.042 C 
ENDROOT
BRANCH   4   5
HETATM    5  N8  UNL     1     -34.182   5.263   4.400  1.00 20.00    -0.296 NA
HETATM    6  C1  UNL     1     -33.758   4.267   3.709  1.00 20.00     0.084 C 
BRANCH   6   7
HETATM    7  C6  UNL     1     -33.521   2.936   4.365  1.00 20.00     0.042 C 
HETATM    8  C2  UNL     1     -32.732   3.126   5.647  1.00 20.00     0.010 C 
ENDBRANCH   6   7
ENDBRANCH   4   5
TORSDOF 2
ENDMDL
MODEL 8
REMARK VINA RESULT:      -0.5      1.898      4.155
REMARK  2 active torsions:
REMARK  status: ('A' for Active; 'I' for Inactive)
REMARK    1  A    between atoms: C1_1  and  C6_6 
REMARK    2  A    between atoms: C7_7  and  N8_8 
ROOT
HETATM    1  C3  UNL     1     -35.821   6.516   3.349  1.00 20.00     0.039 C 
HETATM    2  C4  UNL     1     -33.861   7.690   4.397  1.00 20.00     0.039 C 
HETATM    3  C5  UNL     1     -33.540   6.346   2.297  1.00 20.00     0.039 C 
HETATM    4  C7  UNL     1     -34.316   6.462   3.610  1.00 20.00     0.042 C 
ENDROOT
BRANCH   4   5
HETATM    5  N8  UNL     1     -34.030   5.273   4.425  1.00 20.00    -0.296 NA
HETATM    6  C1  UNL     1     -33.837   4.223   3.710  1.00 20.00     0.084 C 
BRANCH   6   7
HETATM    7  C6  UNL     1     -33.537   2.905   4.367  1.00 20.00     0.042 C 
HETATM    8  C2  UNL     1     -32.692   3.127   5.606  1.00 20.00     0.010 C 
ENDBRANCH   6   7
ENDBRANCH   4   5
TORSDOF 2
ENDMDL
MODEL 9
REMARK VINA RESULT:      -0.3      1.741      3.914
REMARK  2 active torsions:
REMARK  status: ('A' for Active; 'I' for Inactive)
REMARK    1  A    between atoms: C1_1  and  C6_6 
REMARK    2  A    between atoms: C7_7  and  N8_8 
ROOT
HETATM    1  C3  UNL     1     -31.549   5.053   1.343  1.00 20.00     0.039 C 
HETATM    2  C4  UNL     1     -33.520   6.107   0.195  1.00 20.00     0.039 C 
HETATM    3  C5  UNL     1     -31.964   7.525   1.569  1.00 20.00     0.039 C 
HETATM    4  C7  UNL     1     -32.612   6.147   1.423  1.00 20.00     0.042 C 
ENDROOT
BRANCH   4   5
HETATM    5  N8  UNL     1     -33.444   5.898   2.608  1.00 20.00    -0.296 NA
HETATM    6  C1  UNL     1     -33.908   6.982   3.118  1.00 20.00     0.084 C 
BRANCH   6   7
HETATM    7  C6  UNL     1     -34.778   6.931   4.343  1.00 20.00     0.042 C 
HETATM    8  C2  UNL     1     -35.436   5.569   4.451  1.00 20.00     0.010 C 
ENDBRANCH   6   7
ENDBRANCH   4   5
TORSDOF 2
ENDMDL
