MODEL 1
REMARK VINA RESULT:       3.1      0.000      0.000
REMARK  0 active torsions:
REMARK  status: ('A' for Active; 'I' for Inactive)
ROOT
HETATM    1  C1  UNL     1     -32.306   9.816   0.230  1.00 20.00     0.015 C 
HETATM    2  C2  UNL     1     -32.343   8.906   1.014  1.00 20.00    -0.071 C 
HETATM    3  C3  UNL     1     -34.175   6.447   0.838  1.00 20.00     0.039 C 
HETATM    4  C4  UNL     1     -33.755   6.168   3.258  1.00 20.00     0.039 C 
HETATM    5  C5  UNL     1     -33.137   5.341   0.587  1.00 20.00     0.273 C 
HETATM    6  C6  UNL     1     -32.676   5.120   2.938  1.00 20.00     0.273 C 
HETATM    7  C7  UNL     1     -31.404   6.671   1.598  1.00 20.00     0.329 C 
HETATM    8  C8  UNL     1     -33.805   7.207   2.123  1.00 20.00     0.043 C 
HETATM    9  C9  UNL     1     -32.388   7.795   1.973  1.00 20.00     0.195 C 
HETATM   10  N10 UNL     1     -32.068   5.343   1.609  1.00 20.00     0.092 N 
HETATM   11  F11 UNL     1     -32.011   8.309   3.179  1.00 20.00    -0.227 F 
ENDROOT
TORSDOF 0
ENDMDL
MODEL 2
REMARK VINA RESULT:       4.2      1.510      2.327
REMARK  0 active torsions:
REMARK  status: ('A' for Active; 'I' for Inactive)
ROOT
HETATM    1  C1  UNL     1     -32.892  10.997   0.633  1.00 20.00     0.015 C 
HETATM    2  C2  UNL     1     -32.520   9.856   0.689  1.00 20.00    -0.071 C 
HETATM    3  C3  UNL     1     -32.764   7.998   3.124  1.00 20.00     0.039 C 
HETATM    4  C4  UNL     1     -30.973   6.658   2.071  1.00 20.00     0.039 C 
HETATM    5  C5  UNL     1     -33.773   6.967   2.591  1.00 20.00     0.273 C 
HETATM    6  C6  UNL     1     -32.037   5.703   1.506  1.00 20.00     0.273 C 
HETATM    7  C7  UNL     1     -33.163   7.475   0.318  1.00 20.00     0.329 C 
HETATM    8  C8  UNL     1     -31.564   8.077   2.164  1.00 20.00     0.043 C 
HETATM    9  C9  UNL     1     -32.065   8.461   0.758  1.00 20.00     0.195 C 
HETATM   10  N10 UNL     1     -33.336   6.380   1.305  1.00 20.00     0.092 N 
HETATM   11  F11 UNL     1     -31.018   8.353  -0.110  1.00 20.00    -0.227 F 
ENDROOT
TORSDOF 0
ENDMDL
MODEL 3
REMARK VINA RESULT:       4.2      1.575      2.918
REMARK  0 active torsions:
REMARK  status: ('A' for Active; 'I' for Inactive)
ROOT
HETATM    1  C1  UNL     1     -33.491   8.225   5.188  1.00 20.00     0.015 C 
HETATM    2  C2  UNL     1     -33.691   7.556   4.211  1.00 20.00    -0.071 C 
HETATM    3  C3  UNL     1     -31.944   7.489   1.685  1.00 20.00     0.039 C 
HETATM    4  C4  UNL     1     -33.930   6.566   0.538  1.00 20.00     0.039 C 
HETATM    5  C5  UNL     1     -31.392   6.056   1.763  1.00 20.00     0.273 C 
HETATM    6  C6  UNL     1     -33.357   5.150   0.712  1.00 20.00     0.273 C 
HETATM    7  C7  UNL     1     -33.259   5.359   3.113  1.00 20.00     0.329 C 
HETATM    8  C8  UNL     1     -33.481   7.443   1.721  1.00 20.00     0.043 C 
HETATM    9  C9  UNL     1     -33.936   6.740   3.015  1.00 20.00     0.195 C 
HETATM   10  N10 UNL     1     -32.472   5.053   1.893  1.00 20.00     0.092 N 
HETATM   11  F11 UNL     1     -35.285   6.552   2.945  1.00 20.00    -0.227 F 
ENDROOT
TORSDOF 0
ENDMDL
MODEL 4
REMARK VINA RESULT:       4.3      1.742      3.628
REMARK  0 active torsions:
REMARK  status: ('A' for Active; 'I' for Inactive)
ROOT
HETATM    1  C1  UNL     1     -33.803   4.386   3.758  1.00 20.00     0.015 C 
HETATM    2  C2  UNL     1     -33.499   5.222   2.950  1.00 20.00    -0.071 C 
HETATM    3  C3  UNL     1     -32.906   8.177   3.551  1.00 20.00     0.039 C 
HETATM    4  C4  UNL     1     -33.361   8.582   1.155  1.00 20.00     0.039 C 
HETATM    5  C5  UNL     1     -31.406   8.234   3.219  1.00 20.00     0.273 C 
HETATM    6  C6  UNL     1     -31.849   8.557   0.876  1.00 20.00     0.273 C 
HETATM    7  C7  UNL     1     -31.605   6.327   1.764  1.00 20.00     0.329 C 
HETATM    8  C8  UNL     1     -33.675   7.639   2.331  1.00 20.00     0.043 C 
HETATM    9  C9  UNL     1     -33.130   6.245   1.963  1.00 20.00     0.195 C 
HETATM   10  N10 UNL     1     -31.120   7.727   1.859  1.00 20.00     0.092 N 
HETATM   11  F11 UNL     1     -33.697   5.865   0.782  1.00 20.00    -0.227 F 
ENDROOT
TORSDOF 0
ENDMDL
MODEL 5
REMARK VINA RESULT:       4.4      2.043      3.014
REMARK  0 active torsions:
REMARK  status: ('A' for Active; 'I' for Inactive)
ROOT
HETATM    1  C1  UNL     1     -31.766   8.385   1.044  1.00 20.00     0.015 C 
HETATM    2  C2  UNL     1     -32.432   7.526   1.554  1.00 20.00    -0.071 C 
HETATM    3  C3  UNL     1     -33.148   7.331   4.536  1.00 20.00     0.039 C 
HETATM    4  C4  UNL     1     -33.604   4.941   4.099  1.00 20.00     0.039 C 
HETATM    5  C5  UNL     1     -34.665   7.574   4.477  1.00 20.00     0.273 C 
HETATM    6  C6  UNL     1     -35.103   5.260   3.980  1.00 20.00     0.273 C 
HETATM    7  C7  UNL     1     -34.743   6.834   2.187  1.00 20.00     0.329 C 
HETATM    8  C8  UNL     1     -32.787   6.152   3.614  1.00 20.00     0.043 C 
HETATM    9  C9  UNL     1     -33.245   6.474   2.179  1.00 20.00     0.195 C 
HETATM   10  N10 UNL     1     -35.337   6.652   3.535  1.00 20.00     0.092 N 
HETATM   11  F11 UNL     1     -33.078   5.354   1.418  1.00 20.00    -0.227 F 
ENDROOT
TORSDOF 0
ENDMDL
MODEL 6
REMARK VINA RESULT:       4.5      1.604      3.245
REMARK  0 active torsions:
REMARK  status: ('A' for Active; 'I' for Inactive)
ROOT
HETATM    1  C1  UNL     1     -35.389   6.119   4.114  1.00 20.00     0.015 C 
HETATM    2  C2  UNL     1     -34.430   6.717   3.708  1.00 20.00    -0.071 C 
HETATM    3  C3  UNL     1     -32.924   6.146   1.091  1.00 20.00     0.039 C 
HETATM    4  C4  UNL     1     -31.033   7.371   2.107  1.00 20.00     0.039 C 
HETATM    5  C5  UNL     1     -33.251   7.420   0.296  1.00 20.00     0.273 C 
HETATM    6  C6  UNL     1     -31.454   8.634   1.338  1.00 20.00     0.273 C 
HETATM    7  C7  UNL     1     -33.653   8.644   2.329  1.00 20.00     0.329 C 
HETATM    8  C8  UNL     1     -32.285   6.536   2.434  1.00 20.00     0.043 C 
HETATM    9  C9  UNL     1     -33.256   7.446   3.212  1.00 20.00     0.195 C 
HETATM   10  N10 UNL     1     -32.904   8.646   1.048  1.00 20.00     0.092 N 
HETATM   11  F11 UNL     1     -32.604   7.922   4.312  1.00 20.00    -0.227 F 
ENDROOT
TORSDOF 0
ENDMDL
MODEL 7
REMARK VINA RESULT:       4.8      2.055      3.946
REMARK  0 active torsions:
REMARK  status: ('A' for Active; 'I' for Inactive)
ROOT
HETATM    1  C1  UNL     1     -33.847   4.042   4.429  1.00 20.00     0.015 C 
HETATM    2  C2  UNL     1     -33.974   5.071   3.823  1.00 20.00    -0.071 C 
HETATM    3  C3  UNL     1     -32.690   7.765   4.555  1.00 20.00     0.039 C 
HETATM    4  C4  UNL     1     -34.441   8.793   3.145  1.00 20.00     0.039 C 
HETATM    5  C5  UNL     1     -31.717   7.941   3.378  1.00 20.00     0.273 C 
HETATM    6  C6  UNL     1     -33.440   8.876   1.982  1.00 20.00     0.273 C 
HETATM    7  C7  UNL     1     -33.054   6.494   1.994  1.00 20.00     0.329 C 
HETATM    8  C8  UNL     1     -34.114   7.561   4.009  1.00 20.00     0.043 C 
HETATM    9  C9  UNL     1     -34.130   6.330   3.083  1.00 20.00     0.195 C 
HETATM   10  N10 UNL     1     -32.402   7.825   2.072  1.00 20.00     0.092 N 
HETATM   11  F11 UNL     1     -35.350   6.272   2.474  1.00 20.00    -0.227 F 
ENDROOT
TORSDOF 0
ENDMDL
MODEL 8
REMARK VINA RESULT:       5.4      1.488      3.479
REMARK  0 active torsions:
REMARK  status: ('A' for Active; 'I' for Inactive)
ROOT
HETATM    1  C1  UNL     1     -35.362   4.990   4.646  1.00 20.00     0.015 C 
HETATM    2  C2  UNL     1     -34.788   5.843   4.025  1.00 20.00    -0.071 C 
HETATM    3  C3  UNL     1     -32.150   5.490   2.490  1.00 20.00     0.039 C 
HETATM    4  C4  UNL     1     -31.934   7.949   2.630  1.00 20.00     0.039 C 
HETATM    5  C5  UNL     1     -32.641   5.672   1.044  1.00 20.00     0.273 C 
HETATM    6  C6  UNL     1     -32.498   8.068   1.205  1.00 20.00     0.273 C 
HETATM    7  C7  UNL     1     -34.545   6.937   1.798  1.00 20.00     0.329 C 
HETATM    8  C8  UNL     1     -32.555   6.721   3.320  1.00 20.00     0.043 C 
HETATM    9  C9  UNL     1     -34.086   6.886   3.267  1.00 20.00     0.195 C 
HETATM   10  N10 UNL     1     -33.388   6.936   0.868  1.00 20.00     0.092 N 
HETATM   11  F11 UNL     1     -34.406   8.074   3.857  1.00 20.00    -0.227 F 
ENDROOT
TORSDOF 0
ENDMDL
MODEL 9
REMARK VINA RESULT:       5.6      1.847      2.495
REMARK  0 active torsions:
REMARK  status: ('A' for Active; 'I' for Inactive)
ROOT
HETATM    1  C1  UNL     1     -31.372   8.392   1.851  1.00 20.00     0.015 C 
HETATM    2  C2  UNL     1     -32.372   8.046   2.419  1.00 20.00    -0.071 C 
HETATM    3  C3  UNL     1     -33.777   5.331   2.107  1.00 20.00     0.039 C 
HETATM    4  C4  UNL     1     -35.783   6.453   3.015  1.00 20.00     0.039 C 
HETATM    5  C5  UNL     1     -33.546   4.734   3.505  1.00 20.00     0.273 C 
HETATM    6  C6  UNL     1     -35.459   5.883   4.405  1.00 20.00     0.273 C 
HETATM    7  C7  UNL     1     -33.286   6.930   4.454  1.00 20.00     0.329 C 
HETATM    8  C8  UNL     1     -34.471   6.697   2.248  1.00 20.00     0.043 C 
HETATM    9  C9  UNL     1     -33.595   7.623   3.114  1.00 20.00     0.195 C 
HETATM   10  N10 UNL     1     -34.010   5.641   4.577  1.00 20.00     0.092 N 
HETATM   11  F11 UNL     1     -34.305   8.760   3.372  1.00 20.00    -0.227 F 
ENDROOT
TORSDOF 0
ENDMDL
