MODEL 1
REMARK VINA RESULT:      -1.5      0.000      0.000
REMARK  3 active torsions:
REMARK  status: ('A' for Active; 'I' for Inactive)
REMARK    1  A    between atoms: C1_1  and  C7_7 
REMARK    2  A    between atoms: C6_6  and  C7_7 
REMARK    3  A    between atoms: C6_6  and  C8_8 
ROOT
HETATM    1  C6  UNL     1     -33.257   5.856   3.000  1.00 20.00     0.019 C 
ENDROOT
BRANCH   1   2
HETATM    2  C7  UNL     1     -34.440   6.717   3.480  1.00 20.00     0.043 C 
HETATM    3  C2  UNL     1     -33.956   7.792   4.454  1.00 20.00     0.017 C 
BRANCH   2   4
HETATM    4  C1  UNL     1     -35.461   5.879   4.219  1.00 20.00     0.235 C 
HETATM    5  O9  UNL     1     -35.262   4.714   4.550  1.00 20.00    -0.306 OA
ENDBRANCH   2   4
ENDBRANCH   1   2
BRANCH   1   6
HETATM    6  C8  UNL     1     -32.695   6.153   1.578  1.00 20.00    -0.051 C 
HETATM    7  C3  UNL     1     -33.786   6.107   0.499  1.00 20.00     0.014 C 
HETATM    8  C4  UNL     1     -32.000   7.526   1.536  1.00 20.00     0.014 C 
HETATM    9  C5  UNL     1     -31.643   5.072   1.250  1.00 20.00     0.014 C 
ENDBRANCH   1   6
TORSDOF 3
ENDMDL
MODEL 2
REMARK VINA RESULT:      -1.5      0.048      1.449
REMARK  3 active torsions:
REMARK  status: ('A' for Active; 'I' for Inactive)
REMARK    1  A    between atoms: C1_1  and  C7_7 
REMARK    2  A    between atoms: C6_6  and  C7_7 
REMARK    3  A    between atoms: C6_6  and  C8_8 
ROOT
HETATM    1  C6  UNL     1     -33.272   5.838   2.997  1.00 20.00     0.019 C 
ENDROOT
BRANCH   1   2
HETATM    2  C7  UNL     1     -34.432   6.731   3.474  1.00 20.00     0.043 C 
HETATM    3  C2  UNL     1     -33.925   7.784   4.460  1.00 20.00     0.017 C 
BRANCH   2   4
HETATM    4  C1  UNL     1     -35.485   5.918   4.198  1.00 20.00     0.235 C 
HETATM    5  O9  UNL     1     -35.307   4.760   4.562  1.00 20.00    -0.306 OA
ENDBRANCH   2   4
ENDBRANCH   1   2
BRANCH   1   6
HETATM    6  C8  UNL     1     -32.668   6.150   1.596  1.00 20.00    -0.051 C 
HETATM    7  C3  UNL     1     -32.000   7.532   1.544  1.00 20.00     0.014 C 
HETATM    8  C4  UNL     1     -31.641   5.078   1.187  1.00 20.00     0.014 C 
HETATM    9  C5  UNL     1     -33.819   6.130   0.569  1.00 20.00     0.014 C 
ENDBRANCH   1   6
TORSDOF 3
ENDMDL
MODEL 3
REMARK VINA RESULT:      -1.4      0.051      1.439
REMARK  3 active torsions:
REMARK  status: ('A' for Active; 'I' for Inactive)
REMARK    1  A    between atoms: C1_1  and  C7_7 
REMARK    2  A    between atoms: C6_6  and  C7_7 
REMARK    3  A    between atoms: C6_6  and  C8_8 
ROOT
HETATM    1  C6  UNL     1     -33.245   5.846   3.006  1.00 20.00     0.019 C 
ENDROOT
BRANCH   1   2
HETATM    2  C7  UNL     1     -34.411   6.739   3.470  1.00 20.00     0.043 C 
HETATM    3  C2  UNL     1     -33.910   7.808   4.443  1.00 20.00     0.017 C 
BRANCH   2   4
HETATM    4  C1  UNL     1     -35.460   5.930   4.202  1.00 20.00     0.235 C 
HETATM    5  O9  UNL     1     -35.293   4.763   4.543  1.00 20.00    -0.306 OA
ENDBRANCH   2   4
ENDBRANCH   1   2
BRANCH   1   6
HETATM    6  C8  UNL     1     -32.679   6.103   1.579  1.00 20.00    -0.051 C 
HETATM    7  C3  UNL     1     -31.621   5.066   1.176  1.00 20.00     0.014 C 
HETATM    8  C4  UNL     1     -33.806   6.109   0.531  1.00 20.00     0.014 C 
HETATM    9  C5  UNL     1     -32.014   7.496   1.578  1.00 20.00     0.014 C 
ENDBRANCH   1   6
TORSDOF 3
ENDMDL
MODEL 4
REMARK VINA RESULT:      -1.0      2.052      4.080
REMARK  3 active torsions:
REMARK  status: ('A' for Active; 'I' for Inactive)
REMARK    1  A    between atoms: C1_1  and  C7_7 
REMARK    2  A    between atoms: C6_6  and  C7_7 
REMARK    3  A    between atoms: C6_6  and  C8_8 
ROOT
HETATM    1  C6  UNL     1     -33.346   5.755   3.031  1.00 20.00     0.019 C 
ENDROOT
BRANCH   1   2
HETATM    2  C7  UNL     1     -32.930   6.323   1.661  1.00 20.00     0.043 C 
HETATM    3  C2  UNL     1     -32.180   5.266   0.850  1.00 20.00     0.017 C 
BRANCH   2   4
HETATM    4  C1  UNL     1     -31.996   7.504   1.820  1.00 20.00     0.235 C 
HETATM    5  O9  UNL     1     -32.249   8.624   1.386  1.00 20.00    -0.306 OA
ENDBRANCH   2   4
ENDBRANCH   1   2
BRANCH   1   6
HETATM    6  C8  UNL     1     -34.543   6.443   3.750  1.00 20.00    -0.051 C 
HETATM    7  C3  UNL     1     -34.091   7.585   4.672  1.00 20.00     0.014 C 
HETATM    8  C4  UNL     1     -35.560   6.989   2.732  1.00 20.00     0.014 C 
HETATM    9  C5  UNL     1     -35.251   5.377   4.614  1.00 20.00     0.014 C 
ENDBRANCH   1   6
TORSDOF 3
ENDMDL
MODEL 5
REMARK VINA RESULT:      -0.9      2.056      4.028
REMARK  3 active torsions:
REMARK  status: ('A' for Active; 'I' for Inactive)
REMARK    1  A    between atoms: C1_1  and  C7_7 
REMARK    2  A    between atoms: C6_6  and  C7_7 
REMARK    3  A    between atoms: C6_6  and  C8_8 
ROOT
HETATM    1  C6  UNL     1     -33.314   5.772   3.061  1.00 20.00     0.019 C 
ENDROOT
BRANCH   1   2
HETATM    2  C7  UNL     1     -32.941   6.324   1.673  1.00 20.00     0.043 C 
HETATM    3  C2  UNL     1     -32.245   5.248   0.839  1.00 20.00     0.017 C 
BRANCH   2   4
HETATM    4  C1  UNL     1     -31.978   7.486   1.788  1.00 20.00     0.235 C 
HETATM    5  O9  UNL     1     -32.234   8.615   1.379  1.00 20.00    -0.306 OA
ENDBRANCH   2   4
ENDBRANCH   1   2
BRANCH   1   6
HETATM    6  C8  UNL     1     -34.537   6.417   3.776  1.00 20.00    -0.051 C 
HETATM    7  C3  UNL     1     -35.313   5.405   4.632  1.00 20.00     0.014 C 
HETATM    8  C4  UNL     1     -34.099   7.597   4.663  1.00 20.00     0.014 C 
HETATM    9  C5  UNL     1     -35.488   6.961   2.689  1.00 20.00     0.014 C 
ENDBRANCH   1   6
TORSDOF 3
ENDMDL
MODEL 6
REMARK VINA RESULT:      -0.9      2.032      4.056
REMARK  3 active torsions:
REMARK  status: ('A' for Active; 'I' for Inactive)
REMARK    1  A    between atoms: C1_1  and  C7_7 
REMARK    2  A    between atoms: C6_6  and  C7_7 
REMARK    3  A    between atoms: C6_6  and  C8_8 
ROOT
HETATM    1  C6  UNL     1     -33.359   5.807   3.080  1.00 20.00     0.019 C 
ENDROOT
BRANCH   1   2
HETATM    2  C7  UNL     1     -32.935   6.338   1.698  1.00 20.00     0.043 C 
HETATM    3  C2  UNL     1     -32.150   5.270   0.934  1.00 20.00     0.017 C 
BRANCH   2   4
HETATM    4  C1  UNL     1     -32.029   7.544   1.830  1.00 20.00     0.235 C 
HETATM    5  O9  UNL     1     -32.354   8.671   1.469  1.00 20.00    -0.306 OA
ENDBRANCH   2   4
ENDBRANCH   1   2
BRANCH   1   6
HETATM    6  C8  UNL     1     -34.647   6.415   3.708  1.00 20.00    -0.051 C 
HETATM    7  C3  UNL     1     -35.648   6.888   2.643  1.00 20.00     0.014 C 
HETATM    8  C4  UNL     1     -35.340   5.401   4.637  1.00 20.00     0.014 C 
HETATM    9  C5  UNL     1     -34.230   7.636   4.555  1.00 20.00     0.014 C 
ENDBRANCH   1   6
TORSDOF 3
ENDMDL
MODEL 7
REMARK VINA RESULT:      -0.7      1.104      1.916
REMARK  3 active torsions:
REMARK  status: ('A' for Active; 'I' for Inactive)
REMARK    1  A    between atoms: C1_1  and  C7_7 
REMARK    2  A    between atoms: C6_6  and  C7_7 
REMARK    3  A    between atoms: C6_6  and  C8_8 
ROOT
HETATM    1  C6  UNL     1     -33.161   6.267   3.190  1.00 20.00     0.019 C 
ENDROOT
BRANCH   1   2
HETATM    2  C7  UNL     1     -34.490   5.526   3.430  1.00 20.00     0.043 C 
HETATM    3  C2  UNL     1     -35.535   6.479   4.012  1.00 20.00     0.017 C 
BRANCH   2   4
HETATM    4  C1  UNL     1     -34.314   4.399   4.426  1.00 20.00     0.235 C 
HETATM    5  O9  UNL     1     -33.759   3.339   4.152  1.00 20.00    -0.306 OA
ENDBRANCH   2   4
ENDBRANCH   1   2
BRANCH   1   6
HETATM    6  C8  UNL     1     -32.636   6.324   1.726  1.00 20.00    -0.051 C 
HETATM    7  C3  UNL     1     -31.603   5.225   1.434  1.00 20.00     0.014 C 
HETATM    8  C4  UNL     1     -33.794   6.209   0.718  1.00 20.00     0.014 C 
HETATM    9  C5  UNL     1     -31.955   7.694   1.521  1.00 20.00     0.014 C 
ENDBRANCH   1   6
TORSDOF 3
ENDMDL
MODEL 8
REMARK VINA RESULT:      -0.6      1.127      1.932
REMARK  3 active torsions:
REMARK  status: ('A' for Active; 'I' for Inactive)
REMARK    1  A    between atoms: C1_1  and  C7_7 
REMARK    2  A    between atoms: C6_6  and  C7_7 
REMARK    3  A    between atoms: C6_6  and  C8_8 
ROOT
HETATM    1  C6  UNL     1     -33.166   6.334   3.212  1.00 20.00     0.019 C 
ENDROOT
BRANCH   1   2
HETATM    2  C7  UNL     1     -34.464   5.533   3.423  1.00 20.00     0.043 C 
HETATM    3  C2  UNL     1     -35.552   6.426   4.021  1.00 20.00     0.017 C 
BRANCH   2   4
HETATM    4  C1  UNL     1     -34.249   4.389   4.391  1.00 20.00     0.235 C 
HETATM    5  O9  UNL     1     -33.594   3.388   4.114  1.00 20.00    -0.306 OA
ENDBRANCH   2   4
ENDBRANCH   1   2
BRANCH   1   6
HETATM    6  C8  UNL     1     -32.605   6.407   1.762  1.00 20.00    -0.051 C 
HETATM    7  C3  UNL     1     -31.903   7.743   1.475  1.00 20.00     0.014 C 
HETATM    8  C4  UNL     1     -31.624   5.253   1.491  1.00 20.00     0.014 C 
HETATM    9  C5  UNL     1     -33.794   6.267   0.787  1.00 20.00     0.014 C 
ENDBRANCH   1   6
TORSDOF 3
ENDMDL
MODEL 9
REMARK VINA RESULT:      -0.5      1.843      3.768
REMARK  3 active torsions:
REMARK  status: ('A' for Active; 'I' for Inactive)
REMARK    1  A    between atoms: C1_1  and  C7_7 
REMARK    2  A    between atoms: C6_6  and  C7_7 
REMARK    3  A    between atoms: C6_6  and  C8_8 
ROOT
HETATM    1  C6  UNL     1     -33.830   6.824   2.193  1.00 20.00     0.019 C 
ENDROOT
BRANCH   1   2
HETATM    2  C7  UNL     1     -32.297   6.818   2.042  1.00 20.00     0.043 C 
HETATM    3  C2  UNL     1     -31.820   8.119   1.396  1.00 20.00     0.017 C 
BRANCH   2   4
HETATM    4  C1  UNL     1     -31.841   5.686   1.147  1.00 20.00     0.235 C 
HETATM    5  O9  UNL     1     -32.611   4.866   0.653  1.00 20.00    -0.306 OA
ENDBRANCH   2   4
ENDBRANCH   1   2
BRANCH   1   6
HETATM    6  C8  UNL     1     -34.405   6.500   3.604  1.00 20.00    -0.051 C 
HETATM    7  C3  UNL     1     -34.015   5.094   4.083  1.00 20.00     0.014 C 
HETATM    8  C4  UNL     1     -33.936   7.536   4.642  1.00 20.00     0.014 C 
HETATM    9  C5  UNL     1     -35.944   6.571   3.515  1.00 20.00     0.014 C 
ENDBRANCH   1   6
TORSDOF 3
ENDMDL
