MODEL 1
REMARK VINA RESULT:       3.0      0.000      0.000
REMARK  1 active torsions:
REMARK  status: ('A' for Active; 'I' for Inactive)
REMARK    1  A    between atoms: C10_10  and  O11_11 
ROOT
HETATM    1  C1  UNL     1     -33.729   5.743   0.882  1.00 20.00    -0.025 C 
HETATM    2  C2  UNL     1     -33.632   7.076   1.006  1.00 20.00    -0.025 C 
HETATM    3  C3  UNL     1     -34.420   4.986   3.746  1.00 20.00     0.008 C 
HETATM    4  C4  UNL     1     -35.225   6.282   3.736  1.00 20.00     0.032 C 
HETATM    5  C5  UNL     1     -31.585   6.200   1.577  1.00 20.00     0.018 C 
HETATM    6  C6  UNL     1     -32.674   5.133   1.773  1.00 20.00     0.013 C 
HETATM    7  C7  UNL     1     -32.515   7.356   1.981  1.00 20.00     0.015 C 
HETATM    8  C8  UNL     1     -33.016   5.355   3.271  1.00 20.00     0.000 C 
HETATM    9  C9  UNL     1     -32.893   6.906   3.417  1.00 20.00     0.027 C 
HETATM   10  C10 UNL     1     -34.204   7.372   4.049  1.00 20.00     0.123 C 
ENDROOT
BRANCH  10  11
HETATM   11  O11 UNL     1     -34.634   8.630   3.571  1.00 20.00    -0.395 OA
HETATM   12  H25 UNL     1     -33.883   9.033   3.101  1.00 20.00     0.210 HD
ENDBRANCH  10  11
TORSDOF 1
ENDMDL
MODEL 2
REMARK VINA RESULT:       3.1      1.721      3.142
REMARK  1 active torsions:
REMARK  status: ('A' for Active; 'I' for Inactive)
REMARK    1  A    between atoms: C10_10  and  O11_11 
ROOT
HETATM    1  C1  UNL     1     -33.090   7.632   4.819  1.00 20.00    -0.025 C 
HETATM    2  C2  UNL     1     -32.330   7.812   3.729  1.00 20.00    -0.025 C 
HETATM    3  C3  UNL     1     -34.449   5.008   4.098  1.00 20.00     0.008 C 
HETATM    4  C4  UNL     1     -33.106   4.658   3.467  1.00 20.00     0.032 C 
HETATM    5  C5  UNL     1     -34.404   8.682   3.251  1.00 20.00     0.018 C 
HETATM    6  C6  UNL     1     -34.529   7.632   4.367  1.00 20.00     0.013 C 
HETATM    7  C7  UNL     1     -33.260   7.931   2.547  1.00 20.00     0.015 C 
HETATM    8  C8  UNL     1     -34.847   6.367   3.525  1.00 20.00     0.000 C 
HETATM    9  C9  UNL     1     -33.970   6.583   2.250  1.00 20.00     0.027 C 
HETATM   10  C10 UNL     1     -33.151   5.304   2.085  1.00 20.00     0.123 C 
ENDROOT
BRANCH  10  11
HETATM   11  O11 UNL     1     -31.850   5.538   1.585  1.00 20.00    -0.395 OA
HETATM   12  H25 UNL     1     -31.299   4.778   1.845  1.00 20.00     0.210 HD
ENDBRANCH  10  11
TORSDOF 1
ENDMDL
MODEL 3
REMARK VINA RESULT:       3.3      1.274      3.135
REMARK  1 active torsions:
REMARK  status: ('A' for Active; 'I' for Inactive)
REMARK    1  A    between atoms: C10_10  and  O11_11 
ROOT
HETATM    1  C1  UNL     1     -33.113   6.656   4.533  1.00 20.00    -0.025 C 
HETATM    2  C2  UNL     1     -33.480   7.910   4.227  1.00 20.00    -0.025 C 
HETATM    3  C3  UNL     1     -31.948   5.773   1.865  1.00 20.00     0.008 C 
HETATM    4  C4  UNL     1     -31.448   7.212   1.778  1.00 20.00     0.032 C 
HETATM    5  C5  UNL     1     -35.210   6.534   3.596  1.00 20.00     0.018 C 
HETATM    6  C6  UNL     1     -33.901   5.730   3.639  1.00 20.00     0.013 C 
HETATM    7  C7  UNL     1     -34.511   7.822   3.129  1.00 20.00     0.015 C 
HETATM    8  C8  UNL     1     -33.444   5.861   2.161  1.00 20.00     0.000 C 
HETATM    9  C9  UNL     1     -33.881   7.318   1.803  1.00 20.00     0.027 C 
HETATM   10  C10 UNL     1     -32.637   8.000   1.235  1.00 20.00     0.123 C 
ENDROOT
BRANCH  10  11
HETATM   11  O11 UNL     1     -32.546   9.367   1.580  1.00 20.00    -0.395 OA
HETATM   12  H25 UNL     1     -33.371   9.794   1.288  1.00 20.00     0.210 HD
ENDBRANCH  10  11
TORSDOF 1
ENDMDL
MODEL 4
REMARK VINA RESULT:       3.4      1.645      3.440
REMARK  1 active torsions:
REMARK  status: ('A' for Active; 'I' for Inactive)
REMARK    1  A    between atoms: C10_10  and  O11_11 
ROOT
HETATM    1  C1  UNL     1     -35.102   8.027   3.244  1.00 20.00    -0.025 C 
HETATM    2  C2  UNL     1     -35.393   6.832   2.707  1.00 20.00    -0.025 C 
HETATM    3  C3  UNL     1     -32.151   8.230   2.533  1.00 20.00     0.008 C 
HETATM    4  C4  UNL     1     -32.568   7.533   1.242  1.00 20.00     0.032 C 
HETATM    5  C5  UNL     1     -34.559   6.435   4.812  1.00 20.00     0.018 C 
HETATM    6  C6  UNL     1     -34.056   7.796   4.307  1.00 20.00     0.013 C 
HETATM    7  C7  UNL     1     -34.541   5.804   3.410  1.00 20.00     0.015 C 
HETATM    8  C8  UNL     1     -32.703   7.376   3.673  1.00 20.00     0.000 C 
HETATM    9  C9  UNL     1     -33.039   5.980   3.057  1.00 20.00     0.027 C 
HETATM   10  C10 UNL     1     -32.596   6.050   1.597  1.00 20.00     0.123 C 
ENDROOT
BRANCH  10  11
HETATM   11  O11 UNL     1     -33.442   5.328   0.724  1.00 20.00    -0.395 OA
HETATM   12  H25 UNL     1     -33.788   5.961   0.070  1.00 20.00     0.210 HD
ENDBRANCH  10  11
TORSDOF 1
ENDMDL
MODEL 5
REMARK VINA RESULT:       3.6      2.037      3.148
REMARK  1 active torsions:
REMARK  status: ('A' for Active; 'I' for Inactive)
REMARK    1  A    between atoms: C10_10  and  O11_11 
ROOT
HETATM    1  C1  UNL     1     -31.755   8.307   3.357  1.00 20.00    -0.025 C 
HETATM    2  C2  UNL     1     -31.078   7.761   2.335  1.00 20.00    -0.025 C 
HETATM    3  C3  UNL     1     -34.127   6.408   3.502  1.00 20.00     0.008 C 
HETATM    4  C4  UNL     1     -33.102   5.338   3.141  1.00 20.00     0.032 C 
HETATM    5  C5  UNL     1     -32.641   9.179   1.423  1.00 20.00     0.018 C 
HETATM    6  C6  UNL     1     -33.098   8.741   2.823  1.00 20.00     0.013 C 
HETATM    7  C7  UNL     1     -31.968   7.830   1.119  1.00 20.00     0.015 C 
HETATM    8  C8  UNL     1     -33.974   7.512   2.458  1.00 20.00     0.000 C 
HETATM    9  C9  UNL     1     -33.191   6.884   1.261  1.00 20.00     0.027 C 
HETATM   10  C10 UNL     1     -32.987   5.413   1.621  1.00 20.00     0.123 C 
ENDROOT
BRANCH  10  11
HETATM   11  O11 UNL     1     -31.750   4.898   1.174  1.00 20.00    -0.395 OA
HETATM   12  H25 UNL     1     -31.084   5.599   1.294  1.00 20.00     0.210 HD
ENDBRANCH  10  11
TORSDOF 1
ENDMDL
MODEL 6
REMARK VINA RESULT:       3.7      1.261      2.454
REMARK  1 active torsions:
REMARK  status: ('A' for Active; 'I' for Inactive)
REMARK    1  A    between atoms: C10_10  and  O11_11 
ROOT
HETATM    1  C1  UNL     1     -31.645   5.470   2.287  1.00 20.00    -0.025 C 
HETATM    2  C2  UNL     1     -32.841   4.943   2.592  1.00 20.00    -0.025 C 
HETATM    3  C3  UNL     1     -32.080   8.344   3.187  1.00 20.00     0.008 C 
HETATM    4  C4  UNL     1     -32.891   7.710   4.313  1.00 20.00     0.032 C 
HETATM    5  C5  UNL     1     -33.034   5.876   0.500  1.00 20.00     0.018 C 
HETATM    6  C6  UNL     1     -31.882   6.551   1.260  1.00 20.00     0.013 C 
HETATM    7  C7  UNL     1     -33.876   5.672   1.771  1.00 20.00     0.015 C 
HETATM    8  C8  UNL     1     -32.630   7.758   1.887  1.00 20.00     0.000 C 
HETATM    9  C9  UNL     1     -34.025   7.147   2.232  1.00 20.00     0.027 C 
HETATM   10  C10 UNL     1     -34.271   7.470   3.705  1.00 20.00     0.123 C 
ENDROOT
BRANCH  10  11
HETATM   11  O11 UNL     1     -34.963   6.447   4.391  1.00 20.00    -0.395 OA
HETATM   12  H25 UNL     1     -35.678   6.140   3.806  1.00 20.00     0.210 HD
ENDBRANCH  10  11
TORSDOF 1
ENDMDL
MODEL 7
REMARK VINA RESULT:       4.0      1.376      2.376
REMARK  1 active torsions:
REMARK  status: ('A' for Active; 'I' for Inactive)
REMARK    1  A    between atoms: C10_10  and  O11_11 
ROOT
HETATM    1  C1  UNL     1     -32.547   8.651   0.919  1.00 20.00    -0.025 C 
HETATM    2  C2  UNL     1     -33.282   8.949   2.001  1.00 20.00    -0.025 C 
HETATM    3  C3  UNL     1     -32.675   5.612   1.004  1.00 20.00     0.008 C 
HETATM    4  C4  UNL     1     -34.101   5.836   1.496  1.00 20.00     0.032 C 
HETATM    5  C5  UNL     1     -31.132   8.588   2.730  1.00 20.00     0.018 C 
HETATM    6  C6  UNL     1     -31.351   7.862   1.393  1.00 20.00     0.013 C 
HETATM    7  C7  UNL     1     -32.578   8.359   3.198  1.00 20.00     0.015 C 
HETATM    8  C8  UNL     1     -31.778   6.460   1.905  1.00 20.00     0.000 C 
HETATM    9  C9  UNL     1     -32.625   6.807   3.171  1.00 20.00     0.027 C 
HETATM   10  C10 UNL     1     -33.957   6.081   2.995  1.00 20.00     0.123 C 
ENDROOT
BRANCH  10  11
HETATM   11  O11 UNL     1     -35.057   6.807   3.505  1.00 20.00    -0.395 OA
HETATM   12  H25 UNL     1     -34.726   7.682   3.774  1.00 20.00     0.210 HD
ENDBRANCH  10  11
TORSDOF 1
ENDMDL
MODEL 8
REMARK VINA RESULT:       4.1      1.130      1.540
REMARK  1 active torsions:
REMARK  status: ('A' for Active; 'I' for Inactive)
REMARK    1  A    between atoms: C10_10  and  O11_11 
ROOT
HETATM    1  C1  UNL     1     -33.419   7.562   0.997  1.00 20.00    -0.025 C 
HETATM    2  C2  UNL     1     -32.348   8.112   1.589  1.00 20.00    -0.025 C 
HETATM    3  C3  UNL     1     -34.980   6.659   3.447  1.00 20.00     0.008 C 
HETATM    4  C4  UNL     1     -34.449   7.944   4.074  1.00 20.00     0.032 C 
HETATM    5  C5  UNL     1     -31.922   5.861   1.391  1.00 20.00     0.018 C 
HETATM    6  C6  UNL     1     -33.440   6.101   1.378  1.00 20.00     0.013 C 
HETATM    7  C7  UNL     1     -31.654   7.020   2.365  1.00 20.00     0.015 C 
HETATM    8  C8  UNL     1     -33.763   5.925   2.886  1.00 20.00     0.000 C 
HETATM    9  C9  UNL     1     -32.511   6.556   3.574  1.00 20.00     0.027 C 
HETATM   10  C10 UNL     1     -33.053   7.580   4.570  1.00 20.00     0.123 C 
ENDROOT
BRANCH  10  11
HETATM   11  O11 UNL     1     -32.235   8.727   4.688  1.00 20.00    -0.395 OA
HETATM   12  H25 UNL     1     -31.537   8.654   4.014  1.00 20.00     0.210 HD
ENDBRANCH  10  11
TORSDOF 1
ENDMDL
MODEL 9
REMARK VINA RESULT:       4.5      1.840      3.320
REMARK  1 active torsions:
REMARK  status: ('A' for Active; 'I' for Inactive)
REMARK    1  A    between atoms: C10_10  and  O11_11 
ROOT
HETATM    1  C1  UNL     1     -35.432   7.180   2.831  1.00 20.00    -0.025 C 
HETATM    2  C2  UNL     1     -35.617   6.266   3.795  1.00 20.00    -0.025 C 
HETATM    3  C3  UNL     1     -32.902   6.090   1.540  1.00 20.00     0.008 C 
HETATM    4  C4  UNL     1     -33.517   4.726   1.837  1.00 20.00     0.032 C 
HETATM    5  C5  UNL     1     -34.164   7.838   4.633  1.00 20.00     0.018 C 
HETATM    6  C6  UNL     1     -34.105   7.848   3.097  1.00 20.00     0.013 C 
HETATM    7  C7  UNL     1     -34.415   6.322   4.705  1.00 20.00     0.015 C 
HETATM    8  C8  UNL     1     -32.929   6.864   2.857  1.00 20.00     0.000 C 
HETATM    9  C9  UNL     1     -33.140   5.806   3.987  1.00 20.00     0.027 C 
HETATM   10  C10 UNL     1     -33.147   4.446   3.290  1.00 20.00     0.123 C 
ENDROOT
BRANCH  10  11
HETATM   11  O11 UNL     1     -34.043   3.525   3.880  1.00 20.00    -0.395 OA
HETATM   12  H25 UNL     1     -33.641   3.225   4.714  1.00 20.00     0.210 HD
ENDBRANCH  10  11
TORSDOF 1
ENDMDL
