MODEL 1
REMARK VINA RESULT:      -2.3      0.000      0.000
REMARK  2 active torsions:
REMARK  status: ('A' for Active; 'I' for Inactive)
REMARK    1  A    between atoms: C6_6  and  C10_10 
REMARK    2  A    between atoms: C7_7  and  C11_11 
ROOT
HETATM    1  C1  UNL     1     -32.405   9.659   0.099  1.00 20.00     0.059 C 
HETATM    2  C10 UNL     1     -31.675   8.958   1.146  1.00 20.00     0.128 C 
HETATM    3  N12 UNL     1     -32.961  10.236  -0.741  1.00 20.00    -0.197 NA
ENDROOT
BRANCH   2   4
HETATM    4  C6  UNL     1     -32.642   7.873   1.615  1.00 20.00    -0.002 C 
HETATM    5  C2  UNL     1     -32.075   6.479   1.317  1.00 20.00     0.006 C 
HETATM    6  C4  UNL     1     -33.001   5.373   1.823  1.00 20.00     0.005 C 
HETATM    7  C7  UNL     1     -33.307   5.529   3.317  1.00 20.00    -0.011 C 
HETATM    8  C5  UNL     1     -33.874   6.923   3.614  1.00 20.00     0.005 C 
HETATM    9  C3  UNL     1     -32.948   8.028   3.110  1.00 20.00     0.006 C 
BRANCH   7  10
HETATM   10  C11 UNL     1     -34.273   4.443   3.787  1.00 20.00    -0.019 C 
HETATM   11  C8  UNL     1     -33.522   3.348   4.542  1.00 20.00     0.010 C 
HETATM   12  C9  UNL     1     -35.372   5.043   4.661  1.00 20.00     0.010 C 
ENDBRANCH   7  10
ENDBRANCH   2   4
TORSDOF 2
ENDMDL
MODEL 2
REMARK VINA RESULT:      -1.5      2.750      5.352
REMARK  2 active torsions:
REMARK  status: ('A' for Active; 'I' for Inactive)
REMARK    1  A    between atoms: C6_6  and  C10_10 
REMARK    2  A    between atoms: C7_7  and  C11_11 
ROOT
HETATM    1  C1  UNL     1     -33.726   3.650   4.465  1.00 20.00     0.059 C 
HETATM    2  C10 UNL     1     -34.572   4.764   4.062  1.00 20.00     0.128 C 
HETATM    3  N12 UNL     1     -33.077   2.745   4.794  1.00 20.00    -0.197 NA
ENDROOT
BRANCH   2   4
HETATM    4  C6  UNL     1     -33.592   5.799   3.512  1.00 20.00    -0.002 C 
HETATM    5  C2  UNL     1     -33.303   5.535   2.029  1.00 20.00     0.006 C 
HETATM    6  C4  UNL     1     -32.365   6.588   1.441  1.00 20.00     0.005 C 
HETATM    7  C7  UNL     1     -32.906   8.007   1.645  1.00 20.00    -0.011 C 
HETATM    8  C5  UNL     1     -33.194   8.272   3.128  1.00 20.00     0.005 C 
HETATM    9  C3  UNL     1     -34.133   7.220   3.716  1.00 20.00     0.006 C 
BRANCH   7  10
HETATM   10  C11 UNL     1     -31.927   9.043   1.094  1.00 20.00    -0.019 C 
HETATM   11  C8  UNL     1     -31.069   8.433  -0.013  1.00 20.00     0.010 C 
HETATM   12  C9  UNL     1     -32.676  10.270   0.580  1.00 20.00     0.010 C 
ENDBRANCH   7  10
ENDBRANCH   2   4
TORSDOF 2
ENDMDL
MODEL 3
REMARK VINA RESULT:      -1.0      2.625      5.329
REMARK  2 active torsions:
REMARK  status: ('A' for Active; 'I' for Inactive)
REMARK    1  A    between atoms: C6_6  and  C10_10 
REMARK    2  A    between atoms: C7_7  and  C11_11 
ROOT
HETATM    1  C1  UNL     1     -34.192   4.161   4.376  1.00 20.00     0.059 C 
HETATM    2  C10 UNL     1     -35.139   5.268   4.397  1.00 20.00     0.128 C 
HETATM    3  N12 UNL     1     -33.456   3.263   4.380  1.00 20.00    -0.197 NA
ENDROOT
BRANCH   2   4
HETATM    4  C6  UNL     1     -34.562   6.273   3.403  1.00 20.00    -0.002 C 
HETATM    5  C2  UNL     1     -33.990   7.492   4.137  1.00 20.00     0.006 C 
HETATM    6  C4  UNL     1     -33.360   8.491   3.166  1.00 20.00     0.005 C 
HETATM    7  C7  UNL     1     -32.290   7.831   2.289  1.00 20.00    -0.011 C 
HETATM    8  C5  UNL     1     -32.863   6.613   1.554  1.00 20.00     0.005 C 
HETATM    9  C3  UNL     1     -33.492   5.613   2.524  1.00 20.00     0.006 C 
BRANCH   7  10
HETATM   10  C11 UNL     1     -31.712   8.836   1.294  1.00 20.00    -0.019 C 
HETATM   11  C8  UNL     1     -31.257   8.128   0.020  1.00 20.00     0.010 C 
HETATM   12  C9  UNL     1     -32.736   9.921   0.970  1.00 20.00     0.010 C 
ENDBRANCH   7  10
ENDBRANCH   2   4
TORSDOF 2
ENDMDL
MODEL 4
REMARK VINA RESULT:      -0.8      0.773      1.931
REMARK  2 active torsions:
REMARK  status: ('A' for Active; 'I' for Inactive)
REMARK    1  A    between atoms: C6_6  and  C10_10 
REMARK    2  A    between atoms: C7_7  and  C11_11 
ROOT
HETATM    1  C1  UNL     1     -32.304   9.711   0.356  1.00 20.00     0.059 C 
HETATM    2  C10 UNL     1     -31.311   8.646   0.380  1.00 20.00     0.128 C 
HETATM    3  N12 UNL     1     -33.081  10.572   0.310  1.00 20.00    -0.197 NA
ENDROOT
BRANCH   2   4
HETATM    4  C6  UNL     1     -31.743   7.758   1.545  1.00 20.00    -0.002 C 
HETATM    5  C2  UNL     1     -32.765   8.484   2.428  1.00 20.00     0.006 C 
HETATM    6  C4  UNL     1     -33.252   7.597   3.574  1.00 20.00     0.005 C 
HETATM    7  C7  UNL     1     -33.821   6.269   3.060  1.00 20.00    -0.011 C 
HETATM    8  C5  UNL     1     -32.798   5.543   2.178  1.00 20.00     0.005 C 
HETATM    9  C3  UNL     1     -32.312   6.429   1.032  1.00 20.00     0.006 C 
BRANCH   7  10
HETATM   10  C11 UNL     1     -34.254   5.381   4.225  1.00 20.00    -0.019 C 
HETATM   11  C8  UNL     1     -35.763   5.479   4.441  1.00 20.00     0.010 C 
HETATM   12  C9  UNL     1     -33.840   3.932   3.979  1.00 20.00     0.010 C 
ENDBRANCH   7  10
ENDBRANCH   2   4
TORSDOF 2
ENDMDL
MODEL 5
REMARK VINA RESULT:       0.4      2.508      5.376
REMARK  2 active torsions:
REMARK  status: ('A' for Active; 'I' for Inactive)
REMARK    1  A    between atoms: C6_6  and  C10_10 
REMARK    2  A    between atoms: C7_7  and  C11_11 
ROOT
HETATM    1  C1  UNL     1     -34.746   4.833   4.238  1.00 20.00     0.059 C 
HETATM    2  C10 UNL     1     -33.490   4.662   3.519  1.00 20.00     0.128 C 
HETATM    3  N12 UNL     1     -35.740   4.943   4.828  1.00 20.00    -0.197 NA
ENDROOT
BRANCH   2   4
HETATM    4  C6  UNL     1     -33.423   5.872   2.590  1.00 20.00    -0.002 C 
HETATM    5  C2  UNL     1     -33.409   7.175   3.399  1.00 20.00     0.006 C 
HETATM    6  C4  UNL     1     -33.290   8.400   2.493  1.00 20.00     0.005 C 
HETATM    7  C7  UNL     1     -32.061   8.313   1.581  1.00 20.00    -0.011 C 
HETATM    8  C5  UNL     1     -32.075   7.010   0.771  1.00 20.00     0.005 C 
HETATM    9  C3  UNL     1     -32.193   5.785   1.676  1.00 20.00     0.006 C 
BRANCH   7  10
HETATM   10  C11 UNL     1     -31.992   9.524   0.651  1.00 20.00    -0.019 C 
HETATM   11  C8  UNL     1     -32.391   9.132  -0.770  1.00 20.00     0.010 C 
HETATM   12  C9  UNL     1     -32.884  10.650   1.169  1.00 20.00     0.010 C 
ENDBRANCH   7  10
ENDBRANCH   2   4
TORSDOF 2
ENDMDL
