MODEL 1
REMARK VINA RESULT:       0.6      0.000      0.000
REMARK  2 active torsions:
REMARK  status: ('A' for Active; 'I' for Inactive)
REMARK    1  A    between atoms: C7_7  and  C10_10 
REMARK    2  A    between atoms: C7_7  and  O11_11 
ROOT
HETATM    1  C1  UNL     1     -34.367   6.590   4.091  1.00 20.00     0.000 C 
HETATM    2  C2  UNL     1     -34.152   5.445   3.106  1.00 20.00     0.000 C 
HETATM    3  C3  UNL     1     -34.209   7.992   3.506  1.00 20.00     0.003 C 
HETATM    4  C4  UNL     1     -32.811   5.458   2.371  1.00 20.00     0.003 C 
HETATM    5  C5  UNL     1     -32.755   8.336   3.194  1.00 20.00     0.038 C 
HETATM    6  C6  UNL     1     -32.737   6.547   1.300  1.00 20.00     0.038 C 
HETATM    7  C7  UNL     1     -32.265   7.927   1.795  1.00 20.00     0.061 C 
ENDROOT
BRANCH   7   8
HETATM    8  C10 UNL     1     -32.647   8.990   0.756  1.00 20.00     0.012 C 
HETATM    9  C8  UNL     1     -32.685  10.370   1.402  1.00 20.00     0.012 C 
HETATM   10  C9  UNL     1     -31.668   8.963  -0.412  1.00 20.00     0.012 C 
ENDBRANCH   7   8
BRANCH   7  11
HETATM   11  O11 UNL     1     -30.829   7.922   1.834  1.00 20.00    -0.389 OA
HETATM   12  H31 UNL     1     -30.580   7.136   2.340  1.00 20.00     0.210 HD
ENDBRANCH   7  11
TORSDOF 2
ENDMDL
MODEL 2
REMARK VINA RESULT:       1.1      2.073      4.294
REMARK  2 active torsions:
REMARK  status: ('A' for Active; 'I' for Inactive)
REMARK    1  A    between atoms: C7_7  and  C10_10 
REMARK    2  A    between atoms: C7_7  and  O11_11 
ROOT
HETATM    1  C1  UNL     1     -31.916   8.667   3.056  1.00 20.00     0.000 C 
HETATM    2  C2  UNL     1     -31.709   7.765   1.843  1.00 20.00     0.000 C 
HETATM    3  C3  UNL     1     -32.551   7.992   4.270  1.00 20.00     0.003 C 
HETATM    4  C4  UNL     1     -32.964   7.055   1.335  1.00 20.00     0.003 C 
HETATM    5  C5  UNL     1     -34.032   7.684   4.061  1.00 20.00     0.038 C 
HETATM    6  C6  UNL     1     -33.409   5.914   2.253  1.00 20.00     0.038 C 
HETATM    7  C7  UNL     1     -34.337   6.325   3.411  1.00 20.00     0.061 C 
ENDROOT
BRANCH   7   8
HETATM    8  C10 UNL     1     -34.345   5.211   4.467  1.00 20.00     0.012 C 
HETATM    9  C8  UNL     1     -35.768   4.943   4.941  1.00 20.00     0.012 C 
HETATM   10  C9  UNL     1     -33.713   3.944   3.903  1.00 20.00     0.012 C 
ENDBRANCH   7   8
BRANCH   7  11
HETATM   11  O11 UNL     1     -35.680   6.389   2.906  1.00 20.00    -0.389 OA
HETATM   12  H31 UNL     1     -36.190   5.752   3.425  1.00 20.00     0.210 HD
ENDBRANCH   7  11
TORSDOF 2
ENDMDL
MODEL 3
REMARK VINA RESULT:       1.5      1.542      2.866
REMARK  2 active torsions:
REMARK  status: ('A' for Active; 'I' for Inactive)
REMARK    1  A    between atoms: C7_7  and  C10_10 
REMARK    2  A    between atoms: C7_7  and  O11_11 
ROOT
HETATM    1  C1  UNL     1     -34.029   3.999   4.114  1.00 20.00     0.000 C 
HETATM    2  C2  UNL     1     -34.955   5.080   4.661  1.00 20.00     0.000 C 
HETATM    3  C3  UNL     1     -32.736   4.507   3.479  1.00 20.00     0.003 C 
HETATM    4  C4  UNL     1     -35.362   6.161   3.659  1.00 20.00     0.003 C 
HETATM    5  C5  UNL     1     -32.973   5.192   2.136  1.00 20.00     0.038 C 
HETATM    6  C6  UNL     1     -34.223   7.132   3.345  1.00 20.00     0.038 C 
HETATM    7  C7  UNL     1     -33.281   6.697   2.207  1.00 20.00     0.061 C 
ENDROOT
BRANCH   7   8
HETATM    8  C10 UNL     1     -31.982   7.510   2.292  1.00 20.00     0.012 C 
HETATM    9  C8  UNL     1     -31.781   8.319   1.017  1.00 20.00     0.012 C 
HETATM   10  C9  UNL     1     -32.007   8.420   3.514  1.00 20.00     0.012 C 
ENDBRANCH   7   8
BRANCH   7  11
HETATM   11  O11 UNL     1     -33.887   7.065   0.958  1.00 20.00    -0.389 OA
HETATM   12  H31 UNL     1     -33.744   8.017   0.864  1.00 20.00     0.210 HD
ENDBRANCH   7  11
TORSDOF 2
ENDMDL
MODEL 4
REMARK VINA RESULT:       2.3      1.731      4.091
REMARK  2 active torsions:
REMARK  status: ('A' for Active; 'I' for Inactive)
REMARK    1  A    between atoms: C7_7  and  C10_10 
REMARK    2  A    between atoms: C7_7  and  O11_11 
ROOT
HETATM    1  C1  UNL     1     -31.970   6.072   1.113  1.00 20.00     0.000 C 
HETATM    2  C2  UNL     1     -32.137   7.574   0.909  1.00 20.00     0.000 C 
HETATM    3  C3  UNL     1     -33.072   5.398   1.929  1.00 20.00     0.003 C 
HETATM    4  C4  UNL     1     -32.289   8.395   2.190  1.00 20.00     0.003 C 
HETATM    5  C5  UNL     1     -33.005   5.757   3.411  1.00 20.00     0.038 C 
HETATM    6  C6  UNL     1     -33.659   8.215   2.846  1.00 20.00     0.038 C 
HETATM    7  C7  UNL     1     -33.773   7.026   3.818  1.00 20.00     0.061 C 
ENDROOT
BRANCH   7   8
HETATM    8  C10 UNL     1     -35.256   6.709   4.052  1.00 20.00     0.012 C 
HETATM    9  C8  UNL     1     -36.060   6.978   2.786  1.00 20.00     0.012 C 
HETATM   10  C9  UNL     1     -35.422   5.263   4.505  1.00 20.00     0.012 C 
ENDBRANCH   7   8
BRANCH   7  11
HETATM   11  O11 UNL     1     -33.260   7.440   5.094  1.00 20.00    -0.389 OA
HETATM   12  H31 UNL     1     -33.542   8.358   5.208  1.00 20.00     0.210 HD
ENDBRANCH   7  11
TORSDOF 2
ENDMDL
MODEL 5
REMARK VINA RESULT:       2.7      1.129      1.500
REMARK  2 active torsions:
REMARK  status: ('A' for Active; 'I' for Inactive)
REMARK    1  A    between atoms: C7_7  and  C10_10 
REMARK    2  A    between atoms: C7_7  and  O11_11 
ROOT
HETATM    1  C1  UNL     1     -35.154   5.537   4.410  1.00 20.00     0.000 C 
HETATM    2  C2  UNL     1     -34.311   4.433   3.780  1.00 20.00     0.000 C 
HETATM    3  C3  UNL     1     -35.211   6.845   3.621  1.00 20.00     0.003 C 
HETATM    4  C4  UNL     1     -32.863   4.813   3.468  1.00 20.00     0.003 C 
HETATM    5  C5  UNL     1     -33.896   7.616   3.671  1.00 20.00     0.038 C 
HETATM    6  C6  UNL     1     -32.745   5.749   2.264  1.00 20.00     0.038 C 
HETATM    7  C7  UNL     1     -32.874   7.250   2.582  1.00 20.00     0.061 C 
ENDROOT
BRANCH   7   8
HETATM    8  C10 UNL     1     -33.170   8.014   1.284  1.00 20.00     0.012 C 
HETATM    9  C8  UNL     1     -32.083   9.048   1.020  1.00 20.00     0.012 C 
HETATM   10  C9  UNL     1     -33.293   7.044   0.116  1.00 20.00     0.012 C 
ENDBRANCH   7   8
BRANCH   7  11
HETATM   11  O11 UNL     1     -31.593   7.725   3.026  1.00 20.00    -0.389 OA
HETATM   12  H31 UNL     1     -31.588   8.677   2.854  1.00 20.00     0.210 HD
ENDBRANCH   7  11
TORSDOF 2
ENDMDL
MODEL 6
REMARK VINA RESULT:       2.7      1.264      4.243
REMARK  2 active torsions:
REMARK  status: ('A' for Active; 'I' for Inactive)
REMARK    1  A    between atoms: C7_7  and  C10_10 
REMARK    2  A    between atoms: C7_7  and  O11_11 
ROOT
HETATM    1  C1  UNL     1     -31.372   9.051  -0.244  1.00 20.00     0.000 C 
HETATM    2  C2  UNL     1     -32.416  10.131   0.022  1.00 20.00     0.000 C 
HETATM    3  C3  UNL     1     -31.705   7.670   0.319  1.00 20.00     0.003 C 
HETATM    4  C4  UNL     1     -32.781  10.340   1.491  1.00 20.00     0.003 C 
HETATM    5  C5  UNL     1     -31.591   7.615   1.840  1.00 20.00     0.038 C 
HETATM    6  C6  UNL     1     -33.643   9.207   2.052  1.00 20.00     0.038 C 
HETATM    7  C7  UNL     1     -32.864   8.003   2.611  1.00 20.00     0.061 C 
ENDROOT
BRANCH   7   8
HETATM    8  C10 UNL     1     -33.813   6.802   2.727  1.00 20.00     0.012 C 
HETATM    9  C8  UNL     1     -33.035   5.499   2.584  1.00 20.00     0.012 C 
HETATM   10  C9  UNL     1     -34.562   6.846   4.053  1.00 20.00     0.012 C 
ENDBRANCH   7   8
BRANCH   7  11
HETATM   11  O11 UNL     1     -32.466   8.312   3.956  1.00 20.00    -0.389 OA
HETATM   12  H31 UNL     1     -31.505   8.209   3.979  1.00 20.00     0.210 HD
ENDBRANCH   7  11
TORSDOF 2
ENDMDL
MODEL 7
REMARK VINA RESULT:       3.0      2.108      4.286
REMARK  2 active torsions:
REMARK  status: ('A' for Active; 'I' for Inactive)
REMARK    1  A    between atoms: C7_7  and  C10_10 
REMARK    2  A    between atoms: C7_7  and  O11_11 
ROOT
HETATM    1  C1  UNL     1     -32.036   8.629   3.738  1.00 20.00     0.000 C 
HETATM    2  C2  UNL     1     -31.624   8.048   2.389  1.00 20.00     0.000 C 
HETATM    3  C3  UNL     1     -32.872   7.703   4.619  1.00 20.00     0.003 C 
HETATM    4  C4  UNL     1     -32.774   7.543   1.516  1.00 20.00     0.003 C 
HETATM    5  C5  UNL     1     -34.295   7.523   4.095  1.00 20.00     0.038 C 
HETATM    6  C6  UNL     1     -33.371   6.232   2.029  1.00 20.00     0.038 C 
HETATM    7  C7  UNL     1     -34.485   6.383   3.081  1.00 20.00     0.061 C 
ENDROOT
BRANCH   7   8
HETATM    8  C10 UNL     1     -34.677   5.043   3.805  1.00 20.00     0.012 C 
HETATM    9  C8  UNL     1     -33.329   4.376   4.048  1.00 20.00     0.012 C 
HETATM   10  C9  UNL     1     -35.425   5.253   5.116  1.00 20.00     0.012 C 
ENDBRANCH   7   8
BRANCH   7  11
HETATM   11  O11 UNL     1     -35.721   6.631   2.393  1.00 20.00    -0.389 OA
HETATM   12  H31 UNL     1     -36.422   6.330   2.988  1.00 20.00     0.210 HD
ENDBRANCH   7  11
TORSDOF 2
ENDMDL
MODEL 8
REMARK VINA RESULT:       3.2      2.138      3.452
REMARK  2 active torsions:
REMARK  status: ('A' for Active; 'I' for Inactive)
REMARK    1  A    between atoms: C7_7  and  C10_10 
REMARK    2  A    between atoms: C7_7  and  O11_11 
ROOT
HETATM    1  C1  UNL     1     -33.063   3.577   3.341  1.00 20.00     0.000 C 
HETATM    2  C2  UNL     1     -33.846   3.676   4.647  1.00 20.00     0.000 C 
HETATM    3  C3  UNL     1     -32.553   4.905   2.785  1.00 20.00     0.003 C 
HETATM    4  C4  UNL     1     -35.047   4.622   4.619  1.00 20.00     0.003 C 
HETATM    5  C5  UNL     1     -33.675   5.772   2.219  1.00 20.00     0.038 C 
HETATM    6  C6  UNL     1     -34.636   6.096   4.618  1.00 20.00     0.038 C 
HETATM    7  C7  UNL     1     -34.364   6.703   3.230  1.00 20.00     0.061 C 
ENDROOT
BRANCH   7   8
HETATM    8  C10 UNL     1     -33.565   8.003   3.399  1.00 20.00     0.012 C 
HETATM    9  C8  UNL     1     -33.073   8.138   4.835  1.00 20.00     0.012 C 
HETATM   10  C9  UNL     1     -32.397   8.036   2.419  1.00 20.00     0.012 C 
ENDBRANCH   7   8
BRANCH   7  11
HETATM   11  O11 UNL     1     -35.621   7.094   2.657  1.00 20.00    -0.389 OA
HETATM   12  H31 UNL     1     -35.925   7.852   3.176  1.00 20.00     0.210 HD
ENDBRANCH   7  11
TORSDOF 2
ENDMDL
MODEL 9
REMARK VINA RESULT:       3.3      1.779      3.396
REMARK  2 active torsions:
REMARK  status: ('A' for Active; 'I' for Inactive)
REMARK    1  A    between atoms: C7_7  and  C10_10 
REMARK    2  A    between atoms: C7_7  and  O11_11 
ROOT
HETATM    1  C1  UNL     1     -33.911   7.739   4.433  1.00 20.00     0.000 C 
HETATM    2  C2  UNL     1     -32.579   8.383   4.062  1.00 20.00     0.000 C 
HETATM    3  C3  UNL     1     -34.148   6.348   3.848  1.00 20.00     0.003 C 
HETATM    4  C4  UNL     1     -32.301   8.493   2.563  1.00 20.00     0.003 C 
HETATM    5  C5  UNL     1     -34.415   6.384   2.345  1.00 20.00     0.038 C 
HETATM    6  C6  UNL     1     -31.959   7.145   1.927  1.00 20.00     0.038 C 
HETATM    7  C7  UNL     1     -33.165   6.315   1.451  1.00 20.00     0.061 C 
ENDROOT
BRANCH   7   8
HETATM    8  C10 UNL     1     -32.725   4.859   1.250  1.00 20.00     0.012 C 
HETATM    9  C8  UNL     1     -33.329   4.297  -0.031  1.00 20.00     0.012 C 
HETATM   10  C9  UNL     1     -31.204   4.766   1.220  1.00 20.00     0.012 C 
ENDBRANCH   7   8
BRANCH   7  11
HETATM   11  O11 UNL     1     -33.549   6.787   0.150  1.00 20.00    -0.389 OA
HETATM   12  H31 UNL     1     -32.728   7.045  -0.291  1.00 20.00     0.210 HD
ENDBRANCH   7  11
TORSDOF 2
ENDMDL
