MODEL 1
REMARK VINA RESULT:       0.7      0.000      0.000
REMARK  2 active torsions:
REMARK  status: ('A' for Active; 'I' for Inactive)
REMARK    1  A    between atoms: C1_1  and  S9_9 
REMARK    2  A    between atoms: C2_2  and  N7_7 
ROOT
HETATM    1  C1  UNL     1     -33.177   7.465   2.616  1.00 20.00     0.102 C 
HETATM    2  C2  UNL     1     -33.429   6.143   2.659  1.00 20.00     0.011 C 
HETATM    3  C3  UNL     1     -32.704   5.231   1.699  1.00 20.00     0.068 C 
ENDROOT
BRANCH   2   4
HETATM    4  N7  UNL     1     -34.297   5.500   3.499  1.00 20.00    -0.393 N 
HETATM    5  C4  UNL     1     -33.999   4.175   4.022  1.00 20.00     0.148 C 
HETATM    6  C5  UNL     1     -35.423   6.196   4.102  1.00 20.00     0.148 C 
ENDBRANCH   2   4
BRANCH   1   7
HETATM    7  S9  UNL     1     -32.010   8.170   1.458  1.00 20.00     0.036 S 
HETATM    8  C6  UNL     1     -30.748   8.619   2.671  1.00 20.00     0.132 C 
HETATM    9  O8  UNL     1     -32.649   9.430   0.957  1.00 20.00    -0.254 OA
ENDBRANCH   1   7
TORSDOF 2
ENDMDL
MODEL 2
REMARK VINA RESULT:       1.0      1.827      2.196
REMARK  2 active torsions:
REMARK  status: ('A' for Active; 'I' for Inactive)
REMARK    1  A    between atoms: C1_1  and  S9_9 
REMARK    2  A    between atoms: C2_2  and  N7_7 
ROOT
HETATM    1  C1  UNL     1     -32.963   8.685   1.779  1.00 20.00     0.102 C 
HETATM    2  C2  UNL     1     -32.868   7.385   2.120  1.00 20.00     0.011 C 
HETATM    3  C3  UNL     1     -31.983   6.479   1.300  1.00 20.00     0.068 C 
ENDROOT
BRANCH   2   4
HETATM    4  N7  UNL     1     -33.502   6.762   3.160  1.00 20.00    -0.393 N 
HETATM    5  C4  UNL     1     -34.203   7.524   4.183  1.00 20.00     0.148 C 
HETATM    6  C5  UNL     1     -33.720   5.323   3.161  1.00 20.00     0.148 C 
ENDBRANCH   2   4
BRANCH   1   7
HETATM    7  S9  UNL     1     -32.072   9.366   0.386  1.00 20.00     0.036 S 
HETATM    8  C6  UNL     1     -32.402  11.105   0.749  1.00 20.00     0.132 C 
HETATM    9  O8  UNL     1     -32.863   8.982  -0.827  1.00 20.00    -0.254 OA
ENDBRANCH   1   7
TORSDOF 2
ENDMDL
MODEL 3
REMARK VINA RESULT:       1.1      1.289      1.313
REMARK  2 active torsions:
REMARK  status: ('A' for Active; 'I' for Inactive)
REMARK    1  A    between atoms: C1_1  and  S9_9 
REMARK    2  A    between atoms: C2_2  and  N7_7 
ROOT
HETATM    1  C1  UNL     1     -32.882   7.676   2.848  1.00 20.00     0.102 C 
HETATM    2  C2  UNL     1     -33.309   6.409   2.686  1.00 20.00     0.011 C 
HETATM    3  C3  UNL     1     -32.712   5.576   1.579  1.00 20.00     0.068 C 
ENDROOT
BRANCH   2   4
HETATM    4  N7  UNL     1     -34.256   5.760   3.430  1.00 20.00    -0.393 N 
HETATM    5  C4  UNL     1     -34.060   4.387   3.871  1.00 20.00     0.148 C 
HETATM    6  C5  UNL     1     -35.376   6.476   4.023  1.00 20.00     0.148 C 
ENDBRANCH   2   4
BRANCH   1   7
HETATM    7  S9  UNL     1     -31.631   8.398   1.794  1.00 20.00     0.036 S 
HETATM    8  C6  UNL     1     -32.732   9.501   0.879  1.00 20.00     0.132 C 
HETATM    9  O8  UNL     1     -31.197   7.299   0.872  1.00 20.00    -0.254 OA
ENDBRANCH   1   7
TORSDOF 2
ENDMDL
MODEL 4
REMARK VINA RESULT:       1.1      1.784      1.855
REMARK  2 active torsions:
REMARK  status: ('A' for Active; 'I' for Inactive)
REMARK    1  A    between atoms: C1_1  and  S9_9 
REMARK    2  A    between atoms: C2_2  and  N7_7 
ROOT
HETATM    1  C1  UNL     1     -33.030   8.628   1.769  1.00 20.00     0.102 C 
HETATM    2  C2  UNL     1     -32.954   7.323   2.098  1.00 20.00     0.011 C 
HETATM    3  C3  UNL     1     -32.031   6.427   1.310  1.00 20.00     0.068 C 
ENDROOT
BRANCH   2   4
HETATM    4  N7  UNL     1     -33.639   6.687   3.097  1.00 20.00    -0.393 N 
HETATM    5  C4  UNL     1     -33.604   5.239   3.233  1.00 20.00     0.148 C 
HETATM    6  C5  UNL     1     -34.222   7.428   4.206  1.00 20.00     0.148 C 
ENDBRANCH   2   4
BRANCH   1   7
HETATM    7  S9  UNL     1     -32.072   9.325   0.430  1.00 20.00     0.036 S 
HETATM    8  C6  UNL     1     -32.411  11.060   0.805  1.00 20.00     0.132 C 
HETATM    9  O8  UNL     1     -32.807   8.964  -0.824  1.00 20.00    -0.254 OA
ENDBRANCH   1   7
TORSDOF 2
ENDMDL
MODEL 5
REMARK VINA RESULT:       1.1      3.005      4.363
REMARK  2 active torsions:
REMARK  status: ('A' for Active; 'I' for Inactive)
REMARK    1  A    between atoms: C1_1  and  S9_9 
REMARK    2  A    between atoms: C2_2  and  N7_7 
ROOT
HETATM    1  C1  UNL     1     -33.521   6.550   3.206  1.00 20.00     0.102 C 
HETATM    2  C2  UNL     1     -32.716   6.838   2.165  1.00 20.00     0.011 C 
HETATM    3  C3  UNL     1     -32.482   5.784   1.111  1.00 20.00     0.068 C 
ENDROOT
BRANCH   2   4
HETATM    4  N7  UNL     1     -32.058   8.017   1.938  1.00 20.00    -0.393 N 
HETATM    5  C4  UNL     1     -32.268   8.774   0.713  1.00 20.00     0.148 C 
HETATM    6  C5  UNL     1     -31.321   8.689   2.997  1.00 20.00     0.148 C 
ENDBRANCH   2   4
BRANCH   1   7
HETATM    7  S9  UNL     1     -34.318   4.958   3.375  1.00 20.00     0.036 S 
HETATM    8  C6  UNL     1     -35.577   5.473   4.565  1.00 20.00     0.132 C 
HETATM    9  O8  UNL     1     -33.330   4.084   4.086  1.00 20.00    -0.254 OA
ENDBRANCH   1   7
TORSDOF 2
ENDMDL
MODEL 6
REMARK VINA RESULT:       1.1      1.446      1.870
REMARK  2 active torsions:
REMARK  status: ('A' for Active; 'I' for Inactive)
REMARK    1  A    between atoms: C1_1  and  S9_9 
REMARK    2  A    between atoms: C2_2  and  N7_7 
ROOT
HETATM    1  C1  UNL     1     -32.834   7.256   1.856  1.00 20.00     0.102 C 
HETATM    2  C2  UNL     1     -33.357   7.065   3.082  1.00 20.00     0.011 C 
HETATM    3  C3  UNL     1     -32.977   8.016   4.191  1.00 20.00     0.068 C 
ENDROOT
BRANCH   2   4
HETATM    4  N7  UNL     1     -34.223   6.076   3.461  1.00 20.00    -0.393 N 
HETATM    5  C4  UNL     1     -33.786   4.692   3.573  1.00 20.00     0.148 C 
HETATM    6  C5  UNL     1     -35.537   6.386   4.004  1.00 20.00     0.148 C 
ENDBRANCH   2   4
BRANCH   1   7
HETATM    7  S9  UNL     1     -31.707   8.599   1.504  1.00 20.00     0.036 S 
HETATM    8  C6  UNL     1     -32.945   9.763   0.891  1.00 20.00     0.132 C 
HETATM    9  O8  UNL     1     -30.880   8.139   0.342  1.00 20.00    -0.254 OA
ENDBRANCH   1   7
TORSDOF 2
ENDMDL
MODEL 7
REMARK VINA RESULT:       1.2      3.222      4.589
REMARK  2 active torsions:
REMARK  status: ('A' for Active; 'I' for Inactive)
REMARK    1  A    between atoms: C1_1  and  S9_9 
REMARK    2  A    between atoms: C2_2  and  N7_7 
ROOT
HETATM    1  C1  UNL     1     -33.346   5.138   3.182  1.00 20.00     0.102 C 
HETATM    2  C2  UNL     1     -33.226   6.442   2.868  1.00 20.00     0.011 C 
HETATM    3  C3  UNL     1     -33.759   7.474   3.831  1.00 20.00     0.068 C 
ENDROOT
BRANCH   2   4
HETATM    4  N7  UNL     1     -32.659   6.967   1.739  1.00 20.00    -0.393 N 
HETATM    5  C4  UNL     1     -32.343   8.384   1.641  1.00 20.00     0.148 C 
HETATM    6  C5  UNL     1     -32.122   6.109   0.693  1.00 20.00     0.148 C 
ENDBRANCH   2   4
BRANCH   1   7
HETATM    7  S9  UNL     1     -34.115   4.595   4.702  1.00 20.00     0.036 S 
HETATM    8  C6  UNL     1     -33.519   2.889   4.647  1.00 20.00     0.132 C 
HETATM    9  O8  UNL     1     -35.588   4.586   4.429  1.00 20.00    -0.254 OA
ENDBRANCH   1   7
TORSDOF 2
ENDMDL
MODEL 8
REMARK VINA RESULT:       1.2      1.505      1.877
REMARK  2 active torsions:
REMARK  status: ('A' for Active; 'I' for Inactive)
REMARK    1  A    between atoms: C1_1  and  S9_9 
REMARK    2  A    between atoms: C2_2  and  N7_7 
ROOT
HETATM    1  C1  UNL     1     -32.960   6.733   2.398  1.00 20.00     0.102 C 
HETATM    2  C2  UNL     1     -33.805   6.510   3.423  1.00 20.00     0.011 C 
HETATM    3  C3  UNL     1     -34.225   7.674   4.286  1.00 20.00     0.068 C 
ENDROOT
BRANCH   2   4
HETATM    4  N7  UNL     1     -34.349   5.310   3.793  1.00 20.00    -0.393 N 
HETATM    5  C4  UNL     1     -33.585   4.075   3.701  1.00 20.00     0.148 C 
HETATM    6  C5  UNL     1     -35.607   5.241   4.520  1.00 20.00     0.148 C 
ENDBRANCH   2   4
BRANCH   1   7
HETATM    7  S9  UNL     1     -32.325   8.363   2.030  1.00 20.00     0.036 S 
HETATM    8  C6  UNL     1     -31.618   7.960   0.416  1.00 20.00     0.132 C 
HETATM    9  O8  UNL     1     -31.198   8.585   2.993  1.00 20.00    -0.254 OA
ENDBRANCH   1   7
TORSDOF 2
ENDMDL
MODEL 9
REMARK VINA RESULT:       1.3      2.945      4.354
REMARK  2 active torsions:
REMARK  status: ('A' for Active; 'I' for Inactive)
REMARK    1  A    between atoms: C1_1  and  S9_9 
REMARK    2  A    between atoms: C2_2  and  N7_7 
ROOT
HETATM    1  C1  UNL     1     -33.685   6.522   2.744  1.00 20.00     0.102 C 
HETATM    2  C2  UNL     1     -32.894   7.612   2.787  1.00 20.00     0.011 C 
HETATM    3  C3  UNL     1     -32.789   8.384   4.080  1.00 20.00     0.068 C 
ENDROOT
BRANCH   2   4
HETATM    4  N7  UNL     1     -32.147   8.125   1.763  1.00 20.00    -0.393 N 
HETATM    5  C4  UNL     1     -31.112   7.335   1.114  1.00 20.00     0.148 C 
HETATM    6  C5  UNL     1     -32.511   9.375   1.112  1.00 20.00     0.148 C 
ENDBRANCH   2   4
BRANCH   1   7
HETATM    7  S9  UNL     1     -34.609   5.965   4.170  1.00 20.00     0.036 S 
HETATM    8  C6  UNL     1     -34.148   4.221   4.056  1.00 20.00     0.132 C 
HETATM    9  O8  UNL     1     -36.053   6.093   3.790  1.00 20.00    -0.254 OA
ENDBRANCH   1   7
TORSDOF 2
ENDMDL
