MODEL 1
REMARK VINA RESULT:      -0.2      0.000      0.000
REMARK  0 active torsions:
REMARK  status: ('A' for Active; 'I' for Inactive)
ROOT
HETATM    1  C1  UNL     1     -33.753   4.500   3.873  1.00 20.00     0.135 C 
HETATM    2  C2  UNL     1     -33.512   6.372   2.382  1.00 20.00     0.092 C 
HETATM    3  C3  UNL     1     -34.450   6.980   3.434  1.00 20.00     0.073 C 
HETATM    4  C4  UNL     1     -32.396   7.288   1.900  1.00 20.00     0.033 C 
HETATM    5  C5  UNL     1     -33.785   7.882   4.468  1.00 20.00     0.024 C 
HETATM    6  N6  UNL     1     -32.984   5.137   2.928  1.00 20.00    -0.370 N 
HETATM    7  S7  UNL     1     -33.415   3.008   4.517  1.00 20.00    -0.053 SA
HETATM    8  S8  UNL     1     -35.130   5.506   4.282  1.00 20.00    -0.094 SA
HETATM    9  H17 UNL     1     -32.062   4.801   2.684  1.00 20.00     0.161 HD
ENDROOT
TORSDOF 0
ENDMDL
MODEL 2
REMARK VINA RESULT:       1.4      2.521      3.644
REMARK  0 active torsions:
REMARK  status: ('A' for Active; 'I' for Inactive)
ROOT
HETATM    1  C1  UNL     1     -32.625   7.214   2.285  1.00 20.00     0.135 C 
HETATM    2  C2  UNL     1     -34.643   6.319   3.241  1.00 20.00     0.092 C 
HETATM    3  C3  UNL     1     -33.959   5.023   2.786  1.00 20.00     0.073 C 
HETATM    4  C4  UNL     1     -35.307   6.258   4.609  1.00 20.00     0.033 C 
HETATM    5  C5  UNL     1     -33.243   4.236   3.879  1.00 20.00     0.024 C 
HETATM    6  N6  UNL     1     -33.656   7.380   3.178  1.00 20.00    -0.370 N 
HETATM    7  S7  UNL     1     -31.476   8.362   1.943  1.00 20.00    -0.053 SA
HETATM    8  S8  UNL     1     -32.719   5.614   1.573  1.00 20.00    -0.094 SA
HETATM    9  H17 UNL     1     -33.683   8.166   3.815  1.00 20.00     0.161 HD
ENDROOT
TORSDOF 0
ENDMDL
MODEL 3
REMARK VINA RESULT:       1.4      3.193      4.145
REMARK  0 active torsions:
REMARK  status: ('A' for Active; 'I' for Inactive)
ROOT
HETATM    1  C1  UNL     1     -32.420   8.739   1.261  1.00 20.00     0.135 C 
HETATM    2  C2  UNL     1     -32.310   6.402   1.821  1.00 20.00     0.092 C 
HETATM    3  C3  UNL     1     -32.843   6.975   3.142  1.00 20.00     0.073 C 
HETATM    4  C4  UNL     1     -32.963   5.106   1.365  1.00 20.00     0.033 C 
HETATM    5  C5  UNL     1     -34.344   6.827   3.366  1.00 20.00     0.024 C 
HETATM    6  N6  UNL     1     -32.431   7.439   0.815  1.00 20.00    -0.370 N 
HETATM    7  S7  UNL     1     -32.396  10.076   0.277  1.00 20.00    -0.053 SA
HETATM    8  S8  UNL     1     -32.435   8.756   3.015  1.00 20.00    -0.094 SA
HETATM    9  H17 UNL     1     -32.594   7.216  -0.159  1.00 20.00     0.161 HD
ENDROOT
TORSDOF 0
ENDMDL
MODEL 4
REMARK VINA RESULT:       1.6      1.679      2.918
REMARK  0 active torsions:
REMARK  status: ('A' for Active; 'I' for Inactive)
ROOT
HETATM    1  C1  UNL     1     -34.092   6.355   3.418  1.00 20.00     0.135 C 
HETATM    2  C2  UNL     1     -32.228   7.308   2.233  1.00 20.00     0.092 C 
HETATM    3  C3  UNL     1     -32.108   5.841   1.796  1.00 20.00     0.073 C 
HETATM    4  C4  UNL     1     -32.003   8.334   1.133  1.00 20.00     0.033 C 
HETATM    5  C5  UNL     1     -32.660   5.519   0.412  1.00 20.00     0.024 C 
HETATM    6  N6  UNL     1     -33.527   7.475   2.854  1.00 20.00    -0.370 N 
HETATM    7  S7  UNL     1     -35.494   6.349   4.307  1.00 20.00    -0.053 SA
HETATM    8  S8  UNL     1     -33.103   4.954   3.052  1.00 20.00    -0.094 SA
HETATM    9  H17 UNL     1     -34.028   8.353   2.808  1.00 20.00     0.161 HD
ENDROOT
TORSDOF 0
ENDMDL
MODEL 5
REMARK VINA RESULT:       1.7      2.317      3.331
REMARK  0 active torsions:
REMARK  status: ('A' for Active; 'I' for Inactive)
ROOT
HETATM    1  C1  UNL     1     -32.816   7.465   2.328  1.00 20.00     0.135 C 
HETATM    2  C2  UNL     1     -33.379   5.478   3.563  1.00 20.00     0.092 C 
HETATM    3  C3  UNL     1     -34.348   6.482   4.204  1.00 20.00     0.073 C 
HETATM    4  C4  UNL     1     -33.965   4.104   3.274  1.00 20.00     0.033 C 
HETATM    5  C5  UNL     1     -35.786   6.423   3.701  1.00 20.00     0.024 C 
HETATM    6  N6  UNL     1     -32.847   6.090   2.361  1.00 20.00    -0.370 N 
HETATM    7  S7  UNL     1     -32.116   8.366   1.123  1.00 20.00    -0.053 SA
HETATM    8  S8  UNL     1     -33.626   8.102   3.747  1.00 20.00    -0.094 SA
HETATM    9  H17 UNL     1     -32.583   5.536   1.557  1.00 20.00     0.161 HD
ENDROOT
TORSDOF 0
ENDMDL
MODEL 6
REMARK VINA RESULT:       2.1      1.516      2.115
REMARK  0 active torsions:
REMARK  status: ('A' for Active; 'I' for Inactive)
ROOT
HETATM    1  C1  UNL     1     -34.275   5.955   3.487  1.00 20.00     0.135 C 
HETATM    2  C2  UNL     1     -32.942   6.144   1.493  1.00 20.00     0.092 C 
HETATM    3  C3  UNL     1     -32.842   7.580   2.025  1.00 20.00     0.073 C 
HETATM    4  C4  UNL     1     -31.647   5.561   0.948  1.00 20.00     0.033 C 
HETATM    5  C5  UNL     1     -31.553   7.920   2.766  1.00 20.00     0.024 C 
HETATM    6  N6  UNL     1     -33.488   5.321   2.554  1.00 20.00    -0.370 N 
HETATM    7  S7  UNL     1     -35.118   5.186   4.692  1.00 20.00    -0.053 SA
HETATM    8  S8  UNL     1     -34.244   7.685   3.199  1.00 20.00    -0.094 SA
HETATM    9  H17 UNL     1     -33.240   4.345   2.649  1.00 20.00     0.161 HD
ENDROOT
TORSDOF 0
ENDMDL
MODEL 7
REMARK VINA RESULT:       2.3      2.022      3.065
REMARK  0 active torsions:
REMARK  status: ('A' for Active; 'I' for Inactive)
ROOT
HETATM    1  C1  UNL     1     -33.927   6.682   3.253  1.00 20.00     0.135 C 
HETATM    2  C2  UNL     1     -31.864   7.918   3.261  1.00 20.00     0.092 C 
HETATM    3  C3  UNL     1     -31.975   7.583   1.767  1.00 20.00     0.073 C 
HETATM    4  C4  UNL     1     -31.404   9.334   3.577  1.00 20.00     0.033 C 
HETATM    5  C5  UNL     1     -32.497   8.707   0.877  1.00 20.00     0.024 C 
HETATM    6  N6  UNL     1     -33.147   7.630   3.871  1.00 20.00    -0.370 N 
HETATM    7  S7  UNL     1     -35.357   6.093   3.858  1.00 20.00    -0.053 SA
HETATM    8  S8  UNL     1     -33.177   6.202   1.742  1.00 20.00    -0.094 SA
HETATM    9  H17 UNL     1     -33.485   8.156   4.667  1.00 20.00     0.161 HD
ENDROOT
TORSDOF 0
ENDMDL
MODEL 8
REMARK VINA RESULT:       2.6      2.649      3.219
REMARK  0 active torsions:
REMARK  status: ('A' for Active; 'I' for Inactive)
ROOT
HETATM    1  C1  UNL     1     -32.659   5.901   1.448  1.00 20.00     0.135 C 
HETATM    2  C2  UNL     1     -33.101   7.265   3.380  1.00 20.00     0.092 C 
HETATM    3  C3  UNL     1     -32.256   8.238   2.546  1.00 20.00     0.073 C 
HETATM    4  C4  UNL     1     -34.311   7.881   4.067  1.00 20.00     0.033 C 
HETATM    5  C5  UNL     1     -33.037   9.298   1.777  1.00 20.00     0.024 C 
HETATM    6  N6  UNL     1     -33.486   6.168   2.514  1.00 20.00    -0.370 N 
HETATM    7  S7  UNL     1     -32.825   4.606   0.424  1.00 20.00    -0.053 SA
HETATM    8  S8  UNL     1     -31.417   7.135   1.349  1.00 20.00    -0.094 SA
HETATM    9  H17 UNL     1     -34.359   5.672   2.642  1.00 20.00     0.161 HD
ENDROOT
TORSDOF 0
ENDMDL
