MODEL 1
REMARK VINA RESULT:      -0.4      0.000      0.000
REMARK  2 active torsions:
REMARK  status: ('A' for Active; 'I' for Inactive)
REMARK    1  A    between atoms: C3_3  and  C7_7 
REMARK    2  A    between atoms: C3_3  and  O11_11 
ROOT
HETATM    1  C1  UNL     1     -33.249   6.993   2.798  1.00 20.00    -0.070 C 
HETATM    2  C2  UNL     1     -34.168   7.323   3.714  1.00 20.00    -0.027 C 
HETATM    3  C4  UNL     1     -33.207   5.671   2.085  1.00 20.00     0.034 C 
HETATM    4  C5  UNL     1     -32.246   5.927   0.932  1.00 20.00     0.005 C 
HETATM    5  C6  UNL     1     -31.261   6.951   1.487  1.00 20.00     0.019 C 
HETATM    6  C7  UNL     1     -32.116   7.874   2.352  1.00 20.00     0.114 C 
HETATM    7  C8  UNL     1     -35.273   6.419   4.148  1.00 20.00     0.036 C 
ENDROOT
BRANCH   6   8
HETATM    8  C3  UNL     1     -32.668   9.016   1.553  1.00 20.00     0.266 C 
HETATM    9  O10 UNL     1     -33.585   9.735   1.927  1.00 20.00    -0.265 OA
BRANCH   8  10
HETATM   10  O11 UNL     1     -31.991   9.116   0.373  1.00 20.00    -0.326 OA
HETATM   11  C9  UNL     1     -32.581   9.983  -0.602  1.00 20.00     0.213 C 
ENDBRANCH   8  10
ENDBRANCH   6   8
TORSDOF 2
ENDMDL
MODEL 2
REMARK VINA RESULT:       0.1      1.578      3.296
REMARK  2 active torsions:
REMARK  status: ('A' for Active; 'I' for Inactive)
REMARK    1  A    between atoms: C3_3  and  C7_7 
REMARK    2  A    between atoms: C3_3  and  O11_11 
ROOT
HETATM    1  C1  UNL     1     -33.461   5.672   2.447  1.00 20.00    -0.070 C 
HETATM    2  C2  UNL     1     -32.590   5.713   1.430  1.00 20.00    -0.027 C 
HETATM    3  C4  UNL     1     -33.825   4.418   3.193  1.00 20.00     0.034 C 
HETATM    4  C5  UNL     1     -34.531   4.945   4.435  1.00 20.00     0.005 C 
HETATM    5  C6  UNL     1     -35.212   6.226   3.963  1.00 20.00     0.019 C 
HETATM    6  C7  UNL     1     -34.217   6.852   2.990  1.00 20.00     0.114 C 
HETATM    7  C8  UNL     1     -31.867   4.520   0.904  1.00 20.00     0.036 C 
ENDROOT
BRANCH   6   8
HETATM    8  C3  UNL     1     -33.260   7.764   3.697  1.00 20.00     0.266 C 
HETATM    9  O10 UNL     1     -33.415   8.164   4.843  1.00 20.00    -0.265 OA
BRANCH   8  10
HETATM   10  O11 UNL     1     -32.218   8.062   2.870  1.00 20.00    -0.326 OA
HETATM   11  C9  UNL     1     -32.505   9.012   1.838  1.00 20.00     0.213 C 
ENDBRANCH   8  10
ENDBRANCH   6   8
TORSDOF 2
ENDMDL
MODEL 3
REMARK VINA RESULT:       0.1      2.130      3.396
REMARK  2 active torsions:
REMARK  status: ('A' for Active; 'I' for Inactive)
REMARK    1  A    between atoms: C3_3  and  C7_7 
REMARK    2  A    between atoms: C3_3  and  O11_11 
ROOT
HETATM    1  C1  UNL     1     -33.953   4.916   3.492  1.00 20.00    -0.070 C 
HETATM    2  C2  UNL     1     -33.386   3.705   3.554  1.00 20.00    -0.027 C 
HETATM    3  C4  UNL     1     -34.636   5.586   4.652  1.00 20.00     0.034 C 
HETATM    4  C5  UNL     1     -34.773   7.030   4.189  1.00 20.00     0.005 C 
HETATM    5  C6  UNL     1     -34.944   6.923   2.676  1.00 20.00     0.019 C 
HETATM    6  C7  UNL     1     -34.014   5.784   2.266  1.00 20.00     0.114 C 
HETATM    7  C8  UNL     1     -33.356   2.861   4.783  1.00 20.00     0.036 C 
ENDROOT
BRANCH   6   8
HETATM    8  C3  UNL     1     -32.637   6.288   1.954  1.00 20.00     0.266 C 
HETATM    9  O10 UNL     1     -31.753   5.604   1.457  1.00 20.00    -0.265 OA
BRANCH   8  10
HETATM   10  O11 UNL     1     -32.542   7.602   2.306  1.00 20.00    -0.326 OA
HETATM   11  C9  UNL     1     -31.879   8.446   1.358  1.00 20.00     0.213 C 
ENDBRANCH   8  10
ENDBRANCH   6   8
TORSDOF 2
ENDMDL
MODEL 4
REMARK VINA RESULT:       0.2      0.817      1.041
REMARK  2 active torsions:
REMARK  status: ('A' for Active; 'I' for Inactive)
REMARK    1  A    between atoms: C3_3  and  C7_7 
REMARK    2  A    between atoms: C3_3  and  O11_11 
ROOT
HETATM    1  C1  UNL     1     -33.176   6.867   2.589  1.00 20.00    -0.070 C 
HETATM    2  C2  UNL     1     -34.078   7.414   3.413  1.00 20.00    -0.027 C 
HETATM    3  C4  UNL     1     -33.182   5.422   2.174  1.00 20.00     0.034 C 
HETATM    4  C5  UNL     1     -32.220   5.395   0.994  1.00 20.00     0.005 C 
HETATM    5  C6  UNL     1     -31.198   6.481   1.318  1.00 20.00     0.019 C 
HETATM    6  C7  UNL     1     -32.017   7.595   1.966  1.00 20.00     0.114 C 
HETATM    7  C8  UNL     1     -35.209   6.661   4.028  1.00 20.00     0.036 C 
ENDROOT
BRANCH   6   8
HETATM    8  C3  UNL     1     -32.536   8.558   0.941  1.00 20.00     0.266 C 
HETATM    9  O10 UNL     1     -33.051   8.222  -0.116  1.00 20.00    -0.265 OA
BRANCH   8  10
HETATM   10  O11 UNL     1     -32.344   9.836   1.377  1.00 20.00    -0.326 OA
HETATM   11  C9  UNL     1     -32.640  10.861   0.424  1.00 20.00     0.213 C 
ENDBRANCH   8  10
ENDBRANCH   6   8
TORSDOF 2
ENDMDL
MODEL 5
REMARK VINA RESULT:       0.5      1.682      3.778
REMARK  2 active torsions:
REMARK  status: ('A' for Active; 'I' for Inactive)
REMARK    1  A    between atoms: C3_3  and  C7_7 
REMARK    2  A    between atoms: C3_3  and  O11_11 
ROOT
HETATM    1  C1  UNL     1     -32.768   7.969   1.449  1.00 20.00    -0.070 C 
HETATM    2  C2  UNL     1     -32.968   9.268   1.192  1.00 20.00    -0.027 C 
HETATM    3  C4  UNL     1     -31.619   7.170   0.902  1.00 20.00     0.034 C 
HETATM    4  C5  UNL     1     -31.637   5.906   1.751  1.00 20.00     0.005 C 
HETATM    5  C6  UNL     1     -33.113   5.698   2.080  1.00 20.00     0.019 C 
HETATM    6  C7  UNL     1     -33.658   7.107   2.301  1.00 20.00     0.114 C 
HETATM    7  C8  UNL     1     -32.075  10.093   0.328  1.00 20.00     0.036 C 
ENDROOT
BRANCH   6   8
HETATM    8  C3  UNL     1     -33.522   7.527   3.733  1.00 20.00     0.266 C 
HETATM    9  O10 UNL     1     -32.495   7.978   4.221  1.00 20.00    -0.265 OA
BRANCH   8  10
HETATM   10  O11 UNL     1     -34.706   7.329   4.381  1.00 20.00    -0.326 OA
HETATM   11  C9  UNL     1     -35.376   6.102   4.073  1.00 20.00     0.213 C 
ENDBRANCH   8  10
ENDBRANCH   6   8
TORSDOF 2
ENDMDL
MODEL 6
REMARK VINA RESULT:       0.5      2.567      4.568
REMARK  2 active torsions:
REMARK  status: ('A' for Active; 'I' for Inactive)
REMARK    1  A    between atoms: C3_3  and  C7_7 
REMARK    2  A    between atoms: C3_3  and  O11_11 
ROOT
HETATM    1  C1  UNL     1     -33.132   6.406   2.654  1.00 20.00    -0.070 C 
HETATM    2  C2  UNL     1     -32.819   5.329   1.922  1.00 20.00    -0.027 C 
HETATM    3  C4  UNL     1     -32.900   7.822   2.208  1.00 20.00     0.034 C 
HETATM    4  C5  UNL     1     -33.732   8.637   3.190  1.00 20.00     0.005 C 
HETATM    5  C6  UNL     1     -33.681   7.829   4.483  1.00 20.00     0.019 C 
HETATM    6  C7  UNL     1     -33.742   6.373   4.027  1.00 20.00     0.114 C 
HETATM    7  C8  UNL     1     -32.198   5.394   0.567  1.00 20.00     0.036 C 
ENDROOT
BRANCH   6   8
HETATM    8  C3  UNL     1     -35.158   5.892   3.923  1.00 20.00     0.266 C 
HETATM    9  O10 UNL     1     -36.053   6.510   3.363  1.00 20.00    -0.265 OA
BRANCH   8  10
HETATM   10  O11 UNL     1     -35.274   4.682   4.541  1.00 20.00    -0.326 OA
HETATM   11  C9  UNL     1     -34.081   3.892   4.574  1.00 20.00     0.213 C 
ENDBRANCH   8  10
ENDBRANCH   6   8
TORSDOF 2
ENDMDL
MODEL 7
REMARK VINA RESULT:       0.6      3.060      4.420
REMARK  2 active torsions:
REMARK  status: ('A' for Active; 'I' for Inactive)
REMARK    1  A    between atoms: C3_3  and  C7_7 
REMARK    2  A    between atoms: C3_3  and  O11_11 
ROOT
HETATM    1  C1  UNL     1     -33.590   7.108   3.577  1.00 20.00    -0.070 C 
HETATM    2  C2  UNL     1     -33.784   7.822   4.693  1.00 20.00    -0.027 C 
HETATM    3  C4  UNL     1     -32.384   7.243   2.689  1.00 20.00     0.034 C 
HETATM    4  C5  UNL     1     -32.462   6.007   1.804  1.00 20.00     0.005 C 
HETATM    5  C6  UNL     1     -33.958   5.745   1.658  1.00 20.00     0.019 C 
HETATM    6  C7  UNL     1     -34.541   6.081   3.028  1.00 20.00     0.114 C 
HETATM    7  C8  UNL     1     -32.827   8.846   5.202  1.00 20.00     0.036 C 
ENDROOT
BRANCH   6   8
HETATM    8  C3  UNL     1     -34.543   4.883   3.930  1.00 20.00     0.266 C 
HETATM    9  O10 UNL     1     -35.419   4.643   4.749  1.00 20.00    -0.265 OA
BRANCH   8  10
HETATM   10  O11 UNL     1     -33.433   4.128   3.687  1.00 20.00    -0.326 OA
HETATM   11  C9  UNL     1     -33.236   3.022   4.574  1.00 20.00     0.213 C 
ENDBRANCH   8  10
ENDBRANCH   6   8
TORSDOF 2
ENDMDL
MODEL 8
REMARK VINA RESULT:       0.9      1.869      3.691
REMARK  2 active torsions:
REMARK  status: ('A' for Active; 'I' for Inactive)
REMARK    1  A    between atoms: C3_3  and  C7_7 
REMARK    2  A    between atoms: C3_3  and  O11_11 
ROOT
HETATM    1  C1  UNL     1     -32.312   6.669   1.776  1.00 20.00    -0.070 C 
HETATM    2  C2  UNL     1     -32.446   5.344   1.637  1.00 20.00    -0.027 C 
HETATM    3  C4  UNL     1     -32.071   7.615   0.634  1.00 20.00     0.034 C 
HETATM    4  C5  UNL     1     -32.356   8.980   1.246  1.00 20.00     0.005 C 
HETATM    5  C6  UNL     1     -31.938   8.830   2.705  1.00 20.00     0.019 C 
HETATM    6  C7  UNL     1     -32.365   7.413   3.081  1.00 20.00     0.114 C 
HETATM    7  C8  UNL     1     -32.373   4.632   0.328  1.00 20.00     0.036 C 
ENDROOT
BRANCH   6   8
HETATM    8  C3  UNL     1     -33.769   7.385   3.605  1.00 20.00     0.266 C 
HETATM    9  O10 UNL     1     -34.298   8.317   4.197  1.00 20.00    -0.265 OA
BRANCH   8  10
HETATM   10  O11 UNL     1     -34.340   6.181   3.317  1.00 20.00    -0.326 OA
HETATM   11  C9  UNL     1     -35.348   5.744   4.234  1.00 20.00     0.213 C 
ENDBRANCH   8  10
ENDBRANCH   6   8
TORSDOF 2
ENDMDL
MODEL 9
REMARK VINA RESULT:       1.0      2.824      4.280
REMARK  2 active torsions:
REMARK  status: ('A' for Active; 'I' for Inactive)
REMARK    1  A    between atoms: C3_3  and  C7_7 
REMARK    2  A    between atoms: C3_3  and  O11_11 
ROOT
HETATM    1  C1  UNL     1     -33.459   6.986   3.125  1.00 20.00    -0.070 C 
HETATM    2  C2  UNL     1     -34.077   7.241   4.285  1.00 20.00    -0.027 C 
HETATM    3  C4  UNL     1     -32.496   7.929   2.459  1.00 20.00     0.034 C 
HETATM    4  C5  UNL     1     -31.819   7.054   1.413  1.00 20.00     0.005 C 
HETATM    5  C6  UNL     1     -32.898   6.056   1.005  1.00 20.00     0.019 C 
HETATM    6  C7  UNL     1     -33.637   5.740   2.303  1.00 20.00     0.114 C 
HETATM    7  C8  UNL     1     -33.891   8.496   5.070  1.00 20.00     0.036 C 
ENDROOT
BRANCH   6   8
HETATM    8  C3  UNL     1     -33.008   4.584   3.023  1.00 20.00     0.266 C 
HETATM    9  O10 UNL     1     -31.868   4.189   2.821  1.00 20.00    -0.265 OA
BRANCH   8  10
HETATM   10  O11 UNL     1     -33.898   4.065   3.916  1.00 20.00    -0.326 OA
HETATM   11  C9  UNL     1     -33.387   3.028   4.760  1.00 20.00     0.213 C 
ENDBRANCH   8  10
ENDBRANCH   6   8
TORSDOF 2
ENDMDL
