MODEL 1
REMARK VINA RESULT:      -1.4      0.000      0.000
REMARK  0 active torsions:
REMARK  status: ('A' for Active; 'I' for Inactive)
ROOT
HETATM    1  C1  UNL     1     -34.257   7.660   4.284  1.00 20.00     0.047 A 
HETATM    2  C2  UNL     1     -35.004   6.465   4.320  1.00 20.00     0.141 A 
HETATM    3  C3  UNL     1     -33.362   7.480   3.254  1.00 20.00     0.032 A 
HETATM    4  C4  UNL     1     -32.281   8.337   2.696  1.00 20.00     0.059 C 
HETATM    5  C5  UNL     1     -31.861   7.877   1.296  1.00 20.00     0.008 C 
HETATM    6  C6  UNL     1     -31.667   6.359   1.252  1.00 20.00     0.022 C 
HETATM    7  C7  UNL     1     -32.961   5.631   1.618  1.00 20.00     0.151 C 
HETATM    8  N8  UNL     1     -34.622   5.587   3.387  1.00 20.00    -0.185 NA
HETATM    9  N9  UNL     1     -33.619   6.229   2.762  1.00 20.00    -0.274 N 
ENDROOT
TORSDOF 0
ENDMDL
MODEL 2
REMARK VINA RESULT:      -1.3      1.068      2.024
REMARK  0 active torsions:
REMARK  status: ('A' for Active; 'I' for Inactive)
ROOT
HETATM    1  C1  UNL     1     -34.618   5.667   3.508  1.00 20.00     0.047 A 
HETATM    2  C2  UNL     1     -34.905   6.689   4.434  1.00 20.00     0.141 A 
HETATM    3  C3  UNL     1     -33.627   6.189   2.708  1.00 20.00     0.032 A 
HETATM    4  C4  UNL     1     -32.890   5.651   1.534  1.00 20.00     0.059 C 
HETATM    5  C5  UNL     1     -31.601   6.436   1.266  1.00 20.00     0.008 C 
HETATM    6  C6  UNL     1     -31.858   7.944   1.321  1.00 20.00     0.022 C 
HETATM    7  C7  UNL     1     -32.386   8.360   2.694  1.00 20.00     0.151 C 
HETATM    8  N8  UNL     1     -34.159   7.782   4.247  1.00 20.00    -0.185 NA
HETATM    9  N9  UNL     1     -33.400   7.451   3.188  1.00 20.00    -0.274 N 
ENDROOT
TORSDOF 0
ENDMDL
MODEL 3
REMARK VINA RESULT:      -1.1      1.262      3.681
REMARK  0 active torsions:
REMARK  status: ('A' for Active; 'I' for Inactive)
ROOT
HETATM    1  C1  UNL     1     -32.416   5.777   1.404  1.00 20.00     0.047 A 
HETATM    2  C2  UNL     1     -31.718   6.962   1.097  1.00 20.00     0.141 A 
HETATM    3  C3  UNL     1     -33.226   6.115   2.464  1.00 20.00     0.032 A 
HETATM    4  C4  UNL     1     -34.198   5.337   3.279  1.00 20.00     0.059 C 
HETATM    5  C5  UNL     1     -35.152   6.255   4.050  1.00 20.00     0.008 C 
HETATM    6  C6  UNL     1     -34.386   7.388   4.738  1.00 20.00     0.022 C 
HETATM    7  C7  UNL     1     -33.636   8.242   3.715  1.00 20.00     0.151 C 
HETATM    8  N8  UNL     1     -32.052   7.982   1.894  1.00 20.00    -0.185 NA
HETATM    9  N9  UNL     1     -32.963   7.434   2.718  1.00 20.00    -0.274 N 
ENDROOT
TORSDOF 0
ENDMDL
MODEL 4
REMARK VINA RESULT:      -1.0      0.970      3.108
REMARK  0 active torsions:
REMARK  status: ('A' for Active; 'I' for Inactive)
ROOT
HETATM    1  C1  UNL     1     -32.008   7.800   1.773  1.00 20.00     0.047 A 
HETATM    2  C2  UNL     1     -31.785   6.599   1.069  1.00 20.00     0.141 A 
HETATM    3  C3  UNL     1     -32.989   7.491   2.687  1.00 20.00     0.032 A 
HETATM    4  C4  UNL     1     -33.696   8.296   3.718  1.00 20.00     0.059 C 
HETATM    5  C5  UNL     1     -34.385   7.406   4.758  1.00 20.00     0.008 C 
HETATM    6  C6  UNL     1     -35.158   6.271   4.081  1.00 20.00     0.022 C 
HETATM    7  C7  UNL     1     -34.223   5.390   3.251  1.00 20.00     0.151 C 
HETATM    8  N8  UNL     1     -32.560   5.597   1.496  1.00 20.00    -0.185 NA
HETATM    9  N9  UNL     1     -33.285   6.172   2.472  1.00 20.00    -0.274 N 
ENDROOT
TORSDOF 0
ENDMDL
MODEL 5
REMARK VINA RESULT:       0.0      1.000      1.141
REMARK  0 active torsions:
REMARK  status: ('A' for Active; 'I' for Inactive)
ROOT
HETATM    1  C1  UNL     1     -34.655   6.217   4.184  1.00 20.00     0.047 A 
HETATM    2  C2  UNL     1     -34.578   4.816   4.059  1.00 20.00     0.141 A 
HETATM    3  C3  UNL     1     -33.725   6.698   3.290  1.00 20.00     0.032 A 
HETATM    4  C4  UNL     1     -33.286   8.074   2.933  1.00 20.00     0.059 C 
HETATM    5  C5  UNL     1     -32.545   8.101   1.592  1.00 20.00     0.008 C 
HETATM    6  C6  UNL     1     -31.510   6.976   1.515  1.00 20.00     0.022 C 
HETATM    7  C7  UNL     1     -32.177   5.607   1.656  1.00 20.00     0.151 C 
HETATM    8  N8  UNL     1     -33.672   4.424   3.158  1.00 20.00    -0.185 NA
HETATM    9  N9  UNL     1     -33.166   5.589   2.714  1.00 20.00    -0.274 N 
ENDROOT
TORSDOF 0
ENDMDL
MODEL 6
REMARK VINA RESULT:       1.4      1.881      3.122
REMARK  0 active torsions:
REMARK  status: ('A' for Active; 'I' for Inactive)
ROOT
HETATM    1  C1  UNL     1     -32.730   3.788   3.360  1.00 20.00     0.047 A 
HETATM    2  C2  UNL     1     -33.507   3.118   4.326  1.00 20.00     0.141 A 
HETATM    3  C3  UNL     1     -33.319   5.026   3.236  1.00 20.00     0.032 A 
HETATM    4  C4  UNL     1     -33.016   6.206   2.382  1.00 20.00     0.059 C 
HETATM    5  C5  UNL     1     -33.686   7.477   2.916  1.00 20.00     0.008 C 
HETATM    6  C6  UNL     1     -35.149   7.213   3.280  1.00 20.00     0.022 C 
HETATM    7  C7  UNL     1     -35.259   6.134   4.359  1.00 20.00     0.151 C 
HETATM    8  N8  UNL     1     -34.516   3.864   4.787  1.00 20.00    -0.185 NA
HETATM    9  N9  UNL     1     -34.380   5.012   4.100  1.00 20.00    -0.274 N 
ENDROOT
TORSDOF 0
ENDMDL
MODEL 7
REMARK VINA RESULT:       1.6      1.379      3.311
REMARK  0 active torsions:
REMARK  status: ('A' for Active; 'I' for Inactive)
ROOT
HETATM    1  C1  UNL     1     -31.579   7.744   1.166  1.00 20.00     0.047 A 
HETATM    2  C2  UNL     1     -32.006   8.908   1.837  1.00 20.00     0.141 A 
HETATM    3  C3  UNL     1     -32.300   6.724   1.743  1.00 20.00     0.032 A 
HETATM    4  C4  UNL     1     -32.322   5.253   1.521  1.00 20.00     0.059 C 
HETATM    5  C5  UNL     1     -33.588   4.613   2.100  1.00 20.00     0.008 C 
HETATM    6  C6  UNL     1     -33.864   5.128   3.515  1.00 20.00     0.022 C 
HETATM    7  C7  UNL     1     -34.060   6.644   3.518  1.00 20.00     0.151 C 
HETATM    8  N8  UNL     1     -32.929   8.657   2.771  1.00 20.00    -0.185 NA
HETATM    9  N9  UNL     1     -33.080   7.323   2.695  1.00 20.00    -0.274 N 
ENDROOT
TORSDOF 0
ENDMDL
