MODEL 1
REMARK VINA RESULT:      -2.1      0.000      0.000
REMARK  5 active torsions:
REMARK  status: ('A' for Active; 'I' for Inactive)
REMARK    1  A    between atoms: C2_2  and  C3_3 
REMARK    2  A    between atoms: C2_2  and  C4_4 
REMARK    3  A    between atoms: C3_3  and  C5_5 
REMARK    4  A    between atoms: C4_4  and  C6_6 
REMARK    5  A    between atoms: C5_5  and  S7_7 
ROOT
HETATM    1  C2  UNL     1     -35.161   6.359   3.772  1.00 20.00     0.002 C 
ENDROOT
BRANCH   1   2
HETATM    2  C3  UNL     1     -33.833   7.101   3.590  1.00 20.00     0.010 C 
BRANCH   2   3
HETATM    3  C5  UNL     1     -33.268   7.007   2.173  1.00 20.00     0.073 C 
BRANCH   3   4
HETATM    4  S7  UNL     1     -31.774   8.015   1.936  1.00 20.00    -0.173 SA
HETATM    5  C1  UNL     1     -32.441   9.193   0.741  1.00 20.00     0.089 C 
ENDBRANCH   3   4
ENDBRANCH   2   3
ENDBRANCH   1   2
BRANCH   1   6
HETATM    6  C4  UNL     1     -34.960   5.039   4.518  1.00 20.00     0.015 C 
BRANCH   6   7
HETATM    7  C6  UNL     1     -33.972   4.141   3.786  1.00 20.00     0.114 C 
HETATM    8 CL8  UNL     1     -33.205   3.006   4.923  1.00 20.00    -0.130 Cl
ENDBRANCH   6   7
ENDBRANCH   1   6
TORSDOF 5
ENDMDL
MODEL 2
REMARK VINA RESULT:      -2.0      1.231      1.243
REMARK  5 active torsions:
REMARK  status: ('A' for Active; 'I' for Inactive)
REMARK    1  A    between atoms: C2_2  and  C3_3 
REMARK    2  A    between atoms: C2_2  and  C4_4 
REMARK    3  A    between atoms: C3_3  and  C5_5 
REMARK    4  A    between atoms: C4_4  and  C6_6 
REMARK    5  A    between atoms: C5_5  and  S7_7 
ROOT
HETATM    1  C2  UNL     1     -35.156   6.241   4.184  1.00 20.00     0.002 C 
ENDROOT
BRANCH   1   2
HETATM    2  C3  UNL     1     -34.220   6.534   3.007  1.00 20.00     0.010 C 
BRANCH   2   3
HETATM    3  C5  UNL     1     -33.256   7.692   3.264  1.00 20.00     0.073 C 
BRANCH   3   4
HETATM    4  S7  UNL     1     -31.999   7.870   1.963  1.00 20.00    -0.173 SA
HETATM    5  C1  UNL     1     -32.058   6.186   1.311  1.00 20.00     0.089 C 
ENDBRANCH   3   4
ENDBRANCH   2   3
ENDBRANCH   1   2
BRANCH   1   6
HETATM    6  C4  UNL     1     -35.040   4.784   4.634  1.00 20.00     0.015 C 
BRANCH   6   7
HETATM    7  C6  UNL     1     -33.917   4.069   3.896  1.00 20.00     0.114 C 
HETATM    8 CL8  UNL     1     -33.127   2.886   4.965  1.00 20.00    -0.130 Cl
ENDBRANCH   6   7
ENDBRANCH   1   6
TORSDOF 5
ENDMDL
MODEL 3
REMARK VINA RESULT:      -1.9      1.093      1.546
REMARK  5 active torsions:
REMARK  status: ('A' for Active; 'I' for Inactive)
REMARK    1  A    between atoms: C2_2  and  C3_3 
REMARK    2  A    between atoms: C2_2  and  C4_4 
REMARK    3  A    between atoms: C3_3  and  C5_5 
REMARK    4  A    between atoms: C4_4  and  C6_6 
REMARK    5  A    between atoms: C5_5  and  S7_7 
ROOT
HETATM    1  C2  UNL     1     -33.875   7.180   3.728  1.00 20.00     0.002 C 
ENDROOT
BRANCH   1   2
HETATM    2  C3  UNL     1     -33.127   7.078   2.394  1.00 20.00     0.010 C 
BRANCH   2   3
HETATM    3  C5  UNL     1     -32.063   8.159   2.204  1.00 20.00     0.073 C 
BRANCH   3   4
HETATM    4  S7  UNL     1     -31.773   8.570   0.457  1.00 20.00    -0.173 SA
HETATM    5  C1  UNL     1     -32.598  10.176   0.427  1.00 20.00     0.089 C 
ENDBRANCH   3   4
ENDBRANCH   2   3
ENDBRANCH   1   2
BRANCH   1   6
HETATM    6  C4  UNL     1     -35.209   6.434   3.672  1.00 20.00     0.015 C 
BRANCH   6   7
HETATM    7  C6  UNL     1     -35.201   5.224   4.594  1.00 20.00     0.114 C 
HETATM    8 CL8  UNL     1     -33.980   4.045   4.059  1.00 20.00    -0.130 Cl
ENDBRANCH   6   7
ENDBRANCH   1   6
TORSDOF 5
ENDMDL
MODEL 4
REMARK VINA RESULT:      -1.9      3.607      5.298
REMARK  5 active torsions:
REMARK  status: ('A' for Active; 'I' for Inactive)
REMARK    1  A    between atoms: C2_2  and  C3_3 
REMARK    2  A    between atoms: C2_2  and  C4_4 
REMARK    3  A    between atoms: C3_3  and  C5_5 
REMARK    4  A    between atoms: C4_4  and  C6_6 
REMARK    5  A    between atoms: C5_5  and  S7_7 
ROOT
HETATM    1  C2  UNL     1     -31.960   6.808   1.508  1.00 20.00     0.002 C 
ENDROOT
BRANCH   1   2
HETATM    2  C3  UNL     1     -33.183   6.128   2.133  1.00 20.00     0.010 C 
BRANCH   2   3
HETATM    3  C5  UNL     1     -33.836   6.944   3.248  1.00 20.00     0.073 C 
BRANCH   3   4
HETATM    4  S7  UNL     1     -35.147   6.036   4.118  1.00 20.00    -0.173 SA
HETATM    5  C1  UNL     1     -34.335   4.424   4.204  1.00 20.00     0.089 C 
ENDBRANCH   3   4
ENDBRANCH   2   3
ENDBRANCH   1   2
BRANCH   1   6
HETATM    6  C4  UNL     1     -32.016   8.326   1.694  1.00 20.00     0.015 C 
BRANCH   6   7
HETATM    7  C6  UNL     1     -31.956   9.046   0.354  1.00 20.00     0.114 C 
HETATM    8 CL8  UNL     1     -32.745  10.637   0.469  1.00 20.00    -0.130 Cl
ENDBRANCH   6   7
ENDBRANCH   1   6
TORSDOF 5
ENDMDL
MODEL 5
REMARK VINA RESULT:      -1.9      1.630      2.253
REMARK  5 active torsions:
REMARK  status: ('A' for Active; 'I' for Inactive)
REMARK    1  A    between atoms: C2_2  and  C3_3 
REMARK    2  A    between atoms: C2_2  and  C4_4 
REMARK    3  A    between atoms: C3_3  and  C5_5 
REMARK    4  A    between atoms: C4_4  and  C6_6 
REMARK    5  A    between atoms: C5_5  and  S7_7 
ROOT
HETATM    1  C2  UNL     1     -33.283   6.037   2.342  1.00 20.00     0.002 C 
ENDROOT
BRANCH   1   2
HETATM    2  C3  UNL     1     -32.112   6.694   1.603  1.00 20.00     0.010 C 
BRANCH   2   3
HETATM    3  C5  UNL     1     -32.082   8.217   1.733  1.00 20.00     0.073 C 
BRANCH   3   4
HETATM    4  S7  UNL     1     -31.950   9.063   0.130  1.00 20.00    -0.173 SA
HETATM    5  C1  UNL     1     -32.763  10.611   0.585  1.00 20.00     0.089 C 
ENDBRANCH   3   4
ENDBRANCH   2   3
ENDBRANCH   1   2
BRANCH   1   6
HETATM    6  C4  UNL     1     -33.957   7.023   3.298  1.00 20.00     0.015 C 
BRANCH   6   7
HETATM    7  C6  UNL     1     -35.122   6.369   4.029  1.00 20.00     0.114 C 
HETATM    8 CL8  UNL     1     -34.763   4.658   4.362  1.00 20.00    -0.130 Cl
ENDBRANCH   6   7
ENDBRANCH   1   6
TORSDOF 5
ENDMDL
MODEL 6
REMARK VINA RESULT:      -1.7      3.600      5.439
REMARK  5 active torsions:
REMARK  status: ('A' for Active; 'I' for Inactive)
REMARK    1  A    between atoms: C2_2  and  C3_3 
REMARK    2  A    between atoms: C2_2  and  C4_4 
REMARK    3  A    between atoms: C3_3  and  C5_5 
REMARK    4  A    between atoms: C4_4  and  C6_6 
REMARK    5  A    between atoms: C5_5  and  S7_7 
ROOT
HETATM    1  C2  UNL     1     -32.002   8.031   1.723  1.00 20.00     0.002 C 
ENDROOT
BRANCH   1   2
HETATM    2  C3  UNL     1     -32.330   6.563   1.429  1.00 20.00     0.010 C 
BRANCH   2   3
HETATM    3  C5  UNL     1     -33.252   5.921   2.464  1.00 20.00     0.073 C 
BRANCH   3   4
HETATM    4  S7  UNL     1     -34.008   7.132   3.589  1.00 20.00    -0.173 SA
HETATM    5  C1  UNL     1     -35.400   6.129   4.154  1.00 20.00     0.089 C 
ENDBRANCH   3   4
ENDBRANCH   2   3
ENDBRANCH   1   2
BRANCH   1   6
HETATM    6  C4  UNL     1     -31.455   8.735   0.480  1.00 20.00     0.015 C 
BRANCH   6   7
HETATM    7  C6  UNL     1     -32.502   9.653  -0.136  1.00 20.00     0.114 C 
HETATM    8 CL8  UNL     1     -32.696  11.122   0.850  1.00 20.00    -0.130 Cl
ENDBRANCH   6   7
ENDBRANCH   1   6
TORSDOF 5
ENDMDL
MODEL 7
REMARK VINA RESULT:      -1.7      3.278      4.846
REMARK  5 active torsions:
REMARK  status: ('A' for Active; 'I' for Inactive)
REMARK    1  A    between atoms: C2_2  and  C3_3 
REMARK    2  A    between atoms: C2_2  and  C4_4 
REMARK    3  A    between atoms: C3_3  and  C5_5 
REMARK    4  A    between atoms: C4_4  and  C6_6 
REMARK    5  A    between atoms: C5_5  and  S7_7 
ROOT
HETATM    1  C2  UNL     1     -33.711   7.193   3.586  1.00 20.00     0.002 C 
ENDROOT
BRANCH   1   2
HETATM    2  C3  UNL     1     -35.027   6.423   3.741  1.00 20.00     0.010 C 
BRANCH   2   3
HETATM    3  C5  UNL     1     -34.872   5.081   4.455  1.00 20.00     0.073 C 
BRANCH   3   4
HETATM    4  S7  UNL     1     -33.735   3.949   3.601  1.00 20.00    -0.173 SA
HETATM    5  C1  UNL     1     -33.166   3.016   5.040  1.00 20.00     0.089 C 
ENDBRANCH   3   4
ENDBRANCH   2   3
ENDBRANCH   1   2
BRANCH   1   6
HETATM    6  C4  UNL     1     -33.137   7.033   2.177  1.00 20.00     0.015 C 
BRANCH   6   7
HETATM    7  C6  UNL     1     -31.949   7.959   1.959  1.00 20.00     0.114 C 
HETATM    8 CL8  UNL     1     -32.353   9.214   0.763  1.00 20.00    -0.130 Cl
ENDBRANCH   6   7
ENDBRANCH   1   6
TORSDOF 5
ENDMDL
MODEL 8
REMARK VINA RESULT:      -1.6      3.656      5.015
REMARK  5 active torsions:
REMARK  status: ('A' for Active; 'I' for Inactive)
REMARK    1  A    between atoms: C2_2  and  C3_3 
REMARK    2  A    between atoms: C2_2  and  C4_4 
REMARK    3  A    between atoms: C3_3  and  C5_5 
REMARK    4  A    between atoms: C4_4  and  C6_6 
REMARK    5  A    between atoms: C5_5  and  S7_7 
ROOT
HETATM    1  C2  UNL     1     -31.850   6.697   1.606  1.00 20.00     0.002 C 
ENDROOT
BRANCH   1   2
HETATM    2  C3  UNL     1     -33.189   5.955   1.677  1.00 20.00     0.010 C 
BRANCH   2   3
HETATM    3  C5  UNL     1     -33.546   5.468   3.081  1.00 20.00     0.073 C 
BRANCH   3   4
HETATM    4  S7  UNL     1     -34.951   6.364   3.808  1.00 20.00    -0.173 SA
HETATM    5  C1  UNL     1     -34.036   7.754   4.511  1.00 20.00     0.089 C 
ENDBRANCH   3   4
ENDBRANCH   2   3
ENDBRANCH   1   2
BRANCH   1   6
HETATM    6  C4  UNL     1     -32.049   8.210   1.721  1.00 20.00     0.015 C 
BRANCH   6   7
HETATM    7  C6  UNL     1     -31.949   8.881   0.358  1.00 20.00     0.114 C 
HETATM    8 CL8  UNL     1     -32.650  10.516   0.419  1.00 20.00    -0.130 Cl
ENDBRANCH   6   7
ENDBRANCH   1   6
TORSDOF 5
ENDMDL
MODEL 9
REMARK VINA RESULT:      -1.5      2.208      2.736
REMARK  5 active torsions:
REMARK  status: ('A' for Active; 'I' for Inactive)
REMARK    1  A    between atoms: C2_2  and  C3_3 
REMARK    2  A    between atoms: C2_2  and  C4_4 
REMARK    3  A    between atoms: C3_3  and  C5_5 
REMARK    4  A    between atoms: C4_4  and  C6_6 
REMARK    5  A    between atoms: C5_5  and  S7_7 
ROOT
HETATM    1  C2  UNL     1     -33.261   6.070   1.658  1.00 20.00     0.002 C 
ENDROOT
BRANCH   1   2
HETATM    2  C3  UNL     1     -31.896   6.769   1.644  1.00 20.00     0.010 C 
BRANCH   2   3
HETATM    3  C5  UNL     1     -31.988   8.294   1.660  1.00 20.00     0.073 C 
BRANCH   3   4
HETATM    4  S7  UNL     1     -32.108   9.015  -0.004  1.00 20.00    -0.173 SA
HETATM    5  C1  UNL     1     -32.694  10.658   0.467  1.00 20.00     0.089 C 
ENDBRANCH   3   4
ENDBRANCH   2   3
ENDBRANCH   1   2
BRANCH   1   6
HETATM    6  C4  UNL     1     -33.586   5.519   3.047  1.00 20.00     0.015 C 
BRANCH   6   7
HETATM    7  C6  UNL     1     -34.705   6.313   3.705  1.00 20.00     0.114 C 
HETATM    8 CL8  UNL     1     -34.058   7.788   4.461  1.00 20.00    -0.130 Cl
ENDBRANCH   6   7
ENDBRANCH   1   6
TORSDOF 5
ENDMDL
