MODEL 1
REMARK VINA RESULT:      -1.5      0.000      0.000
REMARK  2 active torsions:
REMARK  status: ('A' for Active; 'I' for Inactive)
REMARK    1  A    between atoms: C3_3  and  C7_7 
REMARK    2  A    between atoms: C3_3  and  O11_11 
ROOT
HETATM    1  C1  UNL     1     -33.412   6.322   2.513  1.00 20.00    -0.070 C 
HETATM    2  C2  UNL     1     -33.010   5.506   1.530  1.00 20.00    -0.027 C 
HETATM    3  C4  UNL     1     -32.617   7.495   3.011  1.00 20.00     0.034 C 
HETATM    4  C5  UNL     1     -33.309   7.857   4.319  1.00 20.00     0.005 C 
HETATM    5  C6  UNL     1     -34.771   7.491   4.082  1.00 20.00     0.019 C 
HETATM    6  C7  UNL     1     -34.715   6.209   3.255  1.00 20.00     0.114 C 
HETATM    7  C8  UNL     1     -31.726   5.665   0.790  1.00 20.00     0.036 C 
ENDROOT
BRANCH   6   8
HETATM    8  C3  UNL     1     -34.677   4.993   4.132  1.00 20.00     0.266 C 
HETATM    9  O10 UNL     1     -35.565   4.687   4.918  1.00 20.00    -0.265 OA
BRANCH   8  10
HETATM   10  O11 UNL     1     -33.518   4.309   3.915  1.00 20.00    -0.326 OA
HETATM   11  C9  UNL     1     -33.383   3.082   4.639  1.00 20.00     0.213 C 
ENDBRANCH   8  10
ENDBRANCH   6   8
TORSDOF 2
ENDMDL
MODEL 2
REMARK VINA RESULT:      -1.4      1.855      3.660
REMARK  2 active torsions:
REMARK  status: ('A' for Active; 'I' for Inactive)
REMARK    1  A    between atoms: C3_3  and  C7_7 
REMARK    2  A    between atoms: C3_3  and  O11_11 
ROOT
HETATM    1  C1  UNL     1     -33.666   5.038   3.922  1.00 20.00    -0.070 C 
HETATM    2  C2  UNL     1     -32.920   3.930   4.016  1.00 20.00    -0.027 C 
HETATM    3  C4  UNL     1     -35.116   5.111   4.308  1.00 20.00     0.034 C 
HETATM    4  C5  UNL     1     -35.574   6.428   3.695  1.00 20.00     0.005 C 
HETATM    5  C6  UNL     1     -34.337   7.317   3.750  1.00 20.00     0.019 C 
HETATM    6  C7  UNL     1     -33.175   6.375   3.441  1.00 20.00     0.114 C 
HETATM    7  C8  UNL     1     -33.427   2.625   4.529  1.00 20.00     0.036 C 
ENDROOT
BRANCH   6   8
HETATM    8  C3  UNL     1     -32.909   6.300   1.967  1.00 20.00     0.266 C 
HETATM    9  O10 UNL     1     -33.588   5.652   1.181  1.00 20.00    -0.265 OA
BRANCH   8  10
HETATM   10  O11 UNL     1     -31.814   7.053   1.661  1.00 20.00    -0.326 OA
HETATM   11  C9  UNL     1     -32.078   8.424   1.351  1.00 20.00     0.213 C 
ENDBRANCH   8  10
ENDBRANCH   6   8
TORSDOF 2
ENDMDL
MODEL 3
REMARK VINA RESULT:      -1.0      1.189      1.760
REMARK  2 active torsions:
REMARK  status: ('A' for Active; 'I' for Inactive)
REMARK    1  A    between atoms: C3_3  and  C7_7 
REMARK    2  A    between atoms: C3_3  and  O11_11 
ROOT
HETATM    1  C1  UNL     1     -33.369   7.051   2.628  1.00 20.00    -0.070 C 
HETATM    2  C2  UNL     1     -32.539   7.176   1.585  1.00 20.00    -0.027 C 
HETATM    3  C4  UNL     1     -33.521   8.082   3.710  1.00 20.00     0.034 C 
HETATM    4  C5  UNL     1     -34.276   7.334   4.801  1.00 20.00     0.005 C 
HETATM    5  C6  UNL     1     -35.154   6.346   4.040  1.00 20.00     0.019 C 
HETATM    6  C7  UNL     1     -34.284   5.883   2.872  1.00 20.00     0.114 C 
HETATM    7  C8  UNL     1     -31.666   8.362   1.352  1.00 20.00     0.036 C 
ENDROOT
BRANCH   6   8
HETATM    8  C3  UNL     1     -33.463   4.685   3.245  1.00 20.00     0.266 C 
HETATM    9  O10 UNL     1     -32.379   4.415   2.744  1.00 20.00    -0.265 OA
BRANCH   8  10
HETATM   10  O11 UNL     1     -34.112   3.967   4.205  1.00 20.00    -0.326 OA
HETATM   11  C9  UNL     1     -33.345   2.925   4.818  1.00 20.00     0.213 C 
ENDBRANCH   8  10
ENDBRANCH   6   8
TORSDOF 2
ENDMDL
MODEL 4
REMARK VINA RESULT:      -0.8      2.605      4.606
REMARK  2 active torsions:
REMARK  status: ('A' for Active; 'I' for Inactive)
REMARK    1  A    between atoms: C3_3  and  C7_7 
REMARK    2  A    between atoms: C3_3  and  O11_11 
ROOT
HETATM    1  C1  UNL     1     -33.651   6.271   2.588  1.00 20.00    -0.070 C 
HETATM    2  C2  UNL     1     -34.617   6.842   3.319  1.00 20.00    -0.027 C 
HETATM    3  C4  UNL     1     -33.105   4.896   2.844  1.00 20.00     0.034 C 
HETATM    4  C5  UNL     1     -31.833   4.863   2.005  1.00 20.00     0.005 C 
HETATM    5  C6  UNL     1     -32.151   5.757   0.811  1.00 20.00     0.019 C 
HETATM    6  C7  UNL     1     -32.982   6.896   1.396  1.00 20.00     0.114 C 
HETATM    7  C8  UNL     1     -35.286   6.182   4.476  1.00 20.00     0.036 C 
ENDROOT
BRANCH   6   8
HETATM    8  C3  UNL     1     -32.111   8.026   1.859  1.00 20.00     0.266 C 
HETATM    9  O10 UNL     1     -31.863   8.263   3.034  1.00 20.00    -0.265 OA
BRANCH   8  10
HETATM   10  O11 UNL     1     -31.657   8.725   0.779  1.00 20.00    -0.326 OA
HETATM   11  C9  UNL     1     -32.487   9.812   0.357  1.00 20.00     0.213 C 
ENDBRANCH   8  10
ENDBRANCH   6   8
TORSDOF 2
ENDMDL
MODEL 5
REMARK VINA RESULT:       0.3      2.955      4.221
REMARK  2 active torsions:
REMARK  status: ('A' for Active; 'I' for Inactive)
REMARK    1  A    between atoms: C3_3  and  C7_7 
REMARK    2  A    between atoms: C3_3  and  O11_11 
ROOT
HETATM    1  C1  UNL     1     -32.786   6.602   2.133  1.00 20.00    -0.070 C 
HETATM    2  C2  UNL     1     -32.339   5.952   1.051  1.00 20.00    -0.027 C 
HETATM    3  C4  UNL     1     -33.880   6.092   3.028  1.00 20.00     0.034 C 
HETATM    4  C5  UNL     1     -34.247   7.314   3.861  1.00 20.00     0.005 C 
HETATM    5  C6  UNL     1     -32.937   8.086   3.991  1.00 20.00     0.019 C 
HETATM    6  C7  UNL     1     -32.259   7.918   2.633  1.00 20.00     0.114 C 
HETATM    7  C8  UNL     1     -32.859   4.630   0.600  1.00 20.00     0.036 C 
ENDROOT
BRANCH   6   8
HETATM    8  C3  UNL     1     -32.666   9.003   1.681  1.00 20.00     0.266 C 
HETATM    9  O10 UNL     1     -33.574   9.796   1.894  1.00 20.00    -0.265 OA
BRANCH   8  10
HETATM   10  O11 UNL     1     -31.877   8.956   0.569  1.00 20.00    -0.326 OA
HETATM   11  C9  UNL     1     -32.256   9.838  -0.492  1.00 20.00     0.213 C 
ENDBRANCH   8  10
ENDBRANCH   6   8
TORSDOF 2
ENDMDL
MODEL 6
REMARK VINA RESULT:       0.3      2.085      3.235
REMARK  2 active torsions:
REMARK  status: ('A' for Active; 'I' for Inactive)
REMARK    1  A    between atoms: C3_3  and  C7_7 
REMARK    2  A    between atoms: C3_3  and  O11_11 
ROOT
HETATM    1  C1  UNL     1     -32.515   7.802   1.615  1.00 20.00    -0.070 C 
HETATM    2  C2  UNL     1     -32.400   9.134   1.533  1.00 20.00    -0.027 C 
HETATM    3  C4  UNL     1     -32.644   6.895   0.425  1.00 20.00     0.034 C 
HETATM    4  C5  UNL     1     -33.094   5.575   1.039  1.00 20.00     0.005 C 
HETATM    5  C6  UNL     1     -32.436   5.560   2.416  1.00 20.00     0.019 C 
HETATM    6  C7  UNL     1     -32.513   7.009   2.892  1.00 20.00     0.114 C 
HETATM    7  C8  UNL     1     -32.371   9.890   0.249  1.00 20.00     0.036 C 
ENDROOT
BRANCH   6   8
HETATM    8  C3  UNL     1     -33.789   7.272   3.636  1.00 20.00     0.266 C 
HETATM    9  O10 UNL     1     -33.939   8.186   4.436  1.00 20.00    -0.265 OA
BRANCH   8  10
HETATM   10  O11 UNL     1     -34.725   6.345   3.281  1.00 20.00    -0.326 OA
HETATM   11  C9  UNL     1     -35.424   5.730   4.367  1.00 20.00     0.213 C 
ENDBRANCH   8  10
ENDBRANCH   6   8
TORSDOF 2
ENDMDL
MODEL 7
REMARK VINA RESULT:       0.4      1.699      2.378
REMARK  2 active torsions:
REMARK  status: ('A' for Active; 'I' for Inactive)
REMARK    1  A    between atoms: C3_3  and  C7_7 
REMARK    2  A    between atoms: C3_3  and  O11_11 
ROOT
HETATM    1  C1  UNL     1     -32.674   6.728   1.752  1.00 20.00    -0.070 C 
HETATM    2  C2  UNL     1     -32.929   5.452   1.436  1.00 20.00    -0.027 C 
HETATM    3  C4  UNL     1     -31.339   7.390   1.565  1.00 20.00     0.034 C 
HETATM    4  C5  UNL     1     -31.467   8.671   2.380  1.00 20.00     0.005 C 
HETATM    5  C6  UNL     1     -32.944   9.037   2.272  1.00 20.00     0.019 C 
HETATM    6  C7  UNL     1     -33.675   7.697   2.319  1.00 20.00     0.114 C 
HETATM    7  C8  UNL     1     -31.924   4.524   0.844  1.00 20.00     0.036 C 
ENDROOT
BRANCH   6   8
HETATM    8  C3  UNL     1     -33.998   7.300   3.729  1.00 20.00     0.266 C 
HETATM    9  O10 UNL     1     -33.321   7.611   4.700  1.00 20.00    -0.265 OA
BRANCH   8  10
HETATM   10  O11 UNL     1     -35.140   6.556   3.743  1.00 20.00    -0.326 OA
HETATM   11  C9  UNL     1     -35.028   5.269   4.359  1.00 20.00     0.213 C 
ENDBRANCH   8  10
ENDBRANCH   6   8
TORSDOF 2
ENDMDL
MODEL 8
REMARK VINA RESULT:       0.9      1.436      2.243
REMARK  2 active torsions:
REMARK  status: ('A' for Active; 'I' for Inactive)
REMARK    1  A    between atoms: C3_3  and  C7_7 
REMARK    2  A    between atoms: C3_3  and  O11_11 
ROOT
HETATM    1  C1  UNL     1     -33.186   7.481   2.630  1.00 20.00    -0.070 C 
HETATM    2  C2  UNL     1     -32.345   7.728   1.618  1.00 20.00    -0.027 C 
HETATM    3  C4  UNL     1     -33.281   8.326   3.869  1.00 20.00     0.034 C 
HETATM    4  C5  UNL     1     -34.084   7.454   4.825  1.00 20.00     0.005 C 
HETATM    5  C6  UNL     1     -35.016   6.659   3.915  1.00 20.00     0.019 C 
HETATM    6  C7  UNL     1     -34.170   6.346   2.683  1.00 20.00     0.114 C 
HETATM    7  C8  UNL     1     -31.403   8.883   1.579  1.00 20.00     0.036 C 
ENDROOT
BRANCH   6   8
HETATM    8  C3  UNL     1     -33.423   5.056   2.847  1.00 20.00     0.266 C 
HETATM    9  O10 UNL     1     -33.655   4.236   3.726  1.00 20.00    -0.265 OA
BRANCH   8  10
HETATM   10  O11 UNL     1     -32.467   4.954   1.880  1.00 20.00    -0.326 OA
HETATM   11  C9  UNL     1     -32.944   4.599   0.579  1.00 20.00     0.213 C 
ENDBRANCH   8  10
ENDBRANCH   6   8
TORSDOF 2
ENDMDL
MODEL 9
REMARK VINA RESULT:       0.9      1.644      3.383
REMARK  2 active torsions:
REMARK  status: ('A' for Active; 'I' for Inactive)
REMARK    1  A    between atoms: C3_3  and  C7_7 
REMARK    2  A    between atoms: C3_3  and  O11_11 
ROOT
HETATM    1  C1  UNL     1     -33.415   4.697   3.191  1.00 20.00    -0.070 C 
HETATM    2  C2  UNL     1     -33.855   3.914   4.184  1.00 20.00    -0.027 C 
HETATM    3  C4  UNL     1     -32.101   4.507   2.489  1.00 20.00     0.034 C 
HETATM    4  C5  UNL     1     -31.919   5.815   1.729  1.00 20.00     0.005 C 
HETATM    5  C6  UNL     1     -33.340   6.249   1.385  1.00 20.00     0.019 C 
HETATM    6  C7  UNL     1     -34.164   5.865   2.611  1.00 20.00     0.114 C 
HETATM    7  C8  UNL     1     -33.103   2.741   4.715  1.00 20.00     0.036 C 
ENDROOT
BRANCH   6   8
HETATM    8  C3  UNL     1     -34.196   6.976   3.618  1.00 20.00     0.266 C 
HETATM    9  O10 UNL     1     -35.043   7.083   4.495  1.00 20.00    -0.265 OA
BRANCH   8  10
HETATM   10  O11 UNL     1     -33.152   7.825   3.395  1.00 20.00    -0.326 OA
HETATM   11  C9  UNL     1     -32.593   8.433   4.563  1.00 20.00     0.213 C 
ENDBRANCH   8  10
ENDBRANCH   6   8
TORSDOF 2
ENDMDL
