MODEL 1
REMARK VINA RESULT:       1.6      0.000      0.000
REMARK  0 active torsions:
REMARK  status: ('A' for Active; 'I' for Inactive)
ROOT
HETATM    1  C1  UNL     1     -32.622   5.652   1.019  1.00 20.00     0.005 C 
HETATM    2  C2  UNL     1     -31.602   6.583   1.667  1.00 20.00     0.033 C 
HETATM    3  C3  UNL     1     -34.014   5.746   1.638  1.00 20.00     0.033 C 
HETATM    4  C4  UNL     1     -32.212   7.845   2.307  1.00 20.00     0.052 C 
HETATM    5  C5  UNL     1     -34.019   6.256   3.091  1.00 20.00     0.052 C 
HETATM    6  C6  UNL     1     -32.727   8.807   1.218  1.00 20.00     0.040 C 
HETATM    7  C7  UNL     1     -31.094   8.579   3.078  1.00 20.00     0.040 C 
HETATM    8  C8  UNL     1     -33.406   5.211   4.043  1.00 20.00     0.040 C 
HETATM    9  C9  UNL     1     -35.483   6.483   3.519  1.00 20.00     0.040 C 
HETATM   10  N10 UNL     1     -33.342   7.556   3.208  1.00 20.00    -0.234 N 
HETATM   11  F11 UNL     1     -33.128   7.922   4.514  1.00 20.00    -0.103 F 
ENDROOT
TORSDOF 0
ENDMDL
MODEL 2
REMARK VINA RESULT:       2.0      0.399      3.273
REMARK  0 active torsions:
REMARK  status: ('A' for Active; 'I' for Inactive)
ROOT
HETATM    1  C1  UNL     1     -32.677   5.681   1.029  1.00 20.00     0.005 C 
HETATM    2  C2  UNL     1     -34.057   5.713   1.679  1.00 20.00     0.033 C 
HETATM    3  C3  UNL     1     -31.671   6.624   1.685  1.00 20.00     0.033 C 
HETATM    4  C4  UNL     1     -34.048   6.118   3.167  1.00 20.00     0.052 C 
HETATM    5  C5  UNL     1     -32.317   7.809   2.428  1.00 20.00     0.052 C 
HETATM    6  C6  UNL     1     -33.427   4.998   4.027  1.00 20.00     0.040 C 
HETATM    7  C7  UNL     1     -35.512   6.289   3.626  1.00 20.00     0.040 C 
HETATM    8  C8  UNL     1     -32.958   8.798   1.434  1.00 20.00     0.040 C 
HETATM    9  C9  UNL     1     -31.210   8.560   3.194  1.00 20.00     0.040 C 
HETATM   10  N10 UNL     1     -33.286   7.350   3.433  1.00 20.00    -0.234 N 
HETATM   11  F11 UNL     1     -34.040   8.378   3.944  1.00 20.00    -0.103 F 
ENDROOT
TORSDOF 0
ENDMDL
MODEL 3
REMARK VINA RESULT:       2.2      1.751      2.669
REMARK  0 active torsions:
REMARK  status: ('A' for Active; 'I' for Inactive)
ROOT
HETATM    1  C1  UNL     1     -34.567   5.042   3.974  1.00 20.00     0.005 C 
HETATM    2  C2  UNL     1     -33.233   4.836   3.263  1.00 20.00     0.033 C 
HETATM    3  C3  UNL     1     -35.094   6.472   3.879  1.00 20.00     0.033 C 
HETATM    4  C4  UNL     1     -32.982   5.805   2.091  1.00 20.00     0.052 C 
HETATM    5  C5  UNL     1     -33.999   7.528   3.641  1.00 20.00     0.052 C 
HETATM    6  C6  UNL     1     -33.915   5.475   0.908  1.00 20.00     0.040 C 
HETATM    7  C7  UNL     1     -31.532   5.601   1.602  1.00 20.00     0.040 C 
HETATM    8  C8  UNL     1     -33.106   7.686   4.887  1.00 20.00     0.040 C 
HETATM    9  C9  UNL     1     -34.684   8.884   3.375  1.00 20.00     0.040 C 
HETATM   10  N10 UNL     1     -33.203   7.219   2.444  1.00 20.00    -0.234 N 
HETATM   11  F11 UNL     1     -32.083   8.006   2.338  1.00 20.00    -0.103 F 
ENDROOT
TORSDOF 0
ENDMDL
MODEL 4
REMARK VINA RESULT:       2.6      1.818      3.132
REMARK  0 active torsions:
REMARK  status: ('A' for Active; 'I' for Inactive)
ROOT
HETATM    1  C1  UNL     1     -34.632   5.105   3.943  1.00 20.00     0.005 C 
HETATM    2  C2  UNL     1     -35.074   6.559   3.816  1.00 20.00     0.033 C 
HETATM    3  C3  UNL     1     -33.297   4.811   3.262  1.00 20.00     0.033 C 
HETATM    4  C4  UNL     1     -33.916   7.563   3.650  1.00 20.00     0.052 C 
HETATM    5  C5  UNL     1     -32.946   5.790   2.126  1.00 20.00     0.052 C 
HETATM    6  C6  UNL     1     -33.118   7.689   4.964  1.00 20.00     0.040 C 
HETATM    7  C7  UNL     1     -34.523   8.949   3.346  1.00 20.00     0.040 C 
HETATM    8  C8  UNL     1     -33.880   5.588   0.917  1.00 20.00     0.040 C 
HETATM    9  C9  UNL     1     -31.504   5.498   1.664  1.00 20.00     0.040 C 
HETATM   10  N10 UNL     1     -32.962   7.185   2.592  1.00 20.00    -0.234 N 
HETATM   11  F11 UNL     1     -32.883   8.086   1.559  1.00 20.00    -0.103 F 
ENDROOT
TORSDOF 0
ENDMDL
MODEL 5
REMARK VINA RESULT:       2.9      1.773      2.996
REMARK  0 active torsions:
REMARK  status: ('A' for Active; 'I' for Inactive)
ROOT
HETATM    1  C1  UNL     1     -34.268   6.568   3.440  1.00 20.00     0.005 C 
HETATM    2  C2  UNL     1     -34.064   7.924   2.771  1.00 20.00     0.033 C 
HETATM    3  C3  UNL     1     -33.228   5.526   3.039  1.00 20.00     0.033 C 
HETATM    4  C4  UNL     1     -32.604   8.223   2.378  1.00 20.00     0.052 C 
HETATM    5  C5  UNL     1     -32.570   5.793   1.672  1.00 20.00     0.052 C 
HETATM    6  C6  UNL     1     -31.746   8.467   3.636  1.00 20.00     0.040 C 
HETATM    7  C7  UNL     1     -32.588   9.526   1.551  1.00 20.00     0.040 C 
HETATM    8  C8  UNL     1     -33.577   5.578   0.525  1.00 20.00     0.040 C 
HETATM    9  C9  UNL     1     -31.418   4.785   1.485  1.00 20.00     0.040 C 
HETATM   10  N10 UNL     1     -31.968   7.133   1.617  1.00 20.00    -0.234 N 
HETATM   11  F11 UNL     1     -31.582   7.484   0.347  1.00 20.00    -0.103 F 
ENDROOT
TORSDOF 0
ENDMDL
MODEL 6
REMARK VINA RESULT:       3.3      1.678      2.625
REMARK  0 active torsions:
REMARK  status: ('A' for Active; 'I' for Inactive)
ROOT
HETATM    1  C1  UNL     1     -31.718   8.397   1.657  1.00 20.00     0.005 C 
HETATM    2  C2  UNL     1     -32.052   8.261   3.140  1.00 20.00     0.033 C 
HETATM    3  C3  UNL     1     -32.422   7.369   0.776  1.00 20.00     0.033 C 
HETATM    4  C4  UNL     1     -33.431   7.634   3.424  1.00 20.00     0.052 C 
HETATM    5  C5  UNL     1     -32.828   6.082   1.519  1.00 20.00     0.052 C 
HETATM    6  C6  UNL     1     -34.558   8.611   3.034  1.00 20.00     0.040 C 
HETATM    7  C7  UNL     1     -33.541   7.390   4.945  1.00 20.00     0.040 C 
HETATM    8  C8  UNL     1     -31.586   5.255   1.906  1.00 20.00     0.040 C 
HETATM    9  C9  UNL     1     -33.689   5.226   0.569  1.00 20.00     0.040 C 
HETATM   10  N10 UNL     1     -33.664   6.378   2.692  1.00 20.00    -0.234 N 
HETATM   11  F11 UNL     1     -33.846   5.282   3.498  1.00 20.00    -0.103 F 
ENDROOT
TORSDOF 0
ENDMDL
MODEL 7
REMARK VINA RESULT:       3.4      1.702      3.666
REMARK  0 active torsions:
REMARK  status: ('A' for Active; 'I' for Inactive)
ROOT
HETATM    1  C1  UNL     1     -33.126   8.404   4.459  1.00 20.00     0.005 C 
HETATM    2  C2  UNL     1     -33.299   6.894   4.600  1.00 20.00     0.033 C 
HETATM    3  C3  UNL     1     -33.050   8.877   3.010  1.00 20.00     0.033 C 
HETATM    4  C4  UNL     1     -33.998   6.222   3.402  1.00 20.00     0.052 C 
HETATM    5  C5  UNL     1     -32.574   7.794   2.023  1.00 20.00     0.052 C 
HETATM    6  C6  UNL     1     -35.490   6.611   3.359  1.00 20.00     0.040 C 
HETATM    7  C7  UNL     1     -33.929   4.693   3.604  1.00 20.00     0.040 C 
HETATM    8  C8  UNL     1     -31.085   7.464   2.244  1.00 20.00     0.040 C 
HETATM    9  C9  UNL     1     -32.729   8.344   0.591  1.00 20.00     0.040 C 
HETATM   10  N10 UNL     1     -33.411   6.588   2.101  1.00 20.00    -0.234 N 
HETATM   11  F11 UNL     1     -32.876   5.530   1.408  1.00 20.00    -0.103 F 
ENDROOT
TORSDOF 0
ENDMDL
MODEL 8
REMARK VINA RESULT:       3.6      1.688      3.032
REMARK  0 active torsions:
REMARK  status: ('A' for Active; 'I' for Inactive)
ROOT
HETATM    1  C1  UNL     1     -31.836   8.493   1.496  1.00 20.00     0.005 C 
HETATM    2  C2  UNL     1     -32.611   7.401   0.765  1.00 20.00     0.033 C 
HETATM    3  C3  UNL     1     -31.990   8.439   3.014  1.00 20.00     0.033 C 
HETATM    4  C4  UNL     1     -32.842   6.123   1.596  1.00 20.00     0.052 C 
HETATM    5  C5  UNL     1     -33.282   7.746   3.487  1.00 20.00     0.052 C 
HETATM    6  C6  UNL     1     -31.517   5.359   1.791  1.00 20.00     0.040 C 
HETATM    7  C7  UNL     1     -33.791   5.201   0.801  1.00 20.00     0.040 C 
HETATM    8  C8  UNL     1     -34.520   8.601   3.152  1.00 20.00     0.040 C 
HETATM    9  C9  UNL     1     -33.214   7.592   5.019  1.00 20.00     0.040 C 
HETATM   10  N10 UNL     1     -33.398   6.388   2.934  1.00 20.00    -0.234 N 
HETATM   11  F11 UNL     1     -34.637   5.838   3.148  1.00 20.00    -0.103 F 
ENDROOT
TORSDOF 0
ENDMDL
MODEL 9
REMARK VINA RESULT:       3.7      1.835      3.377
REMARK  0 active torsions:
REMARK  status: ('A' for Active; 'I' for Inactive)
ROOT
HETATM    1  C1  UNL     1     -32.749   8.084   2.809  1.00 20.00     0.005 C 
HETATM    2  C2  UNL     1     -33.366   7.333   3.985  1.00 20.00     0.033 C 
HETATM    3  C3  UNL     1     -32.776   7.298   1.501  1.00 20.00     0.033 C 
HETATM    4  C4  UNL     1     -34.437   6.299   3.586  1.00 20.00     0.052 C 
HETATM    5  C5  UNL     1     -32.846   5.770   1.690  1.00 20.00     0.052 C 
HETATM    6  C6  UNL     1     -35.712   7.008   3.084  1.00 20.00     0.040 C 
HETATM    7  C7  UNL     1     -34.824   5.498   4.847  1.00 20.00     0.040 C 
HETATM    8  C8  UNL     1     -31.524   5.227   2.267  1.00 20.00     0.040 C 
HETATM    9  C9  UNL     1     -33.061   5.121   0.309  1.00 20.00     0.040 C 
HETATM   10  N10 UNL     1     -33.996   5.382   2.520  1.00 20.00    -0.234 N 
HETATM   11  F11 UNL     1     -33.952   4.062   2.895  1.00 20.00    -0.103 F 
ENDROOT
TORSDOF 0
ENDMDL
