MODEL 1
REMARK VINA RESULT:      -0.5      0.000      0.000
REMARK  0 active torsions:
REMARK  status: ('A' for Active; 'I' for Inactive)
ROOT
HETATM    1  C1  UNL     1     -32.554   6.058   1.692  1.00 20.00     0.222 C 
HETATM    2  C2  UNL     1     -34.304   7.182   4.534  1.00 20.00     0.001 C 
HETATM    3  C3  UNL     1     -34.419   6.147   3.417  1.00 20.00     0.014 C 
HETATM    4  C4  UNL     1     -33.084   8.006   4.156  1.00 20.00     0.007 C 
HETATM    5  C5  UNL     1     -31.928   8.330   1.895  1.00 20.00     0.128 C 
HETATM    6  C6  UNL     1     -33.784   6.796   2.187  1.00 20.00     0.083 C 
HETATM    7  C7  UNL     1     -33.234   8.155   2.644  1.00 20.00     0.016 C 
HETATM    8  N8  UNL     1     -31.534   6.991   1.554  1.00 20.00    -0.360 N 
HETATM    9  O9  UNL     1     -32.494   4.864   1.442  1.00 20.00    -0.273 OA
HETATM   10  H20 UNL     1     -30.598   6.749   1.241  1.00 20.00     0.162 HD
ENDROOT
TORSDOF 0
ENDMDL
MODEL 2
REMARK VINA RESULT:      -0.4      1.636      2.136
REMARK  0 active torsions:
REMARK  status: ('A' for Active; 'I' for Inactive)
ROOT
HETATM    1  C1  UNL     1     -33.815   4.745   3.417  1.00 20.00     0.222 C 
HETATM    2  C2  UNL     1     -33.813   8.172   4.231  1.00 20.00     0.001 C 
HETATM    3  C3  UNL     1     -34.639   6.909   4.467  1.00 20.00     0.014 C 
HETATM    4  C4  UNL     1     -32.747   7.740   3.239  1.00 20.00     0.007 C 
HETATM    5  C5  UNL     1     -32.688   5.768   1.607  1.00 20.00     0.128 C 
HETATM    6  C6  UNL     1     -34.499   6.080   3.190  1.00 20.00     0.083 C 
HETATM    7  C7  UNL     1     -33.522   6.839   2.280  1.00 20.00     0.016 C 
HETATM    8  N8  UNL     1     -32.790   4.636   2.486  1.00 20.00    -0.360 N 
HETATM    9  O9  UNL     1     -34.135   3.916   4.256  1.00 20.00    -0.273 OA
HETATM   10  H20 UNL     1     -32.172   3.832   2.432  1.00 20.00     0.162 HD
ENDROOT
TORSDOF 0
ENDMDL
MODEL 3
REMARK VINA RESULT:      -0.4      1.616      2.368
REMARK  0 active torsions:
REMARK  status: ('A' for Active; 'I' for Inactive)
ROOT
HETATM    1  C1  UNL     1     -32.445   7.835   1.780  1.00 20.00     0.222 C 
HETATM    2  C2  UNL     1     -34.819   7.058   4.262  1.00 20.00     0.001 C 
HETATM    3  C3  UNL     1     -33.755   8.105   3.942  1.00 20.00     0.014 C 
HETATM    4  C4  UNL     1     -34.653   6.011   3.173  1.00 20.00     0.007 C 
HETATM    5  C5  UNL     1     -32.656   5.483   1.660  1.00 20.00     0.128 C 
HETATM    6  C6  UNL     1     -32.646   7.354   3.204  1.00 20.00     0.083 C 
HETATM    7  C7  UNL     1     -33.136   5.908   3.033  1.00 20.00     0.016 C 
HETATM    8  N8  UNL     1     -32.467   6.720   0.953  1.00 20.00    -0.360 N 
HETATM    9  O9  UNL     1     -32.270   8.996   1.441  1.00 20.00    -0.273 OA
HETATM   10  H20 UNL     1     -32.361   6.773  -0.056  1.00 20.00     0.162 HD
ENDROOT
TORSDOF 0
ENDMDL
MODEL 4
REMARK VINA RESULT:       0.0      1.373      2.823
REMARK  0 active torsions:
REMARK  status: ('A' for Active; 'I' for Inactive)
ROOT
HETATM    1  C1  UNL     1     -32.760   6.246   1.779  1.00 20.00     0.222 C 
HETATM    2  C2  UNL     1     -32.104   9.497   0.594  1.00 20.00     0.001 C 
HETATM    3  C3  UNL     1     -31.613   8.062   0.419  1.00 20.00     0.014 C 
HETATM    4  C4  UNL     1     -33.111   9.412   1.729  1.00 20.00     0.007 C 
HETATM    5  C5  UNL     1     -33.404   7.653   3.567  1.00 20.00     0.128 C 
HETATM    6  C6  UNL     1     -31.775   7.400   1.788  1.00 20.00     0.083 C 
HETATM    7  C7  UNL     1     -32.442   8.441   2.700  1.00 20.00     0.016 C 
HETATM    8  N8  UNL     1     -33.662   6.458   2.814  1.00 20.00    -0.360 N 
HETATM    9  O9  UNL     1     -32.736   5.297   1.011  1.00 20.00    -0.273 OA
HETATM   10  H20 UNL     1     -34.432   5.827   3.018  1.00 20.00     0.162 HD
ENDROOT
TORSDOF 0
ENDMDL
MODEL 5
REMARK VINA RESULT:       0.1      2.089      2.970
REMARK  0 active torsions:
REMARK  status: ('A' for Active; 'I' for Inactive)
ROOT
HETATM    1  C1  UNL     1     -34.662   6.684   3.746  1.00 20.00     0.222 C 
HETATM    2  C2  UNL     1     -32.321   6.722   1.116  1.00 20.00     0.001 C 
HETATM    3  C3  UNL     1     -33.304   5.774   1.800  1.00 20.00     0.014 C 
HETATM    4  C4  UNL     1     -32.354   7.976   1.973  1.00 20.00     0.007 C 
HETATM    5  C5  UNL     1     -33.081   8.314   4.404  1.00 20.00     0.128 C 
HETATM    6  C6  UNL     1     -33.311   6.181   3.273  1.00 20.00     0.083 C 
HETATM    7  C7  UNL     1     -32.402   7.414   3.392  1.00 20.00     0.016 C 
HETATM    8  N8  UNL     1     -34.457   7.905   4.376  1.00 20.00    -0.360 N 
HETATM    9  O9  UNL     1     -35.725   6.097   3.612  1.00 20.00    -0.273 OA
HETATM   10  H20 UNL     1     -35.210   8.456   4.778  1.00 20.00     0.162 HD
ENDROOT
TORSDOF 0
ENDMDL
MODEL 6
REMARK VINA RESULT:       0.1      2.171      3.322
REMARK  0 active torsions:
REMARK  status: ('A' for Active; 'I' for Inactive)
ROOT
HETATM    1  C1  UNL     1     -32.538   8.252   3.693  1.00 20.00     0.222 C 
HETATM    2  C2  UNL     1     -32.458   5.572   1.410  1.00 20.00     0.001 C 
HETATM    3  C3  UNL     1     -31.946   7.002   1.560  1.00 20.00     0.014 C 
HETATM    4  C4  UNL     1     -33.361   5.370   2.616  1.00 20.00     0.007 C 
HETATM    5  C5  UNL     1     -34.546   7.075   4.114  1.00 20.00     0.128 C 
HETATM    6  C6  UNL     1     -33.024   7.746   2.348  1.00 20.00     0.083 C 
HETATM    7  C7  UNL     1     -34.094   6.706   2.716  1.00 20.00     0.016 C 
HETATM    8  N8  UNL     1     -33.448   7.828   4.654  1.00 20.00    -0.360 N 
HETATM    9  O9  UNL     1     -31.539   8.929   3.878  1.00 20.00    -0.273 OA
HETATM   10  H20 UNL     1     -33.346   8.032   5.644  1.00 20.00     0.162 HD
ENDROOT
TORSDOF 0
ENDMDL
MODEL 7
REMARK VINA RESULT:       0.2      2.167      3.427
REMARK  0 active torsions:
REMARK  status: ('A' for Active; 'I' for Inactive)
ROOT
HETATM    1  C1  UNL     1     -33.843   7.249   3.862  1.00 20.00     0.222 C 
HETATM    2  C2  UNL     1     -31.351   7.466   1.383  1.00 20.00     0.001 C 
HETATM    3  C3  UNL     1     -32.274   8.366   2.203  1.00 20.00     0.014 C 
HETATM    4  C4  UNL     1     -31.794   6.056   1.735  1.00 20.00     0.007 C 
HETATM    5  C5  UNL     1     -34.004   5.196   2.700  1.00 20.00     0.128 C 
HETATM    6  C6  UNL     1     -33.559   7.562   2.405  1.00 20.00     0.083 C 
HETATM    7  C7  UNL     1     -33.315   6.182   1.777  1.00 20.00     0.016 C 
HETATM    8  N8  UNL     1     -34.081   5.884   3.959  1.00 20.00    -0.360 N 
HETATM    9  O9  UNL     1     -33.876   8.065   4.771  1.00 20.00    -0.273 OA
HETATM   10  H20 UNL     1     -34.291   5.417   4.836  1.00 20.00     0.162 HD
ENDROOT
TORSDOF 0
ENDMDL
MODEL 8
REMARK VINA RESULT:       0.3      1.790      2.806
REMARK  0 active torsions:
REMARK  status: ('A' for Active; 'I' for Inactive)
ROOT
HETATM    1  C1  UNL     1     -32.492   7.769   2.653  1.00 20.00     0.222 C 
HETATM    2  C2  UNL     1     -33.324   4.352   2.462  1.00 20.00     0.001 C 
HETATM    3  C3  UNL     1     -32.757   5.473   1.594  1.00 20.00     0.014 C 
HETATM    4  C4  UNL     1     -33.725   5.045   3.753  1.00 20.00     0.007 C 
HETATM    5  C5  UNL     1     -34.232   7.509   4.233  1.00 20.00     0.128 C 
HETATM    6  C6  UNL     1     -33.451   6.751   2.065  1.00 20.00     0.083 C 
HETATM    7  C7  UNL     1     -34.336   6.354   3.257  1.00 20.00     0.016 C 
HETATM    8  N8  UNL     1     -32.995   8.153   3.890  1.00 20.00    -0.360 N 
HETATM    9  O9  UNL     1     -31.478   8.183   2.113  1.00 20.00    -0.273 OA
HETATM   10  H20 UNL     1     -32.531   8.825   4.494  1.00 20.00     0.162 HD
ENDROOT
TORSDOF 0
ENDMDL
