MODEL 1
REMARK VINA RESULT:      -3.1      0.000      0.000
REMARK  1 active torsions:
REMARK  status: ('A' for Active; 'I' for Inactive)
REMARK    1  A    between atoms: C3_3  and  C4_4 
ROOT
HETATM    1  C1  UNL     1     -32.856   7.933   2.756  1.00 20.00     0.065 A 
HETATM    2  C2  UNL     1     -31.942   7.652   1.775  1.00 20.00     0.172 A 
HETATM    3  C3  UNL     1     -33.595   6.744   2.875  1.00 20.00     0.169 A 
HETATM    4  N5  UNL     1     -33.173   5.797   2.033  1.00 20.00    -0.124 NA
HETATM    5  O6  UNL     1     -32.121   6.379   1.335  1.00 20.00    -0.225 OA
ENDROOT
BRANCH   3   6
HETATM    6  C4  UNL     1     -34.719   6.469   3.785  1.00 20.00     0.436 C 
HETATM    7  F7  UNL     1     -35.960   6.642   3.222  1.00 20.00    -0.164 F 
HETATM    8  F8  UNL     1     -34.748   5.187   4.279  1.00 20.00    -0.164 F 
HETATM    9  F9  UNL     1     -34.727   7.272   4.898  1.00 20.00    -0.164 F 
ENDBRANCH   3   6
TORSDOF 1
ENDMDL
MODEL 2
REMARK VINA RESULT:      -3.1      0.017      1.253
REMARK  1 active torsions:
REMARK  status: ('A' for Active; 'I' for Inactive)
REMARK    1  A    between atoms: C3_3  and  C4_4 
ROOT
HETATM    1  C1  UNL     1     -32.847   7.936   2.748  1.00 20.00     0.065 A 
HETATM    2  C2  UNL     1     -31.936   7.656   1.764  1.00 20.00     0.172 A 
HETATM    3  C3  UNL     1     -33.586   6.747   2.870  1.00 20.00     0.169 A 
HETATM    4  N5  UNL     1     -33.166   5.801   2.025  1.00 20.00    -0.124 NA
HETATM    5  O6  UNL     1     -32.117   6.383   1.325  1.00 20.00    -0.225 OA
ENDROOT
BRANCH   3   6
HETATM    6  C4  UNL     1     -34.706   6.472   3.783  1.00 20.00     0.436 C 
HETATM    7  F7  UNL     1     -34.733   7.267   4.904  1.00 20.00    -0.164 F 
HETATM    8  F8  UNL     1     -35.949   6.639   3.222  1.00 20.00    -0.164 F 
HETATM    9  F9  UNL     1     -34.712   5.188   4.267  1.00 20.00    -0.164 F 
ENDBRANCH   3   6
TORSDOF 1
ENDMDL
MODEL 3
REMARK VINA RESULT:      -3.1      1.098      1.249
REMARK  1 active torsions:
REMARK  status: ('A' for Active; 'I' for Inactive)
REMARK    1  A    between atoms: C3_3  and  C4_4 
ROOT
HETATM    1  C1  UNL     1     -33.129   5.797   1.884  1.00 20.00     0.065 A 
HETATM    2  C2  UNL     1     -32.106   6.506   1.311  1.00 20.00     0.172 A 
HETATM    3  C3  UNL     1     -33.635   6.670   2.863  1.00 20.00     0.169 A 
HETATM    4  N5  UNL     1     -32.976   7.831   2.895  1.00 20.00    -0.124 NA
HETATM    5  O6  UNL     1     -32.006   7.722   1.906  1.00 20.00    -0.225 OA
ENDROOT
BRANCH   3   6
HETATM    6  C4  UNL     1     -34.750   6.432   3.792  1.00 20.00     0.436 C 
HETATM    7  F7  UNL     1     -35.996   6.616   3.243  1.00 20.00    -0.164 F 
HETATM    8  F8  UNL     1     -34.795   5.161   4.312  1.00 20.00    -0.164 F 
HETATM    9  F9  UNL     1     -34.730   7.256   4.890  1.00 20.00    -0.164 F 
ENDBRANCH   3   6
TORSDOF 1
ENDMDL
MODEL 4
REMARK VINA RESULT:      -3.1      1.093      1.769
REMARK  1 active torsions:
REMARK  status: ('A' for Active; 'I' for Inactive)
REMARK    1  A    between atoms: C3_3  and  C4_4 
ROOT
HETATM    1  C1  UNL     1     -33.110   5.787   1.879  1.00 20.00     0.065 A 
HETATM    2  C2  UNL     1     -32.088   6.489   1.297  1.00 20.00     0.172 A 
HETATM    3  C3  UNL     1     -33.612   6.670   2.850  1.00 20.00     0.169 A 
HETATM    4  N5  UNL     1     -32.952   7.830   2.870  1.00 20.00    -0.124 NA
HETATM    5  O6  UNL     1     -31.984   7.711   1.880  1.00 20.00    -0.225 OA
ENDROOT
BRANCH   3   6
HETATM    6  C4  UNL     1     -34.725   6.442   3.785  1.00 20.00     0.436 C 
HETATM    7  F7  UNL     1     -34.716   7.260   4.889  1.00 20.00    -0.164 F 
HETATM    8  F8  UNL     1     -35.972   6.627   3.239  1.00 20.00    -0.164 F 
HETATM    9  F9  UNL     1     -34.755   5.168   4.297  1.00 20.00    -0.164 F 
ENDBRANCH   3   6
TORSDOF 1
ENDMDL
MODEL 5
REMARK VINA RESULT:      -3.1      1.094      1.770
REMARK  1 active torsions:
REMARK  status: ('A' for Active; 'I' for Inactive)
REMARK    1  A    between atoms: C3_3  and  C4_4 
ROOT
HETATM    1  C1  UNL     1     -33.109   5.782   1.888  1.00 20.00     0.065 A 
HETATM    2  C2  UNL     1     -32.084   6.483   1.309  1.00 20.00     0.172 A 
HETATM    3  C3  UNL     1     -33.617   6.669   2.853  1.00 20.00     0.169 A 
HETATM    4  N5  UNL     1     -32.957   7.830   2.871  1.00 20.00    -0.124 NA
HETATM    5  O6  UNL     1     -31.984   7.707   1.888  1.00 20.00    -0.225 OA
ENDROOT
BRANCH   3   6
HETATM    6  C4  UNL     1     -34.736   6.445   3.782  1.00 20.00     0.436 C 
HETATM    7  F7  UNL     1     -34.793   5.176   4.306  1.00 20.00    -0.164 F 
HETATM    8  F8  UNL     1     -34.731   7.265   4.884  1.00 20.00    -0.164 F 
HETATM    9  F9  UNL     1     -35.968   6.639   3.208  1.00 20.00    -0.164 F 
ENDBRANCH   3   6
TORSDOF 1
ENDMDL
MODEL 6
REMARK VINA RESULT:      -2.9      0.144      1.263
REMARK  1 active torsions:
REMARK  status: ('A' for Active; 'I' for Inactive)
REMARK    1  A    between atoms: C3_3  and  C4_4 
ROOT
HETATM    1  C1  UNL     1     -32.774   7.757   2.868  1.00 20.00     0.065 A 
HETATM    2  C2  UNL     1     -31.913   7.468   1.842  1.00 20.00     0.172 A 
HETATM    3  C3  UNL     1     -33.634   6.645   2.907  1.00 20.00     0.169 A 
HETATM    4  N5  UNL     1     -33.330   5.737   1.976  1.00 20.00    -0.124 NA
HETATM    5  O6  UNL     1     -32.235   6.264   1.302  1.00 20.00    -0.225 OA
ENDROOT
BRANCH   3   6
HETATM    6  C4  UNL     1     -34.763   6.411   3.821  1.00 20.00     0.436 C 
HETATM    7  F7  UNL     1     -34.821   5.139   4.336  1.00 20.00    -0.164 F 
HETATM    8  F8  UNL     1     -34.774   7.225   4.928  1.00 20.00    -0.164 F 
HETATM    9  F9  UNL     1     -35.988   6.605   3.233  1.00 20.00    -0.164 F 
ENDBRANCH   3   6
TORSDOF 1
ENDMDL
MODEL 7
REMARK VINA RESULT:      -2.8      2.873      3.492
REMARK  1 active torsions:
REMARK  status: ('A' for Active; 'I' for Inactive)
REMARK    1  A    between atoms: C3_3  and  C4_4 
ROOT
HETATM    1  C1  UNL     1     -34.091   7.646   3.839  1.00 20.00     0.065 A 
HETATM    2  C2  UNL     1     -34.863   6.551   4.126  1.00 20.00     0.172 A 
HETATM    3  C3  UNL     1     -33.190   7.175   2.869  1.00 20.00     0.169 A 
HETATM    4  N5  UNL     1     -33.387   5.886   2.577  1.00 20.00    -0.124 NA
HETATM    5  O6  UNL     1     -34.452   5.495   3.379  1.00 20.00    -0.225 OA
ENDROOT
BRANCH   3   6
HETATM    6  C4  UNL     1     -32.120   7.925   2.193  1.00 20.00     0.436 C 
HETATM    7  F7  UNL     1     -32.565   8.909   1.344  1.00 20.00    -0.164 F 
HETATM    8  F8  UNL     1     -31.260   8.578   3.044  1.00 20.00    -0.164 F 
HETATM    9  F9  UNL     1     -31.308   7.136   1.416  1.00 20.00    -0.164 F 
ENDBRANCH   3   6
TORSDOF 1
ENDMDL
MODEL 8
REMARK VINA RESULT:      -2.6      3.129      3.743
REMARK  1 active torsions:
REMARK  status: ('A' for Active; 'I' for Inactive)
REMARK    1  A    between atoms: C3_3  and  C4_4 
ROOT
HETATM    1  C1  UNL     1     -33.862   6.031   2.790  1.00 20.00     0.065 A 
HETATM    2  C2  UNL     1     -34.828   6.003   3.762  1.00 20.00     0.172 A 
HETATM    3  C3  UNL     1     -33.253   7.286   2.959  1.00 20.00     0.169 A 
HETATM    4  N5  UNL     1     -33.799   7.984   3.958  1.00 20.00    -0.124 NA
HETATM    5  O6  UNL     1     -34.799   7.164   4.466  1.00 20.00    -0.225 OA
ENDROOT
BRANCH   3   6
HETATM    6  C4  UNL     1     -32.142   7.860   2.183  1.00 20.00     0.436 C 
HETATM    7  F7  UNL     1     -32.522   8.812   1.269  1.00 20.00    -0.164 F 
HETATM    8  F8  UNL     1     -31.183   8.484   2.943  1.00 20.00    -0.164 F 
HETATM    9  F9  UNL     1     -31.453   6.927   1.448  1.00 20.00    -0.164 F 
ENDBRANCH   3   6
TORSDOF 1
ENDMDL
MODEL 9
REMARK VINA RESULT:      -2.5      2.924      3.542
REMARK  1 active torsions:
REMARK  status: ('A' for Active; 'I' for Inactive)
REMARK    1  A    between atoms: C3_3  and  C4_4 
ROOT
HETATM    1  C1  UNL     1     -34.685   6.640   3.529  1.00 20.00     0.065 A 
HETATM    2  C2  UNL     1     -35.305   5.851   4.462  1.00 20.00     0.172 A 
HETATM    3  C3  UNL     1     -33.785   5.767   2.896  1.00 20.00     0.169 A 
HETATM    4  N5  UNL     1     -33.841   4.530   3.398  1.00 20.00    -0.124 NA
HETATM    5  O6  UNL     1     -34.809   4.589   4.393  1.00 20.00    -0.225 OA
ENDROOT
BRANCH   3   6
HETATM    6  C4  UNL     1     -32.849   6.074   1.803  1.00 20.00     0.436 C 
HETATM    7  F7  UNL     1     -32.315   7.339   1.852  1.00 20.00    -0.164 F 
HETATM    8  F8  UNL     1     -31.753   5.247   1.746  1.00 20.00    -0.164 F 
HETATM    9  F9  UNL     1     -33.418   5.985   0.557  1.00 20.00    -0.164 F 
ENDBRANCH   3   6
TORSDOF 1
ENDMDL
