MODEL 1
REMARK VINA RESULT:      -1.9      0.000      0.000
REMARK  0 active torsions:
REMARK  status: ('A' for Active; 'I' for Inactive)
ROOT
HETATM    1  C1  UNL     1     -32.479   7.596   2.130  1.00 20.00     0.124 C 
HETATM    2  C2  UNL     1     -34.317   7.307   3.690  1.00 20.00     0.024 C 
HETATM    3  C3  UNL     1     -33.402   6.815   2.861  1.00 20.00     0.145 C 
HETATM    4  C4  UNL     1     -35.123   6.189   4.224  1.00 20.00     0.057 C 
HETATM    5  C5  UNL     1     -34.321   4.988   3.734  1.00 20.00     0.180 C 
HETATM    6  N6  UNL     1     -31.720   8.237   1.531  1.00 20.00    -0.189 NA
HETATM    7  O7  UNL     1     -33.412   5.434   2.707  1.00 20.00    -0.341 OA
ENDROOT
TORSDOF 0
ENDMDL
MODEL 2
REMARK VINA RESULT:      -1.8      2.368      3.525
REMARK  0 active torsions:
REMARK  status: ('A' for Active; 'I' for Inactive)
ROOT
HETATM    1  C1  UNL     1     -34.580   6.152   3.664  1.00 20.00     0.124 C 
HETATM    2  C2  UNL     1     -32.976   5.882   1.861  1.00 20.00     0.024 C 
HETATM    3  C3  UNL     1     -33.544   6.609   2.818  1.00 20.00     0.145 C 
HETATM    4  C4  UNL     1     -31.974   6.717   1.164  1.00 20.00     0.057 C 
HETATM    5  C5  UNL     1     -31.925   7.939   2.075  1.00 20.00     0.180 C 
HETATM    6  N6  UNL     1     -35.430   5.776   4.359  1.00 20.00    -0.189 NA
HETATM    7  O7  UNL     1     -33.081   7.913   2.937  1.00 20.00    -0.341 OA
ENDROOT
TORSDOF 0
ENDMDL
MODEL 3
REMARK VINA RESULT:      -1.7      2.170      3.230
REMARK  0 active torsions:
REMARK  status: ('A' for Active; 'I' for Inactive)
ROOT
HETATM    1  C1  UNL     1     -34.645   6.225   3.696  1.00 20.00     0.124 C 
HETATM    2  C2  UNL     1     -33.025   7.882   2.973  1.00 20.00     0.024 C 
HETATM    3  C3  UNL     1     -33.575   6.675   2.891  1.00 20.00     0.145 C 
HETATM    4  C4  UNL     1     -31.907   7.959   2.008  1.00 20.00     0.057 C 
HETATM    5  C5  UNL     1     -32.112   6.673   1.216  1.00 20.00     0.180 C 
HETATM    6  N6  UNL     1     -35.525   5.856   4.357  1.00 20.00    -0.189 NA
HETATM    7  O7  UNL     1     -33.005   5.817   1.959  1.00 20.00    -0.341 OA
ENDROOT
TORSDOF 0
ENDMDL
MODEL 4
REMARK VINA RESULT:      -1.5      1.050      1.487
REMARK  0 active torsions:
REMARK  status: ('A' for Active; 'I' for Inactive)
ROOT
HETATM    1  C1  UNL     1     -32.432   7.727   2.019  1.00 20.00     0.124 C 
HETATM    2  C2  UNL     1     -33.427   5.617   2.690  1.00 20.00     0.024 C 
HETATM    3  C3  UNL     1     -33.316   6.938   2.788  1.00 20.00     0.145 C 
HETATM    4  C4  UNL     1     -34.413   5.149   3.687  1.00 20.00     0.057 C 
HETATM    5  C5  UNL     1     -34.998   6.473   4.165  1.00 20.00     0.180 C 
HETATM    6  N6  UNL     1     -31.707   8.376   1.386  1.00 20.00    -0.189 NA
HETATM    7  O7  UNL     1     -34.119   7.538   3.749  1.00 20.00    -0.341 OA
ENDROOT
TORSDOF 0
ENDMDL
MODEL 5
REMARK VINA RESULT:      -1.3      2.990      3.715
REMARK  0 active torsions:
REMARK  status: ('A' for Active; 'I' for Inactive)
ROOT
HETATM    1  C1  UNL     1     -33.586   3.282   4.393  1.00 20.00     0.124 C 
HETATM    2  C2  UNL     1     -33.435   5.467   3.346  1.00 20.00     0.024 C 
HETATM    3  C3  UNL     1     -34.088   4.562   4.067  1.00 20.00     0.145 C 
HETATM    4  C4  UNL     1     -34.301   6.654   3.177  1.00 20.00     0.057 C 
HETATM    5  C5  UNL     1     -35.434   6.330   4.145  1.00 20.00     0.180 C 
HETATM    6  N6  UNL     1     -33.173   2.231   4.661  1.00 20.00    -0.189 NA
HETATM    7  O7  UNL     1     -35.363   4.929   4.479  1.00 20.00    -0.341 OA
ENDROOT
TORSDOF 0
ENDMDL
MODEL 6
REMARK VINA RESULT:      -1.0      1.633      2.040
REMARK  0 active torsions:
REMARK  status: ('A' for Active; 'I' for Inactive)
ROOT
HETATM    1  C1  UNL     1     -32.564   5.742   1.689  1.00 20.00     0.124 C 
HETATM    2  C2  UNL     1     -34.396   5.641   3.278  1.00 20.00     0.024 C 
HETATM    3  C3  UNL     1     -33.381   6.282   2.707  1.00 20.00     0.145 C 
HETATM    4  C4  UNL     1     -34.973   6.508   4.327  1.00 20.00     0.057 C 
HETATM    5  C5  UNL     1     -34.254   7.823   4.050  1.00 20.00     0.180 C 
HETATM    6  N6  UNL     1     -31.892   5.299   0.852  1.00 20.00    -0.189 NA
HETATM    7  O7  UNL     1     -33.121   7.554   3.199  1.00 20.00    -0.341 OA
ENDROOT
TORSDOF 0
ENDMDL
MODEL 7
REMARK VINA RESULT:      -0.9      1.524      1.817
REMARK  0 active torsions:
REMARK  status: ('A' for Active; 'I' for Inactive)
ROOT
HETATM    1  C1  UNL     1     -32.554   5.740   1.661  1.00 20.00     0.124 C 
HETATM    2  C2  UNL     1     -33.122   7.544   3.183  1.00 20.00     0.024 C 
HETATM    3  C3  UNL     1     -33.355   6.347   2.654  1.00 20.00     0.145 C 
HETATM    4  C4  UNL     1     -34.201   7.854   4.146  1.00 20.00     0.057 C 
HETATM    5  C5  UNL     1     -34.917   6.510   4.228  1.00 20.00     0.180 C 
HETATM    6  N6  UNL     1     -31.895   5.241   0.845  1.00 20.00    -0.189 NA
HETATM    7  O7  UNL     1     -34.495   5.699   3.112  1.00 20.00    -0.341 OA
ENDROOT
TORSDOF 0
ENDMDL
MODEL 8
REMARK VINA RESULT:      -0.4      2.047      3.047
REMARK  0 active torsions:
REMARK  status: ('A' for Active; 'I' for Inactive)
ROOT
HETATM    1  C1  UNL     1     -33.866   7.468   3.925  1.00 20.00     0.124 C 
HETATM    2  C2  UNL     1     -32.314   7.854   2.098  1.00 20.00     0.024 C 
HETATM    3  C3  UNL     1     -33.126   7.062   2.791  1.00 20.00     0.145 C 
HETATM    4  C4  UNL     1     -31.685   7.060   1.021  1.00 20.00     0.057 C 
HETATM    5  C5  UNL     1     -32.491   5.768   1.099  1.00 20.00     0.180 C 
HETATM    6  N6  UNL     1     -34.474   7.802   4.856  1.00 20.00    -0.189 NA
HETATM    7  O7  UNL     1     -33.196   5.745   2.357  1.00 20.00    -0.341 OA
ENDROOT
TORSDOF 0
ENDMDL
MODEL 9
REMARK VINA RESULT:      -0.2      1.953      2.617
REMARK  0 active torsions:
REMARK  status: ('A' for Active; 'I' for Inactive)
ROOT
HETATM    1  C1  UNL     1     -32.333   5.352   1.091  1.00 20.00     0.124 C 
HETATM    2  C2  UNL     1     -32.193   7.591   2.020  1.00 20.00     0.024 C 
HETATM    3  C3  UNL     1     -32.737   6.379   1.973  1.00 20.00     0.145 C 
HETATM    4  C4  UNL     1     -32.914   8.395   3.029  1.00 20.00     0.057 C 
HETATM    5  C5  UNL     1     -33.775   7.328   3.695  1.00 20.00     0.180 C 
HETATM    6  N6  UNL     1     -32.001   4.508   0.366  1.00 20.00    -0.189 NA
HETATM    7  O7  UNL     1     -33.796   6.162   2.846  1.00 20.00    -0.341 OA
ENDROOT
TORSDOF 0
ENDMDL
