MODEL 1
REMARK VINA RESULT:      -2.0      0.000      0.000
REMARK  1 active torsions:
REMARK  status: ('A' for Active; 'I' for Inactive)
REMARK    1  A    between atoms: C1_1  and  C4_4 
ROOT
HETATM    1  C2  UNL     1     -33.081   6.334   1.859  1.00 20.00     0.035 C 
HETATM    2  C3  UNL     1     -33.245   7.794   3.396  1.00 20.00     0.035 C 
HETATM    3  C4  UNL     1     -33.352   6.248   3.382  1.00 20.00     0.089 C 
HETATM    4  C5  UNL     1     -32.344   7.665   2.144  1.00 20.00     0.084 C 
HETATM    5 CL8  UNL     1     -32.392   8.955   0.915  1.00 20.00    -0.125 Cl
ENDROOT
BRANCH   3   6
HETATM    6  C1  UNL     1     -34.673   5.700   3.782  1.00 20.00     0.177 C 
HETATM    7  O6  UNL     1     -34.668   4.488   4.138  1.00 20.00    -0.648 OA
HETATM    8  O7  UNL     1     -35.630   6.521   3.712  1.00 20.00    -0.648 OA
ENDBRANCH   3   6
TORSDOF 1
ENDMDL
MODEL 2
REMARK VINA RESULT:      -2.0      0.024      1.144
REMARK  1 active torsions:
REMARK  status: ('A' for Active; 'I' for Inactive)
REMARK    1  A    between atoms: C1_1  and  C4_4 
ROOT
HETATM    1  C2  UNL     1     -33.094   6.334   1.867  1.00 20.00     0.035 C 
HETATM    2  C3  UNL     1     -33.252   7.799   3.399  1.00 20.00     0.035 C 
HETATM    3  C4  UNL     1     -33.370   6.255   3.389  1.00 20.00     0.089 C 
HETATM    4  C5  UNL     1     -32.347   7.659   2.150  1.00 20.00     0.084 C 
HETATM    5 CL8  UNL     1     -32.381   8.946   0.917  1.00 20.00    -0.125 Cl
ENDROOT
BRANCH   3   6
HETATM    6  C1  UNL     1     -34.697   5.717   3.786  1.00 20.00     0.177 C 
HETATM    7  O6  UNL     1     -35.656   6.533   3.698  1.00 20.00    -0.648 OA
HETATM    8  O7  UNL     1     -34.688   4.512   4.162  1.00 20.00    -0.648 OA
ENDBRANCH   3   6
TORSDOF 1
ENDMDL
MODEL 3
REMARK VINA RESULT:      -1.5      3.277      3.812
REMARK  1 active torsions:
REMARK  status: ('A' for Active; 'I' for Inactive)
REMARK    1  A    between atoms: C1_1  and  C4_4 
ROOT
HETATM    1  C2  UNL     1     -33.006   5.738   1.980  1.00 20.00     0.035 C 
HETATM    2  C3  UNL     1     -33.800   6.911   3.566  1.00 20.00     0.035 C 
HETATM    3  C4  UNL     1     -33.328   7.247   2.129  1.00 20.00     0.089 C 
HETATM    4  C5  UNL     1     -34.092   5.481   3.052  1.00 20.00     0.084 C 
HETATM    5 CL8  UNL     1     -33.888   4.108   4.171  1.00 20.00    -0.125 Cl
ENDROOT
BRANCH   3   6
HETATM    6  C1  UNL     1     -32.172   8.175   2.041  1.00 20.00     0.177 C 
HETATM    7  O6  UNL     1     -31.562   8.380   3.127  1.00 20.00    -0.648 OA
HETATM    8  O7  UNL     1     -31.952   8.638   0.887  1.00 20.00    -0.648 OA
ENDBRANCH   3   6
TORSDOF 1
ENDMDL
MODEL 4
REMARK VINA RESULT:      -1.4      3.406      4.251
REMARK  1 active torsions:
REMARK  status: ('A' for Active; 'I' for Inactive)
REMARK    1  A    between atoms: C1_1  and  C4_4 
ROOT
HETATM    1  C2  UNL     1     -33.053   8.214   3.246  1.00 20.00     0.035 C 
HETATM    2  C3  UNL     1     -33.126   6.656   1.801  1.00 20.00     0.035 C 
HETATM    3  C4  UNL     1     -32.131   7.813   2.067  1.00 20.00     0.089 C 
HETATM    4  C5  UNL     1     -33.494   6.732   3.302  1.00 20.00     0.084 C 
HETATM    5 CL8  UNL     1     -35.164   6.350   3.798  1.00 20.00    -0.125 Cl
ENDROOT
BRANCH   3   6
HETATM    6  C1  UNL     1     -32.003   8.805   0.969  1.00 20.00     0.177 C 
HETATM    7  O6  UNL     1     -32.825   9.763   1.011  1.00 20.00    -0.648 OA
HETATM    8  O7  UNL     1     -31.087   8.558   0.137  1.00 20.00    -0.648 OA
ENDBRANCH   3   6
TORSDOF 1
ENDMDL
MODEL 5
REMARK VINA RESULT:      -1.3      3.175      3.760
REMARK  1 active torsions:
REMARK  status: ('A' for Active; 'I' for Inactive)
REMARK    1  A    between atoms: C1_1  and  C4_4 
ROOT
HETATM    1  C2  UNL     1     -33.060   4.966   3.063  1.00 20.00     0.035 C 
HETATM    2  C3  UNL     1     -34.633   5.211   4.472  1.00 20.00     0.035 C 
HETATM    3  C4  UNL     1     -34.185   6.018   3.228  1.00 20.00     0.089 C 
HETATM    4  C5  UNL     1     -33.988   3.973   3.804  1.00 20.00     0.084 C 
HETATM    5 CL8  UNL     1     -33.255   2.722   4.841  1.00 20.00    -0.125 Cl
ENDROOT
BRANCH   3   6
HETATM    6  C1  UNL     1     -33.744   7.410   3.500  1.00 20.00     0.177 C 
HETATM    7  O6  UNL     1     -32.907   7.880   2.680  1.00 20.00    -0.648 OA
HETATM    8  O7  UNL     1     -34.267   7.941   4.519  1.00 20.00    -0.648 OA
ENDBRANCH   3   6
TORSDOF 1
ENDMDL
MODEL 6
REMARK VINA RESULT:      -1.0      3.825      4.557
REMARK  1 active torsions:
REMARK  status: ('A' for Active; 'I' for Inactive)
REMARK    1  A    between atoms: C1_1  and  C4_4 
ROOT
HETATM    1  C2  UNL     1     -32.578   8.591   2.651  1.00 20.00     0.035 C 
HETATM    2  C3  UNL     1     -32.908   7.230   1.052  1.00 20.00     0.035 C 
HETATM    3  C4  UNL     1     -32.052   8.513   1.195  1.00 20.00     0.089 C 
HETATM    4  C5  UNL     1     -32.765   7.057   2.583  1.00 20.00     0.084 C 
HETATM    5 CL8  UNL     1     -34.106   6.313   3.493  1.00 20.00    -0.125 Cl
ENDROOT
BRANCH   3   6
HETATM    6  C1  UNL     1     -32.434   9.634   0.300  1.00 20.00     0.177 C 
HETATM    7  O6  UNL     1     -32.380  10.783   0.822  1.00 20.00    -0.648 OA
HETATM    8  O7  UNL     1     -32.764   9.290  -0.869  1.00 20.00    -0.648 OA
ENDBRANCH   3   6
TORSDOF 1
ENDMDL
MODEL 7
REMARK VINA RESULT:      -0.9      3.830      4.500
REMARK  1 active torsions:
REMARK  status: ('A' for Active; 'I' for Inactive)
REMARK    1  A    between atoms: C1_1  and  C4_4 
ROOT
HETATM    1  C2  UNL     1     -32.482   8.525   2.625  1.00 20.00     0.035 C 
HETATM    2  C3  UNL     1     -32.984   7.236   1.011  1.00 20.00     0.035 C 
HETATM    3  C4  UNL     1     -32.063   8.476   1.134  1.00 20.00     0.089 C 
HETATM    4  C5  UNL     1     -32.741   7.003   2.522  1.00 20.00     0.084 C 
HETATM    5 CL8  UNL     1     -34.047   6.285   3.501  1.00 20.00    -0.125 Cl
ENDROOT
BRANCH   3   6
HETATM    6  C1  UNL     1     -32.456   9.643   0.305  1.00 20.00     0.177 C 
HETATM    7  O6  UNL     1     -32.650   9.394  -0.918  1.00 20.00    -0.648 OA
HETATM    8  O7  UNL     1     -32.544  10.734   0.934  1.00 20.00    -0.648 OA
ENDBRANCH   3   6
TORSDOF 1
ENDMDL
MODEL 8
REMARK VINA RESULT:      -0.9      1.308      1.742
REMARK  1 active torsions:
REMARK  status: ('A' for Active; 'I' for Inactive)
REMARK    1  A    between atoms: C1_1  and  C4_4 
ROOT
HETATM    1  C2  UNL     1     -32.523   7.165   1.408  1.00 20.00     0.035 C 
HETATM    2  C3  UNL     1     -32.652   8.929   2.587  1.00 20.00     0.035 C 
HETATM    3  C4  UNL     1     -32.617   7.420   2.933  1.00 20.00     0.089 C 
HETATM    4  C5  UNL     1     -31.885   8.570   1.292  1.00 20.00     0.084 C 
HETATM    5 CL8  UNL     1     -32.184   9.531  -0.180  1.00 20.00    -0.125 Cl
ENDROOT
BRANCH   3   6
HETATM    6  C1  UNL     1     -33.831   6.896   3.610  1.00 20.00     0.177 C 
HETATM    7  O6  UNL     1     -34.336   7.661   4.479  1.00 20.00    -0.648 OA
HETATM    8  O7  UNL     1     -34.198   5.750   3.227  1.00 20.00    -0.648 OA
ENDBRANCH   3   6
TORSDOF 1
ENDMDL
MODEL 9
REMARK VINA RESULT:      -0.8      2.833      3.403
REMARK  1 active torsions:
REMARK  status: ('A' for Active; 'I' for Inactive)
REMARK    1  A    between atoms: C1_1  and  C4_4 
ROOT
HETATM    1  C2  UNL     1     -34.930   4.928   4.599  1.00 20.00     0.035 C 
HETATM    2  C3  UNL     1     -33.200   5.142   3.383  1.00 20.00     0.035 C 
HETATM    3  C4  UNL     1     -34.033   3.918   3.841  1.00 20.00     0.089 C 
HETATM    4  C5  UNL     1     -34.486   5.984   3.560  1.00 20.00     0.084 C 
HETATM    5 CL8  UNL     1     -34.334   7.685   4.073  1.00 20.00    -0.125 Cl
ENDROOT
BRANCH   3   6
HETATM    6  C1  UNL     1     -33.304   2.932   4.679  1.00 20.00     0.177 C 
HETATM    7  O6  UNL     1     -33.576   1.721   4.446  1.00 20.00    -0.648 OA
HETATM    8  O7  UNL     1     -32.506   3.437   5.517  1.00 20.00    -0.648 OA
ENDBRANCH   3   6
TORSDOF 1
ENDMDL
