MODEL 1
REMARK VINA RESULT:      -1.5      0.000      0.000
REMARK  2 active torsions:
REMARK  status: ('A' for Active; 'I' for Inactive)
REMARK    1  A    between atoms: C1_1  and  C3_3 
REMARK    2  A    between atoms: C1_1  and  C8_8 
ROOT
HETATM    1  C1  UNL     1     -33.548   7.045   3.205  1.00 20.00     0.134 C 
HETATM    2  O9  UNL     1     -33.003   7.594   4.163  1.00 20.00    -0.297 OA
ENDROOT
BRANCH   1   3
HETATM    3  C3  UNL     1     -34.890   6.374   3.363  1.00 20.00     0.060 A 
HETATM    4  C2  UNL     1     -35.400   6.148   4.743  1.00 20.00     0.017 A 
HETATM    5  C4  UNL     1     -34.960   4.986   3.899  1.00 20.00    -0.007 A 
HETATM    6  C5  UNL     1     -33.760   4.192   4.289  1.00 20.00     0.011 C 
ENDBRANCH   1   3
BRANCH   1   7
HETATM    7  C8  UNL     1     -32.933   7.034   1.809  1.00 20.00     0.048 C 
HETATM    8  C6  UNL     1     -31.813   8.065   1.726  1.00 20.00     0.017 C 
HETATM    9  C7  UNL     1     -32.417   5.644   1.449  1.00 20.00     0.017 C 
ENDBRANCH   1   7
TORSDOF 2
ENDMDL
MODEL 2
REMARK VINA RESULT:      -1.4      0.417      1.255
REMARK  2 active torsions:
REMARK  status: ('A' for Active; 'I' for Inactive)
REMARK    1  A    between atoms: C1_1  and  C3_3 
REMARK    2  A    between atoms: C1_1  and  C8_8 
ROOT
HETATM    1  C1  UNL     1     -33.298   7.109   3.348  1.00 20.00     0.134 C 
HETATM    2  O9  UNL     1     -33.087   7.781   4.358  1.00 20.00    -0.297 OA
ENDROOT
BRANCH   1   3
HETATM    3  C3  UNL     1     -34.599   6.365   3.176  1.00 20.00     0.060 A 
HETATM    4  C2  UNL     1     -35.420   6.104   4.391  1.00 20.00     0.017 A 
HETATM    5  C4  UNL     1     -34.723   4.972   3.690  1.00 20.00    -0.007 A 
HETATM    6  C5  UNL     1     -33.615   4.243   4.370  1.00 20.00     0.011 C 
ENDBRANCH   1   3
BRANCH   1   7
HETATM    7  C8  UNL     1     -32.292   7.011   2.206  1.00 20.00     0.048 C 
HETATM    8  C6  UNL     1     -32.702   5.901   1.245  1.00 20.00     0.017 C 
HETATM    9  C7  UNL     1     -32.165   8.343   1.473  1.00 20.00     0.017 C 
ENDBRANCH   1   7
TORSDOF 2
ENDMDL
MODEL 3
REMARK VINA RESULT:      -1.4      1.398      3.827
REMARK  2 active torsions:
REMARK  status: ('A' for Active; 'I' for Inactive)
REMARK    1  A    between atoms: C1_1  and  C3_3 
REMARK    2  A    between atoms: C1_1  and  C8_8 
ROOT
HETATM    1  C1  UNL     1     -33.615   5.681   2.967  1.00 20.00     0.134 C 
HETATM    2  O9  UNL     1     -33.180   4.739   3.630  1.00 20.00    -0.297 OA
ENDROOT
BRANCH   1   3
HETATM    3  C3  UNL     1     -33.202   5.864   1.528  1.00 20.00     0.060 A 
HETATM    4  C2  UNL     1     -31.800   5.525   1.155  1.00 20.00     0.017 A 
HETATM    5  C4  UNL     1     -32.255   6.957   1.168  1.00 20.00    -0.007 A 
HETATM    6  C5  UNL     1     -31.684   7.912   2.160  1.00 20.00     0.011 C 
ENDBRANCH   1   3
BRANCH   1   7
HETATM    7  C8  UNL     1     -34.609   6.690   3.532  1.00 20.00     0.048 C 
HETATM    8  C6  UNL     1     -35.699   5.965   4.314  1.00 20.00     0.017 C 
HETATM    9  C7  UNL     1     -33.904   7.719   4.411  1.00 20.00     0.017 C 
ENDBRANCH   1   7
TORSDOF 2
ENDMDL
MODEL 4
REMARK VINA RESULT:      -1.3      1.364      2.008
REMARK  2 active torsions:
REMARK  status: ('A' for Active; 'I' for Inactive)
REMARK    1  A    between atoms: C1_1  and  C3_3 
REMARK    2  A    between atoms: C1_1  and  C8_8 
ROOT
HETATM    1  C1  UNL     1     -32.987   6.889   2.083  1.00 20.00     0.134 C 
HETATM    2  O9  UNL     1     -32.912   5.717   1.711  1.00 20.00    -0.297 OA
ENDROOT
BRANCH   1   3
HETATM    3  C3  UNL     1     -34.167   7.366   2.891  1.00 20.00     0.060 A 
HETATM    4  C2  UNL     1     -33.987   7.530   4.361  1.00 20.00     0.017 A 
HETATM    5  C4  UNL     1     -34.851   6.425   3.822  1.00 20.00    -0.007 A 
HETATM    6  C5  UNL     1     -34.442   5.003   4.002  1.00 20.00     0.011 C 
ENDBRANCH   1   3
BRANCH   1   7
HETATM    7  C8  UNL     1     -31.896   7.912   1.785  1.00 20.00     0.048 C 
HETATM    8  C6  UNL     1     -32.418   8.961   0.810  1.00 20.00     0.017 C 
HETATM    9  C7  UNL     1     -31.396   8.568   3.069  1.00 20.00     0.017 C 
ENDBRANCH   1   7
TORSDOF 2
ENDMDL
MODEL 5
REMARK VINA RESULT:      -1.1      1.373      1.602
REMARK  2 active torsions:
REMARK  status: ('A' for Active; 'I' for Inactive)
REMARK    1  A    between atoms: C1_1  and  C3_3 
REMARK    2  A    between atoms: C1_1  and  C8_8 
ROOT
HETATM    1  C1  UNL     1     -33.351   5.925   2.553  1.00 20.00     0.134 C 
HETATM    2  O9  UNL     1     -33.205   4.842   3.120  1.00 20.00    -0.297 OA
ENDROOT
BRANCH   1   3
HETATM    3  C3  UNL     1     -34.330   6.944   3.080  1.00 20.00     0.060 A 
HETATM    4  C2  UNL     1     -34.167   7.409   4.485  1.00 20.00     0.017 A 
HETATM    5  C4  UNL     1     -35.332   6.540   4.106  1.00 20.00    -0.007 A 
HETATM    6  C5  UNL     1     -35.440   5.157   4.652  1.00 20.00     0.011 C 
ENDBRANCH   1   3
BRANCH   1   7
HETATM    7  C8  UNL     1     -32.544   6.318   1.320  1.00 20.00     0.048 C 
HETATM    8  C6  UNL     1     -31.769   7.602   1.592  1.00 20.00     0.017 C 
HETATM    9  C7  UNL     1     -31.601   5.194   0.902  1.00 20.00     0.017 C 
ENDBRANCH   1   7
TORSDOF 2
ENDMDL
MODEL 6
REMARK VINA RESULT:      -1.0      1.751      4.636
REMARK  2 active torsions:
REMARK  status: ('A' for Active; 'I' for Inactive)
REMARK    1  A    between atoms: C1_1  and  C3_3 
REMARK    2  A    between atoms: C1_1  and  C8_8 
ROOT
HETATM    1  C1  UNL     1     -32.336   8.029   2.177  1.00 20.00     0.134 C 
HETATM    2  O9  UNL     1     -31.517   8.491   2.972  1.00 20.00    -0.297 OA
ENDROOT
BRANCH   1   3
HETATM    3  C3  UNL     1     -32.146   8.196   0.691  1.00 20.00     0.060 A 
HETATM    4  C2  UNL     1     -30.999   9.021   0.221  1.00 20.00     0.017 A 
HETATM    5  C4  UNL     1     -32.406   9.520   0.059  1.00 20.00    -0.007 A 
HETATM    6  C5  UNL     1     -32.866  10.717   0.818  1.00 20.00     0.011 C 
ENDBRANCH   1   3
BRANCH   1   7
HETATM    7  C8  UNL     1     -33.561   7.240   2.631  1.00 20.00     0.048 C 
HETATM    8  C6  UNL     1     -33.302   5.746   2.482  1.00 20.00     0.017 C 
HETATM    9  C7  UNL     1     -33.931   7.586   4.070  1.00 20.00     0.017 C 
ENDBRANCH   1   7
TORSDOF 2
ENDMDL
MODEL 7
REMARK VINA RESULT:      -1.0      1.381      1.913
REMARK  2 active torsions:
REMARK  status: ('A' for Active; 'I' for Inactive)
REMARK    1  A    between atoms: C1_1  and  C3_3 
REMARK    2  A    between atoms: C1_1  and  C8_8 
ROOT
HETATM    1  C1  UNL     1     -33.232   6.994   2.178  1.00 20.00     0.134 C 
HETATM    2  O9  UNL     1     -33.125   5.877   1.672  1.00 20.00    -0.297 OA
ENDROOT
BRANCH   1   3
HETATM    3  C3  UNL     1     -34.411   7.331   3.057  1.00 20.00     0.060 A 
HETATM    4  C2  UNL     1     -34.178   7.455   4.522  1.00 20.00     0.017 A 
HETATM    5  C4  UNL     1     -34.964   6.297   3.976  1.00 20.00    -0.007 A 
HETATM    6  C5  UNL     1     -34.421   4.913   4.079  1.00 20.00     0.011 C 
ENDBRANCH   1   3
BRANCH   1   7
HETATM    7  C8  UNL     1     -32.183   8.084   1.984  1.00 20.00     0.048 C 
HETATM    8  C6  UNL     1     -30.862   7.464   1.547  1.00 20.00     0.017 C 
HETATM    9  C7  UNL     1     -32.655   9.123   0.971  1.00 20.00     0.017 C 
ENDBRANCH   1   7
TORSDOF 2
ENDMDL
MODEL 8
REMARK VINA RESULT:      -0.9      0.791      3.828
REMARK  2 active torsions:
REMARK  status: ('A' for Active; 'I' for Inactive)
REMARK    1  A    between atoms: C1_1  and  C3_3 
REMARK    2  A    between atoms: C1_1  and  C8_8 
ROOT
HETATM    1  C1  UNL     1     -33.807   6.091   3.087  1.00 20.00     0.134 C 
HETATM    2  O9  UNL     1     -33.666   7.142   3.714  1.00 20.00    -0.297 OA
ENDROOT
BRANCH   1   3
HETATM    3  C3  UNL     1     -33.220   5.934   1.707  1.00 20.00     0.060 A 
HETATM    4  C2  UNL     1     -31.786   5.547   1.597  1.00 20.00     0.017 A 
HETATM    5  C4  UNL     1     -32.229   6.930   1.210  1.00 20.00    -0.007 A 
HETATM    6  C5  UNL     1     -31.777   8.107   2.004  1.00 20.00     0.011 C 
ENDBRANCH   1   3
BRANCH   1   7
HETATM    7  C8  UNL     1     -34.541   4.886   3.665  1.00 20.00     0.048 C 
HETATM    8  C6  UNL     1     -33.539   3.888   4.234  1.00 20.00     0.017 C 
HETATM    9  C7  UNL     1     -35.543   5.316   4.733  1.00 20.00     0.017 C 
ENDBRANCH   1   7
TORSDOF 2
ENDMDL
MODEL 9
REMARK VINA RESULT:      -0.9      1.586      2.926
REMARK  2 active torsions:
REMARK  status: ('A' for Active; 'I' for Inactive)
REMARK    1  A    between atoms: C1_1  and  C3_3 
REMARK    2  A    between atoms: C1_1  and  C8_8 
ROOT
HETATM    1  C1  UNL     1     -32.005   8.087   1.873  1.00 20.00     0.134 C 
HETATM    2  O9  UNL     1     -31.681   8.652   2.918  1.00 20.00    -0.297 OA
ENDROOT
BRANCH   1   3
HETATM    3  C3  UNL     1     -32.135   6.585   1.819  1.00 20.00     0.060 A 
HETATM    4  C2  UNL     1     -33.287   6.010   1.070  1.00 20.00     0.017 A 
HETATM    5  C4  UNL     1     -33.235   5.914   2.568  1.00 20.00    -0.007 A 
HETATM    6  C5  UNL     1     -34.233   6.648   3.398  1.00 20.00     0.011 C 
ENDBRANCH   1   3
BRANCH   1   7
HETATM    7  C8  UNL     1     -32.325   8.852   0.593  1.00 20.00     0.048 C 
HETATM    8  C6  UNL     1     -32.749  10.276   0.930  1.00 20.00     0.017 C 
HETATM    9  C7  UNL     1     -31.130   8.853  -0.356  1.00 20.00     0.017 C 
ENDBRANCH   1   7
TORSDOF 2
ENDMDL
