MODEL 1
REMARK VINA RESULT:       1.4      0.000      0.000
REMARK  0 active torsions:
REMARK  status: ('A' for Active; 'I' for Inactive)
ROOT
HETATM    1  C1  UNL     1     -34.643   5.332   4.072  1.00 20.00     0.134 C 
HETATM    2  C2  UNL     1     -33.366   4.833   3.424  1.00 20.00     0.109 C 
HETATM    3  C3  UNL     1     -33.733   7.593   4.584  1.00 20.00     0.044 C 
HETATM    4  C4  UNL     1     -32.997   5.668   2.189  1.00 20.00     0.280 C 
HETATM    5  C5  UNL     1     -32.745   7.759   3.424  1.00 20.00     0.273 C 
HETATM    6  C6  UNL     1     -34.811   7.210   2.503  1.00 20.00     0.284 C 
HETATM    7  C7  UNL     1     -34.898   6.827   3.968  1.00 20.00     0.085 C 
HETATM    8  N8  UNL     1     -33.360   7.100   2.252  1.00 20.00     0.089 N 
HETATM    9  O9  UNL     1     -35.387   4.585   4.704  1.00 20.00    -0.297 OA
ENDROOT
TORSDOF 0
ENDMDL
MODEL 2
REMARK VINA RESULT:       1.6      1.084      1.165
REMARK  0 active torsions:
REMARK  status: ('A' for Active; 'I' for Inactive)
ROOT
HETATM    1  C1  UNL     1     -34.449   6.413   3.709  1.00 20.00     0.134 C 
HETATM    2  C2  UNL     1     -33.381   5.623   2.975  1.00 20.00     0.109 C 
HETATM    3  C3  UNL     1     -32.866   8.131   4.572  1.00 20.00     0.044 C 
HETATM    4  C4  UNL     1     -32.702   6.470   1.888  1.00 20.00     0.280 C 
HETATM    5  C5  UNL     1     -31.828   8.137   3.445  1.00 20.00     0.273 C 
HETATM    6  C6  UNL     1     -33.916   8.460   2.468  1.00 20.00     0.284 C 
HETATM    7  C7  UNL     1     -34.190   7.903   3.852  1.00 20.00     0.085 C 
HETATM    8  N8  UNL     1     -32.573   7.913   2.187  1.00 20.00     0.089 N 
HETATM    9  O9  UNL     1     -35.425   5.868   4.218  1.00 20.00    -0.297 OA
ENDROOT
TORSDOF 0
ENDMDL
MODEL 3
REMARK VINA RESULT:       1.6      2.161      3.230
REMARK  0 active torsions:
REMARK  status: ('A' for Active; 'I' for Inactive)
ROOT
HETATM    1  C1  UNL     1     -32.663   7.478   2.570  1.00 20.00     0.134 C 
HETATM    2  C2  UNL     1     -32.782   7.883   4.027  1.00 20.00     0.109 C 
HETATM    3  C3  UNL     1     -33.308   5.106   2.969  1.00 20.00     0.044 C 
HETATM    4  C4  UNL     1     -34.213   7.689   4.550  1.00 20.00     0.280 C 
HETATM    5  C5  UNL     1     -34.245   5.277   4.171  1.00 20.00     0.273 C 
HETATM    6  C6  UNL     1     -34.992   6.713   2.498  1.00 20.00     0.284 C 
HETATM    7  C7  UNL     1     -33.570   6.345   2.120  1.00 20.00     0.085 C 
HETATM    8  N8  UNL     1     -34.961   6.554   3.966  1.00 20.00     0.089 N 
HETATM    9  O9  UNL     1     -31.833   7.987   1.820  1.00 20.00    -0.297 OA
ENDROOT
TORSDOF 0
ENDMDL
MODEL 4
REMARK VINA RESULT:       1.9      2.233      2.952
REMARK  0 active torsions:
REMARK  status: ('A' for Active; 'I' for Inactive)
ROOT
HETATM    1  C1  UNL     1     -32.799   7.477   2.287  1.00 20.00     0.134 C 
HETATM    2  C2  UNL     1     -33.090   6.077   1.780  1.00 20.00     0.109 C 
HETATM    3  C3  UNL     1     -35.044   7.784   3.320  1.00 20.00     0.044 C 
HETATM    4  C4  UNL     1     -33.400   5.113   2.935  1.00 20.00     0.280 C 
HETATM    5  C5  UNL     1     -35.371   6.336   3.699  1.00 20.00     0.273 C 
HETATM    6  C6  UNL     1     -33.286   6.837   4.604  1.00 20.00     0.284 C 
HETATM    7  C7  UNL     1     -33.541   7.893   3.546  1.00 20.00     0.085 C 
HETATM    8  N8  UNL     1     -34.094   5.708   4.098  1.00 20.00     0.089 N 
HETATM    9  O9  UNL     1     -32.065   8.250   1.675  1.00 20.00    -0.297 OA
ENDROOT
TORSDOF 0
ENDMDL
MODEL 5
REMARK VINA RESULT:       1.9      1.557      2.724
REMARK  0 active torsions:
REMARK  status: ('A' for Active; 'I' for Inactive)
ROOT
HETATM    1  C1  UNL     1     -33.712   6.099   3.117  1.00 20.00     0.134 C 
HETATM    2  C2  UNL     1     -33.672   7.531   3.615  1.00 20.00     0.109 C 
HETATM    3  C3  UNL     1     -33.601   6.724   0.709  1.00 20.00     0.044 C 
HETATM    4  C4  UNL     1     -32.373   8.236   3.198  1.00 20.00     0.280 C 
HETATM    5  C5  UNL     1     -32.783   8.018   0.800  1.00 20.00     0.273 C 
HETATM    6  C6  UNL     1     -31.589   6.361   1.917  1.00 20.00     0.284 C 
HETATM    7  C7  UNL     1     -33.007   5.836   1.797  1.00 20.00     0.085 C 
HETATM    8  N8  UNL     1     -31.809   7.822   1.894  1.00 20.00     0.089 N 
HETATM    9  O9  UNL     1     -34.338   5.222   3.708  1.00 20.00    -0.297 OA
ENDROOT
TORSDOF 0
ENDMDL
MODEL 6
REMARK VINA RESULT:       2.2      2.379      3.373
REMARK  0 active torsions:
REMARK  status: ('A' for Active; 'I' for Inactive)
ROOT
HETATM    1  C1  UNL     1     -32.531   6.228   1.646  1.00 20.00     0.134 C 
HETATM    2  C2  UNL     1     -33.739   6.568   2.499  1.00 20.00     0.109 C 
HETATM    3  C3  UNL     1     -32.346   8.502   0.649  1.00 20.00     0.044 C 
HETATM    4  C4  UNL     1     -33.421   7.684   3.506  1.00 20.00     0.280 C 
HETATM    5  C5  UNL     1     -32.891   9.352   1.802  1.00 20.00     0.273 C 
HETATM    6  C6  UNL     1     -31.194   8.013   2.667  1.00 20.00     0.284 C 
HETATM    7  C7  UNL     1     -31.586   7.380   1.346  1.00 20.00     0.085 C 
HETATM    8  N8  UNL     1     -32.446   8.699   3.051  1.00 20.00     0.089 N 
HETATM    9  O9  UNL     1     -32.367   5.108   1.169  1.00 20.00    -0.297 OA
ENDROOT
TORSDOF 0
ENDMDL
MODEL 7
REMARK VINA RESULT:       2.9      1.004      2.301
REMARK  0 active torsions:
REMARK  status: ('A' for Active; 'I' for Inactive)
ROOT
HETATM    1  C1  UNL     1     -34.205   5.068   3.820  1.00 20.00     0.134 C 
HETATM    2  C2  UNL     1     -35.262   6.156   3.845  1.00 20.00     0.109 C 
HETATM    3  C3  UNL     1     -33.256   5.766   1.625  1.00 20.00     0.044 C 
HETATM    4  C4  UNL     1     -34.630   7.556   3.838  1.00 20.00     0.280 C 
HETATM    5  C5  UNL     1     -33.531   7.273   1.676  1.00 20.00     0.273 C 
HETATM    6  C6  UNL     1     -32.392   6.709   3.626  1.00 20.00     0.284 C 
HETATM    7  C7  UNL     1     -32.927   5.404   3.069  1.00 20.00     0.085 C 
HETATM    8  N8  UNL     1     -33.363   7.683   3.086  1.00 20.00     0.089 N 
HETATM    9  O9  UNL     1     -34.401   3.960   4.313  1.00 20.00    -0.297 OA
ENDROOT
TORSDOF 0
ENDMDL
MODEL 8
REMARK VINA RESULT:       3.1      1.796      2.729
REMARK  0 active torsions:
REMARK  status: ('A' for Active; 'I' for Inactive)
ROOT
HETATM    1  C1  UNL     1     -33.232   7.659   3.892  1.00 20.00     0.134 C 
HETATM    2  C2  UNL     1     -32.432   8.192   2.719  1.00 20.00     0.109 C 
HETATM    3  C3  UNL     1     -35.009   6.643   2.473  1.00 20.00     0.044 C 
HETATM    4  C4  UNL     1     -31.948   7.056   1.805  1.00 20.00     0.280 C 
HETATM    5  C5  UNL     1     -34.193   6.291   1.224  1.00 20.00     0.273 C 
HETATM    6  C6  UNL     1     -33.099   5.357   3.054  1.00 20.00     0.284 C 
HETATM    7  C7  UNL     1     -34.041   6.400   3.625  1.00 20.00     0.085 C 
HETATM    8  N8  UNL     1     -32.852   5.890   1.698  1.00 20.00     0.089 N 
HETATM    9  O9  UNL     1     -33.281   8.250   4.968  1.00 20.00    -0.297 OA
ENDROOT
TORSDOF 0
ENDMDL
MODEL 9
REMARK VINA RESULT:       3.3      1.903      2.552
REMARK  0 active torsions:
REMARK  status: ('A' for Active; 'I' for Inactive)
ROOT
HETATM    1  C1  UNL     1     -32.903   5.958   1.719  1.00 20.00     0.134 C 
HETATM    2  C2  UNL     1     -31.909   7.088   1.907  1.00 20.00     0.109 C 
HETATM    3  C3  UNL     1     -33.514   5.829   4.130  1.00 20.00     0.044 C 
HETATM    4  C4  UNL     1     -32.586   8.349   2.463  1.00 20.00     0.280 C 
HETATM    5  C5  UNL     1     -33.312   7.292   4.542  1.00 20.00     0.273 C 
HETATM    6  C6  UNL     1     -34.726   7.280   2.692  1.00 20.00     0.284 C 
HETATM    7  C7  UNL     1     -34.057   5.919   2.708  1.00 20.00     0.085 C 
HETATM    8  N8  UNL     1     -33.721   8.114   3.383  1.00 20.00     0.089 N 
HETATM    9  O9  UNL     1     -32.746   5.088   0.866  1.00 20.00    -0.297 OA
ENDROOT
TORSDOF 0
ENDMDL
