MODEL 1
REMARK VINA RESULT:      -0.8      0.000      0.000
REMARK  1 active torsions:
REMARK  status: ('A' for Active; 'I' for Inactive)
REMARK    1  A    between atoms: C4_4  and  C7_7 
ROOT
HETATM    1  C1  UNL     1     -34.991   7.053   4.208  1.00 20.00     0.035 A 
HETATM    2  C2  UNL     1     -33.931   7.604   3.610  1.00 20.00    -0.008 A 
HETATM    3  C3  UNL     1     -34.923   5.588   4.218  1.00 20.00     0.085 A 
HETATM    4  C4  UNL     1     -32.873   6.700   3.061  1.00 20.00     0.080 A 
HETATM    5  N8  UNL     1     -35.795   4.787   4.720  1.00 20.00    -0.293 NA
HETATM    6  S9  UNL     1     -33.463   5.013   3.441  1.00 20.00    -0.102 SA
HETATM    7  H20 UNL     1     -36.566   5.330   5.124  1.00 20.00     0.187 HD
ENDROOT
BRANCH   4   8
HETATM    8  C7  UNL     1     -32.686   6.870   1.560  1.00 20.00    -0.005 C 
HETATM    9  C5  UNL     1     -31.826   8.097   1.256  1.00 20.00     0.011 C 
HETATM   10  C6  UNL     1     -32.063   5.617   0.945  1.00 20.00     0.011 C 
ENDBRANCH   4   8
TORSDOF 1
ENDMDL
MODEL 2
REMARK VINA RESULT:      -0.5      2.591      4.220
REMARK  1 active torsions:
REMARK  status: ('A' for Active; 'I' for Inactive)
REMARK    1  A    between atoms: C4_4  and  C7_7 
ROOT
HETATM    1  C1  UNL     1     -32.152   6.692   0.994  1.00 20.00     0.035 A 
HETATM    2  C2  UNL     1     -32.465   5.674   1.801  1.00 20.00    -0.008 A 
HETATM    3  C3  UNL     1     -32.369   7.994   1.635  1.00 20.00     0.085 A 
HETATM    4  C4  UNL     1     -32.966   5.983   3.177  1.00 20.00     0.080 A 
HETATM    5  N8  UNL     1     -32.159   9.148   1.107  1.00 20.00    -0.293 NA
HETATM    6  S9  UNL     1     -32.970   7.808   3.268  1.00 20.00    -0.102 SA
HETATM    7  H20 UNL     1     -31.809   9.028   0.150  1.00 20.00     0.187 HD
ENDROOT
BRANCH   4   8
HETATM    8  C7  UNL     1     -34.366   5.437   3.420  1.00 20.00    -0.005 C 
HETATM    9  C5  UNL     1     -34.319   4.211   4.333  1.00 20.00     0.011 C 
HETATM   10  C6  UNL     1     -35.271   6.513   4.020  1.00 20.00     0.011 C 
ENDBRANCH   4   8
TORSDOF 1
ENDMDL
MODEL 3
REMARK VINA RESULT:      -0.2      1.593      2.148
REMARK  1 active torsions:
REMARK  status: ('A' for Active; 'I' for Inactive)
REMARK    1  A    between atoms: C4_4  and  C7_7 
ROOT
HETATM    1  C1  UNL     1     -33.521   7.826   3.859  1.00 20.00     0.035 A 
HETATM    2  C2  UNL     1     -32.618   8.516   3.157  1.00 20.00    -0.008 A 
HETATM    3  C3  UNL     1     -33.816   6.523   3.252  1.00 20.00     0.085 A 
HETATM    4  C4  UNL     1     -32.058   7.899   1.914  1.00 20.00     0.080 A 
HETATM    5  N8  UNL     1     -34.643   5.644   3.698  1.00 20.00    -0.293 NA
HETATM    6  S9  UNL     1     -32.885   6.275   1.791  1.00 20.00    -0.102 SA
HETATM    7  H20 UNL     1     -35.078   5.989   4.561  1.00 20.00     0.187 HD
ENDROOT
BRANCH   4   8
HETATM    8  C7  UNL     1     -32.342   8.734   0.674  1.00 20.00    -0.005 C 
HETATM    9  C5  UNL     1     -32.748  10.157   1.060  1.00 20.00     0.011 C 
HETATM   10  C6  UNL     1     -31.127   8.760  -0.253  1.00 20.00     0.011 C 
ENDBRANCH   4   8
TORSDOF 1
ENDMDL
MODEL 4
REMARK VINA RESULT:      -0.0      2.471      3.825
REMARK  1 active torsions:
REMARK  status: ('A' for Active; 'I' for Inactive)
REMARK    1  A    between atoms: C4_4  and  C7_7 
ROOT
HETATM    1  C1  UNL     1     -32.910   8.198   3.179  1.00 20.00     0.035 A 
HETATM    2  C2  UNL     1     -33.950   7.558   3.722  1.00 20.00    -0.008 A 
HETATM    3  C3  UNL     1     -32.267   7.413   2.120  1.00 20.00     0.085 A 
HETATM    4  C4  UNL     1     -34.301   6.200   3.202  1.00 20.00     0.080 A 
HETATM    5  N8  UNL     1     -31.246   7.766   1.422  1.00 20.00    -0.293 NA
HETATM    6  S9  UNL     1     -33.069   5.874   1.892  1.00 20.00    -0.102 SA
HETATM    7  H20 UNL     1     -30.936   8.699   1.716  1.00 20.00     0.187 HD
ENDROOT
BRANCH   4   8
HETATM    8  C7  UNL     1     -34.224   5.128   4.280  1.00 20.00    -0.005 C 
HETATM    9  C5  UNL     1     -35.597   4.895   4.912  1.00 20.00     0.011 C 
HETATM   10  C6  UNL     1     -33.671   3.823   3.710  1.00 20.00     0.011 C 
ENDBRANCH   4   8
TORSDOF 1
ENDMDL
MODEL 5
REMARK VINA RESULT:       0.0      1.551      2.377
REMARK  1 active torsions:
REMARK  status: ('A' for Active; 'I' for Inactive)
REMARK    1  A    between atoms: C4_4  and  C7_7 
ROOT
HETATM    1  C1  UNL     1     -33.094   4.610   2.247  1.00 20.00     0.035 A 
HETATM    2  C2  UNL     1     -32.761   5.620   1.438  1.00 20.00    -0.008 A 
HETATM    3  C3  UNL     1     -33.870   5.061   3.408  1.00 20.00     0.085 A 
HETATM    4  C4  UNL     1     -33.202   7.003   1.806  1.00 20.00     0.080 A 
HETATM    5  N8  UNL     1     -34.326   4.321   4.354  1.00 20.00    -0.293 NA
HETATM    6  S9  UNL     1     -34.121   6.793   3.371  1.00 20.00    -0.102 SA
HETATM    7  H20 UNL     1     -34.067   3.343   4.180  1.00 20.00     0.187 HD
ENDROOT
BRANCH   4   8
HETATM    8  C7  UNL     1     -32.028   7.952   2.004  1.00 20.00    -0.005 C 
HETATM    9  C5  UNL     1     -32.061   9.077   0.969  1.00 20.00     0.011 C 
HETATM   10  C6  UNL     1     -32.030   8.529   3.419  1.00 20.00     0.011 C 
ENDBRANCH   4   8
TORSDOF 1
ENDMDL
MODEL 6
REMARK VINA RESULT:       0.4      2.594      4.044
REMARK  1 active torsions:
REMARK  status: ('A' for Active; 'I' for Inactive)
REMARK    1  A    between atoms: C4_4  and  C7_7 
ROOT
HETATM    1  C1  UNL     1     -32.720   6.438   1.365  1.00 20.00     0.035 A 
HETATM    2  C2  UNL     1     -33.224   5.721   2.374  1.00 20.00    -0.008 A 
HETATM    3  C3  UNL     1     -32.433   7.822   1.757  1.00 20.00     0.085 A 
HETATM    4  C4  UNL     1     -33.415   6.392   3.698  1.00 20.00     0.080 A 
HETATM    5  N8  UNL     1     -31.948   8.744   1.003  1.00 20.00    -0.293 NA
HETATM    6  S9  UNL     1     -32.839   8.105   3.436  1.00 20.00    -0.102 SA
HETATM    7  H20 UNL     1     -31.783   8.365   0.063  1.00 20.00     0.187 HD
ENDROOT
BRANCH   4   8
HETATM    8  C7  UNL     1     -34.870   6.384   4.147  1.00 20.00    -0.005 C 
HETATM    9  C5  UNL     1     -35.778   6.948   3.053  1.00 20.00     0.011 C 
HETATM   10  C6  UNL     1     -35.312   4.972   4.530  1.00 20.00     0.011 C 
ENDBRANCH   4   8
TORSDOF 1
ENDMDL
MODEL 7
REMARK VINA RESULT:       0.6      2.214      3.797
REMARK  1 active torsions:
REMARK  status: ('A' for Active; 'I' for Inactive)
REMARK    1  A    between atoms: C4_4  and  C7_7 
ROOT
HETATM    1  C1  UNL     1     -31.480   7.271   1.795  1.00 20.00     0.035 A 
HETATM    2  C2  UNL     1     -32.434   8.074   2.276  1.00 20.00    -0.008 A 
HETATM    3  C3  UNL     1     -31.985   5.927   1.495  1.00 20.00     0.085 A 
HETATM    4  C4  UNL     1     -33.817   7.522   2.433  1.00 20.00     0.080 A 
HETATM    5  N8  UNL     1     -31.303   4.943   1.025  1.00 20.00    -0.293 NA
HETATM    6  S9  UNL     1     -33.692   5.792   1.859  1.00 20.00    -0.102 SA
HETATM    7  H20 UNL     1     -30.330   5.237   0.885  1.00 20.00     0.187 HD
ENDROOT
BRANCH   4   8
HETATM    8  C7  UNL     1     -34.298   7.568   3.877  1.00 20.00    -0.005 C 
HETATM    9  C5  UNL     1     -34.932   6.236   4.280  1.00 20.00     0.011 C 
HETATM   10  C6  UNL     1     -33.148   7.918   4.821  1.00 20.00     0.011 C 
ENDBRANCH   4   8
TORSDOF 1
ENDMDL
MODEL 8
REMARK VINA RESULT:       0.7      1.058      1.232
REMARK  1 active torsions:
REMARK  status: ('A' for Active; 'I' for Inactive)
REMARK    1  A    between atoms: C4_4  and  C7_7 
ROOT
HETATM    1  C1  UNL     1     -35.110   5.426   4.168  1.00 20.00     0.035 A 
HETATM    2  C2  UNL     1     -34.658   6.598   3.712  1.00 20.00    -0.008 A 
HETATM    3  C3  UNL     1     -34.082   4.379   4.120  1.00 20.00     0.085 A 
HETATM    4  C4  UNL     1     -33.240   6.681   3.240  1.00 20.00     0.080 A 
HETATM    5  N8  UNL     1     -34.222   3.155   4.489  1.00 20.00    -0.293 NA
HETATM    6  S9  UNL     1     -32.575   4.996   3.479  1.00 20.00    -0.102 SA
HETATM    7  H20 UNL     1     -35.179   3.008   4.832  1.00 20.00     0.187 HD
ENDROOT
BRANCH   4   8
HETATM    8  C7  UNL     1     -33.140   7.087   1.777  1.00 20.00    -0.005 C 
HETATM    9  C5  UNL     1     -32.091   8.186   1.590  1.00 20.00     0.011 C 
HETATM   10  C6  UNL     1     -32.808   5.880   0.899  1.00 20.00     0.011 C 
ENDBRANCH   4   8
TORSDOF 1
ENDMDL
MODEL 9
REMARK VINA RESULT:       0.8      3.440      4.758
REMARK  1 active torsions:
REMARK  status: ('A' for Active; 'I' for Inactive)
REMARK    1  A    between atoms: C4_4  and  C7_7 
ROOT
HETATM    1  C1  UNL     1     -31.516   8.248   0.368  1.00 20.00     0.035 A 
HETATM    2  C2  UNL     1     -31.682   7.502   1.465  1.00 20.00    -0.008 A 
HETATM    3  C3  UNL     1     -32.251   9.515   0.443  1.00 20.00     0.085 A 
HETATM    4  C4  UNL     1     -32.549   8.034   2.563  1.00 20.00     0.080 A 
HETATM    5  N8  UNL     1     -32.284  10.432  -0.458  1.00 20.00    -0.293 NA
HETATM    6  S9  UNL     1     -33.120   9.659   1.955  1.00 20.00    -0.102 SA
HETATM    7  H20 UNL     1     -31.707  10.146  -1.259  1.00 20.00     0.187 HD
ENDROOT
BRANCH   4   8
HETATM    8  C7  UNL     1     -33.738   7.128   2.852  1.00 20.00    -0.005 C 
HETATM    9  C5  UNL     1     -33.366   5.660   2.641  1.00 20.00     0.011 C 
HETATM   10  C6  UNL     1     -34.253   7.348   4.275  1.00 20.00     0.011 C 
ENDBRANCH   4   8
TORSDOF 1
ENDMDL
