MODEL 1
REMARK VINA RESULT:      -1.7      0.000      0.000
REMARK  3 active torsions:
REMARK  status: ('A' for Active; 'I' for Inactive)
REMARK    1  A    between atoms: C2_2  and  C9_9 
REMARK    2  A    between atoms: C7_7  and  C9_9 
REMARK    3  A    between atoms: C8_8  and  O10_10 
ROOT
HETATM    1  C3  UNL     1     -34.632   7.328   4.254  1.00 20.00     0.003 C 
HETATM    2  C4  UNL     1     -33.948   7.800   2.972  1.00 20.00     0.005 C 
HETATM    3  C5  UNL     1     -35.016   5.855   4.176  1.00 20.00     0.032 C 
HETATM    4  C6  UNL     1     -33.131   5.449   2.541  1.00 20.00     0.036 C 
HETATM    5  C7  UNL     1     -32.735   6.929   2.619  1.00 20.00    -0.009 C 
HETATM    6  C8  UNL     1     -33.814   4.980   3.825  1.00 20.00     0.118 C 
ENDROOT
BRANCH   5   7
HETATM    7  C9  UNL     1     -32.103   7.388   1.307  1.00 20.00     0.031 C 
BRANCH   7   8
HETATM    8  C2  UNL     1     -32.031   8.881   1.236  1.00 20.00    -0.037 C 
HETATM    9  C1  UNL     1     -32.371   9.594   0.156  1.00 20.00     0.007 C 
ENDBRANCH   7   8
ENDBRANCH   5   7
BRANCH   6  10
HETATM   10  O10 UNL     1     -34.237   3.628   3.676  1.00 20.00    -0.396 OA
HETATM   11  H26 UNL     1     -34.413   3.494   2.732  1.00 20.00     0.210 HD
ENDBRANCH   6  10
TORSDOF 3
ENDMDL
MODEL 2
REMARK VINA RESULT:      -1.7      1.329      2.222
REMARK  3 active torsions:
REMARK  status: ('A' for Active; 'I' for Inactive)
REMARK    1  A    between atoms: C2_2  and  C9_9 
REMARK    2  A    between atoms: C7_7  and  C9_9 
REMARK    3  A    between atoms: C8_8  and  O10_10 
ROOT
HETATM    1  C3  UNL     1     -33.082   5.011   1.849  1.00 20.00     0.003 C 
HETATM    2  C4  UNL     1     -32.073   6.123   1.564  1.00 20.00     0.005 C 
HETATM    3  C5  UNL     1     -33.742   5.187   3.211  1.00 20.00     0.032 C 
HETATM    4  C6  UNL     1     -33.367   7.683   3.072  1.00 20.00     0.036 C 
HETATM    5  C7  UNL     1     -32.707   7.515   1.698  1.00 20.00    -0.009 C 
HETATM    6  C8  UNL     1     -34.376   6.569   3.353  1.00 20.00     0.118 C 
ENDROOT
BRANCH   5   7
HETATM    7  C9  UNL     1     -31.667   8.607   1.461  1.00 20.00     0.031 C 
BRANCH   7   8
HETATM    8  C2  UNL     1     -31.979   9.392   0.225  1.00 20.00    -0.037 C 
HETATM    9  C1  UNL     1     -32.716  10.508   0.216  1.00 20.00     0.007 C 
ENDBRANCH   7   8
ENDBRANCH   5   7
BRANCH   6  10
HETATM   10  O10 UNL     1     -34.900   6.720   4.668  1.00 20.00    -0.396 OA
HETATM   11  H26 UNL     1     -35.615   6.071   4.758  1.00 20.00     0.210 HD
ENDBRANCH   6  10
TORSDOF 3
ENDMDL
MODEL 3
REMARK VINA RESULT:      -1.6      1.965      4.311
REMARK  3 active torsions:
REMARK  status: ('A' for Active; 'I' for Inactive)
REMARK    1  A    between atoms: C2_2  and  C9_9 
REMARK    2  A    between atoms: C7_7  and  C9_9 
REMARK    3  A    between atoms: C8_8  and  O10_10 
ROOT
HETATM    1  C3  UNL     1     -33.835   8.343   3.516  1.00 20.00     0.003 C 
HETATM    2  C4  UNL     1     -34.210   7.128   4.363  1.00 20.00     0.005 C 
HETATM    3  C5  UNL     1     -32.609   8.069   2.654  1.00 20.00     0.032 C 
HETATM    4  C6  UNL     1     -33.168   5.604   2.639  1.00 20.00     0.036 C 
HETATM    5  C7  UNL     1     -34.407   5.873   3.502  1.00 20.00    -0.009 C 
HETATM    6  C8  UNL     1     -32.796   6.821   1.793  1.00 20.00     0.118 C 
ENDROOT
BRANCH   5   7
HETATM    7  C9  UNL     1     -34.729   4.663   4.377  1.00 20.00     0.031 C 
BRANCH   7   8
HETATM    8  C2  UNL     1     -33.756   3.551   4.141  1.00 20.00    -0.037 C 
HETATM    9  C1  UNL     1     -33.046   2.962   5.110  1.00 20.00     0.007 C 
ENDBRANCH   7   8
ENDBRANCH   5   7
BRANCH   6  10
HETATM   10  O10 UNL     1     -31.596   6.555   1.074  1.00 20.00    -0.396 OA
HETATM   11  H26 UNL     1     -31.181   7.413   0.898  1.00 20.00     0.210 HD
ENDBRANCH   6  10
TORSDOF 3
ENDMDL
MODEL 4
REMARK VINA RESULT:      -0.9      2.359      4.677
REMARK  3 active torsions:
REMARK  status: ('A' for Active; 'I' for Inactive)
REMARK    1  A    between atoms: C2_2  and  C9_9 
REMARK    2  A    between atoms: C7_7  and  C9_9 
REMARK    3  A    between atoms: C8_8  and  O10_10 
ROOT
HETATM    1  C3  UNL     1     -32.141   5.679   1.268  1.00 20.00     0.003 C 
HETATM    2  C4  UNL     1     -33.454   5.443   2.014  1.00 20.00     0.005 C 
HETATM    3  C5  UNL     1     -31.985   7.138   0.855  1.00 20.00     0.032 C 
HETATM    4  C6  UNL     1     -33.443   7.845   2.796  1.00 20.00     0.036 C 
HETATM    5  C7  UNL     1     -33.600   6.379   3.221  1.00 20.00    -0.009 C 
HETATM    6  C8  UNL     1     -32.128   8.078   2.051  1.00 20.00     0.118 C 
ENDROOT
BRANCH   5   7
HETATM    7  C9  UNL     1     -34.941   6.159   3.916  1.00 20.00     0.031 C 
BRANCH   7   8
HETATM    8  C2  UNL     1     -35.022   4.791   4.516  1.00 20.00    -0.037 C 
HETATM    9  C1  UNL     1     -34.003   3.924   4.535  1.00 20.00     0.007 C 
ENDBRANCH   7   8
ENDBRANCH   5   7
BRANCH   6  10
HETATM   10  O10 UNL     1     -32.064   9.429   1.605  1.00 20.00    -0.396 OA
HETATM   11  H26 UNL     1     -32.888   9.854   1.887  1.00 20.00     0.210 HD
ENDBRANCH   6  10
TORSDOF 3
ENDMDL
MODEL 5
REMARK VINA RESULT:      -0.9      1.484      1.967
REMARK  3 active torsions:
REMARK  status: ('A' for Active; 'I' for Inactive)
REMARK    1  A    between atoms: C2_2  and  C9_9 
REMARK    2  A    between atoms: C7_7  and  C9_9 
REMARK    3  A    between atoms: C8_8  and  O10_10 
ROOT
HETATM    1  C3  UNL     1     -33.903   6.448   3.590  1.00 20.00     0.003 C 
HETATM    2  C4  UNL     1     -33.619   7.867   3.096  1.00 20.00     0.005 C 
HETATM    3  C5  UNL     1     -33.818   5.432   2.457  1.00 20.00     0.032 C 
HETATM    4  C6  UNL     1     -32.195   6.933   1.230  1.00 20.00     0.036 C 
HETATM    5  C7  UNL     1     -32.270   7.958   2.369  1.00 20.00    -0.009 C 
HETATM    6  C8  UNL     1     -32.478   5.516   1.727  1.00 20.00     0.118 C 
ENDROOT
BRANCH   5   7
HETATM    7  C9  UNL     1     -32.036   9.371   1.841  1.00 20.00     0.031 C 
BRANCH   7   8
HETATM    8  C2  UNL     1     -32.123   9.412   0.348  1.00 20.00    -0.037 C 
HETATM    9  C1  UNL     1     -32.819  10.328  -0.335  1.00 20.00     0.007 C 
ENDBRANCH   7   8
ENDBRANCH   5   7
BRANCH   6  10
HETATM   10  O10 UNL     1     -32.479   4.614   0.626  1.00 20.00    -0.396 OA
HETATM   11  H26 UNL     1     -32.400   3.722   0.997  1.00 20.00     0.210 HD
ENDBRANCH   6  10
TORSDOF 3
ENDMDL
MODEL 6
REMARK VINA RESULT:      -0.8      2.437      4.620
REMARK  3 active torsions:
REMARK  status: ('A' for Active; 'I' for Inactive)
REMARK    1  A    between atoms: C2_2  and  C9_9 
REMARK    2  A    between atoms: C7_7  and  C9_9 
REMARK    3  A    between atoms: C8_8  and  O10_10 
ROOT
HETATM    1  C3  UNL     1     -32.081   5.816   1.464  1.00 20.00     0.003 C 
HETATM    2  C4  UNL     1     -33.256   5.931   2.434  1.00 20.00     0.005 C 
HETATM    3  C5  UNL     1     -31.967   7.047   0.572  1.00 20.00     0.032 C 
HETATM    4  C6  UNL     1     -33.068   8.450   2.364  1.00 20.00     0.036 C 
HETATM    5  C7  UNL     1     -33.181   7.217   3.269  1.00 20.00    -0.009 C 
HETATM    6  C8  UNL     1     -31.891   8.331   1.396  1.00 20.00     0.118 C 
ENDROOT
BRANCH   5   7
HETATM    7  C9  UNL     1     -34.393   7.333   4.191  1.00 20.00     0.031 C 
BRANCH   7   8
HETATM    8  C2  UNL     1     -35.362   6.218   3.954  1.00 20.00    -0.037 C 
HETATM    9  C1  UNL     1     -35.380   5.082   4.660  1.00 20.00     0.007 C 
ENDBRANCH   7   8
ENDBRANCH   5   7
BRANCH   6  10
HETATM   10  O10 UNL     1     -31.875   9.456   0.523  1.00 20.00    -0.396 OA
HETATM   11  H26 UNL     1     -31.064   9.949   0.720  1.00 20.00     0.210 HD
ENDBRANCH   6  10
TORSDOF 3
ENDMDL
MODEL 7
REMARK VINA RESULT:      -0.1      2.118      4.660
REMARK  3 active torsions:
REMARK  status: ('A' for Active; 'I' for Inactive)
REMARK    1  A    between atoms: C2_2  and  C9_9 
REMARK    2  A    between atoms: C7_7  and  C9_9 
REMARK    3  A    between atoms: C8_8  and  O10_10 
ROOT
HETATM    1  C3  UNL     1     -32.225   6.570   1.733  1.00 20.00     0.003 C 
HETATM    2  C4  UNL     1     -32.910   5.231   2.001  1.00 20.00     0.005 C 
HETATM    3  C5  UNL     1     -33.098   7.743   2.162  1.00 20.00     0.032 C 
HETATM    4  C6  UNL     1     -34.219   6.279   3.891  1.00 20.00     0.036 C 
HETATM    5  C7  UNL     1     -33.340   5.095   3.468  1.00 20.00    -0.009 C 
HETATM    6  C8  UNL     1     -33.530   7.617   3.621  1.00 20.00     0.118 C 
ENDROOT
BRANCH   5   7
HETATM    7  C9  UNL     1     -34.068   3.773   3.698  1.00 20.00     0.031 C 
BRANCH   7   8
HETATM    8  C2  UNL     1     -33.237   2.831   4.511  1.00 20.00    -0.037 C 
HETATM    9  C1  UNL     1     -32.677   3.152   5.683  1.00 20.00     0.007 C 
ENDBRANCH   7   8
ENDBRANCH   5   7
BRANCH   6  10
HETATM   10  O10 UNL     1     -34.413   8.684   3.951  1.00 20.00    -0.396 OA
HETATM   11  H26 UNL     1     -34.130   9.022   4.814  1.00 20.00     0.210 HD
ENDBRANCH   6  10
TORSDOF 3
ENDMDL
MODEL 8
REMARK VINA RESULT:       0.2      1.865      2.829
REMARK  3 active torsions:
REMARK  status: ('A' for Active; 'I' for Inactive)
REMARK    1  A    between atoms: C2_2  and  C9_9 
REMARK    2  A    between atoms: C7_7  and  C9_9 
REMARK    3  A    between atoms: C8_8  and  O10_10 
ROOT
HETATM    1  C3  UNL     1     -32.873   8.109   3.484  1.00 20.00     0.003 C 
HETATM    2  C4  UNL     1     -32.552   7.498   2.121  1.00 20.00     0.005 C 
HETATM    3  C5  UNL     1     -34.235   7.655   3.996  1.00 20.00     0.032 C 
HETATM    4  C6  UNL     1     -34.027   5.519   2.660  1.00 20.00     0.036 C 
HETATM    5  C7  UNL     1     -32.653   5.966   2.145  1.00 20.00    -0.009 C 
HETATM    6  C8  UNL     1     -34.345   6.132   4.024  1.00 20.00     0.118 C 
ENDROOT
BRANCH   5   7
HETATM    7  C9  UNL     1     -32.379   5.385   0.760  1.00 20.00     0.031 C 
BRANCH   7   8
HETATM    8  C2  UNL     1     -33.654   5.040   0.057  1.00 20.00    -0.037 C 
HETATM    9  C1  UNL     1     -33.852   3.899  -0.613  1.00 20.00     0.007 C 
ENDBRANCH   7   8
ENDBRANCH   5   7
BRANCH   6  10
HETATM   10  O10 UNL     1     -35.659   5.756   4.422  1.00 20.00    -0.396 OA
HETATM   11  H26 UNL     1     -35.709   5.893   5.380  1.00 20.00     0.210 HD
ENDBRANCH   6  10
TORSDOF 3
ENDMDL
MODEL 9
REMARK VINA RESULT:       0.5      1.466      1.984
REMARK  3 active torsions:
REMARK  status: ('A' for Active; 'I' for Inactive)
REMARK    1  A    between atoms: C2_2  and  C9_9 
REMARK    2  A    between atoms: C7_7  and  C9_9 
REMARK    3  A    between atoms: C8_8  and  O10_10 
ROOT
HETATM    1  C3  UNL     1     -35.427   6.375   4.430  1.00 20.00     0.003 C 
HETATM    2  C4  UNL     1     -34.696   6.924   3.206  1.00 20.00     0.005 C 
HETATM    3  C5  UNL     1     -35.360   4.854   4.489  1.00 20.00     0.032 C 
HETATM    4  C6  UNL     1     -33.186   4.899   3.199  1.00 20.00     0.036 C 
HETATM    5  C7  UNL     1     -33.244   6.430   3.141  1.00 20.00    -0.009 C 
HETATM    6  C8  UNL     1     -33.917   4.353   4.425  1.00 20.00     0.118 C 
ENDROOT
BRANCH   5   7
HETATM    7  C9  UNL     1     -32.552   6.950   1.883  1.00 20.00     0.031 C 
BRANCH   7   8
HETATM    8  C2  UNL     1     -31.980   5.826   1.077  1.00 20.00    -0.037 C 
HETATM    9  C1  UNL     1     -32.719   4.954   0.382  1.00 20.00     0.007 C 
ENDBRANCH   7   8
ENDBRANCH   5   7
BRANCH   6  10
HETATM   10  O10 UNL     1     -33.909   2.929   4.394  1.00 20.00    -0.396 OA
HETATM   11  H26 UNL     1     -34.597   2.661   3.767  1.00 20.00     0.210 HD
ENDBRANCH   6  10
TORSDOF 3
ENDMDL
