MODEL 1
REMARK VINA RESULT:      -1.3      0.000      0.000
REMARK  5 active torsions:
REMARK  status: ('A' for Active; 'I' for Inactive)
REMARK    1  A    between atoms: C5_5  and  C6_6 
REMARK    2  A    between atoms: C5_5  and  C7_7 
REMARK    3  A    between atoms: C6_6  and  C8_8 
REMARK    4  A    between atoms: C7_7  and  C9_9 
REMARK    5  A    between atoms: C8_8  and  O10_10 
ROOT
HETATM    1  C5  UNL     1     -32.470   8.014   2.236  1.00 20.00     0.003 C 
ENDROOT
BRANCH   1   2
HETATM    2  C6  UNL     1     -31.813   8.213   0.864  1.00 20.00     0.031 C 
BRANCH   2   3
HETATM    3  C8  UNL     1     -32.112   9.597   0.276  1.00 20.00     0.114 C 
HETATM    4  C1  UNL     1     -32.871  10.471   1.264  1.00 20.00     0.039 C 
BRANCH   3   5
HETATM    5  O10 UNL     1     -32.889   9.466  -0.910  1.00 20.00    -0.396 OA
HETATM    6  H30 UNL     1     -33.475  10.239  -0.944  1.00 20.00     0.210 HD
ENDBRANCH   3   5
ENDBRANCH   2   3
ENDBRANCH   1   2
BRANCH   1   7
HETATM    7  C7  UNL     1     -33.386   6.783   2.233  1.00 20.00     0.008 C 
BRANCH   7   8
HETATM    8  C9  UNL     1     -34.251   6.581   3.506  1.00 20.00    -0.051 C 
HETATM    9  C2  UNL     1     -34.063   5.170   4.088  1.00 20.00     0.014 C 
HETATM   10  C3  UNL     1     -33.797   7.609   4.562  1.00 20.00     0.014 C 
HETATM   11  C4  UNL     1     -35.741   6.812   3.210  1.00 20.00     0.014 C 
ENDBRANCH   7   8
ENDBRANCH   1   7
TORSDOF 5
ENDMDL
MODEL 2
REMARK VINA RESULT:      -1.3      0.041      1.372
REMARK  5 active torsions:
REMARK  status: ('A' for Active; 'I' for Inactive)
REMARK    1  A    between atoms: C5_5  and  C6_6 
REMARK    2  A    between atoms: C5_5  and  C7_7 
REMARK    3  A    between atoms: C6_6  and  C8_8 
REMARK    4  A    between atoms: C7_7  and  C9_9 
REMARK    5  A    between atoms: C8_8  and  O10_10 
ROOT
HETATM    1  C5  UNL     1     -32.448   8.036   2.225  1.00 20.00     0.003 C 
ENDROOT
BRANCH   1   2
HETATM    2  C6  UNL     1     -31.811   8.234   0.843  1.00 20.00     0.031 C 
BRANCH   2   3
HETATM    3  C8  UNL     1     -32.115   9.618   0.260  1.00 20.00     0.114 C 
HETATM    4  C1  UNL     1     -32.866  10.491   1.256  1.00 20.00     0.039 C 
BRANCH   3   5
HETATM    5  O10 UNL     1     -32.903   9.490  -0.920  1.00 20.00    -0.396 OA
HETATM    6  H30 UNL     1     -32.283   9.347  -1.652  1.00 20.00     0.210 HD
ENDBRANCH   3   5
ENDBRANCH   2   3
ENDBRANCH   1   2
BRANCH   1   7
HETATM    7  C7  UNL     1     -33.381   6.818   2.230  1.00 20.00     0.008 C 
BRANCH   7   8
HETATM    8  C9  UNL     1     -34.239   6.630   3.510  1.00 20.00    -0.051 C 
HETATM    9  C2  UNL     1     -35.735   6.823   3.211  1.00 20.00     0.014 C 
HETATM   10  C3  UNL     1     -34.025   5.192   4.024  1.00 20.00     0.014 C 
HETATM   11  C4  UNL     1     -33.813   7.611   4.614  1.00 20.00     0.014 C 
ENDBRANCH   7   8
ENDBRANCH   1   7
TORSDOF 5
ENDMDL
MODEL 3
REMARK VINA RESULT:      -1.3      0.038      1.363
REMARK  5 active torsions:
REMARK  status: ('A' for Active; 'I' for Inactive)
REMARK    1  A    between atoms: C5_5  and  C6_6 
REMARK    2  A    between atoms: C5_5  and  C7_7 
REMARK    3  A    between atoms: C6_6  and  C8_8 
REMARK    4  A    between atoms: C7_7  and  C9_9 
REMARK    5  A    between atoms: C8_8  and  O10_10 
ROOT
HETATM    1  C5  UNL     1     -32.473   8.009   2.228  1.00 20.00     0.003 C 
ENDROOT
BRANCH   1   2
HETATM    2  C6  UNL     1     -31.839   8.198   0.843  1.00 20.00     0.031 C 
BRANCH   2   3
HETATM    3  C8  UNL     1     -32.109   9.593   0.270  1.00 20.00     0.114 C 
HETATM    4  C1  UNL     1     -32.854  10.472   1.265  1.00 20.00     0.039 C 
BRANCH   3   5
HETATM    5  O10 UNL     1     -32.886   9.490  -0.920  1.00 20.00    -0.396 OA
HETATM    6  H30 UNL     1     -33.668   8.962  -0.695  1.00 20.00     0.210 HD
ENDBRANCH   3   5
ENDBRANCH   2   3
ENDBRANCH   1   2
BRANCH   1   7
HETATM    7  C7  UNL     1     -33.385   6.775   2.250  1.00 20.00     0.008 C 
BRANCH   7   8
HETATM    8  C9  UNL     1     -34.239   6.590   3.532  1.00 20.00    -0.051 C 
HETATM    9  C2  UNL     1     -33.830   7.594   4.623  1.00 20.00     0.014 C 
HETATM   10  C3  UNL     1     -35.715   6.842   3.166  1.00 20.00     0.014 C 
HETATM   11  C4  UNL     1     -34.111   5.162   4.086  1.00 20.00     0.014 C 
ENDBRANCH   7   8
ENDBRANCH   1   7
TORSDOF 5
ENDMDL
MODEL 4
REMARK VINA RESULT:      -0.9      2.758      4.993
REMARK  5 active torsions:
REMARK  status: ('A' for Active; 'I' for Inactive)
REMARK    1  A    between atoms: C5_5  and  C6_6 
REMARK    2  A    between atoms: C5_5  and  C7_7 
REMARK    3  A    between atoms: C6_6  and  C8_8 
REMARK    4  A    between atoms: C7_7  and  C9_9 
REMARK    5  A    between atoms: C8_8  and  O10_10 
ROOT
HETATM    1  C5  UNL     1     -33.864   7.570   3.836  1.00 20.00     0.003 C 
ENDROOT
BRANCH   1   2
HETATM    2  C6  UNL     1     -34.958   6.501   3.711  1.00 20.00     0.031 C 
BRANCH   2   3
HETATM    3  C8  UNL     1     -34.605   5.222   4.477  1.00 20.00     0.114 C 
HETATM    4  C1  UNL     1     -33.833   4.243   3.604  1.00 20.00     0.039 C 
BRANCH   3   5
HETATM    5  O10 UNL     1     -35.793   4.584   4.937  1.00 20.00    -0.396 OA
HETATM    6  H30 UNL     1     -36.108   5.100   5.695  1.00 20.00     0.210 HD
ENDBRANCH   3   5
ENDBRANCH   2   3
ENDBRANCH   1   2
BRANCH   1   7
HETATM    7  C7  UNL     1     -33.635   8.281   2.495  1.00 20.00     0.008 C 
BRANCH   7   8
HETATM    8  C9  UNL     1     -32.248   8.053   1.838  1.00 20.00    -0.051 C 
HETATM    9  C2  UNL     1     -32.050   8.975   0.623  1.00 20.00     0.014 C 
HETATM   10  C3  UNL     1     -31.162   8.381   2.882  1.00 20.00     0.014 C 
HETATM   11  C4  UNL     1     -32.074   6.591   1.397  1.00 20.00     0.014 C 
ENDBRANCH   7   8
ENDBRANCH   1   7
TORSDOF 5
ENDMDL
MODEL 5
REMARK VINA RESULT:      -0.9      2.763      4.997
REMARK  5 active torsions:
REMARK  status: ('A' for Active; 'I' for Inactive)
REMARK    1  A    between atoms: C5_5  and  C6_6 
REMARK    2  A    between atoms: C5_5  and  C7_7 
REMARK    3  A    between atoms: C6_6  and  C8_8 
REMARK    4  A    between atoms: C7_7  and  C9_9 
REMARK    5  A    between atoms: C8_8  and  O10_10 
ROOT
HETATM    1  C5  UNL     1     -33.865   7.568   3.858  1.00 20.00     0.003 C 
ENDROOT
BRANCH   1   2
HETATM    2  C6  UNL     1     -34.960   6.501   3.716  1.00 20.00     0.031 C 
BRANCH   2   3
HETATM    3  C8  UNL     1     -34.619   5.218   4.482  1.00 20.00     0.114 C 
HETATM    4  C1  UNL     1     -33.854   4.234   3.609  1.00 20.00     0.039 C 
BRANCH   3   5
HETATM    5  O10 UNL     1     -35.813   4.591   4.940  1.00 20.00    -0.396 OA
HETATM    6  H30 UNL     1     -35.573   4.083   5.731  1.00 20.00     0.210 HD
ENDBRANCH   3   5
ENDBRANCH   2   3
ENDBRANCH   1   2
BRANCH   1   7
HETATM    7  C7  UNL     1     -33.622   8.287   2.525  1.00 20.00     0.008 C 
BRANCH   7   8
HETATM    8  C9  UNL     1     -32.226   8.068   1.884  1.00 20.00    -0.051 C 
HETATM    9  C2  UNL     1     -32.055   6.617   1.403  1.00 20.00     0.014 C 
HETATM   10  C3  UNL     1     -32.104   9.004   0.666  1.00 20.00     0.014 C 
HETATM   11  C4  UNL     1     -31.100   8.407   2.875  1.00 20.00     0.014 C 
ENDBRANCH   7   8
ENDBRANCH   1   7
TORSDOF 5
ENDMDL
MODEL 6
REMARK VINA RESULT:      -0.9      2.760      5.012
REMARK  5 active torsions:
REMARK  status: ('A' for Active; 'I' for Inactive)
REMARK    1  A    between atoms: C5_5  and  C6_6 
REMARK    2  A    between atoms: C5_5  and  C7_7 
REMARK    3  A    between atoms: C6_6  and  C8_8 
REMARK    4  A    between atoms: C7_7  and  C9_9 
REMARK    5  A    between atoms: C8_8  and  O10_10 
ROOT
HETATM    1  C5  UNL     1     -33.863   7.566   3.837  1.00 20.00     0.003 C 
ENDROOT
BRANCH   1   2
HETATM    2  C6  UNL     1     -34.960   6.499   3.717  1.00 20.00     0.031 C 
BRANCH   2   3
HETATM    3  C8  UNL     1     -34.606   5.218   4.480  1.00 20.00     0.114 C 
HETATM    4  C1  UNL     1     -33.838   4.240   3.602  1.00 20.00     0.039 C 
BRANCH   3   5
HETATM    5  O10 UNL     1     -35.793   4.582   4.944  1.00 20.00    -0.396 OA
HETATM    6  H30 UNL     1     -36.014   3.899   4.292  1.00 20.00     0.210 HD
ENDBRANCH   3   5
ENDBRANCH   2   3
ENDBRANCH   1   2
BRANCH   1   7
HETATM    7  C7  UNL     1     -33.639   8.276   2.495  1.00 20.00     0.008 C 
BRANCH   7   8
HETATM    8  C9  UNL     1     -32.237   8.088   1.858  1.00 20.00    -0.051 C 
HETATM    9  C2  UNL     1     -31.120   8.392   2.870  1.00 20.00     0.014 C 
HETATM   10  C3  UNL     1     -32.105   6.619   1.412  1.00 20.00     0.014 C 
HETATM   11  C4  UNL     1     -32.060   8.990   0.625  1.00 20.00     0.014 C 
ENDBRANCH   7   8
ENDBRANCH   1   7
TORSDOF 5
ENDMDL
MODEL 7
REMARK VINA RESULT:      -0.7      1.592      2.326
REMARK  5 active torsions:
REMARK  status: ('A' for Active; 'I' for Inactive)
REMARK    1  A    between atoms: C5_5  and  C6_6 
REMARK    2  A    between atoms: C5_5  and  C7_7 
REMARK    3  A    between atoms: C6_6  and  C8_8 
REMARK    4  A    between atoms: C7_7  and  C9_9 
REMARK    5  A    between atoms: C8_8  and  O10_10 
ROOT
HETATM    1  C5  UNL     1     -33.231   5.862   1.581  1.00 20.00     0.003 C 
ENDROOT
BRANCH   1   2
HETATM    2  C6  UNL     1     -32.004   6.742   1.309  1.00 20.00     0.031 C 
BRANCH   2   3
HETATM    3  C8  UNL     1     -32.227   8.195   1.742  1.00 20.00     0.114 C 
HETATM    4  C1  UNL     1     -32.071   9.157   0.572  1.00 20.00     0.039 C 
BRANCH   3   5
HETATM    5  O10 UNL     1     -31.293   8.553   2.756  1.00 20.00    -0.396 OA
HETATM    6  H30 UNL     1     -31.733   8.392   3.606  1.00 20.00     0.210 HD
ENDBRANCH   3   5
ENDBRANCH   2   3
ENDBRANCH   1   2
BRANCH   1   7
HETATM    7  C7  UNL     1     -33.397   5.601   3.084  1.00 20.00     0.008 C 
BRANCH   7   8
HETATM    8  C9  UNL     1     -34.587   6.326   3.767  1.00 20.00    -0.051 C 
HETATM    9  C2  UNL     1     -35.580   6.870   2.727  1.00 20.00     0.014 C 
HETATM   10  C3  UNL     1     -35.323   5.306   4.658  1.00 20.00     0.014 C 
HETATM   11  C4  UNL     1     -34.098   7.484   4.653  1.00 20.00     0.014 C 
ENDBRANCH   7   8
ENDBRANCH   1   7
TORSDOF 5
ENDMDL
MODEL 8
REMARK VINA RESULT:      -0.1      2.274      4.485
REMARK  5 active torsions:
REMARK  status: ('A' for Active; 'I' for Inactive)
REMARK    1  A    between atoms: C5_5  and  C6_6 
REMARK    2  A    between atoms: C5_5  and  C7_7 
REMARK    3  A    between atoms: C6_6  and  C8_8 
REMARK    4  A    between atoms: C7_7  and  C9_9 
REMARK    5  A    between atoms: C8_8  and  O10_10 
ROOT
HETATM    1  C5  UNL     1     -32.715   6.118   1.834  1.00 20.00     0.003 C 
ENDROOT
BRANCH   1   2
HETATM    2  C6  UNL     1     -33.478   5.684   3.093  1.00 20.00     0.031 C 
BRANCH   2   3
HETATM    3  C8  UNL     1     -34.522   6.720   3.522  1.00 20.00     0.114 C 
HETATM    4  C1  UNL     1     -33.967   7.669   4.575  1.00 20.00     0.039 C 
BRANCH   3   5
HETATM    5  O10 UNL     1     -35.670   6.066   4.056  1.00 20.00    -0.396 OA
HETATM    6  H30 UNL     1     -35.484   5.902   4.994  1.00 20.00     0.210 HD
ENDBRANCH   3   5
ENDBRANCH   2   3
ENDBRANCH   1   2
BRANCH   1   7
HETATM    7  C7  UNL     1     -33.204   7.486   1.340  1.00 20.00     0.008 C 
BRANCH   7   8
HETATM    8  C9  UNL     1     -32.112   8.578   1.185  1.00 20.00    -0.051 C 
HETATM    9  C2  UNL     1     -32.739   9.970   1.001  1.00 20.00     0.014 C 
HETATM   10  C3  UNL     1     -31.261   8.591   2.470  1.00 20.00     0.014 C 
HETATM   11  C4  UNL     1     -31.190   8.277  -0.008  1.00 20.00     0.014 C 
ENDBRANCH   7   8
ENDBRANCH   1   7
TORSDOF 5
ENDMDL
MODEL 9
REMARK VINA RESULT:      -0.1      2.283      4.424
REMARK  5 active torsions:
REMARK  status: ('A' for Active; 'I' for Inactive)
REMARK    1  A    between atoms: C5_5  and  C6_6 
REMARK    2  A    between atoms: C5_5  and  C7_7 
REMARK    3  A    between atoms: C6_6  and  C8_8 
REMARK    4  A    between atoms: C7_7  and  C9_9 
REMARK    5  A    between atoms: C8_8  and  O10_10 
ROOT
HETATM    1  C5  UNL     1     -32.720   6.079   1.839  1.00 20.00     0.003 C 
ENDROOT
BRANCH   1   2
HETATM    2  C6  UNL     1     -33.497   5.639   3.087  1.00 20.00     0.031 C 
BRANCH   2   3
HETATM    3  C8  UNL     1     -34.535   6.681   3.519  1.00 20.00     0.114 C 
HETATM    4  C1  UNL     1     -33.964   7.646   4.548  1.00 20.00     0.039 C 
BRANCH   3   5
HETATM    5  O10 UNL     1     -35.673   6.034   4.081  1.00 20.00    -0.396 OA
HETATM    6  H30 UNL     1     -35.847   5.254   3.531  1.00 20.00     0.210 HD
ENDBRANCH   3   5
ENDBRANCH   2   3
ENDBRANCH   1   2
BRANCH   1   7
HETATM    7  C7  UNL     1     -33.203   7.449   1.346  1.00 20.00     0.008 C 
BRANCH   7   8
HETATM    8  C9  UNL     1     -32.115   8.552   1.243  1.00 20.00    -0.051 C 
HETATM    9  C2  UNL     1     -31.258   8.608   2.519  1.00 20.00     0.014 C 
HETATM   10  C3  UNL     1     -31.198   8.211   0.052  1.00 20.00     0.014 C 
HETATM   11  C4  UNL     1     -32.744   9.933   0.996  1.00 20.00     0.014 C 
ENDBRANCH   7   8
ENDBRANCH   1   7
TORSDOF 5
ENDMDL
