MODEL 1
REMARK VINA RESULT:      -1.6      0.000      0.000
REMARK  0 active torsions:
REMARK  status: ('A' for Active; 'I' for Inactive)
ROOT
HETATM    1  C1  UNL     1     -33.709   5.365   3.207  1.00 20.00     0.223 A 
HETATM    2  C2  UNL     1     -34.180   6.832   3.127  1.00 20.00     0.096 A 
HETATM    3  C3  UNL     1     -33.226   6.935   1.895  1.00 20.00     0.093 A 
HETATM    4  C4  UNL     1     -33.910   7.671   4.362  1.00 20.00     0.022 C 
HETATM    5  C5  UNL     1     -31.978   7.790   1.958  1.00 20.00     0.033 C 
HETATM    6  N6  UNL     1     -32.911   5.527   2.119  1.00 20.00    -0.356 N 
HETATM    7  O7  UNL     1     -33.923   4.415   3.924  1.00 20.00    -0.273 OA
HETATM    8  H16 UNL     1     -32.299   4.869   1.655  1.00 20.00     0.162 HD
ENDROOT
TORSDOF 0
ENDMDL
MODEL 2
REMARK VINA RESULT:      -1.3      1.548      2.323
REMARK  0 active torsions:
REMARK  status: ('A' for Active; 'I' for Inactive)
ROOT
HETATM    1  C1  UNL     1     -33.670   6.740   3.115  1.00 20.00     0.223 A 
HETATM    2  C2  UNL     1     -32.579   6.271   2.128  1.00 20.00     0.096 A 
HETATM    3  C3  UNL     1     -32.081   7.750   2.180  1.00 20.00     0.093 A 
HETATM    4  C4  UNL     1     -33.089   5.693   0.822  1.00 20.00     0.022 C 
HETATM    5  C5  UNL     1     -32.193   8.643   0.962  1.00 20.00     0.033 C 
HETATM    6  N6  UNL     1     -33.169   8.004   3.120  1.00 20.00    -0.356 N 
HETATM    7  O7  UNL     1     -34.612   6.237   3.682  1.00 20.00    -0.273 OA
HETATM    8  H16 UNL     1     -33.485   8.829   3.612  1.00 20.00     0.162 HD
ENDROOT
TORSDOF 0
ENDMDL
MODEL 3
REMARK VINA RESULT:      -1.3      1.685      2.322
REMARK  0 active torsions:
REMARK  status: ('A' for Active; 'I' for Inactive)
ROOT
HETATM    1  C1  UNL     1     -33.646   7.203   3.395  1.00 20.00     0.223 A 
HETATM    2  C2  UNL     1     -33.020   7.606   2.043  1.00 20.00     0.096 A 
HETATM    3  C3  UNL     1     -33.190   6.101   1.665  1.00 20.00     0.093 A 
HETATM    4  C4  UNL     1     -31.632   8.211   2.124  1.00 20.00     0.022 C 
HETATM    5  C5  UNL     1     -31.977   5.214   1.472  1.00 20.00     0.033 C 
HETATM    6  N6  UNL     1     -33.774   5.912   2.989  1.00 20.00    -0.356 N 
HETATM    7  O7  UNL     1     -33.928   7.760   4.431  1.00 20.00    -0.273 OA
HETATM    8  H16 UNL     1     -34.143   5.107   3.478  1.00 20.00     0.162 HD
ENDROOT
TORSDOF 0
ENDMDL
MODEL 4
REMARK VINA RESULT:      -1.3      1.681      2.338
REMARK  0 active torsions:
REMARK  status: ('A' for Active; 'I' for Inactive)
ROOT
HETATM    1  C1  UNL     1     -33.213   6.320   2.296  1.00 20.00     0.223 A 
HETATM    2  C2  UNL     1     -34.450   6.320   3.219  1.00 20.00     0.096 A 
HETATM    3  C3  UNL     1     -33.948   7.727   3.674  1.00 20.00     0.093 A 
HETATM    4  C4  UNL     1     -34.513   5.182   4.221  1.00 20.00     0.022 C 
HETATM    5  C5  UNL     1     -33.431   7.943   5.081  1.00 20.00     0.033 C 
HETATM    6  N6  UNL     1     -32.847   7.555   2.730  1.00 20.00    -0.356 N 
HETATM    7  O7  UNL     1     -32.718   5.560   1.496  1.00 20.00    -0.273 OA
HETATM    8  H16 UNL     1     -32.054   8.128   2.474  1.00 20.00     0.162 HD
ENDROOT
TORSDOF 0
ENDMDL
MODEL 5
REMARK VINA RESULT:      -1.1      2.228      3.238
REMARK  0 active torsions:
REMARK  status: ('A' for Active; 'I' for Inactive)
ROOT
HETATM    1  C1  UNL     1     -32.653   7.566   2.592  1.00 20.00     0.223 A 
HETATM    2  C2  UNL     1     -33.303   6.412   1.799  1.00 20.00     0.096 A 
HETATM    3  C3  UNL     1     -34.231   6.253   3.045  1.00 20.00     0.093 A 
HETATM    4  C4  UNL     1     -32.366   5.285   1.408  1.00 20.00     0.022 C 
HETATM    5  C5  UNL     1     -34.136   5.023   3.923  1.00 20.00     0.033 C 
HETATM    6  N6  UNL     1     -33.507   7.376   3.633  1.00 20.00    -0.356 N 
HETATM    7  O7  UNL     1     -31.750   8.351   2.416  1.00 20.00    -0.273 OA
HETATM    8  H16 UNL     1     -33.576   7.862   4.517  1.00 20.00     0.162 HD
ENDROOT
TORSDOF 0
ENDMDL
MODEL 6
REMARK VINA RESULT:      -0.8      1.704      2.538
REMARK  0 active torsions:
REMARK  status: ('A' for Active; 'I' for Inactive)
ROOT
HETATM    1  C1  UNL     1     -32.884   6.012   1.699  1.00 20.00     0.223 A 
HETATM    2  C2  UNL     1     -32.226   7.303   2.229  1.00 20.00     0.096 A 
HETATM    3  C3  UNL     1     -33.137   7.099   3.480  1.00 20.00     0.093 A 
HETATM    4  C4  UNL     1     -32.407   8.531   1.356  1.00 20.00     0.022 C 
HETATM    5  C5  UNL     1     -34.265   8.065   3.777  1.00 20.00     0.033 C 
HETATM    6  N6  UNL     1     -33.635   5.893   2.826  1.00 20.00    -0.356 N 
HETATM    7  O7  UNL     1     -32.808   5.337   0.698  1.00 20.00    -0.273 OA
HETATM    8  H16 UNL     1     -34.319   5.194   3.083  1.00 20.00     0.162 HD
ENDROOT
TORSDOF 0
ENDMDL
MODEL 7
REMARK VINA RESULT:      -0.7      1.900      2.741
REMARK  0 active torsions:
REMARK  status: ('A' for Active; 'I' for Inactive)
ROOT
HETATM    1  C1  UNL     1     -34.248   4.506   4.137  1.00 20.00     0.223 A 
HETATM    2  C2  UNL     1     -33.707   5.834   3.564  1.00 20.00     0.096 A 
HETATM    3  C3  UNL     1     -35.070   6.438   4.029  1.00 20.00     0.093 A 
HETATM    4  C4  UNL     1     -33.357   5.810   2.089  1.00 20.00     0.022 C 
HETATM    5  C5  UNL     1     -36.088   6.913   3.013  1.00 20.00     0.033 C 
HETATM    6  N6  UNL     1     -35.404   5.107   4.526  1.00 20.00    -0.356 N 
HETATM    7  O7  UNL     1     -33.854   3.367   4.228  1.00 20.00    -0.273 OA
HETATM    8  H16 UNL     1     -36.216   4.720   4.990  1.00 20.00     0.162 HD
ENDROOT
TORSDOF 0
ENDMDL
MODEL 8
REMARK VINA RESULT:      -0.6      2.929      3.419
REMARK  0 active torsions:
REMARK  status: ('A' for Active; 'I' for Inactive)
ROOT
HETATM    1  C1  UNL     1     -32.337   8.882   1.317  1.00 20.00     0.223 A 
HETATM    2  C2  UNL     1     -32.314   8.040   2.611  1.00 20.00     0.096 A 
HETATM    3  C3  UNL     1     -31.769   6.895   1.701  1.00 20.00     0.093 A 
HETATM    4  C4  UNL     1     -33.653   7.879   3.306  1.00 20.00     0.022 C 
HETATM    5  C5  UNL     1     -32.608   5.664   1.428  1.00 20.00     0.033 C 
HETATM    6  N6  UNL     1     -31.847   7.841   0.593  1.00 20.00    -0.356 N 
HETATM    7  O7  UNL     1     -32.655  10.007   1.010  1.00 20.00    -0.273 OA
HETATM    8  H16 UNL     1     -31.635   7.776  -0.394  1.00 20.00     0.162 HD
ENDROOT
TORSDOF 0
ENDMDL
MODEL 9
REMARK VINA RESULT:      -0.5      2.059      2.790
REMARK  0 active torsions:
REMARK  status: ('A' for Active; 'I' for Inactive)
ROOT
HETATM    1  C1  UNL     1     -32.781   7.480   2.449  1.00 20.00     0.223 A 
HETATM    2  C2  UNL     1     -33.004   7.271   3.962  1.00 20.00     0.096 A 
HETATM    3  C3  UNL     1     -33.936   6.095   3.529  1.00 20.00     0.093 A 
HETATM    4  C4  UNL     1     -33.585   8.460   4.704  1.00 20.00     0.022 C 
HETATM    5  C5  UNL     1     -35.431   6.175   3.757  1.00 20.00     0.033 C 
HETATM    6  N6  UNL     1     -33.596   6.433   2.151  1.00 20.00    -0.356 N 
HETATM    7  O7  UNL     1     -32.154   8.246   1.754  1.00 20.00    -0.273 OA
HETATM    8  H16 UNL     1     -33.867   6.054   1.254  1.00 20.00     0.162 HD
ENDROOT
TORSDOF 0
ENDMDL
