MODEL 1
REMARK VINA RESULT:      -0.2      0.000      0.000
REMARK  0 active torsions:
REMARK  status: ('A' for Active; 'I' for Inactive)
ROOT
HETATM    1  C1  UNL     1     -33.581   7.810   3.644  1.00 20.00     0.026 C 
HETATM    2  C2  UNL     1     -33.483   5.811   2.062  1.00 20.00     0.026 C 
HETATM    3  C3  UNL     1     -32.240   8.370   3.185  1.00 20.00     0.075 C 
HETATM    4  C4  UNL     1     -32.133   6.211   1.476  1.00 20.00     0.075 C 
HETATM    5  C5  UNL     1     -33.663   6.292   3.499  1.00 20.00     0.059 C 
HETATM    6  S6  UNL     1     -31.920   8.013   1.434  1.00 20.00    -0.169 SA
HETATM    7 BR7  UNL     1     -35.415   5.693   4.146  1.00 20.00    -0.091 Br
ENDROOT
TORSDOF 0
ENDMDL
MODEL 2
REMARK VINA RESULT:      -0.1      2.810      3.662
REMARK  0 active torsions:
REMARK  status: ('A' for Active; 'I' for Inactive)
ROOT
HETATM    1  C1  UNL     1     -33.038   6.219   1.833  1.00 20.00     0.026 C 
HETATM    2  C2  UNL     1     -33.514   8.317   3.205  1.00 20.00     0.026 C 
HETATM    3  C3  UNL     1     -33.558   5.273   2.908  1.00 20.00     0.075 C 
HETATM    4  C4  UNL     1     -34.074   7.539   4.391  1.00 20.00     0.075 C 
HETATM    5  C5  UNL     1     -32.482   7.518   2.414  1.00 20.00     0.059 C 
HETATM    6  S6  UNL     1     -34.910   6.015   3.867  1.00 20.00    -0.169 SA
HETATM    7 BR7  UNL     1     -31.821   8.632   0.941  1.00 20.00    -0.091 Br
ENDROOT
TORSDOF 0
ENDMDL
MODEL 3
REMARK VINA RESULT:       0.2      0.690      2.114
REMARK  0 active torsions:
REMARK  status: ('A' for Active; 'I' for Inactive)
ROOT
HETATM    1  C1  UNL     1     -33.346   5.403   2.433  1.00 20.00     0.026 C 
HETATM    2  C2  UNL     1     -33.755   7.478   3.859  1.00 20.00     0.026 C 
HETATM    3  C3  UNL     1     -32.687   6.183   1.302  1.00 20.00     0.075 C 
HETATM    4  C4  UNL     1     -33.127   8.426   2.843  1.00 20.00     0.075 C 
HETATM    5  C5  UNL     1     -34.362   6.239   3.207  1.00 20.00     0.059 C 
HETATM    6  S6  UNL     1     -31.782   7.632   1.917  1.00 20.00    -0.169 SA
HETATM    7 BR7  UNL     1     -35.158   5.120   4.608  1.00 20.00    -0.091 Br
ENDROOT
TORSDOF 0
ENDMDL
MODEL 4
REMARK VINA RESULT:       0.3      2.362      2.819
REMARK  0 active torsions:
REMARK  status: ('A' for Active; 'I' for Inactive)
ROOT
HETATM    1  C1  UNL     1     -31.982   7.260   1.907  1.00 20.00     0.026 C 
HETATM    2  C2  UNL     1     -33.631   5.558   2.852  1.00 20.00     0.026 C 
HETATM    3  C3  UNL     1     -32.654   8.445   2.590  1.00 20.00     0.075 C 
HETATM    4  C4  UNL     1     -34.436   6.607   3.612  1.00 20.00     0.075 C 
HETATM    5  C5  UNL     1     -32.959   6.125   1.605  1.00 20.00     0.059 C 
HETATM    6  S6  UNL     1     -33.394   7.979   4.181  1.00 20.00    -0.169 SA
HETATM    7 BR7  UNL     1     -31.983   4.680   0.706  1.00 20.00    -0.091 Br
ENDROOT
TORSDOF 0
ENDMDL
MODEL 5
REMARK VINA RESULT:       0.3      2.877      3.231
REMARK  0 active torsions:
REMARK  status: ('A' for Active; 'I' for Inactive)
ROOT
HETATM    1  C1  UNL     1     -34.026   7.315   3.575  1.00 20.00     0.026 C 
HETATM    2  C2  UNL     1     -32.704   5.497   2.369  1.00 20.00     0.026 C 
HETATM    3  C3  UNL     1     -35.122   6.360   4.032  1.00 20.00     0.075 C 
HETATM    4  C4  UNL     1     -33.694   4.394   2.730  1.00 20.00     0.075 C 
HETATM    5  C5  UNL     1     -33.366   6.869   2.272  1.00 20.00     0.059 C 
HETATM    6  S6  UNL     1     -34.479   4.690   4.340  1.00 20.00    -0.169 SA
HETATM    7 BR7  UNL     1     -32.002   8.189   1.776  1.00 20.00    -0.091 Br
ENDROOT
TORSDOF 0
ENDMDL
MODEL 6
REMARK VINA RESULT:       0.5      2.308      3.114
REMARK  0 active torsions:
REMARK  status: ('A' for Active; 'I' for Inactive)
ROOT
HETATM    1  C1  UNL     1     -32.809   5.043   3.032  1.00 20.00     0.026 C 
HETATM    2  C2  UNL     1     -34.817   5.062   4.605  1.00 20.00     0.026 C 
HETATM    3  C3  UNL     1     -33.262   6.284   2.271  1.00 20.00     0.075 C 
HETATM    4  C4  UNL     1     -35.431   6.306   3.971  1.00 20.00     0.075 C 
HETATM    5  C5  UNL     1     -33.978   4.255   3.618  1.00 20.00     0.059 C 
HETATM    6  S6  UNL     1     -34.164   7.441   3.340  1.00 20.00    -0.169 SA
HETATM    7 BR7  UNL     1     -33.270   2.676   4.541  1.00 20.00    -0.091 Br
ENDROOT
TORSDOF 0
ENDMDL
MODEL 7
REMARK VINA RESULT:       1.1      1.600      2.426
REMARK  0 active torsions:
REMARK  status: ('A' for Active; 'I' for Inactive)
ROOT
HETATM    1  C1  UNL     1     -33.719   6.076   3.292  1.00 20.00     0.026 C 
HETATM    2  C2  UNL     1     -32.181   8.044   2.774  1.00 20.00     0.026 C 
HETATM    3  C3  UNL     1     -33.597   5.479   1.894  1.00 20.00     0.075 C 
HETATM    4  C4  UNL     1     -31.934   7.605   1.335  1.00 20.00     0.075 C 
HETATM    5  C5  UNL     1     -33.540   7.592   3.299  1.00 20.00     0.059 C 
HETATM    6  S6  UNL     1     -31.966   5.799   1.162  1.00 20.00    -0.169 SA
HETATM    7 BR7  UNL     1     -33.748   8.239   5.140  1.00 20.00    -0.091 Br
ENDROOT
TORSDOF 0
ENDMDL
MODEL 8
REMARK VINA RESULT:       1.3      2.833      3.127
REMARK  0 active torsions:
REMARK  status: ('A' for Active; 'I' for Inactive)
ROOT
HETATM    1  C1  UNL     1     -32.909   8.119   3.145  1.00 20.00     0.026 C 
HETATM    2  C2  UNL     1     -32.303   6.395   1.365  1.00 20.00     0.026 C 
HETATM    3  C3  UNL     1     -33.959   7.228   3.798  1.00 20.00     0.075 C 
HETATM    4  C4  UNL     1     -33.303   5.364   1.876  1.00 20.00     0.075 C 
HETATM    5  C5  UNL     1     -32.738   7.828   1.656  1.00 20.00     0.059 C 
HETATM    6  S6  UNL     1     -33.525   5.469   3.674  1.00 20.00    -0.169 SA
HETATM    7 BR7  UNL     1     -31.389   9.053   0.928  1.00 20.00    -0.091 Br
ENDROOT
TORSDOF 0
ENDMDL
MODEL 9
REMARK VINA RESULT:       1.4      1.089      1.147
REMARK  0 active torsions:
REMARK  status: ('A' for Active; 'I' for Inactive)
ROOT
HETATM    1  C1  UNL     1     -34.066   6.875   3.639  1.00 20.00     0.026 C 
HETATM    2  C2  UNL     1     -32.730   5.476   1.975  1.00 20.00     0.026 C 
HETATM    3  C3  UNL     1     -33.363   8.176   3.267  1.00 20.00     0.075 C 
HETATM    4  C4  UNL     1     -31.920   6.665   1.469  1.00 20.00     0.075 C 
HETATM    5  C5  UNL     1     -33.182   5.649   3.423  1.00 20.00     0.059 C 
HETATM    6  S6  UNL     1     -32.877   8.206   1.518  1.00 20.00    -0.169 SA
HETATM    7 BR7  UNL     1     -34.183   4.050   3.962  1.00 20.00    -0.091 Br
ENDROOT
TORSDOF 0
ENDMDL
