MODEL 1
REMARK VINA RESULT:      -0.3      0.000      0.000
REMARK  0 active torsions:
REMARK  status: ('A' for Active; 'I' for Inactive)
ROOT
HETATM    1  C1  UNL     1     -31.557   7.341   1.620  1.00 20.00    -0.030 C 
HETATM    2  C2  UNL     1     -32.410   8.218   2.169  1.00 20.00    -0.023 C 
HETATM    3  C3  UNL     1     -34.770   6.415   3.838  1.00 20.00     0.150 C 
HETATM    4  C4  UNL     1     -31.862   5.884   1.416  1.00 20.00     0.027 C 
HETATM    5  C5  UNL     1     -32.869   5.361   2.438  1.00 20.00     0.016 C 
HETATM    6  C6  UNL     1     -33.787   7.802   2.541  1.00 20.00     0.045 C 
HETATM    7  C7  UNL     1     -34.088   6.273   2.457  1.00 20.00     0.067 C 
HETATM    8  C8  UNL     1     -34.167   7.825   4.054  1.00 20.00     0.160 C 
HETATM    9  O9  UNL     1     -35.481   5.691   4.501  1.00 20.00    -0.296 OA
HETATM   10 CL10 UNL     1     -32.915   7.864   5.333  1.00 20.00    -0.116 Cl
ENDROOT
TORSDOF 0
ENDMDL
MODEL 2
REMARK VINA RESULT:       1.1      1.836      2.521
REMARK  0 active torsions:
REMARK  status: ('A' for Active; 'I' for Inactive)
ROOT
HETATM    1  C1  UNL     1     -32.740   6.004   1.040  1.00 20.00    -0.030 C 
HETATM    2  C2  UNL     1     -33.454   5.386   1.992  1.00 20.00    -0.023 C 
HETATM    3  C3  UNL     1     -33.974   7.649   4.485  1.00 20.00     0.150 C 
HETATM    4  C4  UNL     1     -31.963   7.271   1.258  1.00 20.00     0.027 C 
HETATM    5  C5  UNL     1     -32.562   8.126   2.373  1.00 20.00     0.016 C 
HETATM    6  C6  UNL     1     -33.445   5.890   3.390  1.00 20.00     0.045 C 
HETATM    7  C7  UNL     1     -32.752   7.269   3.618  1.00 20.00     0.067 C 
HETATM    8  C8  UNL     1     -34.787   6.434   3.972  1.00 20.00     0.160 C 
HETATM    9  O9  UNL     1     -34.210   8.559   5.251  1.00 20.00    -0.296 OA
HETATM   10 CL10 UNL     1     -36.149   6.901   2.907  1.00 20.00    -0.116 Cl
ENDROOT
TORSDOF 0
ENDMDL
MODEL 3
REMARK VINA RESULT:       1.2      2.177      3.169
REMARK  0 active torsions:
REMARK  status: ('A' for Active; 'I' for Inactive)
ROOT
HETATM    1  C1  UNL     1     -33.302   8.265   4.674  1.00 20.00    -0.030 C 
HETATM    2  C2  UNL     1     -34.237   7.377   4.303  1.00 20.00    -0.023 C 
HETATM    3  C3  UNL     1     -33.018   5.707   1.595  1.00 20.00     0.150 C 
HETATM    4  C4  UNL     1     -32.174   8.717   3.792  1.00 20.00     0.027 C 
HETATM    5  C5  UNL     1     -31.785   7.655   2.766  1.00 20.00     0.016 C 
HETATM    6  C6  UNL     1     -34.260   6.839   2.919  1.00 20.00     0.045 C 
HETATM    7  C7  UNL     1     -33.032   7.193   2.024  1.00 20.00     0.067 C 
HETATM    8  C8  UNL     1     -33.995   5.312   2.731  1.00 20.00     0.160 C 
HETATM    9  O9  UNL     1     -32.446   5.090   0.722  1.00 20.00    -0.296 OA
HETATM   10 CL10 UNL     1     -33.220   4.332   4.013  1.00 20.00    -0.116 Cl
ENDROOT
TORSDOF 0
ENDMDL
MODEL 4
REMARK VINA RESULT:       1.3      2.301      3.385
REMARK  0 active torsions:
REMARK  status: ('A' for Active; 'I' for Inactive)
ROOT
HETATM    1  C1  UNL     1     -34.238   8.015   4.458  1.00 20.00    -0.030 C 
HETATM    2  C2  UNL     1     -32.996   8.225   3.997  1.00 20.00    -0.023 C 
HETATM    3  C3  UNL     1     -32.508   6.070   1.404  1.00 20.00     0.150 C 
HETATM    4  C4  UNL     1     -35.044   6.781   4.173  1.00 20.00     0.027 C 
HETATM    5  C5  UNL     1     -34.653   6.134   2.845  1.00 20.00     0.016 C 
HETATM    6  C6  UNL     1     -32.289   7.172   3.224  1.00 20.00     0.045 C 
HETATM    7  C7  UNL     1     -33.144   5.935   2.807  1.00 20.00     0.067 C 
HETATM    8  C8  UNL     1     -31.946   7.476   1.732  1.00 20.00     0.160 C 
HETATM    9  O9  UNL     1     -32.480   5.359   0.423  1.00 20.00    -0.296 OA
HETATM   10 CL10 UNL     1     -32.767   8.787   0.831  1.00 20.00    -0.116 Cl
ENDROOT
TORSDOF 0
ENDMDL
MODEL 5
REMARK VINA RESULT:       1.4      2.335      3.353
REMARK  0 active torsions:
REMARK  status: ('A' for Active; 'I' for Inactive)
ROOT
HETATM    1  C1  UNL     1     -31.744   9.353  -0.275  1.00 20.00    -0.030 C 
HETATM    2  C2  UNL     1     -31.300   8.175   0.186  1.00 20.00    -0.023 C 
HETATM    3  C3  UNL     1     -33.168   7.401   2.928  1.00 20.00     0.150 C 
HETATM    4  C4  UNL     1     -32.572  10.315   0.529  1.00 20.00     0.027 C 
HETATM    5  C5  UNL     1     -33.402   9.604   1.595  1.00 20.00     0.016 C 
HETATM    6  C6  UNL     1     -31.536   7.780   1.598  1.00 20.00     0.045 C 
HETATM    7  C7  UNL     1     -32.496   8.697   2.417  1.00 20.00     0.067 C 
HETATM    8  C8  UNL     1     -32.448   6.540   1.861  1.00 20.00     0.160 C 
HETATM    9  O9  UNL     1     -33.966   7.160   3.809  1.00 20.00    -0.296 OA
HETATM   10 CL10 UNL     1     -33.556   5.910   0.604  1.00 20.00    -0.116 Cl
ENDROOT
TORSDOF 0
ENDMDL
MODEL 6
REMARK VINA RESULT:       1.5      2.532      3.837
REMARK  0 active torsions:
REMARK  status: ('A' for Active; 'I' for Inactive)
ROOT
HETATM    1  C1  UNL     1     -34.564   6.597   4.455  1.00 20.00    -0.030 C 
HETATM    2  C2  UNL     1     -34.569   6.118   3.203  1.00 20.00    -0.023 C 
HETATM    3  C3  UNL     1     -31.985   7.601   1.551  1.00 20.00     0.150 C 
HETATM    4  C4  UNL     1     -33.852   7.851   4.875  1.00 20.00     0.027 C 
HETATM    5  C5  UNL     1     -32.643   8.148   3.990  1.00 20.00     0.016 C 
HETATM    6  C6  UNL     1     -33.919   6.876   2.102  1.00 20.00     0.045 C 
HETATM    7  C7  UNL     1     -33.068   8.112   2.528  1.00 20.00     0.067 C 
HETATM    8  C8  UNL     1     -32.683   6.226   1.407  1.00 20.00     0.160 C 
HETATM    9  O9  UNL     1     -30.971   8.084   1.094  1.00 20.00    -0.296 OA
HETATM   10 CL10 UNL     1     -31.770   4.892   2.176  1.00 20.00    -0.116 Cl
ENDROOT
TORSDOF 0
ENDMDL
MODEL 7
REMARK VINA RESULT:       1.8      2.807      3.690
REMARK  0 active torsions:
REMARK  status: ('A' for Active; 'I' for Inactive)
ROOT
HETATM    1  C1  UNL     1     -34.177   6.900   3.572  1.00 20.00    -0.030 C 
HETATM    2  C2  UNL     1     -33.475   8.037   3.686  1.00 20.00    -0.023 C 
HETATM    3  C3  UNL     1     -31.503   8.283   0.919  1.00 20.00     0.150 C 
HETATM    4  C4  UNL     1     -33.814   5.776   2.644  1.00 20.00     0.027 C 
HETATM    5  C5  UNL     1     -33.043   6.268   1.421  1.00 20.00     0.016 C 
HETATM    6  C6  UNL     1     -32.204   8.218   2.938  1.00 20.00     0.045 C 
HETATM    7  C7  UNL     1     -31.870   7.125   1.877  1.00 20.00     0.067 C 
HETATM    8  C8  UNL     1     -32.159   9.335   1.849  1.00 20.00     0.160 C 
HETATM    9  O9  UNL     1     -30.940   8.339  -0.153  1.00 20.00    -0.296 OA
HETATM   10 CL10 UNL     1     -33.656  10.038   1.165  1.00 20.00    -0.116 Cl
ENDROOT
TORSDOF 0
ENDMDL
MODEL 8
REMARK VINA RESULT:       2.1      2.679      3.745
REMARK  0 active torsions:
REMARK  status: ('A' for Active; 'I' for Inactive)
ROOT
HETATM    1  C1  UNL     1     -35.436   6.028   4.125  1.00 20.00    -0.030 C 
HETATM    2  C2  UNL     1     -34.804   6.940   3.373  1.00 20.00    -0.023 C 
HETATM    3  C3  UNL     1     -32.238   5.344   1.800  1.00 20.00     0.150 C 
HETATM    4  C4  UNL     1     -34.842   4.706   4.523  1.00 20.00     0.027 C 
HETATM    5  C5  UNL     1     -33.813   4.211   3.508  1.00 20.00     0.016 C 
HETATM    6  C6  UNL     1     -33.396   6.726   2.950  1.00 20.00     0.045 C 
HETATM    7  C7  UNL     1     -32.798   5.315   3.241  1.00 20.00     0.067 C 
HETATM    8  C8  UNL     1     -33.115   6.564   1.424  1.00 20.00     0.160 C 
HETATM    9  O9  UNL     1     -31.438   4.662   1.196  1.00 20.00    -0.296 OA
HETATM   10 CL10 UNL     1     -34.422   6.158   0.269  1.00 20.00    -0.116 Cl
ENDROOT
TORSDOF 0
ENDMDL
