MODEL 1
REMARK VINA RESULT:       0.7      0.000      0.000
REMARK  2 active torsions:
REMARK  status: ('A' for Active; 'I' for Inactive)
REMARK    1  A    between atoms: C2_2  and  O12_12 
REMARK    2  A    between atoms: C7_7  and  O12_12 
ROOT
HETATM    1  C3  UNL     1     -31.654   6.884   1.791  1.00 20.00     0.036 C 
HETATM    2  C4  UNL     1     -33.541   5.382   2.543  1.00 20.00     0.013 C 
HETATM    3  C5  UNL     1     -33.162   7.610   3.696  1.00 20.00     0.041 C 
HETATM    4  C6  UNL     1     -32.706   5.861   1.344  1.00 20.00    -0.015 C 
HETATM    5  C7  UNL     1     -32.268   8.064   2.539  1.00 20.00     0.128 C 
HETATM    6  C8  UNL     1     -34.213   6.533   3.326  1.00 20.00    -0.045 C 
HETATM    7  C9  UNL     1     -32.036   4.672   0.653  1.00 20.00     0.010 C 
HETATM    8  C10 UNL     1     -34.809   5.962   4.630  1.00 20.00     0.015 C 
HETATM    9  C11 UNL     1     -35.376   7.134   2.515  1.00 20.00     0.015 C 
ENDROOT
BRANCH   5  10
HETATM   10  O12 UNL     1     -32.997   8.870   1.619  1.00 20.00    -0.359 OA
BRANCH  10  11
HETATM   11  C2  UNL     1     -32.259   9.475   0.698  1.00 20.00     0.125 C 
HETATM   12  C1  UNL     1     -32.741  10.091  -0.384  1.00 20.00     0.037 C 
ENDBRANCH  10  11
ENDBRANCH   5  10
TORSDOF 2
ENDMDL
MODEL 2
REMARK VINA RESULT:       1.9      1.294      4.011
REMARK  2 active torsions:
REMARK  status: ('A' for Active; 'I' for Inactive)
REMARK    1  A    between atoms: C2_2  and  O12_12 
REMARK    2  A    between atoms: C7_7  and  O12_12 
ROOT
HETATM    1  C3  UNL     1     -32.739   8.226   2.862  1.00 20.00     0.036 C 
HETATM    2  C4  UNL     1     -31.890   7.090   0.771  1.00 20.00     0.013 C 
HETATM    3  C5  UNL     1     -32.569   5.696   2.779  1.00 20.00     0.041 C 
HETATM    4  C6  UNL     1     -32.684   8.282   1.329  1.00 20.00    -0.015 C 
HETATM    5  C7  UNL     1     -33.299   6.902   3.377  1.00 20.00     0.128 C 
HETATM    6  C8  UNL     1     -32.426   5.717   1.236  1.00 20.00    -0.045 C 
HETATM    7  C9  UNL     1     -32.062   9.601   0.865  1.00 20.00     0.010 C 
HETATM    8  C10 UNL     1     -31.418   4.625   0.823  1.00 20.00     0.015 C 
HETATM    9  C11 UNL     1     -33.763   5.394   0.542  1.00 20.00     0.015 C 
ENDROOT
BRANCH   5  10
HETATM   10  O12 UNL     1     -34.693   6.844   3.094  1.00 20.00    -0.359 OA
BRANCH  10  11
HETATM   11  C2  UNL     1     -35.440   6.334   4.063  1.00 20.00     0.125 C 
HETATM   12  C1  UNL     1     -35.335   5.090   4.535  1.00 20.00     0.037 C 
ENDBRANCH  10  11
ENDBRANCH   5  10
TORSDOF 2
ENDMDL
MODEL 3
REMARK VINA RESULT:       2.4      2.040      4.187
REMARK  2 active torsions:
REMARK  status: ('A' for Active; 'I' for Inactive)
REMARK    1  A    between atoms: C2_2  and  O12_12 
REMARK    2  A    between atoms: C7_7  and  O12_12 
ROOT
HETATM    1  C3  UNL     1     -33.023   5.887   1.579  1.00 20.00     0.036 C 
HETATM    2  C4  UNL     1     -32.973   8.214   2.562  1.00 20.00     0.013 C 
HETATM    3  C5  UNL     1     -34.724   6.551   3.340  1.00 20.00     0.041 C 
HETATM    4  C6  UNL     1     -32.128   7.061   1.998  1.00 20.00    -0.015 C 
HETATM    5  C7  UNL     1     -33.923   5.405   2.714  1.00 20.00     0.128 C 
HETATM    6  C8  UNL     1     -33.887   7.794   3.735  1.00 20.00    -0.045 C 
HETATM    7  C9  UNL     1     -31.291   7.544   0.811  1.00 20.00     0.010 C 
HETATM    8  C10 UNL     1     -34.854   8.954   4.051  1.00 20.00     0.015 C 
HETATM    9  C11 UNL     1     -33.054   7.533   5.005  1.00 20.00     0.015 C 
ENDROOT
BRANCH   5  10
HETATM   10  O12 UNL     1     -33.125   4.749   3.693  1.00 20.00    -0.359 OA
BRANCH  10  11
HETATM   11  C2  UNL     1     -33.737   3.774   4.352  1.00 20.00     0.125 C 
HETATM   12  C1  UNL     1     -33.137   2.687   4.842  1.00 20.00     0.037 C 
ENDBRANCH  10  11
ENDBRANCH   5  10
TORSDOF 2
ENDMDL
MODEL 4
REMARK VINA RESULT:       2.7      1.509      3.900
REMARK  2 active torsions:
REMARK  status: ('A' for Active; 'I' for Inactive)
REMARK    1  A    between atoms: C2_2  and  O12_12 
REMARK    2  A    between atoms: C7_7  and  O12_12 
ROOT
HETATM    1  C3  UNL     1     -33.673   5.334   2.571  1.00 20.00     0.036 C 
HETATM    2  C4  UNL     1     -33.188   7.673   3.396  1.00 20.00     0.013 C 
HETATM    3  C5  UNL     1     -31.620   6.568   1.736  1.00 20.00     0.041 C 
HETATM    4  C6  UNL     1     -34.288   6.664   3.029  1.00 20.00    -0.015 C 
HETATM    5  C7  UNL     1     -32.685   5.514   1.421  1.00 20.00     0.128 C 
HETATM    6  C8  UNL     1     -32.170   7.919   2.260  1.00 20.00    -0.045 C 
HETATM    7  C9  UNL     1     -35.222   6.437   4.219  1.00 20.00     0.010 C 
HETATM    8  C10 UNL     1     -30.993   8.744   2.819  1.00 20.00     0.015 C 
HETATM    9  C11 UNL     1     -32.812   8.744   1.127  1.00 20.00     0.015 C 
ENDROOT
BRANCH   5  10
HETATM   10  O12 UNL     1     -33.403   5.856   0.240  1.00 20.00    -0.359 OA
BRANCH  10  11
HETATM   11  C2  UNL     1     -34.267   4.939  -0.175  1.00 20.00     0.125 C 
HETATM   12  C1  UNL     1     -33.935   3.752  -0.688  1.00 20.00     0.037 C 
ENDBRANCH  10  11
ENDBRANCH   5  10
TORSDOF 2
ENDMDL
MODEL 5
REMARK VINA RESULT:       3.0      1.564      4.039
REMARK  2 active torsions:
REMARK  status: ('A' for Active; 'I' for Inactive)
REMARK    1  A    between atoms: C2_2  and  O12_12 
REMARK    2  A    between atoms: C7_7  and  O12_12 
ROOT
HETATM    1  C3  UNL     1     -33.472   5.302   1.514  1.00 20.00     0.036 C 
HETATM    2  C4  UNL     1     -31.676   7.014   1.039  1.00 20.00     0.013 C 
HETATM    3  C5  UNL     1     -33.865   7.740   2.096  1.00 20.00     0.041 C 
HETATM    4  C6  UNL     1     -31.961   5.559   1.446  1.00 20.00    -0.015 C 
HETATM    5  C7  UNL     1     -34.190   6.283   2.439  1.00 20.00     0.128 C 
HETATM    6  C8  UNL     1     -32.355   8.057   1.955  1.00 20.00    -0.045 C 
HETATM    7  C9  UNL     1     -31.299   4.591   0.464  1.00 20.00     0.010 C 
HETATM    8  C10 UNL     1     -32.205   9.452   1.313  1.00 20.00     0.015 C 
HETATM    9  C11 UNL     1     -31.657   8.107   3.328  1.00 20.00     0.015 C 
ENDROOT
BRANCH   5  10
HETATM   10  O12 UNL     1     -33.844   5.989   3.788  1.00 20.00    -0.359 OA
BRANCH  10  11
HETATM   11  C2  UNL     1     -34.407   4.895   4.284  1.00 20.00     0.125 C 
HETATM   12  C1  UNL     1     -33.786   3.727   4.458  1.00 20.00     0.037 C 
ENDBRANCH  10  11
ENDBRANCH   5  10
TORSDOF 2
ENDMDL
MODEL 6
REMARK VINA RESULT:       3.3      1.718      3.512
REMARK  2 active torsions:
REMARK  status: ('A' for Active; 'I' for Inactive)
REMARK    1  A    between atoms: C2_2  and  O12_12 
REMARK    2  A    between atoms: C7_7  and  O12_12 
ROOT
HETATM    1  C3  UNL     1     -32.190   7.849   1.854  1.00 20.00     0.036 C 
HETATM    2  C4  UNL     1     -33.579   7.526   3.940  1.00 20.00     0.013 C 
HETATM    3  C5  UNL     1     -34.159   6.250   1.825  1.00 20.00     0.041 C 
HETATM    4  C6  UNL     1     -32.170   7.801   3.388  1.00 20.00    -0.015 C 
HETATM    5  C7  UNL     1     -32.785   6.585   1.238  1.00 20.00     0.128 C 
HETATM    6  C8  UNL     1     -34.225   6.241   3.373  1.00 20.00    -0.045 C 
HETATM    7  C9  UNL     1     -31.622   9.111   3.956  1.00 20.00     0.010 C 
HETATM    8  C10 UNL     1     -35.706   6.202   3.800  1.00 20.00     0.015 C 
HETATM    9  C11 UNL     1     -33.545   4.989   3.959  1.00 20.00     0.015 C 
ENDROOT
BRANCH   5  10
HETATM   10  O12 UNL     1     -31.876   5.505   1.424  1.00 20.00    -0.359 OA
BRANCH  10  11
HETATM   11  C2  UNL     1     -32.025   4.496   0.575  1.00 20.00     0.125 C 
HETATM   12  C1  UNL     1     -31.028   3.882  -0.065  1.00 20.00     0.037 C 
ENDBRANCH  10  11
ENDBRANCH   5  10
TORSDOF 2
ENDMDL
MODEL 7
REMARK VINA RESULT:       3.5      2.077      3.293
REMARK  2 active torsions:
REMARK  status: ('A' for Active; 'I' for Inactive)
REMARK    1  A    between atoms: C2_2  and  O12_12 
REMARK    2  A    between atoms: C7_7  and  O12_12 
ROOT
HETATM    1  C3  UNL     1     -32.508   4.545   2.625  1.00 20.00     0.036 C 
HETATM    2  C4  UNL     1     -33.979   5.526   4.429  1.00 20.00     0.013 C 
HETATM    3  C5  UNL     1     -33.025   7.028   2.621  1.00 20.00     0.041 C 
HETATM    4  C6  UNL     1     -33.706   4.294   3.551  1.00 20.00    -0.015 C 
HETATM    5  C7  UNL     1     -32.681   5.799   1.773  1.00 20.00     0.128 C 
HETATM    6  C8  UNL     1     -34.191   6.826   3.621  1.00 20.00    -0.045 C 
HETATM    7  C9  UNL     1     -33.457   3.062   4.424  1.00 20.00     0.010 C 
HETATM    8  C10 UNL     1     -34.210   8.019   4.598  1.00 20.00     0.015 C 
HETATM    9  C11 UNL     1     -35.554   6.801   2.902  1.00 20.00     0.015 C 
ENDROOT
BRANCH   5  10
HETATM   10  O12 UNL     1     -33.685   5.561   0.793  1.00 20.00    -0.359 OA
BRANCH  10  11
HETATM   11  C2  UNL     1     -33.428   4.561  -0.040  1.00 20.00     0.125 C 
HETATM   12  C1  UNL     1     -34.353   3.845  -0.683  1.00 20.00     0.037 C 
ENDBRANCH  10  11
ENDBRANCH   5  10
TORSDOF 2
ENDMDL
