MODEL 1
REMARK VINA RESULT:      -0.8      0.000      0.000
REMARK  0 active torsions:
REMARK  status: ('A' for Active; 'I' for Inactive)
ROOT
HETATM    1  C1  UNL     1     -33.909   5.109   3.392  1.00 20.00    -0.013 C 
HETATM    2  C2  UNL     1     -33.254   5.661   2.370  1.00 20.00    -0.066 C 
HETATM    3  C3  UNL     1     -34.705   6.222   3.953  1.00 20.00     0.156 C 
HETATM    4  C4  UNL     1     -32.069   5.201   1.592  1.00 20.00     0.036 C 
HETATM    5  C5  UNL     1     -34.373   7.541   3.294  1.00 20.00     0.093 C 
HETATM    6  C6  UNL     1     -31.486   6.525   1.069  1.00 20.00     0.009 C 
HETATM    7  C7  UNL     1     -33.566   7.096   2.088  1.00 20.00     0.026 C 
HETATM    8  C8  UNL     1     -32.153   7.637   1.905  1.00 20.00    -0.010 C 
HETATM    9  C9  UNL     1     -33.814   3.769   4.006  1.00 20.00     0.052 C 
HETATM   10  C10 UNL     1     -32.117   8.996   1.226  1.00 20.00     0.010 C 
HETATM   11  O11 UNL     1     -35.496   6.090   4.875  1.00 20.00    -0.293 OA
ENDROOT
TORSDOF 0
ENDMDL
MODEL 2
REMARK VINA RESULT:       0.8      1.916      4.273
REMARK  0 active torsions:
REMARK  status: ('A' for Active; 'I' for Inactive)
ROOT
HETATM    1  C1  UNL     1     -33.648   7.509   2.756  1.00 20.00    -0.013 C 
HETATM    2  C2  UNL     1     -34.248   6.407   3.206  1.00 20.00    -0.066 C 
HETATM    3  C3  UNL     1     -32.459   7.003   2.035  1.00 20.00     0.156 C 
HETATM    4  C4  UNL     1     -35.291   6.207   4.251  1.00 20.00     0.036 C 
HETATM    5  C5  UNL     1     -32.288   5.512   2.208  1.00 20.00     0.093 C 
HETATM    6  C6  UNL     1     -35.038   4.756   4.695  1.00 20.00     0.009 C 
HETATM    7  C7  UNL     1     -33.623   5.109   2.806  1.00 20.00     0.026 C 
HETATM    8  C8  UNL     1     -33.643   4.388   4.149  1.00 20.00    -0.010 C 
HETATM    9  C9  UNL     1     -33.922   8.941   2.996  1.00 20.00     0.052 C 
HETATM   10  C10 UNL     1     -33.428   2.889   4.025  1.00 20.00     0.010 C 
HETATM   11  O11 UNL     1     -31.684   7.722   1.421  1.00 20.00    -0.293 OA
ENDROOT
TORSDOF 0
ENDMDL
MODEL 3
REMARK VINA RESULT:       0.9      0.846      2.581
REMARK  0 active torsions:
REMARK  status: ('A' for Active; 'I' for Inactive)
ROOT
HETATM    1  C1  UNL     1     -34.030   7.249   3.768  1.00 20.00    -0.013 C 
HETATM    2  C2  UNL     1     -32.988   7.039   2.963  1.00 20.00    -0.066 C 
HETATM    3  C3  UNL     1     -34.645   5.912   3.918  1.00 20.00     0.156 C 
HETATM    4  C4  UNL     1     -32.149   7.980   2.169  1.00 20.00     0.036 C 
HETATM    5  C5  UNL     1     -33.992   4.888   3.019  1.00 20.00     0.093 C 
HETATM    6  C6  UNL     1     -31.620   7.075   1.042  1.00 20.00     0.009 C 
HETATM    7  C7  UNL     1     -32.743   5.620   2.563  1.00 20.00     0.026 C 
HETATM    8  C8  UNL     1     -32.503   5.810   1.070  1.00 20.00    -0.010 C 
HETATM    9  C9  UNL     1     -34.619   8.494   4.304  1.00 20.00     0.052 C 
HETATM   10  C10 UNL     1     -31.844   4.609   0.413  1.00 20.00     0.010 C 
HETATM   11  O11 UNL     1     -35.601   5.685   4.644  1.00 20.00    -0.293 OA
ENDROOT
TORSDOF 0
ENDMDL
MODEL 4
REMARK VINA RESULT:       0.9      2.104      4.205
REMARK  0 active torsions:
REMARK  status: ('A' for Active; 'I' for Inactive)
ROOT
HETATM    1  C1  UNL     1     -32.196   7.120   1.763  1.00 20.00    -0.013 C 
HETATM    2  C2  UNL     1     -33.261   7.221   2.559  1.00 20.00    -0.066 C 
HETATM    3  C3  UNL     1     -32.213   5.710   1.315  1.00 20.00     0.156 C 
HETATM    4  C4  UNL     1     -33.645   8.248   3.568  1.00 20.00     0.036 C 
HETATM    5  C5  UNL     1     -33.282   4.909   2.021  1.00 20.00     0.093 C 
HETATM    6  C6  UNL     1     -34.560   7.451   4.515  1.00 20.00     0.009 C 
HETATM    7  C7  UNL     1     -34.111   5.997   2.677  1.00 20.00     0.026 C 
HETATM    8  C8  UNL     1     -34.309   5.965   4.187  1.00 20.00    -0.010 C 
HETATM    9  C9  UNL     1     -31.106   8.070   1.460  1.00 20.00     0.052 C 
HETATM   10  C10 UNL     1     -35.449   5.059   4.621  1.00 20.00     0.010 C 
HETATM   11  O11 UNL     1     -31.418   5.247   0.511  1.00 20.00    -0.293 OA
ENDROOT
TORSDOF 0
ENDMDL
MODEL 5
REMARK VINA RESULT:       1.2      2.201      3.670
REMARK  0 active torsions:
REMARK  status: ('A' for Active; 'I' for Inactive)
ROOT
HETATM    1  C1  UNL     1     -32.649   6.120   1.506  1.00 20.00    -0.013 C 
HETATM    2  C2  UNL     1     -33.210   6.117   2.715  1.00 20.00    -0.066 C 
HETATM    3  C3  UNL     1     -31.938   7.415   1.441  1.00 20.00     0.156 C 
HETATM    4  C4  UNL     1     -34.299   5.283   3.296  1.00 20.00     0.036 C 
HETATM    5  C5  UNL     1     -32.233   8.280   2.644  1.00 20.00     0.093 C 
HETATM    6  C6  UNL     1     -34.858   6.197   4.401  1.00 20.00     0.009 C 
HETATM    7  C7  UNL     1     -32.904   7.295   3.583  1.00 20.00     0.026 C 
HETATM    8  C8  UNL     1     -34.303   7.604   4.101  1.00 20.00    -0.010 C 
HETATM    9  C9  UNL     1     -32.774   5.187   0.366  1.00 20.00     0.052 C 
HETATM   10  C10 UNL     1     -34.302   8.516   5.317  1.00 20.00     0.010 C 
HETATM   11  O11 UNL     1     -31.242   7.758   0.497  1.00 20.00    -0.293 OA
ENDROOT
TORSDOF 0
ENDMDL
MODEL 6
REMARK VINA RESULT:       1.2      1.996      4.351
REMARK  0 active torsions:
REMARK  status: ('A' for Active; 'I' for Inactive)
ROOT
HETATM    1  C1  UNL     1     -32.841   7.933   2.055  1.00 20.00    -0.013 C 
HETATM    2  C2  UNL     1     -33.700   7.107   2.655  1.00 20.00    -0.066 C 
HETATM    3  C3  UNL     1     -31.886   7.030   1.377  1.00 20.00     0.156 C 
HETATM    4  C4  UNL     1     -34.694   7.336   3.741  1.00 20.00     0.036 C 
HETATM    5  C5  UNL     1     -32.130   5.582   1.734  1.00 20.00     0.093 C 
HETATM    6  C6  UNL     1     -34.833   5.933   4.358  1.00 20.00     0.009 C 
HETATM    7  C7  UNL     1     -33.488   5.648   2.408  1.00 20.00     0.026 C 
HETATM    8  C8  UNL     1     -33.631   5.122   3.832  1.00 20.00    -0.010 C 
HETATM    9  C9  UNL     1     -32.688   9.401   2.118  1.00 20.00     0.052 C 
HETATM   10  C10 UNL     1     -33.853   3.620   3.894  1.00 20.00     0.010 C 
HETATM   11  O11 UNL     1     -30.978   7.422   0.660  1.00 20.00    -0.293 OA
ENDROOT
TORSDOF 0
ENDMDL
MODEL 7
REMARK VINA RESULT:       1.4      2.335      4.123
REMARK  0 active torsions:
REMARK  status: ('A' for Active; 'I' for Inactive)
ROOT
HETATM    1  C1  UNL     1     -31.779   8.467   0.717  1.00 20.00    -0.013 C 
HETATM    2  C2  UNL     1     -32.074   7.471   1.554  1.00 20.00    -0.066 C 
HETATM    3  C3  UNL     1     -32.548   9.617   1.241  1.00 20.00     0.156 C 
HETATM    4  C4  UNL     1     -31.902   5.996   1.433  1.00 20.00     0.036 C 
HETATM    5  C5  UNL     1     -33.462   9.215   2.374  1.00 20.00     0.093 C 
HETATM    6  C6  UNL     1     -32.989   5.461   2.382  1.00 20.00     0.009 C 
HETATM    7  C7  UNL     1     -32.956   7.824   2.709  1.00 20.00     0.026 C 
HETATM    8  C8  UNL     1     -33.929   6.652   2.658  1.00 20.00    -0.010 C 
HETATM    9  C9  UNL     1     -31.016   8.489  -0.548  1.00 20.00     0.052 C 
HETATM   10  C10 UNL     1     -34.736   6.490   3.935  1.00 20.00     0.010 C 
HETATM   11  O11 UNL     1     -32.484  10.743   0.770  1.00 20.00    -0.293 OA
ENDROOT
TORSDOF 0
ENDMDL
MODEL 8
REMARK VINA RESULT:       1.9      1.523      2.874
REMARK  0 active torsions:
REMARK  status: ('A' for Active; 'I' for Inactive)
ROOT
HETATM    1  C1  UNL     1     -33.674   6.928   3.013  1.00 20.00    -0.013 C 
HETATM    2  C2  UNL     1     -33.011   7.952   2.474  1.00 20.00    -0.066 C 
HETATM    3  C3  UNL     1     -33.045   5.733   2.410  1.00 20.00     0.156 C 
HETATM    4  C4  UNL     1     -33.330   9.405   2.398  1.00 20.00     0.036 C 
HETATM    5  C5  UNL     1     -32.045   6.103   1.340  1.00 20.00     0.093 C 
HETATM    6  C6  UNL     1     -32.544   9.849   1.152  1.00 20.00     0.009 C 
HETATM    7  C7  UNL     1     -31.880   7.594   1.564  1.00 20.00     0.026 C 
HETATM    8  C8  UNL     1     -32.164   8.550   0.411  1.00 20.00    -0.010 C 
HETATM    9  C9  UNL     1     -34.869   6.884   3.882  1.00 20.00     0.052 C 
HETATM   10  C10 UNL     1     -30.981   8.723  -0.526  1.00 20.00     0.010 C 
HETATM   11  O11 UNL     1     -33.344   4.587   2.712  1.00 20.00    -0.293 OA
ENDROOT
TORSDOF 0
ENDMDL
