MODEL 1
REMARK VINA RESULT:      -0.7      0.000      0.000
REMARK  2 active torsions:
REMARK  status: ('A' for Active; 'I' for Inactive)
REMARK    1  A    between atoms: C1_1  and  C3_3 
REMARK    2  A    between atoms: C5_5  and  O10_10 
ROOT
HETATM    1  C2  UNL     1     -33.257   8.231   2.267  1.00 20.00     0.074 C 
HETATM    2  C3  UNL     1     -33.054   6.917   2.982  1.00 20.00     0.080 C 
HETATM    3  C4  UNL     1     -32.249   6.113   1.966  1.00 20.00     0.131 C 
HETATM    4  C5  UNL     1     -31.947   8.395   1.521  1.00 20.00     0.260 C 
HETATM    5  C6  UNL     1     -33.066   5.305   0.962  1.00 20.00     0.040 C 
HETATM    6  O9  UNL     1     -31.481   7.075   1.215  1.00 20.00    -0.356 OA
ENDROOT
BRANCH   2   7
HETATM    7  C1  UNL     1     -34.340   6.283   3.407  1.00 20.00     0.238 C 
HETATM    8  O8  UNL     1     -35.147   6.825   4.154  1.00 20.00    -0.306 OA
ENDBRANCH   2   7
BRANCH   4   9
HETATM    9  O10 UNL     1     -32.155   9.174   0.355  1.00 20.00    -0.366 OA
HETATM   10  C7  UNL     1     -32.695  10.450   0.671  1.00 20.00     0.204 C 
ENDBRANCH   4   9
TORSDOF 2
ENDMDL
MODEL 2
REMARK VINA RESULT:      -0.4      1.723      2.708
REMARK  2 active torsions:
REMARK  status: ('A' for Active; 'I' for Inactive)
REMARK    1  A    between atoms: C1_1  and  C3_3 
REMARK    2  A    between atoms: C5_5  and  O10_10 
ROOT
HETATM    1  C2  UNL     1     -33.044   5.790   2.475  1.00 20.00     0.074 C 
HETATM    2  C3  UNL     1     -34.324   5.871   3.271  1.00 20.00     0.080 C 
HETATM    3  C4  UNL     1     -34.334   7.328   3.726  1.00 20.00     0.131 C 
HETATM    4  C5  UNL     1     -32.994   7.152   1.810  1.00 20.00     0.260 C 
HETATM    5  C6  UNL     1     -33.631   7.614   5.049  1.00 20.00     0.040 C 
HETATM    6  O9  UNL     1     -33.638   8.069   2.704  1.00 20.00    -0.356 OA
ENDROOT
BRANCH   2   7
HETATM    7  C1  UNL     1     -34.384   4.868   4.378  1.00 20.00     0.238 C 
HETATM    8  O8  UNL     1     -34.044   3.697   4.248  1.00 20.00    -0.306 OA
ENDBRANCH   2   7
BRANCH   4   9
HETATM    9  O10 UNL     1     -31.646   7.510   1.555  1.00 20.00    -0.366 OA
HETATM   10  C7  UNL     1     -31.555   8.769   0.903  1.00 20.00     0.204 C 
ENDBRANCH   4   9
TORSDOF 2
ENDMDL
MODEL 3
REMARK VINA RESULT:      -0.4      1.937      3.109
REMARK  2 active torsions:
REMARK  status: ('A' for Active; 'I' for Inactive)
REMARK    1  A    between atoms: C1_1  and  C3_3 
REMARK    2  A    between atoms: C5_5  and  O10_10 
ROOT
HETATM    1  C2  UNL     1     -33.715   5.794   2.573  1.00 20.00     0.074 C 
HETATM    2  C3  UNL     1     -34.722   6.625   3.331  1.00 20.00     0.080 C 
HETATM    3  C4  UNL     1     -33.911   7.862   3.704  1.00 20.00     0.131 C 
HETATM    4  C5  UNL     1     -32.918   6.852   1.834  1.00 20.00     0.260 C 
HETATM    5  C6  UNL     1     -33.155   7.786   5.026  1.00 20.00     0.040 C 
HETATM    6  O9  UNL     1     -32.930   8.025   2.660  1.00 20.00    -0.356 OA
ENDROOT
BRANCH   2   7
HETATM    7  C1  UNL     1     -35.321   5.895   4.490  1.00 20.00     0.238 C 
HETATM    8  O8  UNL     1     -35.299   4.674   4.604  1.00 20.00    -0.306 OA
ENDBRANCH   2   7
BRANCH   4   9
HETATM    9  O10 UNL     1     -31.603   6.379   1.594  1.00 20.00    -0.366 OA
HETATM   10  C7  UNL     1     -31.611   5.042   1.116  1.00 20.00     0.204 C 
ENDBRANCH   4   9
TORSDOF 2
ENDMDL
MODEL 4
REMARK VINA RESULT:      -0.1      1.565      4.129
REMARK  2 active torsions:
REMARK  status: ('A' for Active; 'I' for Inactive)
REMARK    1  A    between atoms: C1_1  and  C3_3 
REMARK    2  A    between atoms: C5_5  and  O10_10 
ROOT
HETATM    1  C2  UNL     1     -33.537   7.043   3.459  1.00 20.00     0.074 C 
HETATM    2  C3  UNL     1     -33.185   7.329   2.020  1.00 20.00     0.080 C 
HETATM    3  C4  UNL     1     -32.992   5.928   1.446  1.00 20.00     0.131 C 
HETATM    4  C5  UNL     1     -34.364   5.778   3.342  1.00 20.00     0.260 C 
HETATM    5  C6  UNL     1     -31.582   5.356   1.554  1.00 20.00     0.040 C 
HETATM    6  O9  UNL     1     -33.862   5.064   2.204  1.00 20.00    -0.356 OA
ENDROOT
BRANCH   2   7
HETATM    7  C1  UNL     1     -32.002   8.232   1.880  1.00 20.00     0.238 C 
HETATM    8  O8  UNL     1     -31.853   9.011   0.945  1.00 20.00    -0.306 OA
ENDBRANCH   2   7
BRANCH   4   9
HETATM    9  O10 UNL     1     -34.257   5.024   4.538  1.00 20.00    -0.366 OA
HETATM   10  C7  UNL     1     -33.778   3.710   4.283  1.00 20.00     0.204 C 
ENDBRANCH   4   9
TORSDOF 2
ENDMDL
MODEL 5
REMARK VINA RESULT:       0.2      1.604      3.616
REMARK  2 active torsions:
REMARK  status: ('A' for Active; 'I' for Inactive)
REMARK    1  A    between atoms: C1_1  and  C3_3 
REMARK    2  A    between atoms: C5_5  and  O10_10 
ROOT
HETATM    1  C2  UNL     1     -33.341   6.042   2.662  1.00 20.00     0.074 C 
HETATM    2  C3  UNL     1     -32.039   6.222   1.921  1.00 20.00     0.080 C 
HETATM    3  C4  UNL     1     -31.881   7.739   1.899  1.00 20.00     0.131 C 
HETATM    4  C5  UNL     1     -33.282   7.158   3.688  1.00 20.00     0.260 C 
HETATM    5  C6  UNL     1     -32.520   8.455   0.713  1.00 20.00     0.040 C 
HETATM    6  O9  UNL     1     -32.532   8.224   3.091  1.00 20.00    -0.356 OA
ENDROOT
BRANCH   2   7
HETATM    7  C1  UNL     1     -32.044   5.572   0.574  1.00 20.00     0.238 C 
HETATM    8  O8  UNL     1     -32.792   4.649   0.272  1.00 20.00    -0.306 OA
ENDBRANCH   2   7
BRANCH   4   9
HETATM    9  O10 UNL     1     -34.597   7.558   4.036  1.00 20.00    -0.366 OA
HETATM   10  C7  UNL     1     -35.500   6.462   4.001  1.00 20.00     0.204 C 
ENDBRANCH   4   9
TORSDOF 2
ENDMDL
MODEL 6
REMARK VINA RESULT:       0.6      2.029      3.710
REMARK  2 active torsions:
REMARK  status: ('A' for Active; 'I' for Inactive)
REMARK    1  A    between atoms: C1_1  and  C3_3 
REMARK    2  A    between atoms: C5_5  and  O10_10 
ROOT
HETATM    1  C2  UNL     1     -33.291   7.243   3.043  1.00 20.00     0.074 C 
HETATM    2  C3  UNL     1     -33.774   6.053   2.251  1.00 20.00     0.080 C 
HETATM    3  C4  UNL     1     -34.530   5.246   3.302  1.00 20.00     0.131 C 
HETATM    4  C5  UNL     1     -34.446   7.484   3.996  1.00 20.00     0.260 C 
HETATM    5  C6  UNL     1     -33.700   4.236   4.089  1.00 20.00     0.040 C 
HETATM    6  O9  UNL     1     -35.043   6.205   4.249  1.00 20.00    -0.356 OA
ENDROOT
BRANCH   2   7
HETATM    7  C1  UNL     1     -32.662   5.315   1.575  1.00 20.00     0.238 C 
HETATM    8  O8  UNL     1     -31.542   5.786   1.409  1.00 20.00    -0.306 OA
ENDBRANCH   2   7
BRANCH   4   9
HETATM    9  O10 UNL     1     -33.968   8.096   5.182  1.00 20.00    -0.366 OA
HETATM   10  C7  UNL     1     -32.616   8.510   5.045  1.00 20.00     0.204 C 
ENDBRANCH   4   9
TORSDOF 2
ENDMDL
MODEL 7
REMARK VINA RESULT:       0.9      2.373      4.181
REMARK  2 active torsions:
REMARK  status: ('A' for Active; 'I' for Inactive)
REMARK    1  A    between atoms: C1_1  and  C3_3 
REMARK    2  A    between atoms: C5_5  and  O10_10 
ROOT
HETATM    1  C2  UNL     1     -33.976   5.613   4.209  1.00 20.00     0.074 C 
HETATM    2  C3  UNL     1     -34.326   6.834   3.393  1.00 20.00     0.080 C 
HETATM    3  C4  UNL     1     -33.480   6.641   2.137  1.00 20.00     0.131 C 
HETATM    4  C5  UNL     1     -33.817   4.548   3.141  1.00 20.00     0.260 C 
HETATM    5  C6  UNL     1     -32.072   7.225   2.190  1.00 20.00     0.040 C 
HETATM    6  O9  UNL     1     -33.345   5.216   1.963  1.00 20.00    -0.356 OA
ENDROOT
BRANCH   2   7
HETATM    7  C1  UNL     1     -34.077   8.113   4.126  1.00 20.00     0.238 C 
HETATM    8  O8  UNL     1     -33.414   8.184   5.155  1.00 20.00    -0.306 OA
ENDBRANCH   2   7
BRANCH   4   9
HETATM    9  O10 UNL     1     -32.914   3.552   3.590  1.00 20.00    -0.366 OA
HETATM   10  C7  UNL     1     -33.311   3.019   4.846  1.00 20.00     0.204 C 
ENDBRANCH   4   9
TORSDOF 2
ENDMDL
MODEL 8
REMARK VINA RESULT:       1.1      2.117      4.892
REMARK  2 active torsions:
REMARK  status: ('A' for Active; 'I' for Inactive)
REMARK    1  A    between atoms: C1_1  and  C3_3 
REMARK    2  A    between atoms: C5_5  and  O10_10 
ROOT
HETATM    1  C2  UNL     1     -33.203   5.458   3.365  1.00 20.00     0.074 C 
HETATM    2  C3  UNL     1     -33.632   6.887   3.592  1.00 20.00     0.080 C 
HETATM    3  C4  UNL     1     -35.102   6.732   3.968  1.00 20.00     0.131 C 
HETATM    4  C5  UNL     1     -33.997   4.714   4.421  1.00 20.00     0.260 C 
HETATM    5  C6  UNL     1     -36.090   6.745   2.805  1.00 20.00     0.040 C 
HETATM    6  O9  UNL     1     -35.216   5.446   4.610  1.00 20.00    -0.356 OA
ENDROOT
BRANCH   2   7
HETATM    7  C1  UNL     1     -33.377   7.765   2.408  1.00 20.00     0.238 C 
HETATM    8  O8  UNL     1     -32.260   7.963   1.942  1.00 20.00    -0.306 OA
ENDBRANCH   2   7
BRANCH   4   9
HETATM    9  O10 UNL     1     -34.232   3.383   3.993  1.00 20.00    -0.366 OA
HETATM   10  C7  UNL     1     -33.267   2.487   4.525  1.00 20.00     0.204 C 
ENDBRANCH   4   9
TORSDOF 2
ENDMDL
MODEL 9
REMARK VINA RESULT:       1.5      2.001      3.076
REMARK  2 active torsions:
REMARK  status: ('A' for Active; 'I' for Inactive)
REMARK    1  A    between atoms: C1_1  and  C3_3 
REMARK    2  A    between atoms: C5_5  and  O10_10 
ROOT
HETATM    1  C2  UNL     1     -32.542   5.366   3.079  1.00 20.00     0.074 C 
HETATM    2  C3  UNL     1     -33.887   4.724   3.316  1.00 20.00     0.080 C 
HETATM    3  C4  UNL     1     -34.825   5.928   3.334  1.00 20.00     0.131 C 
HETATM    4  C5  UNL     1     -32.890   6.504   2.140  1.00 20.00     0.260 C 
HETATM    5  C6  UNL     1     -35.031   6.588   4.694  1.00 20.00     0.040 C 
HETATM    6  O9  UNL     1     -34.224   6.913   2.469  1.00 20.00    -0.356 OA
ENDROOT
BRANCH   2   7
HETATM    7  C1  UNL     1     -33.920   3.885   4.554  1.00 20.00     0.238 C 
HETATM    8  O8  UNL     1     -33.420   2.768   4.626  1.00 20.00    -0.306 OA
ENDBRANCH   2   7
BRANCH   4   9
HETATM    9  O10 UNL     1     -31.953   7.557   2.295  1.00 20.00    -0.366 OA
HETATM   10  C7  UNL     1     -32.115   8.550   1.293  1.00 20.00     0.204 C 
ENDBRANCH   4   9
TORSDOF 2
ENDMDL
