MODEL 1
REMARK VINA RESULT:      -1.3      0.000      0.000
REMARK  0 active torsions:
REMARK  status: ('A' for Active; 'I' for Inactive)
ROOT
HETATM    1  C1  UNL     1     -32.876   7.334   2.497  1.00 20.00     0.223 A 
HETATM    2  C2  UNL     1     -34.027   7.500   3.512  1.00 20.00     0.096 A 
HETATM    3  C3  UNL     1     -34.383   6.023   3.149  1.00 20.00     0.093 A 
HETATM    4  C4  UNL     1     -33.602   7.848   4.925  1.00 20.00     0.022 C 
HETATM    5  C5  UNL     1     -34.224   4.920   4.174  1.00 20.00     0.033 C 
HETATM    6  N6  UNL     1     -33.251   6.055   2.230  1.00 20.00    -0.356 N 
HETATM    7  O7  UNL     1     -31.976   8.022   2.075  1.00 20.00    -0.273 OA
HETATM    8  H16 UNL     1     -32.848   5.376   1.599  1.00 20.00     0.162 HD
ENDROOT
TORSDOF 0
ENDMDL
MODEL 2
REMARK VINA RESULT:      -1.3      1.683      2.452
REMARK  0 active torsions:
REMARK  status: ('A' for Active; 'I' for Inactive)
ROOT
HETATM    1  C1  UNL     1     -33.638   7.410   3.813  1.00 20.00     0.223 A 
HETATM    2  C2  UNL     1     -34.297   6.184   3.146  1.00 20.00     0.096 A 
HETATM    3  C3  UNL     1     -33.356   6.499   1.941  1.00 20.00     0.093 A 
HETATM    4  C4  UNL     1     -34.147   4.876   3.899  1.00 20.00     0.022 C 
HETATM    5  C5  UNL     1     -32.237   5.549   1.569  1.00 20.00     0.033 C 
HETATM    6  N6  UNL     1     -32.854   7.624   2.723  1.00 20.00    -0.356 N 
HETATM    7  O7  UNL     1     -33.734   7.988   4.870  1.00 20.00    -0.273 OA
HETATM    8  H16 UNL     1     -32.158   8.336   2.550  1.00 20.00     0.162 HD
ENDROOT
TORSDOF 0
ENDMDL
MODEL 3
REMARK VINA RESULT:      -1.2      1.676      2.321
REMARK  0 active torsions:
REMARK  status: ('A' for Active; 'I' for Inactive)
ROOT
HETATM    1  C1  UNL     1     -33.019   6.046   2.054  1.00 20.00     0.223 A 
HETATM    2  C2  UNL     1     -33.045   7.589   2.068  1.00 20.00     0.096 A 
HETATM    3  C3  UNL     1     -33.971   7.431   3.314  1.00 20.00     0.093 A 
HETATM    4  C4  UNL     1     -31.692   8.259   2.213  1.00 20.00     0.022 C 
HETATM    5  C5  UNL     1     -33.497   7.864   4.686  1.00 20.00     0.033 C 
HETATM    6  N6  UNL     1     -33.834   5.989   3.140  1.00 20.00    -0.356 N 
HETATM    7  O7  UNL     1     -32.501   5.185   1.381  1.00 20.00    -0.273 OA
HETATM    8  H16 UNL     1     -34.199   5.190   3.640  1.00 20.00     0.162 HD
ENDROOT
TORSDOF 0
ENDMDL
MODEL 4
REMARK VINA RESULT:      -1.2      2.098      3.320
REMARK  0 active torsions:
REMARK  status: ('A' for Active; 'I' for Inactive)
ROOT
HETATM    1  C1  UNL     1     -33.787   6.145   3.172  1.00 20.00     0.223 A 
HETATM    2  C2  UNL     1     -33.263   6.228   1.722  1.00 20.00     0.096 A 
HETATM    3  C3  UNL     1     -32.936   7.715   2.065  1.00 20.00     0.093 A 
HETATM    4  C4  UNL     1     -32.139   5.268   1.382  1.00 20.00     0.022 C 
HETATM    5  C5  UNL     1     -31.500   8.189   2.145  1.00 20.00     0.033 C 
HETATM    6  N6  UNL     1     -33.479   7.450   3.393  1.00 20.00    -0.356 N 
HETATM    7  O7  UNL     1     -34.276   5.294   3.878  1.00 20.00    -0.273 OA
HETATM    8  H16 UNL     1     -33.596   8.016   4.223  1.00 20.00     0.162 HD
ENDROOT
TORSDOF 0
ENDMDL
MODEL 5
REMARK VINA RESULT:      -1.2      1.465      2.289
REMARK  0 active torsions:
REMARK  status: ('A' for Active; 'I' for Inactive)
ROOT
HETATM    1  C1  UNL     1     -32.460   7.809   1.970  1.00 20.00     0.223 A 
HETATM    2  C2  UNL     1     -32.633   6.289   2.178  1.00 20.00     0.096 A 
HETATM    3  C3  UNL     1     -33.414   6.688   3.470  1.00 20.00     0.093 A 
HETATM    4  C4  UNL     1     -33.350   5.559   1.059  1.00 20.00     0.022 C 
HETATM    5  C5  UNL     1     -34.902   6.429   3.581  1.00 20.00     0.033 C 
HETATM    6  N6  UNL     1     -33.147   8.077   3.112  1.00 20.00    -0.356 N 
HETATM    7  O7  UNL     1     -31.941   8.526   1.146  1.00 20.00    -0.273 OA
HETATM    8  H16 UNL     1     -33.381   8.963   3.539  1.00 20.00     0.162 HD
ENDROOT
TORSDOF 0
ENDMDL
MODEL 6
REMARK VINA RESULT:      -1.0      1.789      2.627
REMARK  0 active torsions:
REMARK  status: ('A' for Active; 'I' for Inactive)
ROOT
HETATM    1  C1  UNL     1     -33.565   7.199   3.323  1.00 20.00     0.223 A 
HETATM    2  C2  UNL     1     -32.333   7.335   2.404  1.00 20.00     0.096 A 
HETATM    3  C3  UNL     1     -32.650   5.866   1.981  1.00 20.00     0.093 A 
HETATM    4  C4  UNL     1     -32.408   8.449   1.378  1.00 20.00     0.022 C 
HETATM    5  C5  UNL     1     -33.117   5.554   0.574  1.00 20.00     0.033 C 
HETATM    6  N6  UNL     1     -33.774   5.921   2.909  1.00 20.00    -0.356 N 
HETATM    7  O7  UNL     1     -34.154   7.906   4.108  1.00 20.00    -0.273 OA
HETATM    8  H16 UNL     1     -34.490   5.259   3.175  1.00 20.00     0.162 HD
ENDROOT
TORSDOF 0
ENDMDL
MODEL 7
REMARK VINA RESULT:      -1.0      2.447      3.261
REMARK  0 active torsions:
REMARK  status: ('A' for Active; 'I' for Inactive)
ROOT
HETATM    1  C1  UNL     1     -34.189   4.548   3.840  1.00 20.00     0.223 A 
HETATM    2  C2  UNL     1     -34.052   5.528   2.656  1.00 20.00     0.096 A 
HETATM    3  C3  UNL     1     -34.792   6.544   3.581  1.00 20.00     0.093 A 
HETATM    4  C4  UNL     1     -32.631   5.811   2.209  1.00 20.00     0.022 C 
HETATM    5  C5  UNL     1     -34.075   7.769   4.109  1.00 20.00     0.033 C 
HETATM    6  N6  UNL     1     -34.834   5.485   4.585  1.00 20.00    -0.356 N 
HETATM    7  O7  UNL     1     -33.870   3.405   4.072  1.00 20.00    -0.273 OA
HETATM    8  H16 UNL     1     -35.200   5.432   5.525  1.00 20.00     0.162 HD
ENDROOT
TORSDOF 0
ENDMDL
MODEL 8
REMARK VINA RESULT:      -0.4      2.030      3.004
REMARK  0 active torsions:
REMARK  status: ('A' for Active; 'I' for Inactive)
ROOT
HETATM    1  C1  UNL     1     -32.724   6.168   2.004  1.00 20.00     0.223 A 
HETATM    2  C2  UNL     1     -32.719   7.368   2.975  1.00 20.00     0.096 A 
HETATM    3  C3  UNL     1     -31.933   8.108   1.847  1.00 20.00     0.093 A 
HETATM    4  C4  UNL     1     -34.088   7.869   3.394  1.00 20.00     0.022 C 
HETATM    5  C5  UNL     1     -32.560   9.271   1.107  1.00 20.00     0.033 C 
HETATM    6  N6  UNL     1     -32.032   6.876   1.072  1.00 20.00    -0.356 N 
HETATM    7  O7  UNL     1     -33.155   5.038   2.011  1.00 20.00    -0.273 OA
HETATM    8  H16 UNL     1     -31.714   6.605   0.152  1.00 20.00     0.162 HD
ENDROOT
TORSDOF 0
ENDMDL
MODEL 9
REMARK VINA RESULT:      -0.4      1.600      2.115
REMARK  0 active torsions:
REMARK  status: ('A' for Active; 'I' for Inactive)
ROOT
HETATM    1  C1  UNL     1     -32.188   8.082   2.884  1.00 20.00     0.223 A 
HETATM    2  C2  UNL     1     -33.547   7.417   2.581  1.00 20.00     0.096 A 
HETATM    3  C3  UNL     1     -32.810   6.768   1.367  1.00 20.00     0.093 A 
HETATM    4  C4  UNL     1     -34.101   6.538   3.685  1.00 20.00     0.022 C 
HETATM    5  C5  UNL     1     -32.567   5.274   1.324  1.00 20.00     0.033 C 
HETATM    6  N6  UNL     1     -31.617   7.484   1.805  1.00 20.00    -0.356 N 
HETATM    7  O7  UNL     1     -31.748   8.832   3.725  1.00 20.00    -0.273 OA
HETATM    8  H16 UNL     1     -30.670   7.536   1.456  1.00 20.00     0.162 HD
ENDROOT
TORSDOF 0
ENDMDL
