MODEL 1
REMARK VINA RESULT:      -2.0      0.000      0.000
REMARK  0 active torsions:
REMARK  status: ('A' for Active; 'I' for Inactive)
ROOT
HETATM    1  C1  UNL     1     -33.515   6.859   2.908  1.00 20.00     0.223 A 
HETATM    2  C2  UNL     1     -32.911   6.576   1.516  1.00 20.00     0.096 A 
HETATM    3  C3  UNL     1     -32.011   7.815   1.796  1.00 20.00     0.093 A 
HETATM    4  C4  UNL     1     -32.203   5.244   1.368  1.00 20.00     0.022 C 
HETATM    5  C5  UNL     1     -32.200   9.021   0.900  1.00 20.00     0.033 C 
HETATM    6  N6  UNL     1     -32.736   7.965   3.055  1.00 20.00    -0.356 N 
HETATM    7  O7  UNL     1     -34.342   6.347   3.626  1.00 20.00    -0.273 OA
HETATM    8  H16 UNL     1     -32.660   8.610   3.828  1.00 20.00     0.162 HD
ENDROOT
TORSDOF 0
ENDMDL
MODEL 2
REMARK VINA RESULT:      -1.6      2.482      3.616
REMARK  0 active torsions:
REMARK  status: ('A' for Active; 'I' for Inactive)
ROOT
HETATM    1  C1  UNL     1     -34.448   6.405   3.898  1.00 20.00     0.223 A 
HETATM    2  C2  UNL     1     -33.324   5.579   3.237  1.00 20.00     0.096 A 
HETATM    3  C3  UNL     1     -34.170   4.338   3.649  1.00 20.00     0.093 A 
HETATM    4  C4  UNL     1     -33.133   5.805   1.750  1.00 20.00     0.022 C 
HETATM    5  C5  UNL     1     -33.561   3.395   4.665  1.00 20.00     0.033 C 
HETATM    6  N6  UNL     1     -35.100   5.273   4.276  1.00 20.00    -0.356 N 
HETATM    7  O7  UNL     1     -34.700   7.578   4.050  1.00 20.00    -0.273 OA
HETATM    8  H16 UNL     1     -35.976   5.158   4.766  1.00 20.00     0.162 HD
ENDROOT
TORSDOF 0
ENDMDL
MODEL 3
REMARK VINA RESULT:      -1.4      1.944      2.990
REMARK  0 active torsions:
REMARK  status: ('A' for Active; 'I' for Inactive)
ROOT
HETATM    1  C1  UNL     1     -32.893   5.674   1.707  1.00 20.00     0.223 A 
HETATM    2  C2  UNL     1     -33.197   7.147   2.056  1.00 20.00     0.096 A 
HETATM    3  C3  UNL     1     -33.636   6.593   3.444  1.00 20.00     0.093 A 
HETATM    4  C4  UNL     1     -32.005   8.082   2.045  1.00 20.00     0.022 C 
HETATM    5  C5  UNL     1     -35.096   6.742   3.816  1.00 20.00     0.033 C 
HETATM    6  N6  UNL     1     -33.349   5.261   2.921  1.00 20.00    -0.356 N 
HETATM    7  O7  UNL     1     -32.438   5.073   0.762  1.00 20.00    -0.273 OA
HETATM    8  H16 UNL     1     -33.390   4.334   3.319  1.00 20.00     0.162 HD
ENDROOT
TORSDOF 0
ENDMDL
MODEL 4
REMARK VINA RESULT:      -1.4      1.102      2.438
REMARK  0 active torsions:
REMARK  status: ('A' for Active; 'I' for Inactive)
ROOT
HETATM    1  C1  UNL     1     -33.256   7.286   3.122  1.00 20.00     0.223 A 
HETATM    2  C2  UNL     1     -32.193   7.531   2.030  1.00 20.00     0.096 A 
HETATM    3  C3  UNL     1     -32.755   6.236   1.374  1.00 20.00     0.093 A 
HETATM    4  C4  UNL     1     -32.350   8.815   1.239  1.00 20.00     0.022 C 
HETATM    5  C5  UNL     1     -31.824   5.045   1.288  1.00 20.00     0.033 C 
HETATM    6  N6  UNL     1     -33.653   6.132   2.520  1.00 20.00    -0.356 N 
HETATM    7  O7  UNL     1     -33.629   7.851   4.124  1.00 20.00    -0.273 OA
HETATM    8  H16 UNL     1     -34.383   5.483   2.775  1.00 20.00     0.162 HD
ENDROOT
TORSDOF 0
ENDMDL
MODEL 5
REMARK VINA RESULT:      -1.4      1.786      2.564
REMARK  0 active torsions:
REMARK  status: ('A' for Active; 'I' for Inactive)
ROOT
HETATM    1  C1  UNL     1     -33.514   5.070   3.269  1.00 20.00     0.223 A 
HETATM    2  C2  UNL     1     -33.866   6.551   3.529  1.00 20.00     0.096 A 
HETATM    3  C3  UNL     1     -33.324   6.799   2.090  1.00 20.00     0.093 A 
HETATM    4  C4  UNL     1     -35.335   6.844   3.760  1.00 20.00     0.022 C 
HETATM    5  C5  UNL     1     -32.081   7.652   1.959  1.00 20.00     0.033 C 
HETATM    6  N6  UNL     1     -33.004   5.375   2.045  1.00 20.00    -0.356 N 
HETATM    7  O7  UNL     1     -33.623   4.026   3.867  1.00 20.00    -0.273 OA
HETATM    8  H16 UNL     1     -32.609   4.773   1.336  1.00 20.00     0.162 HD
ENDROOT
TORSDOF 0
ENDMDL
MODEL 6
REMARK VINA RESULT:      -1.2      2.131      3.514
REMARK  0 active torsions:
REMARK  status: ('A' for Active; 'I' for Inactive)
ROOT
HETATM    1  C1  UNL     1     -32.975   7.462   2.606  1.00 20.00     0.223 A 
HETATM    2  C2  UNL     1     -33.765   7.863   3.870  1.00 20.00     0.096 A 
HETATM    3  C3  UNL     1     -34.228   6.376   3.895  1.00 20.00     0.093 A 
HETATM    4  C4  UNL     1     -32.928   8.332   5.044  1.00 20.00     0.022 C 
HETATM    5  C5  UNL     1     -35.704   6.110   3.685  1.00 20.00     0.033 C 
HETATM    6  N6  UNL     1     -33.470   6.196   2.661  1.00 20.00    -0.356 N 
HETATM    7  O7  UNL     1     -32.215   8.005   1.839  1.00 20.00    -0.273 OA
HETATM    8  H16 UNL     1     -33.289   5.400   2.066  1.00 20.00     0.162 HD
ENDROOT
TORSDOF 0
ENDMDL
MODEL 7
REMARK VINA RESULT:      -1.0      1.944      2.869
REMARK  0 active torsions:
REMARK  status: ('A' for Active; 'I' for Inactive)
ROOT
HETATM    1  C1  UNL     1     -33.307   6.455   2.523  1.00 20.00     0.223 A 
HETATM    2  C2  UNL     1     -34.126   6.396   3.830  1.00 20.00     0.096 A 
HETATM    3  C3  UNL     1     -33.802   7.915   3.951  1.00 20.00     0.093 A 
HETATM    4  C4  UNL     1     -35.588   6.026   3.671  1.00 20.00     0.022 C 
HETATM    5  C5  UNL     1     -32.938   8.345   5.117  1.00 20.00     0.033 C 
HETATM    6  N6  UNL     1     -33.017   7.768   2.729  1.00 20.00    -0.356 N 
HETATM    7  O7  UNL     1     -33.010   5.686   1.640  1.00 20.00    -0.273 OA
HETATM    8  H16 UNL     1     -32.489   8.415   2.160  1.00 20.00     0.162 HD
ENDROOT
TORSDOF 0
ENDMDL
MODEL 8
REMARK VINA RESULT:      -1.0      1.962      2.570
REMARK  0 active torsions:
REMARK  status: ('A' for Active; 'I' for Inactive)
ROOT
HETATM    1  C1  UNL     1     -34.700   6.019   3.781  1.00 20.00     0.223 A 
HETATM    2  C2  UNL     1     -34.038   4.722   3.268  1.00 20.00     0.096 A 
HETATM    3  C3  UNL     1     -32.909   5.659   2.744  1.00 20.00     0.093 A 
HETATM    4  C4  UNL     1     -33.646   3.720   4.336  1.00 20.00     0.022 C 
HETATM    5  C5  UNL     1     -32.720   5.738   1.244  1.00 20.00     0.033 C 
HETATM    6  N6  UNL     1     -33.706   6.776   3.243  1.00 20.00    -0.356 N 
HETATM    7  O7  UNL     1     -35.692   6.307   4.408  1.00 20.00    -0.273 OA
HETATM    8  H16 UNL     1     -33.563   7.775   3.267  1.00 20.00     0.162 HD
ENDROOT
TORSDOF 0
ENDMDL
MODEL 9
REMARK VINA RESULT:      -0.8      2.054      3.105
REMARK  0 active torsions:
REMARK  status: ('A' for Active; 'I' for Inactive)
ROOT
HETATM    1  C1  UNL     1     -33.159   7.529   3.628  1.00 20.00     0.223 A 
HETATM    2  C2  UNL     1     -33.347   6.120   3.026  1.00 20.00     0.096 A 
HETATM    3  C3  UNL     1     -34.831   6.267   3.474  1.00 20.00     0.093 A 
HETATM    4  C4  UNL     1     -33.097   6.007   1.535  1.00 20.00     0.022 C 
HETATM    5  C5  UNL     1     -35.327   5.314   4.541  1.00 20.00     0.033 C 
HETATM    6  N6  UNL     1     -34.455   7.558   4.041  1.00 20.00    -0.356 N 
HETATM    7  O7  UNL     1     -32.256   8.327   3.725  1.00 20.00    -0.273 OA
HETATM    8  H16 UNL     1     -34.970   8.285   4.517  1.00 20.00     0.162 HD
ENDROOT
TORSDOF 0
ENDMDL
