MODEL 1
REMARK VINA RESULT:      -1.8      0.000      0.000
REMARK  0 active torsions:
REMARK  status: ('A' for Active; 'I' for Inactive)
ROOT
HETATM    1  C1  UNL     1     -33.616   6.158   2.508  1.00 20.00     0.102 C 
HETATM    2  C2  UNL     1     -34.103   7.490   4.525  1.00 20.00     0.068 C 
HETATM    3  C3  UNL     1     -34.761   5.066   4.399  1.00 20.00     0.068 C 
HETATM    4  C4  UNL     1     -34.558   6.356   3.618  1.00 20.00     0.183 C 
HETATM    5  N5  UNL     1     -32.874   6.002   1.629  1.00 20.00    -0.194 NA
HETATM    6  F6  UNL     1     -35.761   6.711   3.080  1.00 20.00    -0.228 F 
ENDROOT
TORSDOF 0
ENDMDL
MODEL 2
REMARK VINA RESULT:      -1.6      1.554      2.245
REMARK  0 active torsions:
REMARK  status: ('A' for Active; 'I' for Inactive)
ROOT
HETATM    1  C1  UNL     1     -34.277   5.039   4.031  1.00 20.00     0.102 C 
HETATM    2  C2  UNL     1     -33.576   6.597   2.253  1.00 20.00     0.068 C 
HETATM    3  C3  UNL     1     -34.019   7.428   4.585  1.00 20.00     0.068 C 
HETATM    4  C4  UNL     1     -34.399   6.411   3.520  1.00 20.00     0.183 C 
HETATM    5  N5  UNL     1     -34.182   3.955   4.434  1.00 20.00    -0.194 NA
HETATM    6  F6  UNL     1     -35.710   6.615   3.197  1.00 20.00    -0.228 F 
ENDROOT
TORSDOF 0
ENDMDL
MODEL 3
REMARK VINA RESULT:      -1.6      3.313      3.916
REMARK  0 active torsions:
REMARK  status: ('A' for Active; 'I' for Inactive)
ROOT
HETATM    1  C1  UNL     1     -32.336   8.922   0.955  1.00 20.00     0.102 C 
HETATM    2  C2  UNL     1     -32.197   6.481   1.274  1.00 20.00     0.068 C 
HETATM    3  C3  UNL     1     -33.206   7.951   3.048  1.00 20.00     0.068 C 
HETATM    4  C4  UNL     1     -32.165   7.848   1.943  1.00 20.00     0.183 C 
HETATM    5  N5  UNL     1     -32.469   9.772   0.175  1.00 20.00    -0.194 NA
HETATM    6  F6  UNL     1     -30.935   8.004   2.512  1.00 20.00    -0.228 F 
ENDROOT
TORSDOF 0
ENDMDL
MODEL 4
REMARK VINA RESULT:      -1.5      3.035      3.682
REMARK  0 active torsions:
REMARK  status: ('A' for Active; 'I' for Inactive)
ROOT
HETATM    1  C1  UNL     1     -33.218   7.635   3.062  1.00 20.00     0.102 C 
HETATM    2  C2  UNL     1     -32.538   8.846   1.024  1.00 20.00     0.068 C 
HETATM    3  C3  UNL     1     -32.076   6.386   1.267  1.00 20.00     0.068 C 
HETATM    4  C4  UNL     1     -32.214   7.717   1.992  1.00 20.00     0.183 C 
HETATM    5  N5  UNL     1     -34.009   7.570   3.908  1.00 20.00    -0.194 NA
HETATM    6  F6  UNL     1     -31.014   8.001   2.575  1.00 20.00    -0.228 F 
ENDROOT
TORSDOF 0
ENDMDL
MODEL 5
REMARK VINA RESULT:      -1.3      2.229      3.288
REMARK  0 active torsions:
REMARK  status: ('A' for Active; 'I' for Inactive)
ROOT
HETATM    1  C1  UNL     1     -33.734   6.456   2.883  1.00 20.00     0.102 C 
HETATM    2  C2  UNL     1     -31.941   5.262   1.683  1.00 20.00     0.068 C 
HETATM    3  C3  UNL     1     -32.031   7.775   1.683  1.00 20.00     0.068 C 
HETATM    4  C4  UNL     1     -32.842   6.488   1.716  1.00 20.00     0.183 C 
HETATM    5  N5  UNL     1     -34.440   6.430   3.804  1.00 20.00    -0.194 NA
HETATM    6  F6  UNL     1     -33.624   6.460   0.598  1.00 20.00    -0.228 F 
ENDROOT
TORSDOF 0
ENDMDL
MODEL 6
REMARK VINA RESULT:      -1.1      2.863      3.478
REMARK  0 active torsions:
REMARK  status: ('A' for Active; 'I' for Inactive)
ROOT
HETATM    1  C1  UNL     1     -32.370   6.478   1.571  1.00 20.00     0.102 C 
HETATM    2  C2  UNL     1     -33.173   8.089   3.256  1.00 20.00     0.068 C 
HETATM    3  C3  UNL     1     -32.473   8.867   0.970  1.00 20.00     0.068 C 
HETATM    4  C4  UNL     1     -32.240   7.851   2.078  1.00 20.00     0.183 C 
HETATM    5  N5  UNL     1     -32.471   5.393   1.171  1.00 20.00    -0.194 NA
HETATM    6  F6  UNL     1     -30.960   8.006   2.523  1.00 20.00    -0.228 F 
ENDROOT
TORSDOF 0
ENDMDL
MODEL 7
REMARK VINA RESULT:      -1.1      1.985      2.486
REMARK  0 active torsions:
REMARK  status: ('A' for Active; 'I' for Inactive)
ROOT
HETATM    1  C1  UNL     1     -34.080   4.875   3.966  1.00 20.00     0.102 C 
HETATM    2  C2  UNL     1     -35.648   6.689   3.392  1.00 20.00     0.068 C 
HETATM    3  C3  UNL     1     -33.417   6.513   2.246  1.00 20.00     0.068 C 
HETATM    4  C4  UNL     1     -34.191   6.275   3.534  1.00 20.00     0.183 C 
HETATM    5  N5  UNL     1     -33.991   3.770   4.310  1.00 20.00    -0.194 NA
HETATM    6  F6  UNL     1     -33.631   7.052   4.506  1.00 20.00    -0.228 F 
ENDROOT
TORSDOF 0
ENDMDL
MODEL 8
REMARK VINA RESULT:      -1.0      1.226      1.775
REMARK  0 active torsions:
REMARK  status: ('A' for Active; 'I' for Inactive)
ROOT
HETATM    1  C1  UNL     1     -33.478   6.265   2.454  1.00 20.00     0.102 C 
HETATM    2  C2  UNL     1     -35.782   6.609   3.261  1.00 20.00     0.068 C 
HETATM    3  C3  UNL     1     -33.833   7.637   4.472  1.00 20.00     0.068 C 
HETATM    4  C4  UNL     1     -34.317   6.456   3.645  1.00 20.00     0.183 C 
HETATM    5  N5  UNL     1     -32.814   6.112   1.514  1.00 20.00    -0.194 NA
HETATM    6  F6  UNL     1     -34.204   5.334   4.413  1.00 20.00    -0.228 F 
ENDROOT
TORSDOF 0
ENDMDL
MODEL 9
REMARK VINA RESULT:      -1.0      2.210      2.914
REMARK  0 active torsions:
REMARK  status: ('A' for Active; 'I' for Inactive)
ROOT
HETATM    1  C1  UNL     1     -32.308   7.500   1.619  1.00 20.00     0.102 C 
HETATM    2  C2  UNL     1     -33.674   5.955   2.970  1.00 20.00     0.068 C 
HETATM    3  C3  UNL     1     -31.798   5.089   1.536  1.00 20.00     0.068 C 
HETATM    4  C4  UNL     1     -32.880   6.149   1.686  1.00 20.00     0.183 C 
HETATM    5  N5  UNL     1     -31.857   8.568   1.564  1.00 20.00    -0.194 NA
HETATM    6  F6  UNL     1     -33.744   6.014   0.639  1.00 20.00    -0.228 F 
ENDROOT
TORSDOF 0
ENDMDL
