MODEL 1
REMARK VINA RESULT:      -2.0      0.000      0.000
REMARK  5 active torsions:
REMARK  status: ('A' for Active; 'I' for Inactive)
REMARK    1  A    between atoms: C1_1  and  C8_8 
REMARK    2  A    between atoms: C5_5  and  C6_6 
REMARK    3  A    between atoms: C5_5  and  C7_7 
REMARK    4  A    between atoms: C6_6  and  C8_8 
REMARK    5  A    between atoms: C7_7  and  C9_9 
ROOT
HETATM    1  C5  UNL     1     -33.145   5.834   1.518  1.00 20.00     0.001 C 
ENDROOT
BRANCH   1   2
HETATM    2  C6  UNL     1     -31.928   6.733   1.257  1.00 20.00     0.011 C 
BRANCH   2   3
HETATM    3  C8  UNL     1     -32.198   8.202   1.616  1.00 20.00     0.043 C 
HETATM    4  C2  UNL     1     -31.248   8.673   2.715  1.00 20.00     0.017 C 
BRANCH   3   5
HETATM    5  C1  UNL     1     -32.037   9.139   0.432  1.00 20.00     0.235 C 
HETATM    6  O10 UNL     1     -32.570  10.240   0.331  1.00 20.00    -0.306 OA
ENDBRANCH   3   5
ENDBRANCH   2   3
ENDBRANCH   1   2
BRANCH   1   7
HETATM    7  C7  UNL     1     -33.363   5.623   3.019  1.00 20.00     0.004 C 
BRANCH   7   8
HETATM    8  C9  UNL     1     -34.599   6.358   3.569  1.00 20.00    -0.023 C 
HETATM    9  C3  UNL     1     -34.230   7.599   4.382  1.00 20.00     0.009 C 
HETATM   10  C4  UNL     1     -35.428   5.403   4.433  1.00 20.00     0.009 C 
ENDBRANCH   7   8
ENDBRANCH   1   7
TORSDOF 5
ENDMDL
MODEL 2
REMARK VINA RESULT:      -1.8      2.582      4.929
REMARK  5 active torsions:
REMARK  status: ('A' for Active; 'I' for Inactive)
REMARK    1  A    between atoms: C1_1  and  C8_8 
REMARK    2  A    between atoms: C5_5  and  C6_6 
REMARK    3  A    between atoms: C5_5  and  C7_7 
REMARK    4  A    between atoms: C6_6  and  C8_8 
REMARK    5  A    between atoms: C7_7  and  C9_9 
ROOT
HETATM    1  C5  UNL     1     -31.979   6.837   1.650  1.00 20.00     0.001 C 
ENDROOT
BRANCH   1   2
HETATM    2  C6  UNL     1     -33.323   6.135   1.888  1.00 20.00     0.011 C 
BRANCH   2   3
HETATM    3  C8  UNL     1     -33.656   5.997   3.381  1.00 20.00     0.043 C 
HETATM    4  C2  UNL     1     -34.861   6.861   3.749  1.00 20.00     0.017 C 
BRANCH   3   5
HETATM    5  C1  UNL     1     -33.969   4.568   3.788  1.00 20.00     0.235 C 
HETATM    6  O10 UNL     1     -34.873   4.237   4.548  1.00 20.00    -0.306 OA
ENDBRANCH   3   5
ENDBRANCH   2   3
ENDBRANCH   1   2
BRANCH   1   7
HETATM    7  C7  UNL     1     -32.118   8.356   1.794  1.00 20.00     0.004 C 
BRANCH   7   8
HETATM    8  C9  UNL     1     -32.346   9.081   0.455  1.00 20.00    -0.023 C 
HETATM    9  C3  UNL     1     -31.121   9.023  -0.459  1.00 20.00     0.009 C 
HETATM   10  C4  UNL     1     -32.726  10.541   0.715  1.00 20.00     0.009 C 
ENDBRANCH   7   8
ENDBRANCH   1   7
TORSDOF 5
ENDMDL
MODEL 3
REMARK VINA RESULT:      -1.7      2.522      4.773
REMARK  5 active torsions:
REMARK  status: ('A' for Active; 'I' for Inactive)
REMARK    1  A    between atoms: C1_1  and  C8_8 
REMARK    2  A    between atoms: C5_5  and  C6_6 
REMARK    3  A    between atoms: C5_5  and  C7_7 
REMARK    4  A    between atoms: C6_6  and  C8_8 
REMARK    5  A    between atoms: C7_7  and  C9_9 
ROOT
HETATM    1  C5  UNL     1     -32.197   7.917   2.218  1.00 20.00     0.001 C 
ENDROOT
BRANCH   1   2
HETATM    2  C6  UNL     1     -33.292   6.848   2.331  1.00 20.00     0.011 C 
BRANCH   2   3
HETATM    3  C8  UNL     1     -33.817   6.695   3.766  1.00 20.00     0.043 C 
HETATM    4  C2  UNL     1     -33.818   8.040   4.488  1.00 20.00     0.017 C 
BRANCH   3   5
HETATM    5  C1  UNL     1     -35.228   6.137   3.823  1.00 20.00     0.235 C 
HETATM    6  O10 UNL     1     -35.573   5.167   4.490  1.00 20.00    -0.306 OA
ENDBRANCH   3   5
ENDBRANCH   2   3
ENDBRANCH   1   2
BRANCH   1   7
HETATM    7  C7  UNL     1     -31.890   8.241   0.752  1.00 20.00     0.004 C 
BRANCH   7   8
HETATM    8  C9  UNL     1     -32.070   9.729   0.402  1.00 20.00    -0.023 C 
HETATM    9  C3  UNL     1     -32.869  10.488   1.462  1.00 20.00     0.009 C 
HETATM   10  C4  UNL     1     -32.762   9.861  -0.957  1.00 20.00     0.009 C 
ENDBRANCH   7   8
ENDBRANCH   1   7
TORSDOF 5
ENDMDL
MODEL 4
REMARK VINA RESULT:      -1.7      2.651      4.609
REMARK  5 active torsions:
REMARK  status: ('A' for Active; 'I' for Inactive)
REMARK    1  A    between atoms: C1_1  and  C8_8 
REMARK    2  A    between atoms: C5_5  and  C6_6 
REMARK    3  A    between atoms: C5_5  and  C7_7 
REMARK    4  A    between atoms: C6_6  and  C8_8 
REMARK    5  A    between atoms: C7_7  and  C9_9 
ROOT
HETATM    1  C5  UNL     1     -32.068   5.713   1.699  1.00 20.00     0.001 C 
ENDROOT
BRANCH   1   2
HETATM    2  C6  UNL     1     -33.568   5.730   2.023  1.00 20.00     0.011 C 
BRANCH   2   3
HETATM    3  C8  UNL     1     -33.842   5.659   3.532  1.00 20.00     0.043 C 
HETATM    4  C2  UNL     1     -34.947   6.636   3.928  1.00 20.00     0.017 C 
BRANCH   3   5
HETATM    5  C1  UNL     1     -34.262   4.273   3.992  1.00 20.00     0.235 C 
HETATM    6  O10 UNL     1     -33.502   3.423   4.444  1.00 20.00    -0.306 OA
ENDBRANCH   3   5
ENDBRANCH   2   3
ENDBRANCH   1   2
BRANCH   1   7
HETATM    7  C7  UNL     1     -31.629   7.029   1.048  1.00 20.00     0.004 C 
BRANCH   7   8
HETATM    8  C9  UNL     1     -32.342   8.266   1.623  1.00 20.00    -0.023 C 
HETATM    9  C3  UNL     1     -32.330   9.451   0.657  1.00 20.00     0.009 C 
HETATM   10  C4  UNL     1     -31.687   8.673   2.946  1.00 20.00     0.009 C 
ENDBRANCH   7   8
ENDBRANCH   1   7
TORSDOF 5
ENDMDL
MODEL 5
REMARK VINA RESULT:      -1.7      0.894      1.326
REMARK  5 active torsions:
REMARK  status: ('A' for Active; 'I' for Inactive)
REMARK    1  A    between atoms: C1_1  and  C8_8 
REMARK    2  A    between atoms: C5_5  and  C6_6 
REMARK    3  A    between atoms: C5_5  and  C7_7 
REMARK    4  A    between atoms: C6_6  and  C8_8 
REMARK    5  A    between atoms: C7_7  and  C9_9 
ROOT
HETATM    1  C5  UNL     1     -32.177   5.744   1.743  1.00 20.00     0.001 C 
ENDROOT
BRANCH   1   2
HETATM    2  C6  UNL     1     -31.749   6.996   0.967  1.00 20.00     0.011 C 
BRANCH   2   3
HETATM    3  C8  UNL     1     -32.361   8.281   1.544  1.00 20.00     0.043 C 
HETATM    4  C2  UNL     1     -31.766   8.595   2.914  1.00 20.00     0.017 C 
BRANCH   3   5
HETATM    5  C1  UNL     1     -32.141   9.492   0.654  1.00 20.00     0.235 C 
HETATM    6  O10 UNL     1     -32.743   9.715  -0.391  1.00 20.00    -0.306 OA
ENDBRANCH   3   5
ENDBRANCH   2   3
ENDBRANCH   1   2
BRANCH   1   7
HETATM    7  C7  UNL     1     -33.668   5.794   2.094  1.00 20.00     0.004 C 
BRANCH   7   8
HETATM    8  C9  UNL     1     -33.951   5.632   3.598  1.00 20.00    -0.023 C 
HETATM    9  C3  UNL     1     -34.037   4.165   4.023  1.00 20.00     0.009 C 
HETATM   10  C4  UNL     1     -35.252   6.351   3.961  1.00 20.00     0.009 C 
ENDBRANCH   7   8
ENDBRANCH   1   7
TORSDOF 5
ENDMDL
MODEL 6
REMARK VINA RESULT:      -1.6      0.985      1.769
REMARK  5 active torsions:
REMARK  status: ('A' for Active; 'I' for Inactive)
REMARK    1  A    between atoms: C1_1  and  C8_8 
REMARK    2  A    between atoms: C5_5  and  C6_6 
REMARK    3  A    between atoms: C5_5  and  C7_7 
REMARK    4  A    between atoms: C6_6  and  C8_8 
REMARK    5  A    between atoms: C7_7  and  C9_9 
ROOT
HETATM    1  C5  UNL     1     -32.245   6.625   1.608  1.00 20.00     0.001 C 
ENDROOT
BRANCH   1   2
HETATM    2  C6  UNL     1     -32.370   8.089   2.053  1.00 20.00     0.011 C 
BRANCH   2   3
HETATM    3  C8  UNL     1     -31.722   9.061   1.057  1.00 20.00     0.043 C 
HETATM    4  C2  UNL     1     -30.999   8.299  -0.052  1.00 20.00     0.017 C 
BRANCH   3   5
HETATM    5  C1  UNL     1     -32.726   9.992   0.400  1.00 20.00     0.235 C 
HETATM    6  O10 UNL     1     -33.042   9.960  -0.786  1.00 20.00    -0.306 OA
ENDBRANCH   3   5
ENDBRANCH   2   3
ENDBRANCH   1   2
BRANCH   1   7
HETATM    7  C7  UNL     1     -33.514   5.836   1.945  1.00 20.00     0.004 C 
BRANCH   7   8
HETATM    8  C9  UNL     1     -33.797   5.744   3.455  1.00 20.00    -0.023 C 
HETATM    9  C3  UNL     1     -33.996   4.303   3.927  1.00 20.00     0.009 C 
HETATM   10  C4  UNL     1     -35.034   6.576   3.803  1.00 20.00     0.009 C 
ENDBRANCH   7   8
ENDBRANCH   1   7
TORSDOF 5
ENDMDL
MODEL 7
REMARK VINA RESULT:      -1.4      1.658      4.185
REMARK  5 active torsions:
REMARK  status: ('A' for Active; 'I' for Inactive)
REMARK    1  A    between atoms: C1_1  and  C8_8 
REMARK    2  A    between atoms: C5_5  and  C6_6 
REMARK    3  A    between atoms: C5_5  and  C7_7 
REMARK    4  A    between atoms: C6_6  and  C8_8 
REMARK    5  A    between atoms: C7_7  and  C9_9 
ROOT
HETATM    1  C5  UNL     1     -33.122   5.841   1.524  1.00 20.00     0.001 C 
ENDROOT
BRANCH   1   2
HETATM    2  C6  UNL     1     -33.323   5.693   3.038  1.00 20.00     0.011 C 
BRANCH   2   3
HETATM    3  C8  UNL     1     -34.644   6.311   3.518  1.00 20.00     0.043 C 
HETATM    4  C2  UNL     1     -35.380   5.355   4.454  1.00 20.00     0.017 C 
BRANCH   3   5
HETATM    5  C1  UNL     1     -34.450   7.624   4.255  1.00 20.00     0.235 C 
HETATM    6  O10 UNL     1     -33.467   7.912   4.930  1.00 20.00    -0.306 OA
ENDBRANCH   3   5
ENDBRANCH   2   3
ENDBRANCH   1   2
BRANCH   1   7
HETATM    7  C7  UNL     1     -31.939   6.763   1.212  1.00 20.00     0.004 C 
BRANCH   7   8
HETATM    8  C9  UNL     1     -32.185   8.232   1.602  1.00 20.00    -0.023 C 
HETATM    9  C3  UNL     1     -32.117   9.177   0.402  1.00 20.00     0.009 C 
HETATM   10  C4  UNL     1     -31.165   8.665   2.658  1.00 20.00     0.009 C 
ENDBRANCH   7   8
ENDBRANCH   1   7
TORSDOF 5
ENDMDL
MODEL 8
REMARK VINA RESULT:      -1.4      1.799      4.533
REMARK  5 active torsions:
REMARK  status: ('A' for Active; 'I' for Inactive)
REMARK    1  A    between atoms: C1_1  and  C8_8 
REMARK    2  A    between atoms: C5_5  and  C6_6 
REMARK    3  A    between atoms: C5_5  and  C7_7 
REMARK    4  A    between atoms: C6_6  and  C8_8 
REMARK    5  A    between atoms: C7_7  and  C9_9 
ROOT
HETATM    1  C5  UNL     1     -32.786   6.774   1.531  1.00 20.00     0.001 C 
ENDROOT
BRANCH   1   2
HETATM    2  C6  UNL     1     -33.175   6.229   2.912  1.00 20.00     0.011 C 
BRANCH   2   3
HETATM    3  C8  UNL     1     -34.348   6.999   3.537  1.00 20.00     0.043 C 
HETATM    4  C2  UNL     1     -35.441   6.039   3.999  1.00 20.00     0.017 C 
BRANCH   3   5
HETATM    5  C1  UNL     1     -33.934   7.840   4.732  1.00 20.00     0.235 C 
HETATM    6  O10 UNL     1     -32.789   8.214   4.964  1.00 20.00    -0.306 OA
ENDBRANCH   3   5
ENDBRANCH   2   3
ENDBRANCH   1   2
BRANCH   1   7
HETATM    7  C7  UNL     1     -32.148   8.162   1.646  1.00 20.00     0.004 C 
BRANCH   7   8
HETATM    8  C9  UNL     1     -32.305   9.016   0.374  1.00 20.00    -0.023 C 
HETATM    9  C3  UNL     1     -31.035   9.041  -0.476  1.00 20.00     0.009 C 
HETATM   10  C4  UNL     1     -32.698  10.446   0.757  1.00 20.00     0.009 C 
ENDBRANCH   7   8
ENDBRANCH   1   7
TORSDOF 5
ENDMDL
MODEL 9
REMARK VINA RESULT:      -1.3      2.627      4.780
REMARK  5 active torsions:
REMARK  status: ('A' for Active; 'I' for Inactive)
REMARK    1  A    between atoms: C1_1  and  C8_8 
REMARK    2  A    between atoms: C5_5  and  C6_6 
REMARK    3  A    between atoms: C5_5  and  C7_7 
REMARK    4  A    between atoms: C6_6  and  C8_8 
REMARK    5  A    between atoms: C7_7  and  C9_9 
ROOT
HETATM    1  C5  UNL     1     -33.725   8.141   3.379  1.00 20.00     0.001 C 
ENDROOT
BRANCH   1   2
HETATM    2  C6  UNL     1     -34.044   7.268   4.600  1.00 20.00     0.011 C 
BRANCH   2   3
HETATM    3  C8  UNL     1     -35.014   6.126   4.268  1.00 20.00     0.043 C 
HETATM    4  C2  UNL     1     -36.004   6.554   3.187  1.00 20.00     0.017 C 
BRANCH   3   5
HETATM    5  C1  UNL     1     -34.308   4.873   3.778  1.00 20.00     0.235 C 
HETATM    6  O10 UNL     1     -34.212   3.828   4.413  1.00 20.00    -0.306 OA
ENDBRANCH   3   5
ENDBRANCH   2   3
ENDBRANCH   1   2
BRANCH   1   7
HETATM    7  C7  UNL     1     -32.214   8.227   3.142  1.00 20.00     0.004 C 
BRANCH   7   8
HETATM    8  C9  UNL     1     -31.799   7.902   1.695  1.00 20.00    -0.023 C 
HETATM    9  C3  UNL     1     -32.237   8.981   0.704  1.00 20.00     0.009 C 
HETATM   10  C4  UNL     1     -32.386   6.551   1.280  1.00 20.00     0.009 C 
ENDBRANCH   7   8
ENDBRANCH   1   7
TORSDOF 5
ENDMDL
