MODEL 1
REMARK VINA RESULT:      -1.7      0.000      0.000
REMARK  1 active torsions:
REMARK  status: ('A' for Active; 'I' for Inactive)
REMARK    1  A    between atoms: C1_1  and  C5_5 
ROOT
HETATM    1  C2  UNL     1     -33.201   5.692   2.098  1.00 20.00     0.042 C 
HETATM    2  C3  UNL     1     -31.982   5.919   1.237  1.00 20.00     0.168 C 
HETATM    3  C4  UNL     1     -32.452   7.970   2.180  1.00 20.00     0.181 C 
HETATM    4  C5  UNL     1     -33.675   7.096   2.400  1.00 20.00     0.098 C 
HETATM    5  O7  UNL     1     -31.386   7.114   1.744  1.00 20.00    -0.390 OA
ENDROOT
BRANCH   4   6
HETATM    6  C1  UNL     1     -34.118   7.183   3.846  1.00 20.00     0.225 C 
HETATM    7  O6  UNL     1     -33.597   7.967   4.635  1.00 20.00    -0.279 OA
HETATM    8 CL8  UNL     1     -35.402   6.070   4.206  1.00 20.00    -0.043 Cl
ENDBRANCH   4   6
TORSDOF 1
ENDMDL
MODEL 2
REMARK VINA RESULT:      -1.7      2.372      3.565
REMARK  1 active torsions:
REMARK  status: ('A' for Active; 'I' for Inactive)
REMARK    1  A    between atoms: C1_1  and  C5_5 
ROOT
HETATM    1  C2  UNL     1     -33.915   4.796   3.503  1.00 20.00     0.042 C 
HETATM    2  C3  UNL     1     -35.111   5.063   4.386  1.00 20.00     0.168 C 
HETATM    3  C4  UNL     1     -34.403   7.139   3.674  1.00 20.00     0.181 C 
HETATM    4  C5  UNL     1     -33.284   6.162   3.358  1.00 20.00     0.098 C 
HETATM    5  O7  UNL     1     -35.564   6.366   4.014  1.00 20.00    -0.390 OA
ENDROOT
BRANCH   4   6
HETATM    6  C1  UNL     1     -32.818   6.357   1.929  1.00 20.00     0.225 C 
HETATM    7  O6  UNL     1     -32.994   5.497   1.070  1.00 20.00    -0.279 OA
HETATM    8 CL8  UNL     1     -32.039   7.893   1.698  1.00 20.00    -0.043 Cl
ENDBRANCH   4   6
TORSDOF 1
ENDMDL
MODEL 3
REMARK VINA RESULT:      -1.5      1.957      2.440
REMARK  1 active torsions:
REMARK  status: ('A' for Active; 'I' for Inactive)
REMARK    1  A    between atoms: C1_1  and  C5_5 
ROOT
HETATM    1  C2  UNL     1     -33.267   6.098   2.390  1.00 20.00     0.042 C 
HETATM    2  C3  UNL     1     -32.593   7.448   2.448  1.00 20.00     0.168 C 
HETATM    3  C4  UNL     1     -34.162   7.478   4.137  1.00 20.00     0.181 C 
HETATM    4  C5  UNL     1     -34.496   6.291   3.251  1.00 20.00     0.098 C 
HETATM    5  O7  UNL     1     -32.855   7.938   3.764  1.00 20.00    -0.390 OA
ENDROOT
BRANCH   4   6
HETATM    6  C1  UNL     1     -34.719   5.058   4.102  1.00 20.00     0.225 C 
HETATM    7  O6  UNL     1     -35.707   4.941   4.823  1.00 20.00    -0.279 OA
HETATM    8 CL8  UNL     1     -33.441   3.896   3.919  1.00 20.00    -0.043 Cl
ENDBRANCH   4   6
TORSDOF 1
ENDMDL
MODEL 4
REMARK VINA RESULT:      -1.3      2.359      3.244
REMARK  1 active torsions:
REMARK  status: ('A' for Active; 'I' for Inactive)
REMARK    1  A    between atoms: C1_1  and  C5_5 
ROOT
HETATM    1  C2  UNL     1     -35.041   6.664   4.108  1.00 20.00     0.042 C 
HETATM    2  C3  UNL     1     -35.371   5.214   4.365  1.00 20.00     0.168 C 
HETATM    3  C4  UNL     1     -33.471   5.183   3.060  1.00 20.00     0.181 C 
HETATM    4  C5  UNL     1     -34.032   6.593   2.984  1.00 20.00     0.098 C 
HETATM    5  O7  UNL     1     -34.153   4.507   4.126  1.00 20.00    -0.390 OA
ENDROOT
BRANCH   4   6
HETATM    6  C1  UNL     1     -32.928   7.601   3.227  1.00 20.00     0.225 C 
HETATM    7  O6  UNL     1     -32.738   8.097   4.335  1.00 20.00    -0.279 OA
HETATM    8 CL8  UNL     1     -32.018   7.935   1.785  1.00 20.00    -0.043 Cl
ENDBRANCH   4   6
TORSDOF 1
ENDMDL
MODEL 5
REMARK VINA RESULT:      -1.3      2.129      3.267
REMARK  1 active torsions:
REMARK  status: ('A' for Active; 'I' for Inactive)
REMARK    1  A    between atoms: C1_1  and  C5_5 
ROOT
HETATM    1  C2  UNL     1     -33.768   5.101   3.440  1.00 20.00     0.042 C 
HETATM    2  C3  UNL     1     -35.045   5.204   4.239  1.00 20.00     0.168 C 
HETATM    3  C4  UNL     1     -34.450   7.380   3.760  1.00 20.00     0.181 C 
HETATM    4  C5  UNL     1     -33.236   6.517   3.459  1.00 20.00     0.098 C 
HETATM    5  O7  UNL     1     -35.569   6.499   3.938  1.00 20.00    -0.390 OA
ENDROOT
BRANCH   4   6
HETATM    6  C1  UNL     1     -32.679   6.870   2.095  1.00 20.00     0.225 C 
HETATM    7  O6  UNL     1     -32.305   8.008   1.825  1.00 20.00    -0.279 OA
HETATM    8 CL8  UNL     1     -32.646   5.500   1.027  1.00 20.00    -0.043 Cl
ENDBRANCH   4   6
TORSDOF 1
ENDMDL
MODEL 6
REMARK VINA RESULT:      -1.3      1.730      1.864
REMARK  1 active torsions:
REMARK  status: ('A' for Active; 'I' for Inactive)
REMARK    1  A    between atoms: C1_1  and  C5_5 
ROOT
HETATM    1  C2  UNL     1     -32.698   6.068   1.751  1.00 20.00     0.042 C 
HETATM    2  C3  UNL     1     -31.988   7.397   1.654  1.00 20.00     0.168 C 
HETATM    3  C4  UNL     1     -33.522   7.649   3.357  1.00 20.00     0.181 C 
HETATM    4  C5  UNL     1     -33.904   6.385   2.607  1.00 20.00     0.098 C 
HETATM    5  O7  UNL     1     -32.210   8.030   2.915  1.00 20.00    -0.390 OA
ENDROOT
BRANCH   4   6
HETATM    6  C1  UNL     1     -34.142   5.255   3.589  1.00 20.00     0.225 C 
HETATM    7  O6  UNL     1     -33.391   4.286   3.651  1.00 20.00    -0.279 OA
HETATM    8 CL8  UNL     1     -35.559   5.519   4.559  1.00 20.00    -0.043 Cl
ENDBRANCH   4   6
TORSDOF 1
ENDMDL
MODEL 7
REMARK VINA RESULT:      -1.2      2.461      3.274
REMARK  1 active torsions:
REMARK  status: ('A' for Active; 'I' for Inactive)
REMARK    1  A    between atoms: C1_1  and  C5_5 
ROOT
HETATM    1  C2  UNL     1     -33.863   7.450   3.284  1.00 20.00     0.042 C 
HETATM    2  C3  UNL     1     -34.265   6.039   3.643  1.00 20.00     0.168 C 
HETATM    3  C4  UNL     1     -32.972   5.838   1.745  1.00 20.00     0.181 C 
HETATM    4  C5  UNL     1     -33.337   7.307   1.873  1.00 20.00     0.098 C 
HETATM    5  O7  UNL     1     -33.313   5.202   2.986  1.00 20.00    -0.390 OA
ENDROOT
BRANCH   4   6
HETATM    6  C1  UNL     1     -32.099   8.163   1.703  1.00 20.00     0.225 C 
HETATM    7  O6  UNL     1     -31.070   7.942   2.337  1.00 20.00    -0.279 OA
HETATM    8 CL8  UNL     1     -32.335   9.434   0.543  1.00 20.00    -0.043 Cl
ENDBRANCH   4   6
TORSDOF 1
ENDMDL
MODEL 8
REMARK VINA RESULT:      -1.1      1.498      2.002
REMARK  1 active torsions:
REMARK  status: ('A' for Active; 'I' for Inactive)
REMARK    1  A    between atoms: C1_1  and  C5_5 
ROOT
HETATM    1  C2  UNL     1     -33.076   7.826   3.233  1.00 20.00     0.042 C 
HETATM    2  C3  UNL     1     -32.285   8.087   1.973  1.00 20.00     0.168 C 
HETATM    3  C4  UNL     1     -32.866   5.858   1.874  1.00 20.00     0.181 C 
HETATM    4  C5  UNL     1     -33.124   6.316   3.300  1.00 20.00     0.098 C 
HETATM    5  O7  UNL     1     -32.648   7.034   1.080  1.00 20.00    -0.390 OA
ENDROOT
BRANCH   4   6
HETATM    6  C1  UNL     1     -34.502   5.870   3.743  1.00 20.00     0.225 C 
HETATM    7  O6  UNL     1     -35.479   6.609   3.655  1.00 20.00    -0.279 OA
HETATM    8 CL8  UNL     1     -34.498   4.246   4.362  1.00 20.00    -0.043 Cl
ENDBRANCH   4   6
TORSDOF 1
ENDMDL
MODEL 9
REMARK VINA RESULT:      -0.8      1.001      1.561
REMARK  1 active torsions:
REMARK  status: ('A' for Active; 'I' for Inactive)
REMARK    1  A    between atoms: C1_1  and  C5_5 
ROOT
HETATM    1  C2  UNL     1     -32.381   7.970   2.554  1.00 20.00     0.042 C 
HETATM    2  C3  UNL     1     -31.974   7.294   1.266  1.00 20.00     0.168 C 
HETATM    3  C4  UNL     1     -33.309   5.766   2.361  1.00 20.00     0.181 C 
HETATM    4  C5  UNL     1     -32.938   6.831   3.378  1.00 20.00     0.098 C 
HETATM    5  O7  UNL     1     -32.942   6.264   1.065  1.00 20.00    -0.390 OA
ENDROOT
BRANCH   4   6
HETATM    6  C1  UNL     1     -34.179   7.295   4.114  1.00 20.00     0.225 C 
HETATM    7  O6  UNL     1     -34.184   8.325   4.784  1.00 20.00    -0.279 OA
HETATM    8 CL8  UNL     1     -35.520   6.216   3.883  1.00 20.00    -0.043 Cl
ENDBRANCH   4   6
TORSDOF 1
ENDMDL
