MODEL 1
REMARK VINA RESULT:      -1.5      0.000      0.000
REMARK  2 active torsions:
REMARK  status: ('A' for Active; 'I' for Inactive)
REMARK    1  A    between atoms: C2_2  and  C5_5 
REMARK    2  A    between atoms: C5_5  and  O6_6 
ROOT
HETATM    1  C1  UNL     1     -35.318   6.980   3.154  1.00 20.00     0.097 A 
HETATM    2  C2  UNL     1     -34.266   5.920   3.439  1.00 20.00     0.049 A 
HETATM    3  C3  UNL     1     -34.066   7.336   3.870  1.00 20.00     0.254 A 
HETATM    4  C4  UNL     1     -33.449   5.409   2.286  1.00 20.00     0.024 C 
HETATM    5  F7  UNL     1     -33.125   8.140   3.264  1.00 20.00    -0.205 F 
HETATM    6  F8  UNL     1     -34.105   7.689   5.201  1.00 20.00    -0.205 F 
ENDROOT
BRANCH   2   7
HETATM    7  C5  UNL     1     -34.567   4.896   4.497  1.00 20.00     0.179 C 
BRANCH   7   8
HETATM    8  O6  UNL     1     -33.959   3.659   4.144  1.00 20.00    -0.400 OA
HETATM    9  H16 UNL     1     -33.746   3.205   4.976  1.00 20.00     0.209 HD
ENDBRANCH   7   8
ENDBRANCH   2   7
TORSDOF 2
ENDMDL
MODEL 2
REMARK VINA RESULT:      -1.4      2.254      2.735
REMARK  2 active torsions:
REMARK  status: ('A' for Active; 'I' for Inactive)
REMARK    1  A    between atoms: C2_2  and  C5_5 
REMARK    2  A    between atoms: C5_5  and  O6_6 
ROOT
HETATM    1  C1  UNL     1     -32.952   8.430   1.520  1.00 20.00     0.097 A 
HETATM    2  C2  UNL     1     -33.065   7.215   2.427  1.00 20.00     0.049 A 
HETATM    3  C3  UNL     1     -31.783   7.974   2.316  1.00 20.00     0.254 A 
HETATM    4  C4  UNL     1     -33.142   5.859   1.783  1.00 20.00     0.024 C 
HETATM    5  F7  UNL     1     -30.685   7.431   1.687  1.00 20.00    -0.205 F 
HETATM    6  F8  UNL     1     -31.316   8.740   3.361  1.00 20.00    -0.205 F 
ENDROOT
BRANCH   2   7
HETATM    7  C5  UNL     1     -33.861   7.354   3.694  1.00 20.00     0.179 C 
BRANCH   7   8
HETATM    8  O6  UNL     1     -34.881   6.362   3.723  1.00 20.00    -0.400 OA
HETATM    9  H16 UNL     1     -35.525   6.603   3.037  1.00 20.00     0.209 HD
ENDBRANCH   7   8
ENDBRANCH   2   7
TORSDOF 2
ENDMDL
MODEL 3
REMARK VINA RESULT:      -1.4      2.171      2.701
REMARK  2 active torsions:
REMARK  status: ('A' for Active; 'I' for Inactive)
REMARK    1  A    between atoms: C2_2  and  C5_5 
REMARK    2  A    between atoms: C5_5  and  O6_6 
ROOT
HETATM    1  C1  UNL     1     -34.065   7.109   4.220  1.00 20.00     0.097 A 
HETATM    2  C2  UNL     1     -33.892   5.947   3.255  1.00 20.00     0.049 A 
HETATM    3  C3  UNL     1     -35.237   6.294   3.804  1.00 20.00     0.254 A 
HETATM    4  C4  UNL     1     -33.219   4.703   3.764  1.00 20.00     0.024 C 
HETATM    5  F7  UNL     1     -35.868   5.475   4.714  1.00 20.00    -0.205 F 
HETATM    6  F8  UNL     1     -36.214   6.843   3.004  1.00 20.00    -0.205 F 
ENDROOT
BRANCH   2   7
HETATM    7  C5  UNL     1     -33.614   6.264   1.813  1.00 20.00     0.179 C 
BRANCH   7   8
HETATM    8  O6  UNL     1     -32.441   5.576   1.394  1.00 20.00    -0.400 OA
HETATM    9  H16 UNL     1     -32.440   5.589   0.423  1.00 20.00     0.209 HD
ENDBRANCH   7   8
ENDBRANCH   2   7
TORSDOF 2
ENDMDL
MODEL 4
REMARK VINA RESULT:      -1.3      3.306      4.129
REMARK  2 active torsions:
REMARK  status: ('A' for Active; 'I' for Inactive)
REMARK    1  A    between atoms: C2_2  and  C5_5 
REMARK    2  A    between atoms: C5_5  and  O6_6 
ROOT
HETATM    1  C1  UNL     1     -33.607   6.347   0.980  1.00 20.00     0.097 A 
HETATM    2  C2  UNL     1     -32.862   7.062   2.096  1.00 20.00     0.049 A 
HETATM    3  C3  UNL     1     -32.641   5.608   1.834  1.00 20.00     0.254 A 
HETATM    4  C4  UNL     1     -33.637   7.450   3.324  1.00 20.00     0.024 C 
HETATM    5  F7  UNL     1     -33.088   4.649   2.716  1.00 20.00    -0.205 F 
HETATM    6  F8  UNL     1     -31.454   5.152   1.304  1.00 20.00    -0.205 F 
ENDROOT
BRANCH   2   7
HETATM    7  C5  UNL     1     -31.773   8.024   1.712  1.00 20.00     0.179 C 
BRANCH   7   8
HETATM    8  O6  UNL     1     -32.343   9.141   1.041  1.00 20.00    -0.400 OA
HETATM    9  H16 UNL     1     -33.250   9.234   1.373  1.00 20.00     0.209 HD
ENDBRANCH   7   8
ENDBRANCH   2   7
TORSDOF 2
ENDMDL
MODEL 5
REMARK VINA RESULT:      -1.3      2.337      3.016
REMARK  2 active torsions:
REMARK  status: ('A' for Active; 'I' for Inactive)
REMARK    1  A    between atoms: C2_2  and  C5_5 
REMARK    2  A    between atoms: C5_5  and  O6_6 
ROOT
HETATM    1  C1  UNL     1     -33.675   6.123   1.155  1.00 20.00     0.097 A 
HETATM    2  C2  UNL     1     -33.436   6.069   2.655  1.00 20.00     0.049 A 
HETATM    3  C3  UNL     1     -32.296   6.210   1.700  1.00 20.00     0.254 A 
HETATM    4  C4  UNL     1     -33.616   4.748   3.350  1.00 20.00     0.024 C 
HETATM    5  F7  UNL     1     -31.404   5.180   1.497  1.00 20.00    -0.205 F 
HETATM    6  F8  UNL     1     -31.587   7.387   1.606  1.00 20.00    -0.205 F 
ENDROOT
BRANCH   2   7
HETATM    7  C5  UNL     1     -33.825   7.267   3.474  1.00 20.00     0.179 C 
BRANCH   7   8
HETATM    8  O6  UNL     1     -34.970   6.953   4.258  1.00 20.00    -0.400 OA
HETATM    9  H16 UNL     1     -34.688   6.294   4.913  1.00 20.00     0.209 HD
ENDBRANCH   7   8
ENDBRANCH   2   7
TORSDOF 2
ENDMDL
MODEL 6
REMARK VINA RESULT:      -1.1      2.480      2.910
REMARK  2 active torsions:
REMARK  status: ('A' for Active; 'I' for Inactive)
REMARK    1  A    between atoms: C2_2  and  C5_5 
REMARK    2  A    between atoms: C5_5  and  O6_6 
ROOT
HETATM    1  C1  UNL     1     -33.511   5.636   3.750  1.00 20.00     0.097 A 
HETATM    2  C2  UNL     1     -33.418   6.657   2.627  1.00 20.00     0.049 A 
HETATM    3  C3  UNL     1     -34.496   6.745   3.657  1.00 20.00     0.254 A 
HETATM    4  C4  UNL     1     -33.798   6.217   1.241  1.00 20.00     0.024 C 
HETATM    5  F7  UNL     1     -35.810   6.479   3.339  1.00 20.00    -0.205 F 
HETATM    6  F8  UNL     1     -34.501   7.748   4.601  1.00 20.00    -0.205 F 
ENDROOT
BRANCH   2   7
HETATM    7  C5  UNL     1     -32.305   7.665   2.682  1.00 20.00     0.179 C 
BRANCH   7   8
HETATM    8  O6  UNL     1     -32.005   8.110   1.364  1.00 20.00    -0.400 OA
HETATM    9  H16 UNL     1     -32.706   8.733   1.113  1.00 20.00     0.209 HD
ENDBRANCH   7   8
ENDBRANCH   2   7
TORSDOF 2
ENDMDL
MODEL 7
REMARK VINA RESULT:      -1.0      2.922      3.847
REMARK  2 active torsions:
REMARK  status: ('A' for Active; 'I' for Inactive)
REMARK    1  A    between atoms: C2_2  and  C5_5 
REMARK    2  A    between atoms: C5_5  and  O6_6 
ROOT
HETATM    1  C1  UNL     1     -31.249   8.548   2.422  1.00 20.00     0.097 A 
HETATM    2  C2  UNL     1     -32.345   7.585   1.993  1.00 20.00     0.049 A 
HETATM    3  C3  UNL     1     -32.063   8.826   1.211  1.00 20.00     0.254 A 
HETATM    4  C4  UNL     1     -33.602   7.537   2.815  1.00 20.00     0.024 C 
HETATM    5  F7  UNL     1     -32.952   9.879   1.200  1.00 20.00    -0.205 F 
HETATM    6  F8  UNL     1     -31.489   8.767  -0.039  1.00 20.00    -0.205 F 
ENDROOT
BRANCH   2   7
HETATM    7  C5  UNL     1     -31.932   6.267   1.400  1.00 20.00     0.179 C 
BRANCH   7   8
HETATM    8  O6  UNL     1     -33.025   5.358   1.461  1.00 20.00    -0.400 OA
HETATM    9  H16 UNL     1     -32.646   4.473   1.582  1.00 20.00     0.209 HD
ENDBRANCH   7   8
ENDBRANCH   2   7
TORSDOF 2
ENDMDL
MODEL 8
REMARK VINA RESULT:      -1.0      1.998      2.658
REMARK  2 active torsions:
REMARK  status: ('A' for Active; 'I' for Inactive)
REMARK    1  A    between atoms: C2_2  and  C5_5 
REMARK    2  A    between atoms: C5_5  and  O6_6 
ROOT
HETATM    1  C1  UNL     1     -32.999   5.492   3.241  1.00 20.00     0.097 A 
HETATM    2  C2  UNL     1     -33.987   6.633   3.426  1.00 20.00     0.049 A 
HETATM    3  C3  UNL     1     -33.238   6.466   2.144  1.00 20.00     0.254 A 
HETATM    4  C4  UNL     1     -33.594   7.765   4.333  1.00 20.00     0.024 C 
HETATM    5  F7  UNL     1     -32.249   7.352   1.777  1.00 20.00    -0.205 F 
HETATM    6  F8  UNL     1     -33.877   6.069   0.991  1.00 20.00    -0.205 F 
ENDROOT
BRANCH   2   7
HETATM    7  C5  UNL     1     -35.453   6.300   3.436  1.00 20.00     0.179 C 
BRANCH   7   8
HETATM    8  O6  UNL     1     -35.726   5.399   4.503  1.00 20.00    -0.400 OA
HETATM    9  H16 UNL     1     -36.395   4.775   4.178  1.00 20.00     0.209 HD
ENDBRANCH   7   8
ENDBRANCH   2   7
TORSDOF 2
ENDMDL
MODEL 9
REMARK VINA RESULT:      -0.9      2.047      2.444
REMARK  2 active torsions:
REMARK  status: ('A' for Active; 'I' for Inactive)
REMARK    1  A    between atoms: C2_2  and  C5_5 
REMARK    2  A    between atoms: C5_5  and  O6_6 
ROOT
HETATM    1  C1  UNL     1     -34.564   7.632   2.674  1.00 20.00     0.097 A 
HETATM    2  C2  UNL     1     -33.181   7.055   2.419  1.00 20.00     0.049 A 
HETATM    3  C3  UNL     1     -33.792   7.011   3.781  1.00 20.00     0.254 A 
HETATM    4  C4  UNL     1     -32.049   8.015   2.183  1.00 20.00     0.024 C 
HETATM    5  F7  UNL     1     -33.304   7.789   4.808  1.00 20.00    -0.205 F 
HETATM    6  F8  UNL     1     -34.212   5.822   4.336  1.00 20.00    -0.205 F 
ENDROOT
BRANCH   2   7
HETATM    7  C5  UNL     1     -33.085   5.770   1.645  1.00 20.00     0.179 C 
BRANCH   7   8
HETATM    8  O6  UNL     1     -31.721   5.498   1.346  1.00 20.00    -0.400 OA
HETATM    9  H16 UNL     1     -31.191   5.953   2.020  1.00 20.00     0.209 HD
ENDBRANCH   7   8
ENDBRANCH   2   7
TORSDOF 2
ENDMDL
