MODEL 1
REMARK VINA RESULT:      -1.3      0.000      0.000
REMARK  1 active torsions:
REMARK  status: ('A' for Active; 'I' for Inactive)
REMARK    1  A    between atoms: C1_1  and  C3_3 
ROOT
HETATM    1  C2  UNL     1     -33.884   6.314   1.340  1.00 20.00     0.084 A 
HETATM    2  C3  UNL     1     -33.038   7.017   2.382  1.00 20.00     0.087 A 
HETATM    3  C4  UNL     1     -32.811   5.547   2.056  1.00 20.00     0.195 A 
HETATM    4  C5  UNL     1     -32.066   8.058   1.886  1.00 20.00     0.029 C 
HETATM    5  F7  UNL     1     -33.264   4.632   3.003  1.00 20.00    -0.224 F 
HETATM    6 CL9  UNL     1     -31.404   5.028   1.146  1.00 20.00    -0.081 Cl
ENDROOT
BRANCH   2   7
HETATM    7  C1  UNL     1     -33.681   7.301   3.688  1.00 20.00     0.231 C 
HETATM    8  O6  UNL     1     -33.121   7.972   4.550  1.00 20.00    -0.279 OA
HETATM    9 CL8  UNL     1     -35.258   6.582   3.811  1.00 20.00    -0.043 Cl
ENDBRANCH   2   7
TORSDOF 1
ENDMDL
MODEL 2
REMARK VINA RESULT:      -0.9      2.275      2.644
REMARK  1 active torsions:
REMARK  status: ('A' for Active; 'I' for Inactive)
REMARK    1  A    between atoms: C1_1  and  C3_3 
ROOT
HETATM    1  C2  UNL     1     -31.615   6.290   1.694  1.00 20.00     0.084 A 
HETATM    2  C3  UNL     1     -33.123   6.366   1.814  1.00 20.00     0.087 A 
HETATM    3  C4  UNL     1     -32.266   7.615   1.960  1.00 20.00     0.195 A 
HETATM    4  C5  UNL     1     -33.922   6.143   0.554  1.00 20.00     0.029 C 
HETATM    5  F7  UNL     1     -32.112   8.106   3.254  1.00 20.00    -0.224 F 
HETATM    6 CL9  UNL     1     -32.224   8.838   0.701  1.00 20.00    -0.081 Cl
ENDROOT
BRANCH   2   7
HETATM    7  C1  UNL     1     -33.724   5.840   3.063  1.00 20.00     0.231 C 
HETATM    8  O6  UNL     1     -33.435   4.730   3.501  1.00 20.00    -0.279 OA
HETATM    9 CL8  UNL     1     -34.839   6.966   3.777  1.00 20.00    -0.043 Cl
ENDBRANCH   2   7
TORSDOF 1
ENDMDL
MODEL 3
REMARK VINA RESULT:      -0.8      2.131      2.751
REMARK  1 active torsions:
REMARK  status: ('A' for Active; 'I' for Inactive)
REMARK    1  A    between atoms: C1_1  and  C3_3 
ROOT
HETATM    1  C2  UNL     1     -34.082   6.588   1.531  1.00 20.00     0.084 A 
HETATM    2  C3  UNL     1     -32.620   6.653   1.923  1.00 20.00     0.087 A 
HETATM    3  C4  UNL     1     -33.696   6.385   2.966  1.00 20.00     0.195 A 
HETATM    4  C5  UNL     1     -31.733   5.529   1.449  1.00 20.00     0.029 C 
HETATM    5  F7  UNL     1     -33.999   7.442   3.821  1.00 20.00    -0.224 F 
HETATM    6 CL9  UNL     1     -33.898   4.790   3.671  1.00 20.00    -0.081 Cl
ENDROOT
BRANCH   2   7
HETATM    7  C1  UNL     1     -31.996   7.998   1.964  1.00 20.00     0.231 C 
HETATM    8  O6  UNL     1     -31.257   8.338   2.883  1.00 20.00    -0.279 OA
HETATM    9 CL8  UNL     1     -32.441   8.968   0.593  1.00 20.00    -0.043 Cl
ENDBRANCH   2   7
TORSDOF 1
ENDMDL
MODEL 4
REMARK VINA RESULT:      -0.6      2.340      2.832
REMARK  1 active torsions:
REMARK  status: ('A' for Active; 'I' for Inactive)
REMARK    1  A    between atoms: C1_1  and  C3_3 
ROOT
HETATM    1  C2  UNL     1     -31.306   8.127   1.983  1.00 20.00     0.084 A 
HETATM    2  C3  UNL     1     -32.631   7.408   2.135  1.00 20.00     0.087 A 
HETATM    3  C4  UNL     1     -32.531   8.698   1.332  1.00 20.00     0.195 A 
HETATM    4  C5  UNL     1     -32.780   6.087   1.423  1.00 20.00     0.029 C 
HETATM    5  F7  UNL     1     -33.050   9.840   1.938  1.00 20.00    -0.224 F 
HETATM    6 CL9  UNL     1     -32.634   8.685  -0.420  1.00 20.00    -0.081 Cl
ENDROOT
BRANCH   2   7
HETATM    7  C1  UNL     1     -33.304   7.513   3.453  1.00 20.00     0.231 C 
HETATM    8  O6  UNL     1     -32.788   8.109   4.394  1.00 20.00    -0.279 OA
HETATM    9 CL8  UNL     1     -34.845   6.711   3.466  1.00 20.00    -0.043 Cl
ENDBRANCH   2   7
TORSDOF 1
ENDMDL
MODEL 5
REMARK VINA RESULT:      -0.5      2.095      2.472
REMARK  1 active torsions:
REMARK  status: ('A' for Active; 'I' for Inactive)
REMARK    1  A    between atoms: C1_1  and  C3_3 
ROOT
HETATM    1  C2  UNL     1     -34.183   8.147   2.574  1.00 20.00     0.084 A 
HETATM    2  C3  UNL     1     -33.744   7.199   3.672  1.00 20.00     0.087 A 
HETATM    3  C4  UNL     1     -33.013   7.239   2.337  1.00 20.00     0.195 A 
HETATM    4  C5  UNL     1     -33.113   7.814   4.896  1.00 20.00     0.029 C 
HETATM    5  F7  UNL     1     -33.251   6.172   1.475  1.00 20.00    -0.224 F 
HETATM    6 CL9  UNL     1     -31.414   7.950   2.202  1.00 20.00    -0.081 Cl
ENDROOT
BRANCH   2   7
HETATM    7  C1  UNL     1     -34.597   6.009   3.910  1.00 20.00     0.231 C 
HETATM    8  O6  UNL     1     -35.813   6.103   4.044  1.00 20.00    -0.279 OA
HETATM    9 CL8  UNL     1     -33.668   4.541   3.970  1.00 20.00    -0.043 Cl
ENDBRANCH   2   7
TORSDOF 1
ENDMDL
MODEL 6
REMARK VINA RESULT:      -0.3      2.344      2.810
REMARK  1 active torsions:
REMARK  status: ('A' for Active; 'I' for Inactive)
REMARK    1  A    between atoms: C1_1  and  C3_3 
ROOT
HETATM    1  C2  UNL     1     -34.081   6.398   1.456  1.00 20.00     0.084 A 
HETATM    2  C3  UNL     1     -32.641   6.615   1.878  1.00 20.00     0.087 A 
HETATM    3  C4  UNL     1     -33.723   6.325   2.910  1.00 20.00     0.195 A 
HETATM    4  C5  UNL     1     -31.649   5.542   1.505  1.00 20.00     0.029 C 
HETATM    5  F7  UNL     1     -34.140   7.407   3.682  1.00 20.00    -0.224 F 
HETATM    6 CL9  UNL     1     -33.810   4.770   3.719  1.00 20.00    -0.081 Cl
ENDROOT
BRANCH   2   7
HETATM    7  C1  UNL     1     -32.134   8.008   1.841  1.00 20.00     0.231 C 
HETATM    8  O6  UNL     1     -32.262   8.715   0.846  1.00 20.00    -0.279 OA
HETATM    9 CL8  UNL     1     -31.373   8.466   3.334  1.00 20.00    -0.043 Cl
ENDBRANCH   2   7
TORSDOF 1
ENDMDL
MODEL 7
REMARK VINA RESULT:      -0.2      2.854      3.376
REMARK  1 active torsions:
REMARK  status: ('A' for Active; 'I' for Inactive)
REMARK    1  A    between atoms: C1_1  and  C3_3 
ROOT
HETATM    1  C2  UNL     1     -31.615   6.496   1.816  1.00 20.00     0.084 A 
HETATM    2  C3  UNL     1     -32.078   7.934   1.936  1.00 20.00     0.087 A 
HETATM    3  C4  UNL     1     -33.084   6.799   1.800  1.00 20.00     0.195 A 
HETATM    4  C5  UNL     1     -31.878   8.609   3.270  1.00 20.00     0.029 C 
HETATM    5  F7  UNL     1     -33.705   6.675   0.560  1.00 20.00    -0.224 F 
HETATM    6 CL9  UNL     1     -34.061   6.286   3.165  1.00 20.00    -0.081 Cl
ENDROOT
BRANCH   2   7
HETATM    7  C1  UNL     1     -31.906   8.796   0.741  1.00 20.00     0.231 C 
HETATM    8  O6  UNL     1     -31.127   8.501  -0.160  1.00 20.00    -0.279 OA
HETATM    9 CL8  UNL     1     -32.915  10.209   0.804  1.00 20.00    -0.043 Cl
ENDBRANCH   2   7
TORSDOF 1
ENDMDL
MODEL 8
REMARK VINA RESULT:       0.0      2.553      3.576
REMARK  1 active torsions:
REMARK  status: ('A' for Active; 'I' for Inactive)
REMARK    1  A    between atoms: C1_1  and  C3_3 
ROOT
HETATM    1  C2  UNL     1     -34.535   7.703   2.815  1.00 20.00     0.084 A 
HETATM    2  C3  UNL     1     -34.291   6.396   3.541  1.00 20.00     0.087 A 
HETATM    3  C4  UNL     1     -33.532   7.657   3.930  1.00 20.00     0.195 A 
HETATM    4  C5  UNL     1     -35.403   5.883   4.422  1.00 20.00     0.029 C 
HETATM    5  F7  UNL     1     -32.198   7.717   3.535  1.00 20.00    -0.224 F 
HETATM    6 CL9  UNL     1     -33.896   8.510   5.420  1.00 20.00    -0.081 Cl
ENDROOT
BRANCH   2   7
HETATM    7  C1  UNL     1     -33.509   5.363   2.819  1.00 20.00     0.231 C 
HETATM    8  O6  UNL     1     -32.996   5.589   1.727  1.00 20.00    -0.279 OA
HETATM    9 CL8  UNL     1     -33.431   3.867   3.699  1.00 20.00    -0.043 Cl
ENDBRANCH   2   7
TORSDOF 1
ENDMDL
MODEL 9
REMARK VINA RESULT:       0.1      2.628      3.058
REMARK  1 active torsions:
REMARK  status: ('A' for Active; 'I' for Inactive)
REMARK    1  A    between atoms: C1_1  and  C3_3 
ROOT
HETATM    1  C2  UNL     1     -33.136   8.158   1.554  1.00 20.00     0.084 A 
HETATM    2  C3  UNL     1     -33.255   7.106   2.638  1.00 20.00     0.087 A 
HETATM    3  C4  UNL     1     -31.942   7.841   2.405  1.00 20.00     0.195 A 
HETATM    4  C5  UNL     1     -34.109   7.448   3.834  1.00 20.00     0.029 C 
HETATM    5  F7  UNL     1     -30.936   7.114   1.774  1.00 20.00    -0.224 F 
HETATM    6 CL9  UNL     1     -31.371   9.057   3.535  1.00 20.00    -0.081 Cl
ENDROOT
BRANCH   2   7
HETATM    7  C1  UNL     1     -33.295   5.690   2.198  1.00 20.00     0.231 C 
HETATM    8  O6  UNL     1     -33.064   5.370   1.037  1.00 20.00    -0.279 OA
HETATM    9 CL8  UNL     1     -33.695   4.611   3.501  1.00 20.00    -0.043 Cl
ENDBRANCH   2   7
TORSDOF 1
ENDMDL
