MODEL 1
REMARK VINA RESULT:      -1.7      0.000      0.000
REMARK  2 active torsions:
REMARK  status: ('A' for Active; 'I' for Inactive)
REMARK    1  A    between atoms: C2_2  and  C5_5 
REMARK    2  A    between atoms: C2_2  and  O9_9 
ROOT
HETATM    1  C1  UNL     1     -33.256   6.075   2.212  1.00 20.00     0.140 C 
HETATM    2  C3  UNL     1     -34.067   5.889   3.504  1.00 20.00     0.080 C 
HETATM    3  C4  UNL     1     -33.978   7.420   3.696  1.00 20.00     0.030 C 
HETATM    4  C5  UNL     1     -33.425   7.608   2.259  1.00 20.00     0.155 C 
HETATM    5  O7  UNL     1     -32.701   5.308   1.454  1.00 20.00    -0.297 OA
ENDROOT
BRANCH   4   6
HETATM    6  C2  UNL     1     -32.077   8.302   2.068  1.00 20.00     0.269 C 
HETATM    7  O8  UNL     1     -31.272   8.494   2.970  1.00 20.00    -0.264 OA
BRANCH   6   8
HETATM    8  O9  UNL     1     -31.928   8.659   0.761  1.00 20.00    -0.326 OA
HETATM    9  C6  UNL     1     -32.488   9.926   0.402  1.00 20.00     0.213 C 
ENDBRANCH   6   8
ENDBRANCH   4   6
TORSDOF 2
ENDMDL
MODEL 2
REMARK VINA RESULT:      -1.7      2.370      4.599
REMARK  2 active torsions:
REMARK  status: ('A' for Active; 'I' for Inactive)
REMARK    1  A    between atoms: C2_2  and  C5_5 
REMARK    2  A    between atoms: C2_2  and  O9_9 
ROOT
HETATM    1  C1  UNL     1     -33.708   7.302   3.607  1.00 20.00     0.140 C 
HETATM    2  C3  UNL     1     -32.633   7.503   2.526  1.00 20.00     0.080 C 
HETATM    3  C4  UNL     1     -33.003   6.098   1.998  1.00 20.00     0.030 C 
HETATM    4  C5  UNL     1     -34.262   6.047   2.901  1.00 20.00     0.155 C 
HETATM    5  O7  UNL     1     -33.999   7.903   4.619  1.00 20.00    -0.297 OA
ENDROOT
BRANCH   4   6
HETATM    6  C2  UNL     1     -34.414   4.896   3.897  1.00 20.00     0.269 C 
HETATM    7  O8  UNL     1     -35.343   4.791   4.686  1.00 20.00    -0.264 OA
BRANCH   6   8
HETATM    8  O9  UNL     1     -33.367   4.032   3.758  1.00 20.00    -0.326 OA
HETATM    9  C6  UNL     1     -33.276   3.013   4.757  1.00 20.00     0.213 C 
ENDBRANCH   6   8
ENDBRANCH   4   6
TORSDOF 2
ENDMDL
MODEL 3
REMARK VINA RESULT:      -1.5      2.095      4.079
REMARK  2 active torsions:
REMARK  status: ('A' for Active; 'I' for Inactive)
REMARK    1  A    between atoms: C2_2  and  C5_5 
REMARK    2  A    between atoms: C2_2  and  O9_9 
ROOT
HETATM    1  C1  UNL     1     -33.152   6.430   2.276  1.00 20.00     0.140 C 
HETATM    2  C3  UNL     1     -32.625   7.868   2.409  1.00 20.00     0.080 C 
HETATM    3  C4  UNL     1     -33.357   7.934   3.769  1.00 20.00     0.030 C 
HETATM    4  C5  UNL     1     -33.624   6.406   3.744  1.00 20.00     0.155 C 
HETATM    5  O7  UNL     1     -33.182   5.631   1.364  1.00 20.00    -0.297 OA
ENDROOT
BRANCH   4   6
HETATM    6  C2  UNL     1     -35.065   5.904   3.836  1.00 20.00     0.269 C 
HETATM    7  O8  UNL     1     -36.032   6.512   3.396  1.00 20.00    -0.264 OA
BRANCH   6   8
HETATM    8  O9  UNL     1     -35.089   4.697   4.471  1.00 20.00    -0.326 OA
HETATM    9  C6  UNL     1     -33.919   3.891   4.303  1.00 20.00     0.213 C 
ENDBRANCH   6   8
ENDBRANCH   4   6
TORSDOF 2
ENDMDL
MODEL 4
REMARK VINA RESULT:      -1.1      1.587      2.680
REMARK  2 active torsions:
REMARK  status: ('A' for Active; 'I' for Inactive)
REMARK    1  A    between atoms: C2_2  and  C5_5 
REMARK    2  A    between atoms: C2_2  and  O9_9 
ROOT
HETATM    1  C1  UNL     1     -34.377   6.686   3.790  1.00 20.00     0.140 C 
HETATM    2  C3  UNL     1     -35.177   5.486   4.322  1.00 20.00     0.080 C 
HETATM    3  C4  UNL     1     -34.171   4.578   3.579  1.00 20.00     0.030 C 
HETATM    4  C5  UNL     1     -33.227   5.778   3.306  1.00 20.00     0.155 C 
HETATM    5  O7  UNL     1     -34.580   7.881   3.764  1.00 20.00    -0.297 OA
ENDROOT
BRANCH   4   6
HETATM    6  C2  UNL     1     -32.852   6.112   1.863  1.00 20.00     0.269 C 
HETATM    7  O8  UNL     1     -33.428   5.659   0.882  1.00 20.00    -0.264 OA
BRANCH   6   8
HETATM    8  O9  UNL     1     -31.796   6.976   1.854  1.00 20.00    -0.326 OA
HETATM    9  C6  UNL     1     -32.092   8.303   1.410  1.00 20.00     0.213 C 
ENDBRANCH   6   8
ENDBRANCH   4   6
TORSDOF 2
ENDMDL
MODEL 5
REMARK VINA RESULT:      -1.1      1.854      3.679
REMARK  2 active torsions:
REMARK  status: ('A' for Active; 'I' for Inactive)
REMARK    1  A    between atoms: C2_2  and  C5_5 
REMARK    2  A    between atoms: C2_2  and  O9_9 
ROOT
HETATM    1  C1  UNL     1     -32.405   7.503   1.777  1.00 20.00     0.140 C 
HETATM    2  C3  UNL     1     -31.708   6.230   1.267  1.00 20.00     0.080 C 
HETATM    3  C4  UNL     1     -32.843   5.425   1.939  1.00 20.00     0.030 C 
HETATM    4  C5  UNL     1     -33.669   6.716   2.183  1.00 20.00     0.155 C 
HETATM    5  O7  UNL     1     -32.079   8.669   1.835  1.00 20.00    -0.297 OA
ENDROOT
BRANCH   4   6
HETATM    6  C2  UNL     1     -34.085   7.071   3.610  1.00 20.00     0.269 C 
HETATM    7  O8  UNL     1     -33.399   7.730   4.380  1.00 20.00    -0.264 OA
BRANCH   6   8
HETATM    8  O9  UNL     1     -35.315   6.543   3.871  1.00 20.00    -0.326 OA
HETATM    9  C6  UNL     1     -35.311   5.251   4.485  1.00 20.00     0.213 C 
ENDBRANCH   6   8
ENDBRANCH   4   6
TORSDOF 2
ENDMDL
MODEL 6
REMARK VINA RESULT:      -1.0      1.278      2.001
REMARK  2 active torsions:
REMARK  status: ('A' for Active; 'I' for Inactive)
REMARK    1  A    between atoms: C2_2  and  C5_5 
REMARK    2  A    between atoms: C2_2  and  O9_9 
ROOT
HETATM    1  C1  UNL     1     -34.127   5.311   3.570  1.00 20.00     0.140 C 
HETATM    2  C3  UNL     1     -34.914   6.286   4.460  1.00 20.00     0.080 C 
HETATM    3  C4  UNL     1     -34.537   7.397   3.453  1.00 20.00     0.030 C 
HETATM    4  C5  UNL     1     -34.008   6.351   2.436  1.00 20.00     0.155 C 
HETATM    5  O7  UNL     1     -33.749   4.167   3.712  1.00 20.00    -0.297 OA
ENDROOT
BRANCH   4   6
HETATM    6  C2  UNL     1     -32.562   6.454   1.952  1.00 20.00     0.269 C 
HETATM    7  O8  UNL     1     -31.966   5.551   1.379  1.00 20.00    -0.264 OA
BRANCH   6   8
HETATM    8  O9  UNL     1     -32.064   7.686   2.259  1.00 20.00    -0.326 OA
HETATM    9  C6  UNL     1     -31.929   8.586   1.156  1.00 20.00     0.213 C 
ENDBRANCH   6   8
ENDBRANCH   4   6
TORSDOF 2
ENDMDL
MODEL 7
REMARK VINA RESULT:      -0.8      1.627      2.011
REMARK  2 active torsions:
REMARK  status: ('A' for Active; 'I' for Inactive)
REMARK    1  A    between atoms: C2_2  and  C5_5 
REMARK    2  A    between atoms: C2_2  and  O9_9 
ROOT
HETATM    1  C1  UNL     1     -34.098   4.964   3.786  1.00 20.00     0.140 C 
HETATM    2  C3  UNL     1     -35.425   5.097   4.551  1.00 20.00     0.080 C 
HETATM    3  C4  UNL     1     -35.505   6.545   4.018  1.00 20.00     0.030 C 
HETATM    4  C5  UNL     1     -34.334   6.290   3.033  1.00 20.00     0.155 C 
HETATM    5  O7  UNL     1     -33.213   4.135   3.783  1.00 20.00    -0.297 OA
ENDROOT
BRANCH   4   6
HETATM    6  C2  UNL     1     -33.092   7.179   3.112  1.00 20.00     0.269 C 
HETATM    7  O8  UNL     1     -32.778   7.832   4.098  1.00 20.00    -0.264 OA
BRANCH   6   8
HETATM    8  O9  UNL     1     -32.414   7.121   1.930  1.00 20.00    -0.326 OA
HETATM    9  C6  UNL     1     -31.988   8.382   1.404  1.00 20.00     0.213 C 
ENDBRANCH   6   8
ENDBRANCH   4   6
TORSDOF 2
ENDMDL
MODEL 8
REMARK VINA RESULT:      -0.7      1.554      2.153
REMARK  2 active torsions:
REMARK  status: ('A' for Active; 'I' for Inactive)
REMARK    1  A    between atoms: C2_2  and  C5_5 
REMARK    2  A    between atoms: C2_2  and  O9_9 
ROOT
HETATM    1  C1  UNL     1     -34.346   7.115   3.863  1.00 20.00     0.140 C 
HETATM    2  C3  UNL     1     -33.816   7.748   5.159  1.00 20.00     0.080 C 
HETATM    3  C4  UNL     1     -32.680   8.362   4.310  1.00 20.00     0.030 C 
HETATM    4  C5  UNL     1     -33.393   7.960   2.993  1.00 20.00     0.155 C 
HETATM    5  O7  UNL     1     -35.188   6.275   3.625  1.00 20.00    -0.297 OA
ENDROOT
BRANCH   4   6
HETATM    6  C2  UNL     1     -32.653   7.073   1.991  1.00 20.00     0.269 C 
HETATM    7  O8  UNL     1     -32.920   5.895   1.792  1.00 20.00    -0.264 OA
BRANCH   6   8
HETATM    8  O9  UNL     1     -31.675   7.796   1.375  1.00 20.00    -0.326 OA
HETATM    9  C6  UNL     1     -32.107   9.011   0.756  1.00 20.00     0.213 C 
ENDBRANCH   6   8
ENDBRANCH   4   6
TORSDOF 2
ENDMDL
MODEL 9
REMARK VINA RESULT:      -0.5      1.918      3.540
REMARK  2 active torsions:
REMARK  status: ('A' for Active; 'I' for Inactive)
REMARK    1  A    between atoms: C2_2  and  C5_5 
REMARK    2  A    between atoms: C2_2  and  O9_9 
ROOT
HETATM    1  C1  UNL     1     -32.469   6.608   1.610  1.00 20.00     0.140 C 
HETATM    2  C3  UNL     1     -31.876   7.886   0.994  1.00 20.00     0.080 C 
HETATM    3  C4  UNL     1     -32.246   8.607   2.310  1.00 20.00     0.030 C 
HETATM    4  C5  UNL     1     -32.563   7.258   3.007  1.00 20.00     0.155 C 
HETATM    5  O7  UNL     1     -32.751   5.517   1.163  1.00 20.00    -0.297 OA
ENDROOT
BRANCH   4   6
HETATM    6  C2  UNL     1     -33.953   7.042   3.605  1.00 20.00     0.269 C 
HETATM    7  O8  UNL     1     -34.702   7.949   3.944  1.00 20.00    -0.264 OA
BRANCH   6   8
HETATM    8  O9  UNL     1     -34.209   5.705   3.694  1.00 20.00    -0.326 OA
HETATM    9  C6  UNL     1     -35.387   5.352   4.424  1.00 20.00     0.213 C 
ENDBRANCH   6   8
ENDBRANCH   4   6
TORSDOF 2
ENDMDL
