MODEL 1
REMARK VINA RESULT:      -1.2      0.000      0.000
REMARK  2 active torsions:
REMARK  status: ('A' for Active; 'I' for Inactive)
REMARK    1  A    between atoms: C7_7  and  C9_9 
REMARK    2  A    between atoms: C9_9  and  C10_10 
ROOT
HETATM    1  C1  UNL     1     -34.728   5.590   4.007  1.00 20.00     0.064 C 
HETATM    2  C2  UNL     1     -33.226   5.733   1.990  1.00 20.00     0.019 C 
HETATM    3  C3  UNL     1     -33.423   7.698   3.566  1.00 20.00     0.019 C 
HETATM    4  C4  UNL     1     -31.956   6.338   1.389  1.00 20.00     0.006 C 
HETATM    5  C5  UNL     1     -32.153   8.308   2.968  1.00 20.00     0.006 C 
HETATM    6  C6  UNL     1     -33.430   6.169   3.447  1.00 20.00     0.093 C 
HETATM    7  C7  UNL     1     -31.898   7.864   1.522  1.00 20.00    -0.014 C 
HETATM    8  N11 UNL     1     -35.713   5.150   4.433  1.00 20.00    -0.197 NA
ENDROOT
BRANCH   7   9
HETATM    9  C9  UNL     1     -32.845   8.512   0.596  1.00 20.00     0.004 C 
BRANCH   9  10
HETATM   10  C10 UNL     1     -32.219   9.734  -0.069  1.00 20.00    -0.004 C 
HETATM   11  C8  UNL     1     -32.692  11.021   0.588  1.00 20.00     0.005 C 
ENDBRANCH   9  10
ENDBRANCH   7   9
TORSDOF 2
ENDMDL
MODEL 2
REMARK VINA RESULT:      -0.6      1.619      2.578
REMARK  2 active torsions:
REMARK  status: ('A' for Active; 'I' for Inactive)
REMARK    1  A    between atoms: C7_7  and  C9_9 
REMARK    2  A    between atoms: C9_9  and  C10_10 
ROOT
HETATM    1  C1  UNL     1     -33.464   3.516   4.387  1.00 20.00     0.064 C 
HETATM    2  C2  UNL     1     -34.196   5.917   4.180  1.00 20.00     0.019 C 
HETATM    3  C3  UNL     1     -32.850   4.839   2.334  1.00 20.00     0.019 C 
HETATM    4  C4  UNL     1     -34.596   7.048   3.231  1.00 20.00     0.006 C 
HETATM    5  C5  UNL     1     -33.248   5.968   1.381  1.00 20.00     0.006 C 
HETATM    6  C6  UNL     1     -33.907   4.614   3.422  1.00 20.00     0.093 C 
HETATM    7  C7  UNL     1     -33.579   7.277   2.108  1.00 20.00    -0.014 C 
HETATM    8  N11 UNL     1     -33.128   2.682   5.120  1.00 20.00    -0.197 NA
ENDROOT
BRANCH   7   9
HETATM    9  C9  UNL     1     -32.356   7.920   2.624  1.00 20.00     0.004 C 
BRANCH   9  10
HETATM   10  C10 UNL     1     -31.511   8.490   1.491  1.00 20.00    -0.004 C 
HETATM   11  C8  UNL     1     -32.317   9.452   0.633  1.00 20.00     0.005 C 
ENDBRANCH   9  10
ENDBRANCH   7   9
TORSDOF 2
ENDMDL
MODEL 3
REMARK VINA RESULT:      -0.3      2.500      4.977
REMARK  2 active torsions:
REMARK  status: ('A' for Active; 'I' for Inactive)
REMARK    1  A    between atoms: C7_7  and  C9_9 
REMARK    2  A    between atoms: C9_9  and  C10_10 
ROOT
HETATM    1  C1  UNL     1     -32.328   9.479   0.369  1.00 20.00     0.064 C 
HETATM    2  C2  UNL     1     -32.687   8.800   2.768  1.00 20.00     0.019 C 
HETATM    3  C3  UNL     1     -32.920   7.094   0.919  1.00 20.00     0.019 C 
HETATM    4  C4  UNL     1     -32.595   7.674   3.799  1.00 20.00     0.006 C 
HETATM    5  C5  UNL     1     -32.829   5.964   1.947  1.00 20.00     0.006 C 
HETATM    6  C6  UNL     1     -32.181   8.352   1.390  1.00 20.00     0.093 C 
HETATM    7  C7  UNL     1     -33.294   6.387   3.346  1.00 20.00    -0.014 C 
HETATM    8  N11 UNL     1     -32.439  10.335  -0.406  1.00 20.00    -0.197 NA
ENDROOT
BRANCH   7   9
HETATM    9  C9  UNL     1     -34.760   6.536   3.394  1.00 20.00     0.004 C 
BRANCH   9  10
HETATM   10  C10 UNL     1     -35.389   5.515   4.336  1.00 20.00    -0.004 C 
HETATM   11  C8  UNL     1     -34.492   4.299   4.507  1.00 20.00     0.005 C 
ENDBRANCH   9  10
ENDBRANCH   7   9
TORSDOF 2
ENDMDL
MODEL 4
REMARK VINA RESULT:       0.9      2.528      5.131
REMARK  2 active torsions:
REMARK  status: ('A' for Active; 'I' for Inactive)
REMARK    1  A    between atoms: C7_7  and  C9_9 
REMARK    2  A    between atoms: C9_9  and  C10_10 
ROOT
HETATM    1  C1  UNL     1     -31.899   8.177   2.248  1.00 20.00     0.064 C 
HETATM    2  C2  UNL     1     -32.935   5.886   2.109  1.00 20.00     0.019 C 
HETATM    3  C3  UNL     1     -33.829   7.582   3.754  1.00 20.00     0.019 C 
HETATM    4  C4  UNL     1     -34.207   5.051   2.275  1.00 20.00     0.006 C 
HETATM    5  C5  UNL     1     -35.102   6.751   3.923  1.00 20.00     0.006 C 
HETATM    6  C6  UNL     1     -33.194   7.375   2.374  1.00 20.00     0.093 C 
HETATM    7  C7  UNL     1     -34.889   5.260   3.631  1.00 20.00    -0.014 C 
HETATM    8  N11 UNL     1     -30.917   8.786   2.153  1.00 20.00    -0.197 NA
ENDROOT
BRANCH   7   9
HETATM    9  C9  UNL     1     -34.124   4.613   4.713  1.00 20.00     0.004 C 
BRANCH   9  10
HETATM   10  C10 UNL     1     -33.654   3.222   4.302  1.00 20.00    -0.004 C 
HETATM   11  C8  UNL     1     -32.550   2.721   5.220  1.00 20.00     0.005 C 
ENDBRANCH   9  10
ENDBRANCH   7   9
TORSDOF 2
ENDMDL
MODEL 5
REMARK VINA RESULT:       1.6      2.494      3.614
REMARK  2 active torsions:
REMARK  status: ('A' for Active; 'I' for Inactive)
REMARK    1  A    between atoms: C7_7  and  C9_9 
REMARK    2  A    between atoms: C9_9  and  C10_10 
ROOT
HETATM    1  C1  UNL     1     -33.434   3.141   4.473  1.00 20.00     0.064 C 
HETATM    2  C2  UNL     1     -34.674   5.330   4.355  1.00 20.00     0.019 C 
HETATM    3  C3  UNL     1     -32.807   4.842   2.724  1.00 20.00     0.019 C 
HETATM    4  C4  UNL     1     -35.162   6.470   3.459  1.00 20.00     0.006 C 
HETATM    5  C5  UNL     1     -33.292   5.981   1.825  1.00 20.00     0.006 C 
HETATM    6  C6  UNL     1     -33.953   4.242   3.549  1.00 20.00     0.093 C 
HETATM    7  C7  UNL     1     -34.050   7.071   2.592  1.00 20.00    -0.014 C 
HETATM    8  N11 UNL     1     -33.040   2.305   5.174  1.00 20.00    -0.197 NA
ENDROOT
BRANCH   7   9
HETATM    9  C9  UNL     1     -33.127   7.884   3.406  1.00 20.00     0.004 C 
BRANCH   9  10
HETATM   10  C10 UNL     1     -33.801   8.375   4.682  1.00 20.00    -0.004 C 
HETATM   11  C8  UNL     1     -32.826   8.394   5.848  1.00 20.00     0.005 C 
ENDBRANCH   9  10
ENDBRANCH   7   9
TORSDOF 2
ENDMDL
