MODEL 1
REMARK VINA RESULT:      -0.5      0.000      0.000
REMARK  0 active torsions:
REMARK  status: ('A' for Active; 'I' for Inactive)
ROOT
HETATM    1  C1  UNL     1     -35.178   5.663   4.447  1.00 20.00     0.015 C 
HETATM    2  C2  UNL     1     -34.590   6.123   3.507  1.00 20.00    -0.083 C 
HETATM    3  C3  UNL     1     -32.675   5.861   1.962  1.00 20.00     0.216 C 
HETATM    4  C4  UNL     1     -33.876   6.684   2.363  1.00 20.00     0.226 C 
HETATM    5  C5  UNL     1     -32.121   8.059   1.895  1.00 20.00     0.158 C 
HETATM    6  C6  UNL     1     -30.955   8.447   2.797  1.00 20.00     0.078 C 
HETATM    7  C7  UNL     1     -32.345   9.096   0.803  1.00 20.00     0.078 C 
HETATM    8  O8  UNL     1     -31.841   6.794   1.276  1.00 20.00    -0.352 OA
HETATM    9  O9  UNL     1     -33.306   7.954   2.699  1.00 20.00    -0.336 OA
ENDROOT
TORSDOF 0
ENDMDL
MODEL 2
REMARK VINA RESULT:      -0.3      2.464      3.270
REMARK  0 active torsions:
REMARK  status: ('A' for Active; 'I' for Inactive)
ROOT
HETATM    1  C1  UNL     1     -32.963   2.553   5.151  1.00 20.00     0.015 C 
HETATM    2  C2  UNL     1     -33.471   3.391   4.456  1.00 20.00    -0.083 C 
HETATM    3  C3  UNL     1     -33.082   5.172   2.783  1.00 20.00     0.216 C 
HETATM    4  C4  UNL     1     -34.089   4.409   3.611  1.00 20.00     0.226 C 
HETATM    5  C5  UNL     1     -34.600   6.628   3.630  1.00 20.00     0.158 C 
HETATM    6  C6  UNL     1     -34.006   7.730   4.500  1.00 20.00     0.078 C 
HETATM    7  C7  UNL     1     -35.985   7.009   3.124  1.00 20.00     0.078 C 
HETATM    8  O8  UNL     1     -33.745   6.404   2.499  1.00 20.00    -0.352 OA
HETATM    9  O9  UNL     1     -34.695   5.428   4.413  1.00 20.00    -0.336 OA
ENDROOT
TORSDOF 0
ENDMDL
MODEL 3
REMARK VINA RESULT:      -0.1      1.279      3.731
REMARK  0 active torsions:
REMARK  status: ('A' for Active; 'I' for Inactive)
ROOT
HETATM    1  C1  UNL     1     -32.375   9.662  -0.241  1.00 20.00     0.015 C 
HETATM    2  C2  UNL     1     -32.358   9.013   0.769  1.00 20.00    -0.083 C 
HETATM    3  C3  UNL     1     -32.507   6.745   1.747  1.00 20.00     0.216 C 
HETATM    4  C4  UNL     1     -32.338   8.224   1.998  1.00 20.00     0.226 C 
HETATM    5  C5  UNL     1     -33.765   7.340   3.536  1.00 20.00     0.158 C 
HETATM    6  C6  UNL     1     -35.254   7.049   3.391  1.00 20.00     0.078 C 
HETATM    7  C7  UNL     1     -33.376   7.510   4.999  1.00 20.00     0.078 C 
HETATM    8  O8  UNL     1     -33.013   6.249   2.986  1.00 20.00    -0.352 OA
HETATM    9  O9  UNL     1     -33.462   8.548   2.822  1.00 20.00    -0.336 OA
ENDROOT
TORSDOF 0
ENDMDL
MODEL 4
REMARK VINA RESULT:       0.5      1.234      1.847
REMARK  0 active torsions:
REMARK  status: ('A' for Active; 'I' for Inactive)
ROOT
HETATM    1  C1  UNL     1     -35.734   6.143   4.067  1.00 20.00     0.015 C 
HETATM    2  C2  UNL     1     -34.617   6.436   3.738  1.00 20.00    -0.083 C 
HETATM    3  C3  UNL     1     -32.781   8.080   3.961  1.00 20.00     0.216 C 
HETATM    4  C4  UNL     1     -33.258   6.790   3.337  1.00 20.00     0.226 C 
HETATM    5  C5  UNL     1     -32.160   8.040   1.781  1.00 20.00     0.158 C 
HETATM    6  C6  UNL     1     -32.694   9.198   0.947  1.00 20.00     0.078 C 
HETATM    7  C7  UNL     1     -30.957   7.387   1.114  1.00 20.00     0.078 C 
HETATM    8  O8  UNL     1     -31.760   8.528   3.070  1.00 20.00    -0.352 OA
HETATM    9  O9  UNL     1     -33.204   7.065   1.933  1.00 20.00    -0.336 OA
ENDROOT
TORSDOF 0
ENDMDL
MODEL 5
REMARK VINA RESULT:       0.6      1.237      3.812
REMARK  0 active torsions:
REMARK  status: ('A' for Active; 'I' for Inactive)
ROOT
HETATM    1  C1  UNL     1     -32.507  10.376  -0.074  1.00 20.00     0.015 C 
HETATM    2  C2  UNL     1     -32.449   9.448   0.686  1.00 20.00    -0.083 C 
HETATM    3  C3  UNL     1     -31.170   7.446   1.377  1.00 20.00     0.216 C 
HETATM    4  C4  UNL     1     -32.379   8.319   1.611  1.00 20.00     0.226 C 
HETATM    5  C5  UNL     1     -32.975   6.125   1.746  1.00 20.00     0.158 C 
HETATM    6  C6  UNL     1     -33.298   5.159   0.612  1.00 20.00     0.078 C 
HETATM    7  C7  UNL     1     -33.614   5.676   3.054  1.00 20.00     0.078 C 
HETATM    8  O8  UNL     1     -31.553   6.186   1.928  1.00 20.00    -0.352 OA
HETATM    9  O9  UNL     1     -33.476   7.425   1.397  1.00 20.00    -0.336 OA
ENDROOT
TORSDOF 0
ENDMDL
MODEL 6
REMARK VINA RESULT:       0.7      1.519      3.972
REMARK  0 active torsions:
REMARK  status: ('A' for Active; 'I' for Inactive)
ROOT
HETATM    1  C1  UNL     1     -31.106   8.033   1.169  1.00 20.00     0.015 C 
HETATM    2  C2  UNL     1     -32.103   7.924   1.828  1.00 20.00    -0.083 C 
HETATM    3  C3  UNL     1     -33.055   7.893   4.112  1.00 20.00     0.216 C 
HETATM    4  C4  UNL     1     -33.318   7.792   2.628  1.00 20.00     0.226 C 
HETATM    5  C5  UNL     1     -34.523   6.207   3.735  1.00 20.00     0.158 C 
HETATM    6  C6  UNL     1     -34.062   4.842   4.232  1.00 20.00     0.078 C 
HETATM    7  C7  UNL     1     -36.033   6.244   3.538  1.00 20.00     0.078 C 
HETATM    8  O8  UNL     1     -34.161   7.209   4.698  1.00 20.00    -0.352 OA
HETATM    9  O9  UNL     1     -33.876   6.481   2.483  1.00 20.00    -0.336 OA
ENDROOT
TORSDOF 0
ENDMDL
MODEL 7
REMARK VINA RESULT:       1.2      1.974      2.916
REMARK  0 active torsions:
REMARK  status: ('A' for Active; 'I' for Inactive)
ROOT
HETATM    1  C1  UNL     1     -33.468   2.508   4.601  1.00 20.00     0.015 C 
HETATM    2  C2  UNL     1     -33.341   3.645   4.235  1.00 20.00    -0.083 C 
HETATM    3  C3  UNL     1     -34.507   5.732   3.598  1.00 20.00     0.216 C 
HETATM    4  C4  UNL     1     -33.185   5.027   3.791  1.00 20.00     0.226 C 
HETATM    5  C5  UNL     1     -33.131   6.256   1.874  1.00 20.00     0.158 C 
HETATM    6  C6  UNL     1     -33.670   5.888   0.497  1.00 20.00     0.078 C 
HETATM    7  C7  UNL     1     -32.036   7.310   1.776  1.00 20.00     0.078 C 
HETATM    8  O8  UNL     1     -34.199   6.778   2.678  1.00 20.00    -0.352 OA
HETATM    9  O9  UNL     1     -32.595   5.073   2.487  1.00 20.00    -0.336 OA
ENDROOT
TORSDOF 0
ENDMDL
MODEL 8
REMARK VINA RESULT:       1.4      1.380      2.092
REMARK  0 active torsions:
REMARK  status: ('A' for Active; 'I' for Inactive)
ROOT
HETATM    1  C1  UNL     1     -34.332   6.942   4.018  1.00 20.00     0.015 C 
HETATM    2  C2  UNL     1     -33.670   7.230   3.059  1.00 20.00    -0.083 C 
HETATM    3  C3  UNL     1     -31.501   8.114   2.260  1.00 20.00     0.216 C 
HETATM    4  C4  UNL     1     -32.865   7.581   1.891  1.00 20.00     0.226 C 
HETATM    5  C5  UNL     1     -32.362   9.378   0.586  1.00 20.00     0.158 C 
HETATM    6  C6  UNL     1     -32.503  10.859   0.916  1.00 20.00     0.078 C 
HETATM    7  C7  UNL     1     -32.366   9.144  -0.919  1.00 20.00     0.078 C 
HETATM    8  O8  UNL     1     -31.123   8.888   1.122  1.00 20.00    -0.352 OA
HETATM    9  O9  UNL     1     -33.461   8.669   1.178  1.00 20.00    -0.336 OA
ENDROOT
TORSDOF 0
ENDMDL
MODEL 9
REMARK VINA RESULT:       1.4      1.543      3.196
REMARK  0 active torsions:
REMARK  status: ('A' for Active; 'I' for Inactive)
ROOT
HETATM    1  C1  UNL     1     -31.188   4.451   0.922  1.00 20.00     0.015 C 
HETATM    2  C2  UNL     1     -32.000   5.270   1.255  1.00 20.00    -0.083 C 
HETATM    3  C3  UNL     1     -32.427   7.665   1.707  1.00 20.00     0.216 C 
HETATM    4  C4  UNL     1     -32.990   6.264   1.661  1.00 20.00     0.226 C 
HETATM    5  C5  UNL     1     -33.735   7.334   3.529  1.00 20.00     0.158 C 
HETATM    6  C6  UNL     1     -33.022   7.518   4.864  1.00 20.00     0.078 C 
HETATM    7  C7  UNL     1     -35.245   7.447   3.688  1.00 20.00     0.078 C 
HETATM    8  O8  UNL     1     -33.294   8.347   2.612  1.00 20.00    -0.352 OA
HETATM    9  O9  UNL     1     -33.409   6.035   3.011  1.00 20.00    -0.336 OA
ENDROOT
TORSDOF 0
ENDMDL
