MODEL 1
REMARK VINA RESULT:      -2.1      0.000      0.000
REMARK  1 active torsions:
REMARK  status: ('A' for Active; 'I' for Inactive)
REMARK    1  A    between atoms: C7_7  and  C11_11 
ROOT
HETATM    1  C1  UNL     1     -32.382   9.561   0.145  1.00 20.00     0.063 C 
HETATM    2  C11 UNL     1     -31.649   9.054   1.316  1.00 20.00     0.162 C 
HETATM    3  N12 UNL     1     -32.957   9.961  -0.780  1.00 20.00    -0.197 NA
ENDROOT
BRANCH   2   4
HETATM    4  C7  UNL     1     -32.283   7.804   1.828  1.00 20.00    -0.045 A 
HETATM    5  C3  UNL     1     -31.828   6.557   1.371  1.00 20.00     0.009 A 
HETATM    6  C2  UNL     1     -32.410   5.374   1.832  1.00 20.00     0.008 A 
HETATM    7  C5  UNL     1     -33.435   5.465   2.759  1.00 20.00    -0.052 A 
HETATM    8  C6  UNL     1     -33.888   6.709   3.215  1.00 20.00    -0.051 A 
HETATM    9  C8  UNL     1     -34.230   4.352   3.365  1.00 20.00     0.039 C 
HETATM   10  C4  UNL     1     -33.326   7.886   2.754  1.00 20.00     0.015 A 
HETATM   11  C9  UNL     1     -35.030   6.542   4.167  1.00 20.00     0.039 C 
HETATM   12  C10 UNL     1     -34.875   5.066   4.563  1.00 20.00     0.009 C 
ENDBRANCH   2   4
TORSDOF 1
ENDMDL
MODEL 2
REMARK VINA RESULT:      -1.0      2.807      5.172
REMARK  1 active torsions:
REMARK  status: ('A' for Active; 'I' for Inactive)
REMARK    1  A    between atoms: C7_7  and  C11_11 
ROOT
HETATM    1  C1  UNL     1     -33.806   3.497   4.632  1.00 20.00     0.063 C 
HETATM    2  C11 UNL     1     -34.809   4.548   4.404  1.00 20.00     0.162 C 
HETATM    3  N12 UNL     1     -33.016   2.666   4.811  1.00 20.00    -0.197 NA
ENDROOT
BRANCH   2   4
HETATM    4  C7  UNL     1     -34.189   5.727   3.732  1.00 20.00    -0.045 A 
HETATM    5  C3  UNL     1     -34.455   7.020   4.211  1.00 20.00     0.009 A 
HETATM    6  C2  UNL     1     -33.891   8.138   3.594  1.00 20.00     0.008 A 
HETATM    7  C5  UNL     1     -33.054   7.937   2.509  1.00 20.00    -0.052 A 
HETATM    8  C6  UNL     1     -32.790   6.648   2.031  1.00 20.00    -0.051 A 
HETATM    9  C8  UNL     1     -32.370   8.969   1.669  1.00 20.00     0.039 C 
HETATM   10  C4  UNL     1     -33.354   5.535   2.628  1.00 20.00     0.015 A 
HETATM   11  C9  UNL     1     -31.905   6.699   0.825  1.00 20.00     0.039 C 
HETATM   12  C10 UNL     1     -31.318   8.113   0.946  1.00 20.00     0.009 C 
ENDBRANCH   2   4
TORSDOF 1
ENDMDL
MODEL 3
REMARK VINA RESULT:      -0.7      2.738      4.842
REMARK  1 active torsions:
REMARK  status: ('A' for Active; 'I' for Inactive)
REMARK    1  A    between atoms: C7_7  and  C11_11 
ROOT
HETATM    1  C1  UNL     1     -33.845   3.841   4.467  1.00 20.00     0.063 C 
HETATM    2  C11 UNL     1     -34.531   5.080   4.071  1.00 20.00     0.162 C 
HETATM    3  N12 UNL     1     -33.306   2.862   4.779  1.00 20.00    -0.197 NA
ENDROOT
BRANCH   2   4
HETATM    4  C7  UNL     1     -33.702   5.850   3.098  1.00 20.00    -0.045 A 
HETATM    5  C3  UNL     1     -32.922   5.163   2.153  1.00 20.00     0.009 A 
HETATM    6  C2  UNL     1     -32.134   5.863   1.238  1.00 20.00     0.008 A 
HETATM    7  C5  UNL     1     -32.152   7.247   1.279  1.00 20.00    -0.052 A 
HETATM    8  C6  UNL     1     -32.929   7.932   2.221  1.00 20.00    -0.051 A 
HETATM    9  C8  UNL     1     -31.371   8.204   0.434  1.00 20.00     0.039 C 
HETATM   10  C4  UNL     1     -33.704   7.247   3.140  1.00 20.00     0.015 A 
HETATM   11  C9  UNL     1     -32.738   9.410   2.095  1.00 20.00     0.039 C 
HETATM   12  C10 UNL     1     -32.135   9.513   0.685  1.00 20.00     0.009 C 
ENDBRANCH   2   4
TORSDOF 1
ENDMDL
MODEL 4
REMARK VINA RESULT:      -0.2      0.748      1.907
REMARK  1 active torsions:
REMARK  status: ('A' for Active; 'I' for Inactive)
REMARK    1  A    between atoms: C7_7  and  C11_11 
ROOT
HETATM    1  C1  UNL     1     -32.202   9.383   0.221  1.00 20.00     0.063 C 
HETATM    2  C11 UNL     1     -31.588   8.249   0.928  1.00 20.00     0.162 C 
HETATM    3  N12 UNL     1     -32.685  10.278  -0.339  1.00 20.00    -0.197 NA
ENDROOT
BRANCH   2   4
HETATM    4  C7  UNL     1     -32.525   7.701   1.951  1.00 20.00    -0.045 A 
HETATM    5  C3  UNL     1     -33.271   8.580   2.752  1.00 20.00     0.009 A 
HETATM    6  C2  UNL     1     -34.150   8.090   3.720  1.00 20.00     0.008 A 
HETATM    7  C5  UNL     1     -34.275   6.717   3.858  1.00 20.00    -0.052 A 
HETATM    8  C6  UNL     1     -33.531   5.840   3.060  1.00 20.00    -0.051 A 
HETATM    9  C8  UNL     1     -35.115   5.963   4.840  1.00 20.00     0.039 C 
HETATM   10  C4  UNL     1     -32.648   6.318   2.106  1.00 20.00     0.015 A 
HETATM   11  C9  UNL     1     -33.803   4.418   3.435  1.00 20.00     0.039 C 
HETATM   12  C10 UNL     1     -35.122   4.562   4.209  1.00 20.00     0.009 C 
ENDBRANCH   2   4
TORSDOF 1
ENDMDL
MODEL 5
REMARK VINA RESULT:      -0.1      2.490      4.815
REMARK  1 active torsions:
REMARK  status: ('A' for Active; 'I' for Inactive)
REMARK    1  A    between atoms: C7_7  and  C11_11 
ROOT
HETATM    1  C1  UNL     1     -34.459   4.895   4.197  1.00 20.00     0.063 C 
HETATM    2  C11 UNL     1     -34.725   6.332   4.025  1.00 20.00     0.162 C 
HETATM    3  N12 UNL     1     -34.252   3.761   4.333  1.00 20.00    -0.197 NA
ENDROOT
BRANCH   2   4
HETATM    4  C7  UNL     1     -33.818   6.911   2.991  1.00 20.00    -0.045 A 
HETATM    5  C3  UNL     1     -32.930   6.074   2.298  1.00 20.00     0.009 A 
HETATM    6  C2  UNL     1     -32.068   6.595   1.331  1.00 20.00     0.008 A 
HETATM    7  C5  UNL     1     -32.123   7.954   1.066  1.00 20.00    -0.052 A 
HETATM    8  C6  UNL     1     -33.009   8.789   1.758  1.00 20.00    -0.051 A 
HETATM    9  C8  UNL     1     -31.282   8.741   0.112  1.00 20.00     0.039 C 
HETATM   10  C4  UNL     1     -33.858   8.283   2.726  1.00 20.00     0.015 A 
HETATM   11  C9  UNL     1     -32.841  10.213   1.331  1.00 20.00     0.039 C 
HETATM   12  C10 UNL     1     -32.099  10.038  -0.003  1.00 20.00     0.009 C 
ENDBRANCH   2   4
TORSDOF 1
ENDMDL
