MODEL 1
REMARK VINA RESULT:      -0.6      0.000      0.000
REMARK  0 active torsions:
REMARK  status: ('A' for Active; 'I' for Inactive)
ROOT
HETATM    1  C1  UNL     1     -35.675   6.130   4.041  1.00 20.00     0.015 C 
HETATM    2  C2  UNL     1     -34.564   6.331   3.636  1.00 20.00    -0.083 C 
HETATM    3  C3  UNL     1     -32.965   5.973   1.781  1.00 20.00     0.216 C 
HETATM    4  C4  UNL     1     -33.211   6.576   3.143  1.00 20.00     0.226 C 
HETATM    5  C5  UNL     1     -32.056   8.050   1.846  1.00 20.00     0.158 C 
HETATM    6  C6  UNL     1     -32.591   9.016   0.795  1.00 20.00     0.078 C 
HETATM    7  C7  UNL     1     -30.710   8.513   2.389  1.00 20.00     0.078 C 
HETATM    8  O8  UNL     1     -31.889   6.752   1.257  1.00 20.00    -0.352 OA
HETATM    9  O9  UNL     1     -33.001   7.977   2.925  1.00 20.00    -0.336 OA
ENDROOT
TORSDOF 0
ENDMDL
MODEL 2
REMARK VINA RESULT:      -0.5      1.276      3.792
REMARK  0 active torsions:
REMARK  status: ('A' for Active; 'I' for Inactive)
ROOT
HETATM    1  C1  UNL     1     -32.313   9.548   0.219  1.00 20.00     0.015 C 
HETATM    2  C2  UNL     1     -32.334   8.719   1.086  1.00 20.00    -0.083 C 
HETATM    3  C3  UNL     1     -32.538   8.305   3.517  1.00 20.00     0.216 C 
HETATM    4  C4  UNL     1     -32.359   7.710   2.141  1.00 20.00     0.226 C 
HETATM    5  C5  UNL     1     -33.839   6.456   3.335  1.00 20.00     0.158 C 
HETATM    6  C6  UNL     1     -35.327   6.697   3.559  1.00 20.00     0.078 C 
HETATM    7  C7  UNL     1     -33.482   4.986   3.517  1.00 20.00     0.078 C 
HETATM    8  O8  UNL     1     -33.085   7.229   4.281  1.00 20.00    -0.352 OA
HETATM    9  O9  UNL     1     -33.505   6.861   1.999  1.00 20.00    -0.336 OA
ENDROOT
TORSDOF 0
ENDMDL
MODEL 3
REMARK VINA RESULT:      -0.3      2.370      3.414
REMARK  0 active torsions:
REMARK  status: ('A' for Active; 'I' for Inactive)
ROOT
HETATM    1  C1  UNL     1     -33.207   2.622   4.910  1.00 20.00     0.015 C 
HETATM    2  C2  UNL     1     -33.623   3.592   4.338  1.00 20.00    -0.083 C 
HETATM    3  C3  UNL     1     -35.346   5.366   4.304  1.00 20.00     0.216 C 
HETATM    4  C4  UNL     1     -34.127   4.772   3.641  1.00 20.00     0.226 C 
HETATM    5  C5  UNL     1     -33.951   7.042   3.680  1.00 20.00     0.158 C 
HETATM    6  C6  UNL     1     -33.482   7.941   4.818  1.00 20.00     0.078 C 
HETATM    7  C7  UNL     1     -33.787   7.727   2.329  1.00 20.00     0.078 C 
HETATM    8  O8  UNL     1     -35.339   6.725   3.865  1.00 20.00    -0.352 OA
HETATM    9  O9  UNL     1     -33.171   5.837   3.696  1.00 20.00    -0.336 OA
ENDROOT
TORSDOF 0
ENDMDL
MODEL 4
REMARK VINA RESULT:      -0.2      1.281      1.899
REMARK  0 active torsions:
REMARK  status: ('A' for Active; 'I' for Inactive)
ROOT
HETATM    1  C1  UNL     1     -35.405   5.548   4.378  1.00 20.00     0.015 C 
HETATM    2  C2  UNL     1     -34.775   6.462   3.921  1.00 20.00    -0.083 C 
HETATM    3  C3  UNL     1     -32.770   7.891   4.165  1.00 20.00     0.216 C 
HETATM    4  C4  UNL     1     -34.010   7.574   3.365  1.00 20.00     0.226 C 
HETATM    5  C5  UNL     1     -32.265   7.973   1.956  1.00 20.00     0.158 C 
HETATM    6  C6  UNL     1     -31.160   7.020   1.516  1.00 20.00     0.078 C 
HETATM    7  C7  UNL     1     -32.457   9.100   0.949  1.00 20.00     0.078 C 
HETATM    8  O8  UNL     1     -31.920   8.548   3.225  1.00 20.00    -0.352 OA
HETATM    9  O9  UNL     1     -33.490   7.232   2.074  1.00 20.00    -0.336 OA
ENDROOT
TORSDOF 0
ENDMDL
MODEL 5
REMARK VINA RESULT:       0.4      1.600      3.623
REMARK  0 active torsions:
REMARK  status: ('A' for Active; 'I' for Inactive)
ROOT
HETATM    1  C1  UNL     1     -32.432  10.323   0.365  1.00 20.00     0.015 C 
HETATM    2  C2  UNL     1     -32.294   9.290   0.958  1.00 20.00    -0.083 C 
HETATM    3  C3  UNL     1     -33.336   7.658   2.500  1.00 20.00     0.216 C 
HETATM    4  C4  UNL     1     -32.124   8.031   1.680  1.00 20.00     0.226 C 
HETATM    5  C5  UNL     1     -32.552   5.806   1.452  1.00 20.00     0.158 C 
HETATM    6  C6  UNL     1     -33.555   5.119   0.532  1.00 20.00     0.078 C 
HETATM    7  C7  UNL     1     -31.426   4.860   1.848  1.00 20.00     0.078 C 
HETATM    8  O8  UNL     1     -33.223   6.243   2.644  1.00 20.00    -0.352 OA
HETATM    9  O9  UNL     1     -31.998   6.938   0.763  1.00 20.00    -0.336 OA
ENDROOT
TORSDOF 0
ENDMDL
MODEL 6
REMARK VINA RESULT:       0.5      1.293      2.234
REMARK  0 active torsions:
REMARK  status: ('A' for Active; 'I' for Inactive)
ROOT
HETATM    1  C1  UNL     1     -33.837   3.819   4.103  1.00 20.00     0.015 C 
HETATM    2  C2  UNL     1     -33.868   4.889   3.561  1.00 20.00    -0.083 C 
HETATM    3  C3  UNL     1     -34.029   7.338   3.872  1.00 20.00     0.216 C 
HETATM    4  C4  UNL     1     -33.905   6.191   2.899  1.00 20.00     0.226 C 
HETATM    5  C5  UNL     1     -32.514   7.882   2.274  1.00 20.00     0.158 C 
HETATM    6  C6  UNL     1     -31.122   8.212   2.798  1.00 20.00     0.078 C 
HETATM    7  C7  UNL     1     -32.727   8.446   0.875  1.00 20.00     0.078 C 
HETATM    8  O8  UNL     1     -33.499   8.450   3.150  1.00 20.00    -0.352 OA
HETATM    9  O9  UNL     1     -32.663   6.454   2.235  1.00 20.00    -0.336 OA
ENDROOT
TORSDOF 0
ENDMDL
MODEL 7
REMARK VINA RESULT:       0.7      1.236      3.726
REMARK  0 active torsions:
REMARK  status: ('A' for Active; 'I' for Inactive)
ROOT
HETATM    1  C1  UNL     1     -32.259  10.386   0.102  1.00 20.00     0.015 C 
HETATM    2  C2  UNL     1     -32.626   9.400   0.679  1.00 20.00    -0.083 C 
HETATM    3  C3  UNL     1     -31.928   7.364   1.899  1.00 20.00     0.216 C 
HETATM    4  C4  UNL     1     -33.073   8.200   1.381  1.00 20.00     0.226 C 
HETATM    5  C5  UNL     1     -33.543   7.473   3.488  1.00 20.00     0.158 C 
HETATM    6  C6  UNL     1     -33.092   8.059   4.820  1.00 20.00     0.078 C 
HETATM    7  C7  UNL     1     -34.816   6.652   3.647  1.00 20.00     0.078 C 
HETATM    8  O8  UNL     1     -32.512   6.620   2.969  1.00 20.00    -0.352 OA
HETATM    9  O9  UNL     1     -33.789   8.551   2.572  1.00 20.00    -0.336 OA
ENDROOT
TORSDOF 0
ENDMDL
MODEL 8
REMARK VINA RESULT:       0.8      1.547      2.783
REMARK  0 active torsions:
REMARK  status: ('A' for Active; 'I' for Inactive)
ROOT
HETATM    1  C1  UNL     1     -33.774   8.096   5.262  1.00 20.00     0.015 C 
HETATM    2  C2  UNL     1     -33.656   7.800   4.105  1.00 20.00    -0.083 C 
HETATM    3  C3  UNL     1     -32.223   7.938   2.093  1.00 20.00     0.216 C 
HETATM    4  C4  UNL     1     -33.513   7.439   2.697  1.00 20.00     0.226 C 
HETATM    5  C5  UNL     1     -32.600   5.817   1.385  1.00 20.00     0.158 C 
HETATM    6  C6  UNL     1     -31.498   4.822   1.730  1.00 20.00     0.078 C 
HETATM    7  C7  UNL     1     -33.469   5.306   0.244  1.00 20.00     0.078 C 
HETATM    8  O8  UNL     1     -32.008   7.062   0.986  1.00 20.00    -0.352 OA
HETATM    9  O9  UNL     1     -33.417   6.017   2.549  1.00 20.00    -0.336 OA
ENDROOT
TORSDOF 0
ENDMDL
MODEL 9
REMARK VINA RESULT:       1.2      1.409      2.075
REMARK  0 active torsions:
REMARK  status: ('A' for Active; 'I' for Inactive)
ROOT
HETATM    1  C1  UNL     1     -34.250   6.498   3.533  1.00 20.00     0.015 C 
HETATM    2  C2  UNL     1     -33.507   7.315   3.064  1.00 20.00    -0.083 C 
HETATM    3  C3  UNL     1     -31.532   7.697   1.623  1.00 20.00     0.216 C 
HETATM    4  C4  UNL     1     -32.603   8.310   2.493  1.00 20.00     0.226 C 
HETATM    5  C5  UNL     1     -32.334   9.561   0.610  1.00 20.00     0.158 C 
HETATM    6  C6  UNL     1     -32.923   9.332  -0.777  1.00 20.00     0.078 C 
HETATM    7  C7  UNL     1     -31.968  11.025   0.820  1.00 20.00     0.078 C 
HETATM    8  O8  UNL     1     -31.148   8.767   0.759  1.00 20.00    -0.352 OA
HETATM    9  O9  UNL     1     -33.307   9.172   1.591  1.00 20.00    -0.336 OA
ENDROOT
TORSDOF 0
ENDMDL
