MODEL 1
REMARK VINA RESULT:       2.0      0.000      0.000
REMARK  1 active torsions:
REMARK  status: ('A' for Active; 'I' for Inactive)
REMARK    1  A    between atoms: C8_8  and  C11_11 
ROOT
HETATM    1  C1  UNL     1     -32.692   8.373   1.019  1.00 20.00     0.136 C 
HETATM    2  C2  UNL     1     -30.982   6.908   1.975  1.00 20.00     0.017 C 
HETATM    3  C3  UNL     1     -32.871   5.793   0.521  1.00 20.00     0.018 C 
HETATM    4  C4  UNL     1     -32.811   7.697   3.272  1.00 20.00     0.023 C 
HETATM    5  C5  UNL     1     -31.792   8.191   2.236  1.00 20.00     0.057 C 
HETATM    6  C6  UNL     1     -33.601   7.061   1.041  1.00 20.00     0.065 C 
HETATM    7  C7  UNL     1     -32.078   5.815   1.864  1.00 20.00    -0.003 C 
HETATM    8  C8  UNL     1     -33.349   6.483   2.494  1.00 20.00    -0.023 C 
HETATM    9  O12 UNL     1     -32.650   9.314   0.245  1.00 20.00    -0.297 OA
ENDROOT
BRANCH   8  10
HETATM   10  C11 UNL     1     -34.397   5.660   3.192  1.00 20.00    -0.013 C 
HETATM   11  C9  UNL     1     -33.771   4.477   3.943  1.00 20.00     0.010 C 
HETATM   12  C10 UNL     1     -35.222   6.513   4.166  1.00 20.00     0.010 C 
ENDBRANCH   8  10
TORSDOF 1
ENDMDL
MODEL 2
REMARK VINA RESULT:       2.2      1.858      3.923
REMARK  1 active torsions:
REMARK  status: ('A' for Active; 'I' for Inactive)
REMARK    1  A    between atoms: C8_8  and  C11_11 
ROOT
HETATM    1  C1  UNL     1     -33.660   6.921   2.886  1.00 20.00     0.136 C 
HETATM    2  C2  UNL     1     -31.718   5.976   1.737  1.00 20.00     0.017 C 
HETATM    3  C3  UNL     1     -31.364   8.188   3.117  1.00 20.00     0.018 C 
HETATM    4  C4  UNL     1     -33.341   7.270   0.578  1.00 20.00     0.023 C 
HETATM    5  C5  UNL     1     -33.244   6.159   1.633  1.00 20.00     0.057 C 
HETATM    6  C6  UNL     1     -32.869   8.300   2.751  1.00 20.00     0.065 C 
HETATM    7  C7  UNL     1     -31.189   7.434   1.763  1.00 20.00    -0.003 C 
HETATM    8  C8  UNL     1     -32.395   8.288   1.240  1.00 20.00    -0.023 C 
HETATM    9  O12 UNL     1     -34.407   6.499   3.752  1.00 20.00    -0.297 OA
ENDROOT
BRANCH   8  10
HETATM   10  C11 UNL     1     -32.173   9.572   0.488  1.00 20.00    -0.013 C 
HETATM   11  C9  UNL     1     -32.551   9.427  -0.992  1.00 20.00     0.010 C 
HETATM   12  C10 UNL     1     -32.963  10.730   1.114  1.00 20.00     0.010 C 
ENDBRANCH   8  10
TORSDOF 1
ENDMDL
MODEL 3
REMARK VINA RESULT:       2.4      2.211      3.881
REMARK  1 active torsions:
REMARK  status: ('A' for Active; 'I' for Inactive)
REMARK    1  A    between atoms: C8_8  and  C11_11 
ROOT
HETATM    1  C1  UNL     1     -34.009   5.061   3.828  1.00 20.00     0.136 C 
HETATM    2  C2  UNL     1     -35.474   6.580   2.590  1.00 20.00     0.017 C 
HETATM    3  C3  UNL     1     -33.464   5.491   1.288  1.00 20.00     0.018 C 
HETATM    4  C4  UNL     1     -33.762   7.395   4.024  1.00 20.00     0.023 C 
HETATM    5  C5  UNL     1     -34.856   6.320   3.976  1.00 20.00     0.057 C 
HETATM    6  C6  UNL     1     -32.919   5.484   2.742  1.00 20.00     0.065 C 
HETATM    7  C7  UNL     1     -34.233   6.789   1.683  1.00 20.00    -0.003 C 
HETATM    8  C8  UNL     1     -33.064   7.060   2.693  1.00 20.00    -0.023 C 
HETATM    9  O12 UNL     1     -34.199   4.009   4.415  1.00 20.00    -0.297 OA
ENDROOT
BRANCH   8  10
HETATM   10  C11 UNL     1     -31.898   7.934   2.318  1.00 20.00    -0.013 C 
HETATM   11  C9  UNL     1     -32.203   8.770   1.069  1.00 20.00     0.010 C 
HETATM   12  C10 UNL     1     -31.497   8.859   3.476  1.00 20.00     0.010 C 
ENDBRANCH   8  10
TORSDOF 1
ENDMDL
MODEL 4
REMARK VINA RESULT:       3.4      1.241      2.570
REMARK  1 active torsions:
REMARK  status: ('A' for Active; 'I' for Inactive)
REMARK    1  A    between atoms: C8_8  and  C11_11 
ROOT
HETATM    1  C1  UNL     1     -32.125   7.457   2.264  1.00 20.00     0.136 C 
HETATM    2  C2  UNL     1     -34.013   6.548   1.001  1.00 20.00     0.017 C 
HETATM    3  C3  UNL     1     -34.524   7.667   3.327  1.00 20.00     0.018 C 
HETATM    4  C4  UNL     1     -32.584   5.148   2.285  1.00 20.00     0.023 C 
HETATM    5  C5  UNL     1     -32.520   6.333   1.313  1.00 20.00     0.057 C 
HETATM    6  C6  UNL     1     -33.057   7.203   3.533  1.00 20.00     0.065 C 
HETATM    7  C7  UNL     1     -34.685   6.428   2.395  1.00 20.00    -0.003 C 
HETATM    8  C8  UNL     1     -33.597   5.734   3.285  1.00 20.00    -0.023 C 
HETATM    9  O12 UNL     1     -31.300   8.324   2.027  1.00 20.00    -0.297 OA
ENDROOT
BRANCH   8  10
HETATM   10  C11 UNL     1     -33.982   4.847   4.436  1.00 20.00    -0.013 C 
HETATM   11  C9  UNL     1     -35.491   4.909   4.710  1.00 20.00     0.010 C 
HETATM   12  C10 UNL     1     -33.561   3.391   4.187  1.00 20.00     0.010 C 
ENDBRANCH   8  10
TORSDOF 1
ENDMDL
MODEL 5
REMARK VINA RESULT:       4.5      1.733      2.913
REMARK  1 active torsions:
REMARK  status: ('A' for Active; 'I' for Inactive)
REMARK    1  A    between atoms: C8_8  and  C11_11 
ROOT
HETATM    1  C1  UNL     1     -31.667   5.401   1.581  1.00 20.00     0.136 C 
HETATM    2  C2  UNL     1     -33.490   6.245   0.184  1.00 20.00     0.017 C 
HETATM    3  C3  UNL     1     -32.007   8.009   1.454  1.00 20.00     0.018 C 
HETATM    4  C4  UNL     1     -33.886   5.396   2.369  1.00 20.00     0.023 C 
HETATM    5  C5  UNL     1     -33.079   5.080   1.103  1.00 20.00     0.057 C 
HETATM    6  C6  UNL     1     -31.857   6.770   2.377  1.00 20.00     0.065 C 
HETATM    7  C7  UNL     1     -33.435   7.475   1.128  1.00 20.00    -0.003 C 
HETATM    8  C8  UNL     1     -33.428   6.852   2.567  1.00 20.00    -0.023 C 
HETATM    9  O12 UNL     1     -30.674   4.733   1.346  1.00 20.00    -0.297 OA
ENDROOT
BRANCH   8  10
HETATM   10  C11 UNL     1     -34.029   7.584   3.736  1.00 20.00    -0.013 C 
HETATM   11  C9  UNL     1     -35.146   6.764   4.394  1.00 20.00     0.010 C 
HETATM   12  C10 UNL     1     -32.963   7.940   4.782  1.00 20.00     0.010 C 
ENDBRANCH   8  10
TORSDOF 1
ENDMDL
MODEL 6
REMARK VINA RESULT:       4.8      1.936      3.871
REMARK  1 active torsions:
REMARK  status: ('A' for Active; 'I' for Inactive)
REMARK    1  A    between atoms: C8_8  and  C11_11 
ROOT
HETATM    1  C1  UNL     1     -35.412   6.685   3.213  1.00 20.00     0.136 C 
HETATM    2  C2  UNL     1     -33.552   5.611   4.384  1.00 20.00     0.017 C 
HETATM    3  C3  UNL     1     -33.816   8.217   4.642  1.00 20.00     0.018 C 
HETATM    4  C4  UNL     1     -33.436   6.116   2.065  1.00 20.00     0.023 C 
HETATM    5  C5  UNL     1     -34.407   5.543   3.106  1.00 20.00     0.057 C 
HETATM    6  C6  UNL     1     -34.483   7.982   3.260  1.00 20.00     0.065 C 
HETATM    7  C7  UNL     1     -32.890   7.011   4.293  1.00 20.00    -0.003 C 
HETATM    8  C8  UNL     1     -33.076   7.424   2.792  1.00 20.00    -0.023 C 
HETATM    9  O12 UNL     1     -36.623   6.556   3.271  1.00 20.00    -0.297 OA
ENDROOT
BRANCH   8  10
HETATM   10  C11 UNL     1     -32.082   8.315   2.100  1.00 20.00    -0.013 C 
HETATM   11  C9  UNL     1     -31.008   7.496   1.372  1.00 20.00     0.010 C 
HETATM   12  C10 UNL     1     -32.774   9.260   1.107  1.00 20.00     0.010 C 
ENDBRANCH   8  10
TORSDOF 1
ENDMDL
