MODEL 1
REMARK VINA RESULT:      -1.7      0.000      0.000
REMARK  2 active torsions:
REMARK  status: ('A' for Active; 'I' for Inactive)
REMARK    1  A    between atoms: C1_1  and  C3_3 
REMARK    2  A    between atoms: C2_2  and  C6_6 
ROOT
HETATM    1  C1  UNL     1     -32.355   8.377   2.276  1.00 20.00     0.046 C 
HETATM    2  C2  UNL     1     -33.457   7.630   2.415  1.00 20.00    -0.014 C 
ENDROOT
BRANCH   2   3
HETATM    3  C6  UNL     1     -33.947   7.127   3.734  1.00 20.00    -0.026 A 
HETATM    4  C4  UNL     1     -34.124   5.639   3.852  1.00 20.00     0.014 A 
HETATM    5  C5  UNL     1     -35.325   6.528   3.745  1.00 20.00     0.014 A 
HETATM    6  C8  UNL     1     -33.480   7.900   4.925  1.00 20.00     0.019 C 
ENDBRANCH   2   3
BRANCH   1   7
HETATM    7  C3  UNL     1     -31.921   8.849   0.932  1.00 20.00     0.145 C 
HETATM    8  C7  UNL     1     -32.608  10.072   0.386  1.00 20.00     0.096 C 
HETATM    9  O9  UNL     1     -31.054   8.266   0.283  1.00 20.00    -0.294 OA
ENDBRANCH   1   7
TORSDOF 2
ENDMDL
MODEL 2
REMARK VINA RESULT:      -1.4      0.600      1.369
REMARK  2 active torsions:
REMARK  status: ('A' for Active; 'I' for Inactive)
REMARK    1  A    between atoms: C1_1  and  C3_3 
REMARK    2  A    between atoms: C2_2  and  C6_6 
ROOT
HETATM    1  C1  UNL     1     -32.393   8.152   2.098  1.00 20.00     0.046 C 
HETATM    2  C2  UNL     1     -33.327   7.194   2.030  1.00 20.00    -0.014 C 
ENDROOT
BRANCH   2   3
HETATM    3  C6  UNL     1     -33.845   6.467   3.228  1.00 20.00    -0.026 A 
HETATM    4  C4  UNL     1     -35.251   6.797   3.647  1.00 20.00     0.014 A 
HETATM    5  C5  UNL     1     -34.093   7.302   4.453  1.00 20.00     0.014 A 
HETATM    6  C8  UNL     1     -33.348   5.068   3.390  1.00 20.00     0.019 C 
ENDBRANCH   2   3
BRANCH   1   7
HETATM    7  C3  UNL     1     -31.920   8.840   0.865  1.00 20.00     0.145 C 
HETATM    8  C7  UNL     1     -32.650  10.094   0.463  1.00 20.00     0.096 C 
HETATM    9  O9  UNL     1     -30.987   8.407   0.192  1.00 20.00    -0.294 OA
ENDBRANCH   1   7
TORSDOF 2
ENDMDL
MODEL 3
REMARK VINA RESULT:      -1.0      2.295      4.505
REMARK  2 active torsions:
REMARK  status: ('A' for Active; 'I' for Inactive)
REMARK    1  A    between atoms: C1_1  and  C3_3 
REMARK    2  A    between atoms: C2_2  and  C6_6 
ROOT
HETATM    1  C1  UNL     1     -33.699   7.065   3.516  1.00 20.00     0.046 C 
HETATM    2  C2  UNL     1     -33.065   7.119   2.337  1.00 20.00    -0.014 C 
ENDROOT
BRANCH   2   3
HETATM    3  C6  UNL     1     -32.094   8.195   1.975  1.00 20.00    -0.026 A 
HETATM    4  C4  UNL     1     -32.524   9.136   0.884  1.00 20.00     0.014 A 
HETATM    5  C5  UNL     1     -31.478   8.099   0.607  1.00 20.00     0.014 A 
HETATM    6  C8  UNL     1     -31.273   8.721   3.107  1.00 20.00     0.019 C 
ENDBRANCH   2   3
BRANCH   1   7
HETATM    7  C3  UNL     1     -34.654   5.964   3.815  1.00 20.00     0.145 C 
HETATM    8  C7  UNL     1     -34.090   4.569   3.871  1.00 20.00     0.096 C 
HETATM    9  O9  UNL     1     -35.853   6.170   3.997  1.00 20.00    -0.294 OA
ENDBRANCH   1   7
TORSDOF 2
ENDMDL
MODEL 4
REMARK VINA RESULT:      -0.9      2.637      4.673
REMARK  2 active torsions:
REMARK  status: ('A' for Active; 'I' for Inactive)
REMARK    1  A    between atoms: C1_1  and  C3_3 
REMARK    2  A    between atoms: C2_2  and  C6_6 
ROOT
HETATM    1  C1  UNL     1     -33.451   5.488   3.030  1.00 20.00     0.046 C 
HETATM    2  C2  UNL     1     -33.296   6.764   2.654  1.00 20.00    -0.014 C 
ENDROOT
BRANCH   2   3
HETATM    3  C6  UNL     1     -32.239   7.216   1.700  1.00 20.00    -0.026 A 
HETATM    4  C4  UNL     1     -31.375   8.357   2.161  1.00 20.00     0.014 A 
HETATM    5  C5  UNL     1     -32.420   8.588   1.112  1.00 20.00     0.014 A 
HETATM    6  C8  UNL     1     -31.634   6.138   0.860  1.00 20.00     0.019 C 
ENDBRANCH   2   3
BRANCH   1   7
HETATM    7  C3  UNL     1     -34.527   5.102   3.984  1.00 20.00     0.145 C 
HETATM    8  C7  UNL     1     -35.579   6.138   4.278  1.00 20.00     0.096 C 
HETATM    9  O9  UNL     1     -34.557   3.997   4.523  1.00 20.00    -0.294 OA
ENDBRANCH   1   7
TORSDOF 2
ENDMDL
MODEL 5
REMARK VINA RESULT:      -0.9      1.860      4.505
REMARK  2 active torsions:
REMARK  status: ('A' for Active; 'I' for Inactive)
REMARK    1  A    between atoms: C1_1  and  C3_3 
REMARK    2  A    between atoms: C2_2  and  C6_6 
ROOT
HETATM    1  C1  UNL     1     -32.733   7.165   1.835  1.00 20.00     0.046 C 
HETATM    2  C2  UNL     1     -32.861   8.485   1.646  1.00 20.00    -0.014 C 
ENDROOT
BRANCH   2   3
HETATM    3  C6  UNL     1     -32.144   9.233   0.570  1.00 20.00    -0.026 A 
HETATM    4  C4  UNL     1     -32.369  10.719   0.534  1.00 20.00     0.014 A 
HETATM    5  C5  UNL     1     -33.006   9.842  -0.501  1.00 20.00     0.014 A 
HETATM    6  C8  UNL     1     -30.801   8.691   0.201  1.00 20.00     0.019 C 
ENDBRANCH   2   3
BRANCH   1   7
HETATM    7  C3  UNL     1     -33.478   6.478   2.926  1.00 20.00     0.145 C 
HETATM    8  C7  UNL     1     -34.170   7.356   3.935  1.00 20.00     0.096 C 
HETATM    9  O9  UNL     1     -33.520   5.253   3.017  1.00 20.00    -0.294 OA
ENDBRANCH   1   7
TORSDOF 2
ENDMDL
MODEL 6
REMARK VINA RESULT:      -0.8      0.933      1.135
REMARK  2 active torsions:
REMARK  status: ('A' for Active; 'I' for Inactive)
REMARK    1  A    between atoms: C1_1  and  C3_3 
REMARK    2  A    between atoms: C2_2  and  C6_6 
ROOT
HETATM    1  C1  UNL     1     -32.556   8.613   2.277  1.00 20.00     0.046 C 
HETATM    2  C2  UNL     1     -33.510   7.683   2.408  1.00 20.00    -0.014 C 
ENDROOT
BRANCH   2   3
HETATM    3  C6  UNL     1     -33.943   7.130   3.727  1.00 20.00    -0.026 A 
HETATM    4  C4  UNL     1     -34.075   5.635   3.808  1.00 20.00     0.014 A 
HETATM    5  C5  UNL     1     -35.303   6.492   3.763  1.00 20.00     0.014 A 
HETATM    6  C8  UNL     1     -33.461   7.884   4.923  1.00 20.00     0.019 C 
ENDBRANCH   2   3
BRANCH   1   7
HETATM    7  C3  UNL     1     -32.172   9.124   0.933  1.00 20.00     0.145 C 
HETATM    8  C7  UNL     1     -31.198   8.292   0.141  1.00 20.00     0.096 C 
HETATM    9  O9  UNL     1     -32.611  10.181   0.485  1.00 20.00    -0.294 OA
ENDBRANCH   1   7
TORSDOF 2
ENDMDL
MODEL 7
REMARK VINA RESULT:      -0.8      2.859      5.041
REMARK  2 active torsions:
REMARK  status: ('A' for Active; 'I' for Inactive)
REMARK    1  A    between atoms: C1_1  and  C3_3 
REMARK    2  A    between atoms: C2_2  and  C6_6 
ROOT
HETATM    1  C1  UNL     1     -33.454   4.865   3.014  1.00 20.00     0.046 C 
HETATM    2  C2  UNL     1     -33.201   6.179   2.975  1.00 20.00    -0.014 C 
ENDROOT
BRANCH   2   3
HETATM    3  C6  UNL     1     -32.502   6.847   1.835  1.00 20.00    -0.026 A 
HETATM    4  C4  UNL     1     -31.658   8.041   2.183  1.00 20.00     0.014 A 
HETATM    5  C5  UNL     1     -32.972   8.232   1.489  1.00 20.00     0.014 A 
HETATM    6  C8  UNL     1     -32.055   5.935   0.739  1.00 20.00     0.019 C 
ENDBRANCH   2   3
BRANCH   1   7
HETATM    7  C3  UNL     1     -34.157   4.261   4.179  1.00 20.00     0.145 C 
HETATM    8  C7  UNL     1     -33.478   3.100   4.857  1.00 20.00     0.096 C 
HETATM    9  O9  UNL     1     -35.247   4.674   4.571  1.00 20.00    -0.294 OA
ENDBRANCH   1   7
TORSDOF 2
ENDMDL
MODEL 8
REMARK VINA RESULT:      -0.7      3.351      5.279
REMARK  2 active torsions:
REMARK  status: ('A' for Active; 'I' for Inactive)
REMARK    1  A    between atoms: C1_1  and  C3_3 
REMARK    2  A    between atoms: C2_2  and  C6_6 
ROOT
HETATM    1  C1  UNL     1     -33.894   3.908   4.035  1.00 20.00     0.046 C 
HETATM    2  C2  UNL     1     -33.317   5.116   4.006  1.00 20.00    -0.014 C 
ENDROOT
BRANCH   2   3
HETATM    3  C6  UNL     1     -33.878   6.276   3.249  1.00 20.00    -0.026 A 
HETATM    4  C4  UNL     1     -34.186   7.507   4.055  1.00 20.00     0.014 A 
HETATM    5  C5  UNL     1     -35.303   6.641   3.557  1.00 20.00     0.014 A 
HETATM    6  C8  UNL     1     -33.375   6.429   1.850  1.00 20.00     0.019 C 
ENDBRANCH   2   3
BRANCH   1   7
HETATM    7  C3  UNL     1     -33.284   2.793   4.810  1.00 20.00     0.145 C 
HETATM    8  C7  UNL     1     -32.534   3.166   6.062  1.00 20.00     0.096 C 
HETATM    9  O9  UNL     1     -33.370   1.621   4.449  1.00 20.00    -0.294 OA
ENDBRANCH   1   7
TORSDOF 2
ENDMDL
MODEL 9
REMARK VINA RESULT:      -0.7      1.894      4.587
REMARK  2 active torsions:
REMARK  status: ('A' for Active; 'I' for Inactive)
REMARK    1  A    between atoms: C1_1  and  C3_3 
REMARK    2  A    between atoms: C2_2  and  C6_6 
ROOT
HETATM    1  C1  UNL     1     -33.040   7.655   2.568  1.00 20.00     0.046 C 
HETATM    2  C2  UNL     1     -33.017   8.872   2.010  1.00 20.00    -0.014 C 
ENDROOT
BRANCH   2   3
HETATM    3  C6  UNL     1     -32.255   9.190   0.765  1.00 20.00    -0.026 A 
HETATM    4  C4  UNL     1     -32.163  10.644   0.397  1.00 20.00     0.014 A 
HETATM    5  C5  UNL     1     -33.059   9.732  -0.384  1.00 20.00     0.014 A 
HETATM    6  C8  UNL     1     -31.094   8.293   0.481  1.00 20.00     0.019 C 
ENDBRANCH   2   3
BRANCH   1   7
HETATM    7  C3  UNL     1     -33.822   7.403   3.810  1.00 20.00     0.145 C 
HETATM    8  C7  UNL     1     -34.929   6.387   3.724  1.00 20.00     0.096 C 
HETATM    9  O9  UNL     1     -33.592   8.002   4.860  1.00 20.00    -0.294 OA
ENDBRANCH   1   7
TORSDOF 2
ENDMDL
