MODEL 1
REMARK VINA RESULT:       0.9      0.000      0.000
REMARK  1 active torsions:
REMARK  status: ('A' for Active; 'I' for Inactive)
REMARK    1  A    between atoms: C1_1  and  C7_7 
ROOT
HETATM    1  C2  UNL     1     -34.575   7.314   3.963  1.00 20.00     0.006 C 
HETATM    2  C3  UNL     1     -34.230   5.952   3.360  1.00 20.00     0.017 C 
HETATM    3  C4  UNL     1     -33.300   8.138   3.842  1.00 20.00     0.069 C 
HETATM    4  C5  UNL     1     -32.505   9.197   0.884  1.00 20.00     0.197 C 
HETATM    5  C6  UNL     1     -31.158   8.585   1.159  1.00 20.00     0.197 C 
HETATM    6  C7  UNL     1     -32.911   6.140   2.599  1.00 20.00     0.109 C 
HETATM    7  C8  UNL     1     -32.699   7.656   2.525  1.00 20.00     0.173 C 
HETATM    8  O10 UNL     1     -33.415   8.242   1.428  1.00 20.00    -0.352 OA
HETATM    9  O11 UNL     1     -31.315   7.996   2.450  1.00 20.00    -0.352 OA
ENDROOT
BRANCH   6  10
HETATM   10  C1  UNL     1     -32.956   5.499   1.246  1.00 20.00     0.241 C 
HETATM   11  O9  UNL     1     -31.978   4.995   0.703  1.00 20.00    -0.306 OA
ENDBRANCH   6  10
TORSDOF 1
ENDMDL
MODEL 2
REMARK VINA RESULT:       2.1      1.269      2.817
REMARK  1 active torsions:
REMARK  status: ('A' for Active; 'I' for Inactive)
REMARK    1  A    between atoms: C1_1  and  C7_7 
ROOT
HETATM    1  C2  UNL     1     -33.062   4.850   2.678  1.00 20.00     0.006 C 
HETATM    2  C3  UNL     1     -33.995   5.666   3.573  1.00 20.00     0.017 C 
HETATM    3  C4  UNL     1     -32.906   5.676   1.408  1.00 20.00     0.069 C 
HETATM    4  C5  UNL     1     -31.063   8.335   1.595  1.00 20.00     0.197 C 
HETATM    5  C6  UNL     1     -32.239   9.047   0.985  1.00 20.00     0.197 C 
HETATM    6  C7  UNL     1     -34.061   7.070   2.960  1.00 20.00     0.109 C 
HETATM    7  C8  UNL     1     -32.935   7.112   1.922  1.00 20.00     0.173 C 
HETATM    8  O10 UNL     1     -31.669   7.433   2.519  1.00 20.00    -0.352 OA
HETATM    9  O11 UNL     1     -33.223   8.020   0.859  1.00 20.00    -0.352 OA
ENDROOT
BRANCH   6  10
HETATM   10  C1  UNL     1     -33.923   8.137   4.002  1.00 20.00     0.241 C 
HETATM   11  O9  UNL     1     -33.517   7.924   5.140  1.00 20.00    -0.306 OA
ENDBRANCH   6  10
TORSDOF 1
ENDMDL
MODEL 3
REMARK VINA RESULT:       2.2      1.743      3.440
REMARK  1 active torsions:
REMARK  status: ('A' for Active; 'I' for Inactive)
REMARK    1  A    between atoms: C1_1  and  C7_7 
ROOT
HETATM    1  C2  UNL     1     -32.216   8.302   3.834  1.00 20.00     0.006 C 
HETATM    2  C3  UNL     1     -32.159   7.875   2.367  1.00 20.00     0.017 C 
HETATM    3  C4  UNL     1     -33.655   8.050   4.267  1.00 20.00     0.069 C 
HETATM    4  C5  UNL     1     -34.542   4.965   4.710  1.00 20.00     0.197 C 
HETATM    5  C6  UNL     1     -35.694   5.292   3.799  1.00 20.00     0.197 C 
HETATM    6  C7  UNL     1     -33.438   7.071   2.103  1.00 20.00     0.109 C 
HETATM    7  C8  UNL     1     -34.037   6.796   3.486  1.00 20.00     0.173 C 
HETATM    8  O10 UNL     1     -33.443   5.646   4.107  1.00 20.00    -0.352 OA
HETATM    9  O11 UNL     1     -35.456   6.651   3.433  1.00 20.00    -0.352 OA
ENDROOT
BRANCH   6  10
HETATM   10  C1  UNL     1     -33.155   5.815   1.339  1.00 20.00     0.241 C 
HETATM   11  O9  UNL     1     -32.030   5.348   1.196  1.00 20.00    -0.306 OA
ENDBRANCH   6  10
TORSDOF 1
ENDMDL
MODEL 4
REMARK VINA RESULT:       2.2      1.683      3.354
REMARK  1 active torsions:
REMARK  status: ('A' for Active; 'I' for Inactive)
REMARK    1  A    between atoms: C1_1  and  C7_7 
ROOT
HETATM    1  C2  UNL     1     -32.469   5.324   1.160  1.00 20.00     0.006 C 
HETATM    2  C3  UNL     1     -31.927   6.678   0.701  1.00 20.00     0.017 C 
HETATM    3  C4  UNL     1     -32.608   5.443   2.673  1.00 20.00     0.069 C 
HETATM    4  C5  UNL     1     -35.050   7.255   3.792  1.00 20.00     0.197 C 
HETATM    5  C6  UNL     1     -33.999   7.949   4.614  1.00 20.00     0.197 C 
HETATM    6  C7  UNL     1     -32.106   7.637   1.885  1.00 20.00     0.109 C 
HETATM    7  C8  UNL     1     -33.018   6.899   2.871  1.00 20.00     0.173 C 
HETATM    8  O10 UNL     1     -34.405   7.055   2.535  1.00 20.00    -0.352 OA
HETATM    9  O11 UNL     1     -32.787   7.307   4.218  1.00 20.00    -0.352 OA
ENDROOT
BRANCH   6  10
HETATM   10  C1  UNL     1     -32.674   8.953   1.451  1.00 20.00     0.241 C 
HETATM   11  O9  UNL     1     -32.350   9.521   0.414  1.00 20.00    -0.306 OA
ENDBRANCH   6  10
TORSDOF 1
ENDMDL
MODEL 5
REMARK VINA RESULT:       2.3      1.875      3.344
REMARK  1 active torsions:
REMARK  status: ('A' for Active; 'I' for Inactive)
REMARK    1  A    between atoms: C1_1  and  C7_7 
ROOT
HETATM    1  C2  UNL     1     -31.711   7.232   1.331  1.00 20.00     0.006 C 
HETATM    2  C3  UNL     1     -31.841   5.717   1.491  1.00 20.00     0.017 C 
HETATM    3  C4  UNL     1     -33.086   7.788   1.676  1.00 20.00     0.069 C 
HETATM    4  C5  UNL     1     -33.936   7.784   4.803  1.00 20.00     0.197 C 
HETATM    5  C6  UNL     1     -35.189   7.095   4.337  1.00 20.00     0.197 C 
HETATM    6  C7  UNL     1     -33.149   5.475   2.253  1.00 20.00     0.109 C 
HETATM    7  C8  UNL     1     -33.573   6.851   2.777  1.00 20.00     0.173 C 
HETATM    8  O10 UNL     1     -32.915   7.179   4.010  1.00 20.00    -0.352 OA
HETATM    9  O11 UNL     1     -34.989   6.950   2.931  1.00 20.00    -0.352 OA
ENDROOT
BRANCH   6  10
HETATM   10  C1  UNL     1     -32.974   4.471   3.351  1.00 20.00     0.241 C 
HETATM   11  O9  UNL     1     -33.911   3.945   3.943  1.00 20.00    -0.306 OA
ENDBRANCH   6  10
TORSDOF 1
ENDMDL
MODEL 6
REMARK VINA RESULT:       2.3      1.703      2.724
REMARK  1 active torsions:
REMARK  status: ('A' for Active; 'I' for Inactive)
REMARK    1  A    between atoms: C1_1  and  C7_7 
ROOT
HETATM    1  C2  UNL     1     -33.940   8.236   3.080  1.00 20.00     0.006 C 
HETATM    2  C3  UNL     1     -34.258   7.136   4.093  1.00 20.00     0.017 C 
HETATM    3  C4  UNL     1     -32.722   7.733   2.316  1.00 20.00     0.069 C 
HETATM    4  C5  UNL     1     -33.206   5.345   0.179  1.00 20.00     0.197 C 
HETATM    5  C6  UNL     1     -32.081   4.644   0.890  1.00 20.00     0.197 C 
HETATM    6  C7  UNL     1     -33.460   5.902   3.654  1.00 20.00     0.109 C 
HETATM    7  C8  UNL     1     -32.955   6.226   2.244  1.00 20.00     0.173 C 
HETATM    8  O10 UNL     1     -33.945   5.942   1.244  1.00 20.00    -0.352 OA
HETATM    9  O11 UNL     1     -31.738   5.543   1.944  1.00 20.00    -0.352 OA
ENDROOT
BRANCH   6  10
HETATM   10  C1  UNL     1     -34.294   4.659   3.694  1.00 20.00     0.241 C 
HETATM   11  O9  UNL     1     -33.941   3.624   4.250  1.00 20.00    -0.306 OA
ENDBRANCH   6  10
TORSDOF 1
ENDMDL
MODEL 7
REMARK VINA RESULT:       2.5      2.036      4.043
REMARK  1 active torsions:
REMARK  status: ('A' for Active; 'I' for Inactive)
REMARK    1  A    between atoms: C1_1  and  C7_7 
ROOT
HETATM    1  C2  UNL     1     -32.633   7.175   1.096  1.00 20.00     0.006 C 
HETATM    2  C3  UNL     1     -32.081   7.998   2.261  1.00 20.00     0.017 C 
HETATM    3  C4  UNL     1     -33.166   5.896   1.729  1.00 20.00     0.069 C 
HETATM    4  C5  UNL     1     -35.929   6.123   3.407  1.00 20.00     0.197 C 
HETATM    5  C6  UNL     1     -35.174   5.432   4.510  1.00 20.00     0.197 C 
HETATM    6  C7  UNL     1     -32.623   7.350   3.541  1.00 20.00     0.109 C 
HETATM    7  C8  UNL     1     -33.708   6.374   3.073  1.00 20.00     0.173 C 
HETATM    8  O10 UNL     1     -34.968   7.033   2.873  1.00 20.00    -0.352 OA
HETATM    9  O11 UNL     1     -33.862   5.277   3.972  1.00 20.00    -0.352 OA
ENDROOT
BRANCH   6  10
HETATM   10  C1  UNL     1     -33.145   8.373   4.502  1.00 20.00     0.241 C 
HETATM   11  O9  UNL     1     -33.126   8.228   5.720  1.00 20.00    -0.306 OA
ENDBRANCH   6  10
TORSDOF 1
ENDMDL
MODEL 8
REMARK VINA RESULT:       2.7      1.436      3.443
REMARK  1 active torsions:
REMARK  status: ('A' for Active; 'I' for Inactive)
REMARK    1  A    between atoms: C1_1  and  C7_7 
ROOT
HETATM    1  C2  UNL     1     -32.403   9.471   0.511  1.00 20.00     0.006 C 
HETATM    2  C3  UNL     1     -32.834   9.563   1.975  1.00 20.00     0.017 C 
HETATM    3  C4  UNL     1     -31.550   8.212   0.425  1.00 20.00     0.069 C 
HETATM    4  C5  UNL     1     -33.099   5.370   0.570  1.00 20.00     0.197 C 
HETATM    5  C6  UNL     1     -32.115   5.025   1.654  1.00 20.00     0.197 C 
HETATM    6  C7  UNL     1     -32.526   8.197   2.601  1.00 20.00     0.109 C 
HETATM    7  C8  UNL     1     -32.221   7.270   1.420  1.00 20.00     0.173 C 
HETATM    8  O10 UNL     1     -33.419   6.734   0.839  1.00 20.00    -0.352 OA
HETATM    9  O11 UNL     1     -31.335   6.213   1.787  1.00 20.00    -0.352 OA
ENDROOT
BRANCH   6  10
HETATM   10  C1  UNL     1     -33.664   7.704   3.441  1.00 20.00     0.241 C 
HETATM   11  O9  UNL     1     -33.666   7.740   4.667  1.00 20.00    -0.306 OA
ENDBRANCH   6  10
TORSDOF 1
ENDMDL
MODEL 9
REMARK VINA RESULT:       2.9      1.269      3.080
REMARK  1 active torsions:
REMARK  status: ('A' for Active; 'I' for Inactive)
REMARK    1  A    between atoms: C1_1  and  C7_7 
ROOT
HETATM    1  C2  UNL     1     -33.816   7.034   4.276  1.00 20.00     0.006 C 
HETATM    2  C3  UNL     1     -33.414   8.284   3.493  1.00 20.00     0.017 C 
HETATM    3  C4  UNL     1     -34.193   6.005   3.218  1.00 20.00     0.069 C 
HETATM    4  C5  UNL     1     -31.768   4.665   1.536  1.00 20.00     0.197 C 
HETATM    5  C6  UNL     1     -32.557   5.061   0.317  1.00 20.00     0.197 C 
HETATM    6  C7  UNL     1     -33.228   7.839   2.037  1.00 20.00     0.109 C 
HETATM    7  C8  UNL     1     -33.223   6.307   2.079  1.00 20.00     0.173 C 
HETATM    8  O10 UNL     1     -31.925   5.786   2.405  1.00 20.00    -0.352 OA
HETATM    9  O11 UNL     1     -33.691   5.738   0.857  1.00 20.00    -0.352 OA
ENDROOT
BRANCH   6  10
HETATM   10  C1  UNL     1     -31.974   8.401   1.441  1.00 20.00     0.241 C 
HETATM   11  O9  UNL     1     -31.966   9.187   0.499  1.00 20.00    -0.306 OA
ENDBRANCH   6  10
TORSDOF 1
ENDMDL
