MODEL 1
REMARK VINA RESULT:      -1.0      0.000      0.000
REMARK  3 active torsions:
REMARK  status: ('A' for Active; 'I' for Inactive)
REMARK    1  A    between atoms: C2_2  and  N9_9 
REMARK    2  A    between atoms: C3_3  and  C8_8 
REMARK    3  A    between atoms: C7_7  and  C8_8 
ROOT
HETATM    1  C3  UNL     1     -33.560   7.481   2.518  1.00 20.00     0.099 C 
HETATM    2  N9  UNL     1     -33.765   7.169   3.757  1.00 20.00    -0.277 NA
ENDROOT
BRANCH   1   3
HETATM    3  C8  UNL     1     -32.218   8.025   2.032  1.00 20.00    -0.001 C 
HETATM    4  C5  UNL     1     -32.535   9.086   0.965  1.00 20.00     0.021 C 
HETATM    5  C6  UNL     1     -31.414   8.687   3.162  1.00 20.00     0.021 C 
BRANCH   3   6
HETATM    6  C7  UNL     1     -31.429   6.880   1.367  1.00 20.00     0.129 C 
HETATM    7 CL10 UNL     1     -32.364   5.366   1.228  1.00 20.00    -0.129 Cl
ENDBRANCH   3   6
ENDBRANCH   1   3
BRANCH   2   8
HETATM    8  C2  UNL     1     -35.011   6.699   4.041  1.00 20.00     0.111 C 
HETATM    9  C1  UNL     1     -35.272   5.408   4.277  1.00 20.00    -0.012 C 
HETATM   10  C4  UNL     1     -34.236   4.333   4.261  1.00 20.00     0.037 C 
ENDBRANCH   2   8
TORSDOF 3
ENDMDL
MODEL 2
REMARK VINA RESULT:      -0.9      1.417      4.364
REMARK  3 active torsions:
REMARK  status: ('A' for Active; 'I' for Inactive)
REMARK    1  A    between atoms: C2_2  and  N9_9 
REMARK    2  A    between atoms: C3_3  and  C8_8 
REMARK    3  A    between atoms: C7_7  and  C8_8 
ROOT
HETATM    1  C3  UNL     1     -33.489   6.602   2.722  1.00 20.00     0.099 C 
HETATM    2  N9  UNL     1     -32.832   7.691   2.484  1.00 20.00    -0.277 NA
ENDROOT
BRANCH   1   3
HETATM    3  C8  UNL     1     -34.623   6.550   3.744  1.00 20.00    -0.001 C 
HETATM    4  C5  UNL     1     -34.282   7.582   4.832  1.00 20.00     0.021 C 
HETATM    5  C6  UNL     1     -35.981   6.917   3.126  1.00 20.00     0.021 C 
BRANCH   3   6
HETATM    6  C7  UNL     1     -34.649   5.149   4.386  1.00 20.00     0.129 C 
HETATM    7 CL10 UNL     1     -33.492   4.010   3.643  1.00 20.00    -0.129 Cl
ENDBRANCH   3   6
ENDBRANCH   1   3
BRANCH   2   8
HETATM    8  C2  UNL     1     -31.848   7.584   1.549  1.00 20.00     0.111 C 
HETATM    9  C1  UNL     1     -31.642   8.497   0.591  1.00 20.00    -0.012 C 
HETATM   10  C4  UNL     1     -32.460   9.736   0.434  1.00 20.00     0.037 C 
ENDBRANCH   2   8
TORSDOF 3
ENDMDL
MODEL 3
REMARK VINA RESULT:      -0.5      1.514      2.098
REMARK  3 active torsions:
REMARK  status: ('A' for Active; 'I' for Inactive)
REMARK    1  A    between atoms: C2_2  and  N9_9 
REMARK    2  A    between atoms: C3_3  and  C8_8 
REMARK    3  A    between atoms: C7_7  and  C8_8 
ROOT
HETATM    1  C3  UNL     1     -33.405   7.666   3.027  1.00 20.00     0.099 C 
HETATM    2  N9  UNL     1     -33.843   6.450   2.966  1.00 20.00    -0.277 NA
ENDROOT
BRANCH   1   3
HETATM    3  C8  UNL     1     -32.292   8.170   2.110  1.00 20.00    -0.001 C 
HETATM    4  C5  UNL     1     -31.106   8.535   3.020  1.00 20.00     0.021 C 
HETATM    5  C6  UNL     1     -31.832   7.101   1.108  1.00 20.00     0.021 C 
BRANCH   3   6
HETATM    6  C7  UNL     1     -32.776   9.448   1.399  1.00 20.00     0.129 C 
HETATM    7 CL10 UNL     1     -32.329   9.507  -0.329  1.00 20.00    -0.129 Cl
ENDBRANCH   3   6
ENDBRANCH   1   3
BRANCH   2   8
HETATM    8  C2  UNL     1     -34.837   6.145   3.846  1.00 20.00     0.111 C 
HETATM    9  C1  UNL     1     -34.927   4.965   4.472  1.00 20.00    -0.012 C 
HETATM   10  C4  UNL     1     -33.954   3.848   4.285  1.00 20.00     0.037 C 
ENDBRANCH   2   8
TORSDOF 3
ENDMDL
MODEL 4
REMARK VINA RESULT:      -0.4      2.174      4.419
REMARK  3 active torsions:
REMARK  status: ('A' for Active; 'I' for Inactive)
REMARK    1  A    between atoms: C2_2  and  N9_9 
REMARK    2  A    between atoms: C3_3  and  C8_8 
REMARK    3  A    between atoms: C7_7  and  C8_8 
ROOT
HETATM    1  C3  UNL     1     -32.853   7.331   1.912  1.00 20.00     0.099 C 
HETATM    2  N9  UNL     1     -31.956   8.039   1.306  1.00 20.00    -0.277 NA
ENDROOT
BRANCH   1   3
HETATM    3  C8  UNL     1     -32.904   5.809   1.786  1.00 20.00    -0.001 C 
HETATM    4  C5  UNL     1     -33.732   5.501   0.527  1.00 20.00     0.021 C 
HETATM    5  C6  UNL     1     -31.507   5.191   1.620  1.00 20.00     0.021 C 
BRANCH   3   6
HETATM    6  C7  UNL     1     -33.639   5.233   3.012  1.00 20.00     0.129 C 
HETATM    7 CL10 UNL     1     -34.748   6.401   3.783  1.00 20.00    -0.129 Cl
ENDBRANCH   3   6
ENDBRANCH   1   3
BRANCH   2   8
HETATM    8  C2  UNL     1     -32.037   9.382   1.512  1.00 20.00     0.111 C 
HETATM    9  C1  UNL     1     -32.413  10.250   0.564  1.00 20.00    -0.012 C 
HETATM   10  C4  UNL     1     -32.789   9.852  -0.825  1.00 20.00     0.037 C 
ENDBRANCH   2   8
TORSDOF 3
ENDMDL
MODEL 5
REMARK VINA RESULT:       0.1      1.877      4.561
REMARK  3 active torsions:
REMARK  status: ('A' for Active; 'I' for Inactive)
REMARK    1  A    between atoms: C2_2  and  N9_9 
REMARK    2  A    between atoms: C3_3  and  C8_8 
REMARK    3  A    between atoms: C7_7  and  C8_8 
ROOT
HETATM    1  C3  UNL     1     -33.259   6.718   2.731  1.00 20.00     0.099 C 
HETATM    2  N9  UNL     1     -32.964   7.879   2.243  1.00 20.00    -0.277 NA
ENDROOT
BRANCH   1   3
HETATM    3  C8  UNL     1     -34.424   6.521   3.699  1.00 20.00    -0.001 C 
HETATM    4  C5  UNL     1     -35.708   6.823   2.908  1.00 20.00     0.021 C 
HETATM    5  C6  UNL     1     -34.501   5.082   4.232  1.00 20.00     0.021 C 
BRANCH   3   6
HETATM    6  C7  UNL     1     -34.299   7.546   4.843  1.00 20.00     0.129 C 
HETATM    7 CL10 UNL     1     -32.670   8.262   4.975  1.00 20.00    -0.129 Cl
ENDBRANCH   3   6
ENDBRANCH   1   3
BRANCH   2   8
HETATM    8  C2  UNL     1     -31.899   7.901   1.394  1.00 20.00     0.111 C 
HETATM    9  C1  UNL     1     -31.693   8.873   0.499  1.00 20.00    -0.012 C 
HETATM   10  C4  UNL     1     -32.598  10.048   0.323  1.00 20.00     0.037 C 
ENDBRANCH   2   8
TORSDOF 3
ENDMDL
MODEL 6
REMARK VINA RESULT:       0.1      2.168      4.517
REMARK  3 active torsions:
REMARK  status: ('A' for Active; 'I' for Inactive)
REMARK    1  A    between atoms: C2_2  and  N9_9 
REMARK    2  A    between atoms: C3_3  and  C8_8 
REMARK    3  A    between atoms: C7_7  and  C8_8 
ROOT
HETATM    1  C3  UNL     1     -33.176   7.376   1.977  1.00 20.00     0.099 C 
HETATM    2  N9  UNL     1     -32.147   8.140   1.806  1.00 20.00    -0.277 NA
ENDROOT
BRANCH   1   3
HETATM    3  C8  UNL     1     -33.590   6.873   3.358  1.00 20.00    -0.001 C 
HETATM    4  C5  UNL     1     -33.015   5.453   3.499  1.00 20.00     0.021 C 
HETATM    5  C6  UNL     1     -33.027   7.747   4.489  1.00 20.00     0.021 C 
BRANCH   3   6
HETATM    6  C7  UNL     1     -35.128   6.787   3.416  1.00 20.00     0.129 C 
HETATM    7 CL10 UNL     1     -35.723   5.458   4.448  1.00 20.00    -0.129 Cl
ENDBRANCH   3   6
ENDBRANCH   1   3
BRANCH   2   8
HETATM    8  C2  UNL     1     -31.901   8.507   0.518  1.00 20.00     0.111 C 
HETATM    9  C1  UNL     1     -32.221   9.708   0.022  1.00 20.00    -0.012 C 
HETATM   10  C4  UNL     1     -32.881  10.787   0.817  1.00 20.00     0.037 C 
ENDBRANCH   2   8
TORSDOF 3
ENDMDL
MODEL 7
REMARK VINA RESULT:       0.1      1.766      2.951
REMARK  3 active torsions:
REMARK  status: ('A' for Active; 'I' for Inactive)
REMARK    1  A    between atoms: C2_2  and  N9_9 
REMARK    2  A    between atoms: C3_3  and  C8_8 
REMARK    3  A    between atoms: C7_7  and  C8_8 
ROOT
HETATM    1  C3  UNL     1     -33.582   5.504   3.477  1.00 20.00     0.099 C 
HETATM    2  N9  UNL     1     -34.159   4.611   4.214  1.00 20.00    -0.277 NA
ENDROOT
BRANCH   1   3
HETATM    3  C8  UNL     1     -33.976   6.978   3.535  1.00 20.00    -0.001 C 
HETATM    4  C5  UNL     1     -35.498   7.034   3.315  1.00 20.00     0.021 C 
HETATM    5  C6  UNL     1     -33.651   7.617   4.894  1.00 20.00     0.021 C 
BRANCH   3   6
HETATM    6  C7  UNL     1     -33.286   7.723   2.376  1.00 20.00     0.129 C 
HETATM    7 CL10 UNL     1     -32.114   6.713   1.485  1.00 20.00    -0.129 Cl
ENDBRANCH   3   6
ENDBRANCH   1   3
BRANCH   2   8
HETATM    8  C2  UNL     1     -33.702   3.339   4.053  1.00 20.00     0.111 C 
HETATM    9  C1  UNL     1     -32.947   2.709   4.961  1.00 20.00    -0.012 C 
HETATM   10  C4  UNL     1     -32.518   3.320   6.254  1.00 20.00     0.037 C 
ENDBRANCH   2   8
TORSDOF 3
ENDMDL
MODEL 8
REMARK VINA RESULT:       0.3      1.625      2.111
REMARK  3 active torsions:
REMARK  status: ('A' for Active; 'I' for Inactive)
REMARK    1  A    between atoms: C2_2  and  N9_9 
REMARK    2  A    between atoms: C3_3  and  C8_8 
REMARK    3  A    between atoms: C7_7  and  C8_8 
ROOT
HETATM    1  C3  UNL     1     -33.465   7.621   2.723  1.00 20.00     0.099 C 
HETATM    2  N9  UNL     1     -33.640   6.384   3.059  1.00 20.00    -0.277 NA
ENDROOT
BRANCH   1   3
HETATM    3  C8  UNL     1     -32.244   8.078   1.926  1.00 20.00    -0.001 C 
HETATM    4  C5  UNL     1     -31.673   6.824   1.241  1.00 20.00     0.021 C 
HETATM    5  C6  UNL     1     -32.606   9.108   0.845  1.00 20.00     0.021 C 
BRANCH   3   6
HETATM    6  C7  UNL     1     -31.189   8.627   2.906  1.00 20.00     0.129 C 
HETATM    7 CL10 UNL     1     -31.832   8.923   4.544  1.00 20.00    -0.129 Cl
ENDBRANCH   3   6
ENDBRANCH   1   3
BRANCH   2   8
HETATM    8  C2  UNL     1     -34.773   6.128   3.768  1.00 20.00     0.111 C 
HETATM    9  C1  UNL     1     -34.996   4.973   4.406  1.00 20.00    -0.012 C 
HETATM   10  C4  UNL     1     -34.033   3.831   4.418  1.00 20.00     0.037 C 
ENDBRANCH   2   8
TORSDOF 3
ENDMDL
MODEL 9
REMARK VINA RESULT:       0.4      1.924      2.651
REMARK  3 active torsions:
REMARK  status: ('A' for Active; 'I' for Inactive)
REMARK    1  A    between atoms: C2_2  and  N9_9 
REMARK    2  A    between atoms: C3_3  and  C8_8 
REMARK    3  A    between atoms: C7_7  and  C8_8 
ROOT
HETATM    1  C3  UNL     1     -33.353   6.162   2.806  1.00 20.00     0.099 C 
HETATM    2  N9  UNL     1     -33.786   4.955   2.983  1.00 20.00    -0.277 NA
ENDROOT
BRANCH   1   3
HETATM    3  C8  UNL     1     -32.622   6.580   1.532  1.00 20.00    -0.001 C 
HETATM    4  C5  UNL     1     -31.579   5.486   1.245  1.00 20.00     0.021 C 
HETATM    5  C6  UNL     1     -33.567   6.688   0.326  1.00 20.00     0.021 C 
BRANCH   3   6
HETATM    6  C7  UNL     1     -31.882   7.906   1.796  1.00 20.00     0.129 C 
HETATM    7 CL10 UNL     1     -32.358   9.215   0.680  1.00 20.00    -0.129 Cl
ENDBRANCH   3   6
ENDBRANCH   1   3
BRANCH   2   8
HETATM    8  C2  UNL     1     -34.417   4.731   4.168  1.00 20.00     0.111 C 
HETATM    9  C1  UNL     1     -34.078   3.744   5.006  1.00 20.00    -0.012 C 
HETATM   10  C4  UNL     1     -32.970   2.777   4.747  1.00 20.00     0.037 C 
ENDBRANCH   2   8
TORSDOF 3
ENDMDL
