MODEL 1
REMARK VINA RESULT:      -2.3      0.000      0.000
REMARK  2 active torsions:
REMARK  status: ('A' for Active; 'I' for Inactive)
REMARK       I    between atoms: C1_1  and  N6_6 
REMARK    1  A    between atoms: C4_4  and  C5_5 
REMARK    2  A    between atoms: C5_5  and  N6_6 
ROOT
HETATM    1  C1  UNL     1     -33.764   6.722   3.406  1.00 20.00     0.316 C 
HETATM    2  C3  UNL     1     -32.647   5.857   1.309  1.00 20.00     0.154 C 
HETATM    3  N6  UNL     1     -32.871   6.904   2.314  1.00 20.00    -0.343 N 
HETATM    4  O7  UNL     1     -34.400   5.680   3.576  1.00 20.00    -0.254 OA
HETATM    5 CL8  UNL     1     -33.914   8.065   4.525  1.00 20.00    -0.020 Cl
ENDROOT
BRANCH   3   6
HETATM    6  C5  UNL     1     -32.136   8.125   2.128  1.00 20.00     0.126 C 
BRANCH   6   7
HETATM    7  C4  UNL     1     -32.007   8.506   0.657  1.00 20.00     0.015 C 
HETATM    8  C2  UNL     1     -32.465   9.930   0.377  1.00 20.00     0.006 C 
ENDBRANCH   6   7
ENDBRANCH   3   6
TORSDOF 2
ENDMDL
MODEL 2
REMARK VINA RESULT:      -1.8      2.811      4.584
REMARK  2 active torsions:
REMARK  status: ('A' for Active; 'I' for Inactive)
REMARK       I    between atoms: C1_1  and  N6_6 
REMARK    1  A    between atoms: C4_4  and  C5_5 
REMARK    2  A    between atoms: C5_5  and  N6_6 
ROOT
HETATM    1  C1  UNL     1     -32.697   6.745   2.208  1.00 20.00     0.316 C 
HETATM    2  C3  UNL     1     -34.372   7.140   4.060  1.00 20.00     0.154 C 
HETATM    3  N6  UNL     1     -33.691   6.260   3.102  1.00 20.00    -0.343 N 
HETATM    4  O7  UNL     1     -32.348   7.928   2.184  1.00 20.00    -0.254 OA
HETATM    5 CL8  UNL     1     -31.970   5.565   1.132  1.00 20.00    -0.020 Cl
ENDROOT
BRANCH   3   6
HETATM    6  C5  UNL     1     -34.089   4.879   3.121  1.00 20.00     0.126 C 
BRANCH   6   7
HETATM    7  C4  UNL     1     -34.121   4.303   4.532  1.00 20.00     0.015 C 
HETATM    8  C2  UNL     1     -33.266   3.052   4.676  1.00 20.00     0.006 C 
ENDBRANCH   6   7
ENDBRANCH   3   6
TORSDOF 2
ENDMDL
MODEL 3
REMARK VINA RESULT:      -1.2      2.236      4.033
REMARK  2 active torsions:
REMARK  status: ('A' for Active; 'I' for Inactive)
REMARK       I    between atoms: C1_1  and  N6_6 
REMARK    1  A    between atoms: C4_4  and  C5_5 
REMARK    2  A    between atoms: C5_5  and  N6_6 
ROOT
HETATM    1  C1  UNL     1     -33.161   7.406   3.163  1.00 20.00     0.316 C 
HETATM    2  C3  UNL     1     -32.976   5.420   1.610  1.00 20.00     0.154 C 
HETATM    3  N6  UNL     1     -33.448   6.049   2.850  1.00 20.00    -0.343 N 
HETATM    4  O7  UNL     1     -32.502   8.133   2.416  1.00 20.00    -0.254 OA
HETATM    5 CL8  UNL     1     -33.805   8.012   4.679  1.00 20.00    -0.020 Cl
ENDROOT
BRANCH   3   6
HETATM    6  C5  UNL     1     -34.217   5.211   3.729  1.00 20.00     0.126 C 
BRANCH   6   7
HETATM    7  C4  UNL     1     -33.798   3.748   3.650  1.00 20.00     0.015 C 
HETATM    8  C2  UNL     1     -33.199   3.236   4.952  1.00 20.00     0.006 C 
ENDBRANCH   6   7
ENDBRANCH   3   6
TORSDOF 2
ENDMDL
MODEL 4
REMARK VINA RESULT:      -1.2      1.915      2.227
REMARK  2 active torsions:
REMARK  status: ('A' for Active; 'I' for Inactive)
REMARK       I    between atoms: C1_1  and  N6_6 
REMARK    1  A    between atoms: C4_4  and  C5_5 
REMARK    2  A    between atoms: C5_5  and  N6_6 
ROOT
HETATM    1  C1  UNL     1     -33.112   5.922   2.370  1.00 20.00     0.316 C 
HETATM    2  C3  UNL     1     -33.478   8.058   3.672  1.00 20.00     0.154 C 
HETATM    3  N6  UNL     1     -32.866   7.309   2.567  1.00 20.00    -0.343 N 
HETATM    4  O7  UNL     1     -33.850   5.268   3.111  1.00 20.00    -0.254 OA
HETATM    5 CL8  UNL     1     -32.313   5.173   0.999  1.00 20.00    -0.020 Cl
ENDROOT
BRANCH   3   6
HETATM    6  C5  UNL     1     -32.004   8.060   1.697  1.00 20.00     0.126 C 
BRANCH   6   7
HETATM    7  C4  UNL     1     -32.582   9.426   1.344  1.00 20.00     0.015 C 
HETATM    8  C2  UNL     1     -32.397   9.781  -0.124  1.00 20.00     0.006 C 
ENDBRANCH   6   7
ENDBRANCH   3   6
TORSDOF 2
ENDMDL
MODEL 5
REMARK VINA RESULT:      -1.2      2.235      2.818
REMARK  2 active torsions:
REMARK  status: ('A' for Active; 'I' for Inactive)
REMARK       I    between atoms: C1_1  and  N6_6 
REMARK    1  A    between atoms: C4_4  and  C5_5 
REMARK    2  A    between atoms: C5_5  and  N6_6 
ROOT
HETATM    1  C1  UNL     1     -34.603   4.848   4.182  1.00 20.00     0.316 C 
HETATM    2  C3  UNL     1     -35.079   7.282   3.695  1.00 20.00     0.154 C 
HETATM    3  N6  UNL     1     -34.264   6.071   3.541  1.00 20.00    -0.343 N 
HETATM    4  O7  UNL     1     -35.598   4.730   4.901  1.00 20.00    -0.254 OA
HETATM    5 CL8  UNL     1     -33.531   3.489   3.890  1.00 20.00    -0.020 Cl
ENDROOT
BRANCH   3   6
HETATM    6  C5  UNL     1     -33.101   6.195   2.705  1.00 20.00     0.126 C 
BRANCH   6   7
HETATM    7  C4  UNL     1     -32.561   7.621   2.669  1.00 20.00     0.015 C 
HETATM    8  C2  UNL     1     -31.861   7.952   1.359  1.00 20.00     0.006 C 
ENDBRANCH   6   7
ENDBRANCH   3   6
TORSDOF 2
ENDMDL
MODEL 6
REMARK VINA RESULT:      -1.2      1.828      2.879
REMARK  2 active torsions:
REMARK  status: ('A' for Active; 'I' for Inactive)
REMARK       I    between atoms: C1_1  and  N6_6 
REMARK    1  A    between atoms: C4_4  and  C5_5 
REMARK    2  A    between atoms: C5_5  and  N6_6 
ROOT
HETATM    1  C1  UNL     1     -34.096   7.224   3.877  1.00 20.00     0.316 C 
HETATM    2  C3  UNL     1     -32.209   8.095   2.436  1.00 20.00     0.154 C 
HETATM    3  N6  UNL     1     -33.216   7.079   2.769  1.00 20.00    -0.343 N 
HETATM    4  O7  UNL     1     -34.067   8.207   4.621  1.00 20.00    -0.254 OA
HETATM    5 CL8  UNL     1     -35.249   5.927   4.135  1.00 20.00    -0.020 Cl
ENDROOT
BRANCH   3   6
HETATM    6  C5  UNL     1     -33.259   5.928   1.909  1.00 20.00     0.126 C 
BRANCH   6   7
HETATM    7  C4  UNL     1     -31.947   5.712   1.162  1.00 20.00     0.015 C 
HETATM    8  C2  UNL     1     -31.938   4.425   0.351  1.00 20.00     0.006 C 
ENDBRANCH   6   7
ENDBRANCH   3   6
TORSDOF 2
ENDMDL
MODEL 7
REMARK VINA RESULT:      -0.9      2.597      3.747
REMARK  2 active torsions:
REMARK  status: ('A' for Active; 'I' for Inactive)
REMARK       I    between atoms: C1_1  and  N6_6 
REMARK    1  A    between atoms: C4_4  and  C5_5 
REMARK    2  A    between atoms: C5_5  and  N6_6 
ROOT
HETATM    1  C1  UNL     1     -32.042   8.721   0.952  1.00 20.00     0.316 C 
HETATM    2  C3  UNL     1     -31.821   6.284   1.588  1.00 20.00     0.154 C 
HETATM    3  N6  UNL     1     -32.400   7.621   1.778  1.00 20.00    -0.343 N 
HETATM    4  O7  UNL     1     -31.227   8.621   0.031  1.00 20.00    -0.254 OA
HETATM    5 CL8  UNL     1     -32.829  10.250   1.300  1.00 20.00    -0.020 Cl
ENDROOT
BRANCH   3   6
HETATM    6  C5  UNL     1     -33.351   7.751   2.848  1.00 20.00     0.126 C 
BRANCH   6   7
HETATM    7  C4  UNL     1     -33.866   6.401   3.334  1.00 20.00     0.015 C 
HETATM    8  C2  UNL     1     -35.233   6.496   3.995  1.00 20.00     0.006 C 
ENDBRANCH   6   7
ENDBRANCH   3   6
TORSDOF 2
ENDMDL
MODEL 8
REMARK VINA RESULT:      -0.7      2.713      4.312
REMARK  2 active torsions:
REMARK  status: ('A' for Active; 'I' for Inactive)
REMARK       I    between atoms: C1_1  and  N6_6 
REMARK    1  A    between atoms: C4_4  and  C5_5 
REMARK    2  A    between atoms: C5_5  and  N6_6 
ROOT
HETATM    1  C1  UNL     1     -32.204   7.097   1.822  1.00 20.00     0.316 C 
HETATM    2  C3  UNL     1     -33.464   8.218   3.705  1.00 20.00     0.154 C 
HETATM    3  N6  UNL     1     -33.162   7.048   2.871  1.00 20.00    -0.343 N 
HETATM    4  O7  UNL     1     -31.570   8.120   1.550  1.00 20.00    -0.254 OA
HETATM    5 CL8  UNL     1     -31.950   5.611   0.924  1.00 20.00    -0.020 Cl
ENDROOT
BRANCH   3   6
HETATM    6  C5  UNL     1     -33.893   5.849   3.178  1.00 20.00     0.126 C 
BRANCH   6   7
HETATM    7  C4  UNL     1     -35.164   6.131   3.972  1.00 20.00     0.015 C 
HETATM    8  C2  UNL     1     -35.570   4.967   4.864  1.00 20.00     0.006 C 
ENDBRANCH   6   7
ENDBRANCH   3   6
TORSDOF 2
ENDMDL
MODEL 9
REMARK VINA RESULT:      -0.7      2.190      3.589
REMARK  2 active torsions:
REMARK  status: ('A' for Active; 'I' for Inactive)
REMARK       I    between atoms: C1_1  and  N6_6 
REMARK    1  A    between atoms: C4_4  and  C5_5 
REMARK    2  A    between atoms: C5_5  and  N6_6 
ROOT
HETATM    1  C1  UNL     1     -32.047   7.816   1.890  1.00 20.00     0.316 C 
HETATM    2  C3  UNL     1     -33.027   5.729   0.852  1.00 20.00     0.154 C 
HETATM    3  N6  UNL     1     -32.760   6.592   2.010  1.00 20.00    -0.343 N 
HETATM    4  O7  UNL     1     -31.612   8.227   0.811  1.00 20.00    -0.254 OA
HETATM    5 CL8  UNL     1     -31.819   8.737   3.366  1.00 20.00    -0.020 Cl
ENDROOT
BRANCH   3   6
HETATM    6  C5  UNL     1     -33.262   6.125   3.273  1.00 20.00     0.126 C 
BRANCH   6   7
HETATM    7  C4  UNL     1     -34.622   6.724   3.615  1.00 20.00     0.015 C 
HETATM    8  C2  UNL     1     -35.538   5.737   4.324  1.00 20.00     0.006 C 
ENDBRANCH   6   7
ENDBRANCH   3   6
TORSDOF 2
ENDMDL
