MODEL 1
REMARK VINA RESULT:      -1.6      0.000      0.000
REMARK  1 active torsions:
REMARK  status: ('A' for Active; 'I' for Inactive)
REMARK    1  A    between atoms: C3_3  and  C7_7 
REMARK       I    between atoms: C3_3  and  N8_8 
ROOT
HETATM    1  C1  UNL     1     -34.999   5.620   4.019  1.00 20.00    -0.010 A 
HETATM    2  C2  UNL     1     -34.953   6.899   4.406  1.00 20.00    -0.010 A 
HETATM    3  C3  UNL     1     -32.294   6.806   1.892  1.00 20.00     0.219 C 
HETATM    4  C4  UNL     1     -33.980   5.335   2.971  1.00 20.00     0.153 A 
HETATM    5  C5  UNL     1     -33.896   7.650   3.672  1.00 20.00     0.153 A 
HETATM    6  N8  UNL     1     -33.327   6.627   2.797  1.00 20.00    -0.345 N 
HETATM    7  O9  UNL     1     -31.846   5.912   1.171  1.00 20.00    -0.273 OA
ENDROOT
BRANCH   3   8
HETATM    8  C7  UNL     1     -31.723   8.200   1.828  1.00 20.00     0.098 C 
HETATM    9  C6  UNL     1     -32.284   8.933   0.634  1.00 20.00     0.014 C 
ENDBRANCH   3   8
TORSDOF 1
ENDMDL
MODEL 2
REMARK VINA RESULT:      -1.6      1.866      4.073
REMARK  1 active torsions:
REMARK  status: ('A' for Active; 'I' for Inactive)
REMARK    1  A    between atoms: C3_3  and  C7_7 
REMARK       I    between atoms: C3_3  and  N8_8 
ROOT
HETATM    1  C1  UNL     1     -31.576   7.545   1.487  1.00 20.00    -0.010 A 
HETATM    2  C2  UNL     1     -32.086   6.398   1.028  1.00 20.00    -0.010 A 
HETATM    3  C3  UNL     1     -34.249   7.056   3.907  1.00 20.00     0.219 C 
HETATM    4  C4  UNL     1     -32.312   8.023   2.690  1.00 20.00     0.153 A 
HETATM    5  C5  UNL     1     -33.238   5.947   1.859  1.00 20.00     0.153 A 
HETATM    6  N8  UNL     1     -33.329   6.995   2.874  1.00 20.00    -0.345 N 
HETATM    7  O9  UNL     1     -34.290   7.963   4.741  1.00 20.00    -0.273 OA
ENDROOT
BRANCH   3   8
HETATM    8  C7  UNL     1     -35.236   5.917   3.965  1.00 20.00     0.098 C 
HETATM    9  C6  UNL     1     -34.543   4.658   4.423  1.00 20.00     0.014 C 
ENDBRANCH   3   8
TORSDOF 1
ENDMDL
MODEL 3
REMARK VINA RESULT:      -1.1      1.919      4.152
REMARK  1 active torsions:
REMARK  status: ('A' for Active; 'I' for Inactive)
REMARK    1  A    between atoms: C3_3  and  C7_7 
REMARK       I    between atoms: C3_3  and  N8_8 
ROOT
HETATM    1  C1  UNL     1     -32.327   8.140   1.899  1.00 20.00    -0.010 A 
HETATM    2  C2  UNL     1     -31.809   7.036   1.353  1.00 20.00    -0.010 A 
HETATM    3  C3  UNL     1     -34.280   5.619   3.652  1.00 20.00     0.219 C 
HETATM    4  C4  UNL     1     -33.383   7.808   2.895  1.00 20.00     0.153 A 
HETATM    5  C5  UNL     1     -32.446   5.807   1.906  1.00 20.00     0.153 A 
HETATM    6  N8  UNL     1     -33.414   6.351   2.858  1.00 20.00    -0.345 N 
HETATM    7  O9  UNL     1     -35.082   6.121   4.442  1.00 20.00    -0.273 OA
ENDROOT
BRANCH   3   8
HETATM    8  C7  UNL     1     -34.191   4.122   3.500  1.00 20.00     0.098 C 
HETATM    9  C6  UNL     1     -33.540   3.517   4.719  1.00 20.00     0.014 C 
ENDBRANCH   3   8
TORSDOF 1
ENDMDL
MODEL 4
REMARK VINA RESULT:      -0.6      1.240      2.296
REMARK  1 active torsions:
REMARK  status: ('A' for Active; 'I' for Inactive)
REMARK    1  A    between atoms: C3_3  and  C7_7 
REMARK       I    between atoms: C3_3  and  N8_8 
ROOT
HETATM    1  C1  UNL     1     -34.530   7.476   4.590  1.00 20.00    -0.010 A 
HETATM    2  C2  UNL     1     -35.041   6.302   4.207  1.00 20.00    -0.010 A 
HETATM    3  C3  UNL     1     -32.392   6.786   1.727  1.00 20.00     0.219 C 
HETATM    4  C4  UNL     1     -33.407   7.893   3.706  1.00 20.00     0.153 A 
HETATM    5  C5  UNL     1     -34.330   5.766   3.011  1.00 20.00     0.153 A 
HETATM    6  N8  UNL     1     -33.328   6.797   2.748  1.00 20.00    -0.345 N 
HETATM    7  O9  UNL     1     -31.562   7.679   1.543  1.00 20.00    -0.273 OA
ENDROOT
BRANCH   3   8
HETATM    8  C7  UNL     1     -32.437   5.584   0.818  1.00 20.00     0.098 C 
HETATM    9  C6  UNL     1     -31.317   4.634   1.163  1.00 20.00     0.014 C 
ENDBRANCH   3   8
TORSDOF 1
ENDMDL
MODEL 5
REMARK VINA RESULT:      -0.4      1.821      3.460
REMARK  1 active torsions:
REMARK  status: ('A' for Active; 'I' for Inactive)
REMARK    1  A    between atoms: C3_3  and  C7_7 
REMARK       I    between atoms: C3_3  and  N8_8 
ROOT
HETATM    1  C1  UNL     1     -32.068   5.754   0.969  1.00 20.00    -0.010 A 
HETATM    2  C2  UNL     1     -31.668   7.016   1.150  1.00 20.00    -0.010 A 
HETATM    3  C3  UNL     1     -34.312   6.726   3.665  1.00 20.00     0.219 C 
HETATM    4  C4  UNL     1     -33.169   5.396   1.906  1.00 20.00     0.153 A 
HETATM    5  C5  UNL     1     -32.443   7.681   2.234  1.00 20.00     0.153 A 
HETATM    6  N8  UNL     1     -33.359   6.626   2.664  1.00 20.00    -0.345 N 
HETATM    7  O9  UNL     1     -35.063   5.807   3.996  1.00 20.00    -0.273 OA
ENDROOT
BRANCH   3   8
HETATM    8  C7  UNL     1     -34.387   8.063   4.357  1.00 20.00     0.098 C 
HETATM    9  C6  UNL     1     -33.233   8.213   5.317  1.00 20.00     0.014 C 
ENDBRANCH   3   8
TORSDOF 1
ENDMDL
MODEL 6
REMARK VINA RESULT:      -0.3      1.468      4.091
REMARK  1 active torsions:
REMARK  status: ('A' for Active; 'I' for Inactive)
REMARK    1  A    between atoms: C3_3  and  C7_7 
REMARK       I    between atoms: C3_3  and  N8_8 
ROOT
HETATM    1  C1  UNL     1     -32.019  10.031  -0.501  1.00 20.00    -0.010 A 
HETATM    2  C2  UNL     1     -32.678  10.758   0.407  1.00 20.00    -0.010 A 
HETATM    3  C3  UNL     1     -32.500   7.504   2.074  1.00 20.00     0.219 C 
HETATM    4  C4  UNL     1     -31.821   8.631  -0.033  1.00 20.00     0.153 A 
HETATM    5  C5  UNL     1     -33.015   9.947   1.611  1.00 20.00     0.153 A 
HETATM    6  N8  UNL     1     -32.458   8.637   1.278  1.00 20.00    -0.345 N 
HETATM    7  O9  UNL     1     -32.014   6.417   1.752  1.00 20.00    -0.273 OA
ENDROOT
BRANCH   3   8
HETATM    8  C7  UNL     1     -33.194   7.670   3.402  1.00 20.00     0.098 C 
HETATM    9  C6  UNL     1     -34.294   6.646   3.540  1.00 20.00     0.014 C 
ENDBRANCH   3   8
TORSDOF 1
ENDMDL
MODEL 7
REMARK VINA RESULT:      -0.2      1.531      2.072
REMARK  1 active torsions:
REMARK  status: ('A' for Active; 'I' for Inactive)
REMARK    1  A    between atoms: C3_3  and  C7_7 
REMARK       I    between atoms: C3_3  and  N8_8 
ROOT
HETATM    1  C1  UNL     1     -35.164   4.938   4.542  1.00 20.00    -0.010 A 
HETATM    2  C2  UNL     1     -34.206   4.191   3.986  1.00 20.00    -0.010 A 
HETATM    3  C3  UNL     1     -33.328   7.526   2.758  1.00 20.00     0.219 C 
HETATM    4  C4  UNL     1     -35.012   6.374   4.175  1.00 20.00     0.153 A 
HETATM    5  C5  UNL     1     -33.276   5.020   3.169  1.00 20.00     0.153 A 
HETATM    6  N8  UNL     1     -33.828   6.365   3.325  1.00 20.00    -0.345 N 
HETATM    7  O9  UNL     1     -33.827   8.641   2.919  1.00 20.00    -0.273 OA
ENDROOT
BRANCH   3   8
HETATM    8  C7  UNL     1     -32.099   7.352   1.903  1.00 20.00     0.098 C 
HETATM    9  C6  UNL     1     -31.902   8.568   1.030  1.00 20.00     0.014 C 
ENDBRANCH   3   8
TORSDOF 1
ENDMDL
MODEL 8
REMARK VINA RESULT:       0.1      1.509      1.910
REMARK  1 active torsions:
REMARK  status: ('A' for Active; 'I' for Inactive)
REMARK    1  A    between atoms: C3_3  and  C7_7 
REMARK       I    between atoms: C3_3  and  N8_8 
ROOT
HETATM    1  C1  UNL     1     -34.955   6.636   4.560  1.00 20.00    -0.010 A 
HETATM    2  C2  UNL     1     -35.012   5.946   3.417  1.00 20.00    -0.010 A 
HETATM    3  C3  UNL     1     -32.147   8.139   2.799  1.00 20.00     0.219 C 
HETATM    4  C4  UNL     1     -33.836   7.618   4.544  1.00 20.00     0.153 A 
HETATM    5  C5  UNL     1     -33.939   6.369   2.474  1.00 20.00     0.153 A 
HETATM    6  N8  UNL     1     -33.243   7.409   3.230  1.00 20.00    -0.345 N 
HETATM    7  O9  UNL     1     -31.589   9.007   3.473  1.00 20.00    -0.273 OA
ENDROOT
BRANCH   3   8
HETATM    8  C7  UNL     1     -31.649   7.806   1.416  1.00 20.00     0.098 C 
HETATM    9  C6  UNL     1     -31.968   8.937   0.468  1.00 20.00     0.014 C 
ENDBRANCH   3   8
TORSDOF 1
ENDMDL
MODEL 9
REMARK VINA RESULT:       0.1      1.306      3.763
REMARK  1 active torsions:
REMARK  status: ('A' for Active; 'I' for Inactive)
REMARK    1  A    between atoms: C3_3  and  C7_7 
REMARK       I    between atoms: C3_3  and  N8_8 
ROOT
HETATM    1  C1  UNL     1     -31.398   7.495   1.040  1.00 20.00    -0.010 A 
HETATM    2  C2  UNL     1     -32.091   8.541   1.501  1.00 20.00    -0.010 A 
HETATM    3  C3  UNL     1     -33.805   5.755   3.144  1.00 20.00     0.219 C 
HETATM    4  C4  UNL     1     -31.926   6.213   1.585  1.00 20.00     0.153 A 
HETATM    5  C5  UNL     1     -33.180   8.107   2.421  1.00 20.00     0.153 A 
HETATM    6  N8  UNL     1     -33.028   6.653   2.432  1.00 20.00    -0.345 N 
HETATM    7  O9  UNL     1     -33.639   4.533   3.125  1.00 20.00    -0.273 OA
ENDROOT
BRANCH   3   8
HETATM    8  C7  UNL     1     -34.906   6.365   3.974  1.00 20.00     0.098 C 
HETATM    9  C6  UNL     1     -35.621   5.288   4.753  1.00 20.00     0.014 C 
ENDBRANCH   3   8
TORSDOF 1
ENDMDL
