MODEL 1
REMARK VINA RESULT:      -1.8      0.000      0.000
REMARK  1 active torsions:
REMARK  status: ('A' for Active; 'I' for Inactive)
REMARK    1  A    between atoms: C2_2  and  C5_5 
ROOT
HETATM    1  C1  UNL     1     -32.174   8.276   0.874  1.00 20.00     0.153 A 
HETATM    2  C2  UNL     1     -32.608   7.315   1.965  1.00 20.00     0.096 A 
HETATM    3  C3  UNL     1     -32.470   9.734   0.902  1.00 20.00     0.042 C 
HETATM    4  C4  UNL     1     -32.713   5.859   1.635  1.00 20.00     0.050 C 
HETATM    5  O6  UNL     1     -31.268   7.829   1.891  1.00 20.00    -0.369 OA
ENDROOT
BRANCH   2   6
HETATM    6  C5  UNL     1     -33.376   7.785   3.159  1.00 20.00     0.154 C 
HETATM    7 CL7  UNL     1     -34.550   6.552   3.692  1.00 20.00    -0.127 Cl
ENDBRANCH   2   6
TORSDOF 1
ENDMDL
MODEL 2
REMARK VINA RESULT:      -1.0      2.296      2.953
REMARK  1 active torsions:
REMARK  status: ('A' for Active; 'I' for Inactive)
REMARK    1  A    between atoms: C2_2  and  C5_5 
ROOT
HETATM    1  C1  UNL     1     -33.647   6.392   2.911  1.00 20.00     0.153 A 
HETATM    2  C2  UNL     1     -32.517   6.648   1.930  1.00 20.00     0.096 A 
HETATM    3  C3  UNL     1     -34.078   7.377   3.938  1.00 20.00     0.042 C 
HETATM    4  C4  UNL     1     -31.840   5.474   1.296  1.00 20.00     0.050 C 
HETATM    5  O6  UNL     1     -33.898   6.790   1.556  1.00 20.00    -0.369 OA
ENDROOT
BRANCH   2   6
HETATM    6  C5  UNL     1     -31.753   7.934   1.938  1.00 20.00     0.154 C 
HETATM    7 CL7  UNL     1     -32.362   9.049   0.686  1.00 20.00    -0.127 Cl
ENDBRANCH   2   6
TORSDOF 1
ENDMDL
MODEL 3
REMARK VINA RESULT:      -0.9      2.189      3.298
REMARK  1 active torsions:
REMARK  status: ('A' for Active; 'I' for Inactive)
REMARK    1  A    between atoms: C2_2  and  C5_5 
ROOT
HETATM    1  C1  UNL     1     -34.245   7.462   3.508  1.00 20.00     0.153 A 
HETATM    2  C2  UNL     1     -33.109   7.016   2.606  1.00 20.00     0.096 A 
HETATM    3  C3  UNL     1     -35.317   6.549   3.986  1.00 20.00     0.042 C 
HETATM    4  C4  UNL     1     -32.391   8.050   1.795  1.00 20.00     0.050 C 
HETATM    5  O6  UNL     1     -32.938   7.173   4.024  1.00 20.00    -0.369 OA
ENDROOT
BRANCH   2   6
HETATM    6  C5  UNL     1     -32.997   5.602   2.131  1.00 20.00     0.154 C 
HETATM    7 CL7  UNL     1     -31.657   5.419   0.970  1.00 20.00    -0.127 Cl
ENDBRANCH   2   6
TORSDOF 1
ENDMDL
MODEL 4
REMARK VINA RESULT:      -0.8      1.970      2.817
REMARK  1 active torsions:
REMARK  status: ('A' for Active; 'I' for Inactive)
REMARK    1  A    between atoms: C2_2  and  C5_5 
ROOT
HETATM    1  C1  UNL     1     -32.755   6.928   2.664  1.00 20.00     0.153 A 
HETATM    2  C2  UNL     1     -33.833   7.270   3.676  1.00 20.00     0.096 A 
HETATM    3  C3  UNL     1     -32.908   5.869   1.631  1.00 20.00     0.042 C 
HETATM    4  C4  UNL     1     -33.433   7.961   4.941  1.00 20.00     0.050 C 
HETATM    5  O6  UNL     1     -33.619   8.060   2.494  1.00 20.00    -0.369 OA
ENDROOT
BRANCH   2   6
HETATM    6  C5  UNL     1     -35.142   6.547   3.696  1.00 20.00     0.154 C 
HETATM    7 CL7  UNL     1     -34.973   4.937   4.444  1.00 20.00    -0.127 Cl
ENDBRANCH   2   6
TORSDOF 1
ENDMDL
MODEL 5
REMARK VINA RESULT:      -0.6      2.479      3.062
REMARK  1 active torsions:
REMARK  status: ('A' for Active; 'I' for Inactive)
REMARK    1  A    between atoms: C2_2  and  C5_5 
ROOT
HETATM    1  C1  UNL     1     -33.662   5.458   2.148  1.00 20.00     0.153 A 
HETATM    2  C2  UNL     1     -33.996   6.378   3.308  1.00 20.00     0.096 A 
HETATM    3  C3  UNL     1     -32.516   5.686   1.226  1.00 20.00     0.042 C 
HETATM    4  C4  UNL     1     -35.391   6.366   3.852  1.00 20.00     0.050 C 
HETATM    5  O6  UNL     1     -33.291   5.140   3.497  1.00 20.00    -0.369 OA
ENDROOT
BRANCH   2   6
HETATM    6  C5  UNL     1     -33.178   7.596   3.600  1.00 20.00     0.154 C 
HETATM    7 CL7  UNL     1     -33.501   8.206   5.244  1.00 20.00    -0.127 Cl
ENDBRANCH   2   6
TORSDOF 1
ENDMDL
MODEL 6
REMARK VINA RESULT:      -0.6      2.901      3.488
REMARK  1 active torsions:
REMARK  status: ('A' for Active; 'I' for Inactive)
REMARK    1  A    between atoms: C2_2  and  C5_5 
ROOT
HETATM    1  C1  UNL     1     -34.237   6.888   4.431  1.00 20.00     0.153 A 
HETATM    2  C2  UNL     1     -34.044   5.887   3.306  1.00 20.00     0.096 A 
HETATM    3  C3  UNL     1     -33.870   8.325   4.320  1.00 20.00     0.042 C 
HETATM    4  C4  UNL     1     -33.967   4.432   3.649  1.00 20.00     0.050 C 
HETATM    5  O6  UNL     1     -35.323   6.480   3.586  1.00 20.00    -0.369 OA
ENDROOT
BRANCH   2   6
HETATM    6  C5  UNL     1     -33.458   6.294   1.991  1.00 20.00     0.154 C 
HETATM    7 CL7  UNL     1     -32.133   5.201   1.514  1.00 20.00    -0.127 Cl
ENDBRANCH   2   6
TORSDOF 1
ENDMDL
MODEL 7
REMARK VINA RESULT:      -0.4      1.324      1.598
REMARK  1 active torsions:
REMARK  status: ('A' for Active; 'I' for Inactive)
REMARK    1  A    between atoms: C2_2  and  C5_5 
ROOT
HETATM    1  C1  UNL     1     -32.292   7.390   1.569  1.00 20.00     0.153 A 
HETATM    2  C2  UNL     1     -32.983   6.058   1.797  1.00 20.00     0.096 A 
HETATM    3  C3  UNL     1     -32.023   8.369   2.656  1.00 20.00     0.042 C 
HETATM    4  C4  UNL     1     -33.641   5.385   0.633  1.00 20.00     0.050 C 
HETATM    5  O6  UNL     1     -31.555   6.163   1.672  1.00 20.00    -0.369 OA
ENDROOT
BRANCH   2   6
HETATM    6  C5  UNL     1     -33.446   5.641   3.157  1.00 20.00     0.154 C 
HETATM    7 CL7  UNL     1     -34.886   6.568   3.655  1.00 20.00    -0.127 Cl
ENDBRANCH   2   6
TORSDOF 1
ENDMDL
MODEL 8
REMARK VINA RESULT:      -0.3      2.028      2.805
REMARK  1 active torsions:
REMARK  status: ('A' for Active; 'I' for Inactive)
REMARK    1  A    between atoms: C2_2  and  C5_5 
ROOT
HETATM    1  C1  UNL     1     -32.476   6.501   1.877  1.00 20.00     0.153 A 
HETATM    2  C2  UNL     1     -33.536   6.427   2.960  1.00 20.00     0.096 A 
HETATM    3  C3  UNL     1     -31.825   5.302   1.285  1.00 20.00     0.042 C 
HETATM    4  C4  UNL     1     -33.764   7.630   3.822  1.00 20.00     0.050 C 
HETATM    5  O6  UNL     1     -33.872   6.635   1.578  1.00 20.00    -0.369 OA
ENDROOT
BRANCH   2   6
HETATM    6  C5  UNL     1     -34.001   5.116   3.509  1.00 20.00     0.154 C 
HETATM    7 CL7  UNL     1     -35.479   5.318   4.487  1.00 20.00    -0.127 Cl
ENDBRANCH   2   6
TORSDOF 1
ENDMDL
MODEL 9
REMARK VINA RESULT:      -0.2      2.071      2.661
REMARK  1 active torsions:
REMARK  status: ('A' for Active; 'I' for Inactive)
REMARK    1  A    between atoms: C2_2  and  C5_5 
ROOT
HETATM    1  C1  UNL     1     -33.079   7.469   2.400  1.00 20.00     0.153 A 
HETATM    2  C2  UNL     1     -33.743   6.267   3.047  1.00 20.00     0.096 A 
HETATM    3  C3  UNL     1     -31.674   7.465   1.913  1.00 20.00     0.042 C 
HETATM    4  C4  UNL     1     -34.931   6.494   3.927  1.00 20.00     0.050 C 
HETATM    5  O6  UNL     1     -33.969   6.613   1.670  1.00 20.00    -0.369 OA
ENDROOT
BRANCH   2   6
HETATM    6  C5  UNL     1     -33.008   4.978   3.238  1.00 20.00     0.154 C 
HETATM    7 CL7  UNL     1     -33.941   3.853   4.260  1.00 20.00    -0.127 Cl
ENDBRANCH   2   6
TORSDOF 1
ENDMDL
