MODEL 1
REMARK VINA RESULT:      -1.8      0.000      0.000
REMARK  2 active torsions:
REMARK  status: ('A' for Active; 'I' for Inactive)
REMARK    1  A    between atoms: C2_2  and  C4_4 
REMARK    2  A    between atoms: C3_3  and  C5_5 
ROOT
HETATM    1  C1  UNL     1     -32.406   6.303   1.448  1.00 20.00     0.133 A 
HETATM    2  C2  UNL     1     -32.277   7.656   1.685  1.00 20.00     0.016 A 
HETATM    3  C3  UNL     1     -33.933   6.513   3.007  1.00 20.00     0.181 A 
HETATM    4  N6  UNL     1     -33.355   5.646   2.205  1.00 20.00    -0.248 NA
HETATM    5  S10 UNL     1     -33.384   8.135   2.903  1.00 20.00    -0.068 SA
ENDROOT
BRANCH   3   6
HETATM    6  C5  UNL     1     -35.005   6.175   3.971  1.00 20.00     0.441 C 
HETATM    7  F7  UNL     1     -36.273   6.323   3.471  1.00 20.00    -0.164 F 
HETATM    8  F8  UNL     1     -34.960   4.883   4.425  1.00 20.00    -0.164 F 
HETATM    9  F9  UNL     1     -34.975   6.950   5.100  1.00 20.00    -0.164 F 
ENDBRANCH   3   6
BRANCH   2  10
HETATM   10  C4  UNL     1     -31.373   8.642   1.062  1.00 20.00     0.162 C 
HETATM   11 CL11 UNL     1     -32.288   9.856   0.130  1.00 20.00    -0.125 Cl
ENDBRANCH   2  10
TORSDOF 2
ENDMDL
MODEL 2
REMARK VINA RESULT:      -1.1      3.934      4.817
REMARK  2 active torsions:
REMARK  status: ('A' for Active; 'I' for Inactive)
REMARK    1  A    between atoms: C2_2  and  C4_4 
REMARK    2  A    between atoms: C3_3  and  C5_5 
ROOT
HETATM    1  C1  UNL     1     -34.532   7.017   4.210  1.00 20.00     0.133 A 
HETATM    2  C2  UNL     1     -34.252   5.718   3.839  1.00 20.00     0.016 A 
HETATM    3  C3  UNL     1     -32.972   7.427   2.725  1.00 20.00     0.181 A 
HETATM    4  N6  UNL     1     -33.799   7.998   3.572  1.00 20.00    -0.248 NA
HETATM    5  S10 UNL     1     -33.024   5.714   2.643  1.00 20.00    -0.068 SA
ENDROOT
BRANCH   3   6
HETATM    6  C5  UNL     1     -32.024   8.161   1.858  1.00 20.00     0.441 C 
HETATM    7  F7  UNL     1     -31.419   7.383   0.905  1.00 20.00    -0.164 F 
HETATM    8  F8  UNL     1     -32.594   9.190   1.153  1.00 20.00    -0.164 F 
HETATM    9  F9  UNL     1     -30.994   8.735   2.554  1.00 20.00    -0.164 F 
ENDBRANCH   3   6
BRANCH   2  10
HETATM   10  C4  UNL     1     -34.840   4.452   4.316  1.00 20.00     0.162 C 
HETATM   11 CL11 UNL     1     -33.578   3.225   4.607  1.00 20.00    -0.125 Cl
ENDBRANCH   2  10
TORSDOF 2
ENDMDL
MODEL 3
REMARK VINA RESULT:      -0.9      1.581      1.989
REMARK  2 active torsions:
REMARK  status: ('A' for Active; 'I' for Inactive)
REMARK    1  A    between atoms: C2_2  and  C4_4 
REMARK    2  A    between atoms: C3_3  and  C5_5 
ROOT
HETATM    1  C1  UNL     1     -33.300   8.030   3.108  1.00 20.00     0.133 A 
HETATM    2  C2  UNL     1     -32.574   7.563   2.032  1.00 20.00     0.016 A 
HETATM    3  C3  UNL     1     -33.664   5.884   3.371  1.00 20.00     0.181 A 
HETATM    4  N6  UNL     1     -33.926   7.069   3.877  1.00 20.00    -0.248 NA
HETATM    5  S10 UNL     1     -32.672   5.853   1.971  1.00 20.00    -0.068 SA
ENDROOT
BRANCH   3   6
HETATM    6  C5  UNL     1     -34.165   4.607   3.927  1.00 20.00     0.441 C 
HETATM    7  F7  UNL     1     -34.262   3.596   3.008  1.00 20.00    -0.164 F 
HETATM    8  F8  UNL     1     -33.384   4.091   4.929  1.00 20.00    -0.164 F 
HETATM    9  F9  UNL     1     -35.417   4.714   4.472  1.00 20.00    -0.164 F 
ENDBRANCH   3   6
BRANCH   2  10
HETATM   10  C4  UNL     1     -31.797   8.307   1.022  1.00 20.00     0.162 C 
HETATM   11 CL11 UNL     1     -32.611   9.831   0.577  1.00 20.00    -0.125 Cl
ENDBRANCH   2  10
TORSDOF 2
ENDMDL
MODEL 4
REMARK VINA RESULT:      -0.8      3.877      4.669
REMARK  2 active torsions:
REMARK  status: ('A' for Active; 'I' for Inactive)
REMARK    1  A    between atoms: C2_2  and  C4_4 
REMARK    2  A    between atoms: C3_3  and  C5_5 
ROOT
HETATM    1  C1  UNL     1     -33.126   5.140   2.005  1.00 20.00     0.133 A 
HETATM    2  C2  UNL     1     -33.732   5.536   3.179  1.00 20.00     0.016 A 
HETATM    3  C3  UNL     1     -32.584   7.264   1.955  1.00 20.00     0.181 A 
HETATM    4  N6  UNL     1     -32.468   6.129   1.302  1.00 20.00    -0.248 NA
HETATM    5  S10 UNL     1     -33.472   7.213   3.423  1.00 20.00    -0.068 SA
ENDROOT
BRANCH   3   6
HETATM    6  C5  UNL     1     -32.005   8.550   1.507  1.00 20.00     0.441 C 
HETATM    7  F7  UNL     1     -31.107   8.432   0.479  1.00 20.00    -0.164 F 
HETATM    8  F8  UNL     1     -32.934   9.452   1.054  1.00 20.00    -0.164 F 
HETATM    9  F9  UNL     1     -31.326   9.208   2.499  1.00 20.00    -0.164 F 
ENDBRANCH   3   6
BRANCH   2  10
HETATM   10  C4  UNL     1     -34.507   4.747   4.155  1.00 20.00     0.162 C 
HETATM   11 CL11 UNL     1     -33.643   3.254   4.608  1.00 20.00    -0.125 Cl
ENDBRANCH   2  10
TORSDOF 2
ENDMDL
MODEL 5
REMARK VINA RESULT:      -0.8      3.873      4.664
REMARK  2 active torsions:
REMARK  status: ('A' for Active; 'I' for Inactive)
REMARK    1  A    between atoms: C2_2  and  C4_4 
REMARK    2  A    between atoms: C3_3  and  C5_5 
ROOT
HETATM    1  C1  UNL     1     -33.110   5.186   2.019  1.00 20.00     0.133 A 
HETATM    2  C2  UNL     1     -33.737   5.599   3.176  1.00 20.00     0.016 A 
HETATM    3  C3  UNL     1     -32.589   7.314   1.934  1.00 20.00     0.181 A 
HETATM    4  N6  UNL     1     -32.452   6.168   1.306  1.00 20.00    -0.248 NA
HETATM    5  S10 UNL     1     -33.498   7.283   3.389  1.00 20.00    -0.068 SA
ENDROOT
BRANCH   3   6
HETATM    6  C5  UNL     1     -32.017   8.598   1.469  1.00 20.00     0.441 C 
HETATM    7  F7  UNL     1     -32.939   9.458   0.930  1.00 20.00    -0.164 F 
HETATM    8  F8  UNL     1     -31.401   9.324   2.455  1.00 20.00    -0.164 F 
HETATM    9  F9  UNL     1     -31.067   8.440   0.496  1.00 20.00    -0.164 F 
ENDBRANCH   3   6
BRANCH   2  10
HETATM   10  C4  UNL     1     -34.519   4.822   4.157  1.00 20.00     0.162 C 
HETATM   11 CL11 UNL     1     -33.674   3.316   4.605  1.00 20.00    -0.125 Cl
ENDBRANCH   2  10
TORSDOF 2
ENDMDL
MODEL 6
REMARK VINA RESULT:      -0.8      3.871      4.686
REMARK  2 active torsions:
REMARK  status: ('A' for Active; 'I' for Inactive)
REMARK    1  A    between atoms: C2_2  and  C4_4 
REMARK    2  A    between atoms: C3_3  and  C5_5 
ROOT
HETATM    1  C1  UNL     1     -33.117   5.154   2.025  1.00 20.00     0.133 A 
HETATM    2  C2  UNL     1     -33.742   5.556   3.187  1.00 20.00     0.016 A 
HETATM    3  C3  UNL     1     -32.588   7.281   1.966  1.00 20.00     0.181 A 
HETATM    4  N6  UNL     1     -32.455   6.142   1.323  1.00 20.00    -0.248 NA
HETATM    5  S10 UNL     1     -33.497   7.236   3.421  1.00 20.00    -0.068 SA
ENDROOT
BRANCH   3   6
HETATM    6  C5  UNL     1     -32.011   8.568   1.516  1.00 20.00     0.441 C 
HETATM    7  F7  UNL     1     -31.370   9.269   2.504  1.00 20.00    -0.164 F 
HETATM    8  F8  UNL     1     -31.078   8.442   0.520  1.00 20.00    -0.164 F 
HETATM    9  F9  UNL     1     -32.950   9.432   1.019  1.00 20.00    -0.164 F 
ENDBRANCH   3   6
BRANCH   2  10
HETATM   10  C4  UNL     1     -34.527   4.769   4.158  1.00 20.00     0.162 C 
HETATM   11 CL11 UNL     1     -33.649   3.297   4.653  1.00 20.00    -0.125 Cl
ENDBRANCH   2  10
TORSDOF 2
ENDMDL
MODEL 7
REMARK VINA RESULT:      -0.3      4.171      4.907
REMARK  2 active torsions:
REMARK  status: ('A' for Active; 'I' for Inactive)
REMARK    1  A    between atoms: C2_2  and  C4_4 
REMARK    2  A    between atoms: C3_3  and  C5_5 
ROOT
HETATM    1  C1  UNL     1     -33.442   7.427   3.615  1.00 20.00     0.133 A 
HETATM    2  C2  UNL     1     -33.409   6.213   2.962  1.00 20.00     0.016 A 
HETATM    3  C3  UNL     1     -32.678   8.115   1.678  1.00 20.00     0.181 A 
HETATM    4  N6  UNL     1     -33.023   8.519   2.881  1.00 20.00    -0.248 NA
HETATM    5  S10 UNL     1     -32.832   6.435   1.363  1.00 20.00    -0.068 SA
ENDROOT
BRANCH   3   6
HETATM    6  C5  UNL     1     -32.176   9.006   0.608  1.00 20.00     0.441 C 
HETATM    7  F7  UNL     1     -32.908   8.956  -0.550  1.00 20.00    -0.164 F 
HETATM    8  F8  UNL     1     -32.160  10.333   0.950  1.00 20.00    -0.164 F 
HETATM    9  F9  UNL     1     -30.891   8.719   0.230  1.00 20.00    -0.164 F 
ENDBRANCH   3   6
BRANCH   2  10
HETATM   10  C4  UNL     1     -33.780   4.869   3.446  1.00 20.00     0.162 C 
HETATM   11 CL11 UNL     1     -35.209   4.941   4.512  1.00 20.00    -0.125 Cl
ENDBRANCH   2  10
TORSDOF 2
ENDMDL
MODEL 8
REMARK VINA RESULT:      -0.3      1.236      1.906
REMARK  2 active torsions:
REMARK  status: ('A' for Active; 'I' for Inactive)
REMARK    1  A    between atoms: C2_2  and  C4_4 
REMARK    2  A    between atoms: C3_3  and  C5_5 
ROOT
HETATM    1  C1  UNL     1     -32.373   6.521   1.388  1.00 20.00     0.133 A 
HETATM    2  C2  UNL     1     -32.649   7.663   2.112  1.00 20.00     0.016 A 
HETATM    3  C3  UNL     1     -33.463   5.602   3.054  1.00 20.00     0.181 A 
HETATM    4  N6  UNL     1     -32.838   5.338   1.927  1.00 20.00    -0.248 NA
HETATM    5  S10 UNL     1     -33.528   7.250   3.525  1.00 20.00    -0.068 SA
ENDROOT
BRANCH   3   6
HETATM    6  C5  UNL     1     -34.097   4.580   3.917  1.00 20.00     0.441 C 
HETATM    7  F7  UNL     1     -33.390   4.291   5.055  1.00 20.00    -0.164 F 
HETATM    8  F8  UNL     1     -35.346   4.926   4.365  1.00 20.00    -0.164 F 
HETATM    9  F9  UNL     1     -34.266   3.376   3.288  1.00 20.00    -0.164 F 
ENDBRANCH   3   6
BRANCH   2  10
HETATM   10  C4  UNL     1     -32.302   9.069   1.827  1.00 20.00     0.162 C 
HETATM   11 CL11 UNL     1     -32.312   9.392   0.073  1.00 20.00    -0.125 Cl
ENDBRANCH   2  10
TORSDOF 2
ENDMDL
MODEL 9
REMARK VINA RESULT:       0.1      3.891      4.699
REMARK  2 active torsions:
REMARK  status: ('A' for Active; 'I' for Inactive)
REMARK    1  A    between atoms: C2_2  and  C4_4 
REMARK    2  A    between atoms: C3_3  and  C5_5 
ROOT
HETATM    1  C1  UNL     1     -32.636   5.766   1.840  1.00 20.00     0.133 A 
HETATM    2  C2  UNL     1     -33.319   6.301   2.912  1.00 20.00     0.016 A 
HETATM    3  C3  UNL     1     -32.422   7.891   1.341  1.00 20.00     0.181 A 
HETATM    4  N6  UNL     1     -32.121   6.676   0.938  1.00 20.00    -0.248 NA
HETATM    5  S10 UNL     1     -33.322   8.011   2.797  1.00 20.00    -0.068 SA
ENDROOT
BRANCH   3   6
HETATM    6  C5  UNL     1     -32.036   9.129   0.628  1.00 20.00     0.441 C 
HETATM    7  F7  UNL     1     -30.765   9.106   0.116  1.00 20.00    -0.164 F 
HETATM    8  F8  UNL     1     -32.836   9.426  -0.445  1.00 20.00    -0.164 F 
HETATM    9  F9  UNL     1     -32.080  10.242   1.424  1.00 20.00    -0.164 F 
ENDBRANCH   3   6
BRANCH   2  10
HETATM   10  C4  UNL     1     -33.986   5.623   4.041  1.00 20.00     0.162 C 
HETATM   11 CL11 UNL     1     -35.727   6.008   4.086  1.00 20.00    -0.125 Cl
ENDBRANCH   2  10
TORSDOF 2
ENDMDL
