MODEL 1
REMARK VINA RESULT:       1.0      0.000      0.000
REMARK  0 active torsions:
REMARK  status: ('A' for Active; 'I' for Inactive)
ROOT
HETATM    1  C1  UNL     1     -32.354   6.105   1.661  1.00 20.00     0.282 C 
HETATM    2  C2  UNL     1     -33.197   7.490   3.471  1.00 20.00     0.286 C 
HETATM    3  C3  UNL     1     -33.325   4.950   1.888  1.00 20.00     0.104 C 
HETATM    4  C4  UNL     1     -34.283   6.517   3.953  1.00 20.00     0.071 C 
HETATM    5  C5  UNL     1     -35.653   6.808   3.344  1.00 20.00     0.023 C 
HETATM    6  C6  UNL     1     -32.014   8.485   1.628  1.00 20.00     0.310 C 
HETATM    7  N7  UNL     1     -32.925   7.410   2.028  1.00 20.00     0.086 N 
HETATM    8  S8  UNL     1     -33.791   4.787   3.634  1.00 20.00    -0.161 SA
ENDROOT
TORSDOF 0
ENDMDL
MODEL 2
REMARK VINA RESULT:       1.1      1.356      2.403
REMARK  0 active torsions:
REMARK  status: ('A' for Active; 'I' for Inactive)
ROOT
HETATM    1  C1  UNL     1     -33.343   8.088   3.248  1.00 20.00     0.282 C 
HETATM    2  C2  UNL     1     -33.361   6.028   1.959  1.00 20.00     0.286 C 
HETATM    3  C3  UNL     1     -34.099   7.523   4.448  1.00 20.00     0.104 C 
HETATM    4  C4  UNL     1     -34.130   5.180   2.981  1.00 20.00     0.071 C 
HETATM    5  C5  UNL     1     -33.209   4.376   3.898  1.00 20.00     0.023 C 
HETATM    6  C6  UNL     1     -31.696   7.714   1.536  1.00 20.00     0.310 C 
HETATM    7  N7  UNL     1     -32.524   7.076   2.564  1.00 20.00     0.086 N 
HETATM    8  S8  UNL     1     -35.266   6.221   3.962  1.00 20.00    -0.161 SA
ENDROOT
TORSDOF 0
ENDMDL
MODEL 3
REMARK VINA RESULT:       1.2      1.845      3.416
REMARK  0 active torsions:
REMARK  status: ('A' for Active; 'I' for Inactive)
ROOT
HETATM    1  C1  UNL     1     -33.880   7.522   3.759  1.00 20.00     0.282 C 
HETATM    2  C2  UNL     1     -33.370   5.302   2.911  1.00 20.00     0.286 C 
HETATM    3  C3  UNL     1     -33.210   8.279   2.617  1.00 20.00     0.104 C 
HETATM    4  C4  UNL     1     -32.619   5.758   1.652  1.00 20.00     0.071 C 
HETATM    5  C5  UNL     1     -33.515   5.818   0.416  1.00 20.00     0.023 C 
HETATM    6  C6  UNL     1     -35.207   5.632   4.429  1.00 20.00     0.310 C 
HETATM    7  N7  UNL     1     -34.432   6.226   3.337  1.00 20.00     0.086 N 
HETATM    8  S8  UNL     1     -31.799   7.366   1.932  1.00 20.00    -0.161 SA
ENDROOT
TORSDOF 0
ENDMDL
MODEL 4
REMARK VINA RESULT:       1.2      1.685      3.139
REMARK  0 active torsions:
REMARK  status: ('A' for Active; 'I' for Inactive)
ROOT
HETATM    1  C1  UNL     1     -33.592   5.849   2.766  1.00 20.00     0.282 C 
HETATM    2  C2  UNL     1     -31.680   6.799   1.605  1.00 20.00     0.286 C 
HETATM    3  C3  UNL     1     -34.046   7.156   3.408  1.00 20.00     0.104 C 
HETATM    4  C4  UNL     1     -31.868   8.241   2.097  1.00 20.00     0.071 C 
HETATM    5  C5  UNL     1     -32.656   9.105   1.113  1.00 20.00     0.023 C 
HETATM    6  C6  UNL     1     -32.683   4.755   0.827  1.00 20.00     0.310 C 
HETATM    7  N7  UNL     1     -32.938   6.050   1.465  1.00 20.00     0.086 N 
HETATM    8  S8  UNL     1     -32.651   8.267   3.747  1.00 20.00    -0.161 SA
ENDROOT
TORSDOF 0
ENDMDL
MODEL 5
REMARK VINA RESULT:       1.5      1.942      2.991
REMARK  0 active torsions:
REMARK  status: ('A' for Active; 'I' for Inactive)
ROOT
HETATM    1  C1  UNL     1     -32.909   5.446   2.162  1.00 20.00     0.282 C 
HETATM    2  C2  UNL     1     -34.461   6.528   3.688  1.00 20.00     0.286 C 
HETATM    3  C3  UNL     1     -32.069   6.691   1.891  1.00 20.00     0.104 C 
HETATM    4  C4  UNL     1     -33.836   7.928   3.618  1.00 20.00     0.071 C 
HETATM    5  C5  UNL     1     -32.839   8.190   4.746  1.00 20.00     0.023 C 
HETATM    6  C6  UNL     1     -34.138   4.145   3.768  1.00 20.00     0.310 C 
HETATM    7  N7  UNL     1     -33.492   5.435   3.512  1.00 20.00     0.086 N 
HETATM    8  S8  UNL     1     -33.056   8.211   1.991  1.00 20.00    -0.161 SA
ENDROOT
TORSDOF 0
ENDMDL
MODEL 6
REMARK VINA RESULT:       1.8      2.284      3.704
REMARK  0 active torsions:
REMARK  status: ('A' for Active; 'I' for Inactive)
ROOT
HETATM    1  C1  UNL     1     -34.856   4.904   4.610  1.00 20.00     0.282 C 
HETATM    2  C2  UNL     1     -32.707   4.929   3.475  1.00 20.00     0.286 C 
HETATM    3  C3  UNL     1     -35.430   6.113   3.876  1.00 20.00     0.104 C 
HETATM    4  C4  UNL     1     -32.985   6.150   2.588  1.00 20.00     0.071 C 
HETATM    5  C5  UNL     1     -33.501   5.771   1.201  1.00 20.00     0.023 C 
HETATM    6  C6  UNL     1     -33.527   2.904   4.484  1.00 20.00     0.310 C 
HETATM    7  N7  UNL     1     -33.907   4.137   3.790  1.00 20.00     0.086 N 
HETATM    8  S8  UNL     1     -34.139   7.301   3.412  1.00 20.00    -0.161 SA
ENDROOT
TORSDOF 0
ENDMDL
MODEL 7
REMARK VINA RESULT:       2.0      1.902      3.076
REMARK  0 active torsions:
REMARK  status: ('A' for Active; 'I' for Inactive)
ROOT
HETATM    1  C1  UNL     1     -33.555   5.570   2.356  1.00 20.00     0.282 C 
HETATM    2  C2  UNL     1     -34.053   7.825   3.110  1.00 20.00     0.286 C 
HETATM    3  C3  UNL     1     -32.165   5.893   1.815  1.00 20.00     0.104 C 
HETATM    4  C4  UNL     1     -32.729   8.462   2.664  1.00 20.00     0.071 C 
HETATM    5  C5  UNL     1     -31.690   8.519   3.783  1.00 20.00     0.023 C 
HETATM    6  C6  UNL     1     -35.193   5.940   4.077  1.00 20.00     0.310 C 
HETATM    7  N7  UNL     1     -33.931   6.412   3.501  1.00 20.00     0.086 N 
HETATM    8  S8  UNL     1     -32.054   7.598   1.203  1.00 20.00    -0.161 SA
ENDROOT
TORSDOF 0
ENDMDL
MODEL 8
REMARK VINA RESULT:       2.4      1.424      2.688
REMARK  0 active torsions:
REMARK  status: ('A' for Active; 'I' for Inactive)
ROOT
HETATM    1  C1  UNL     1     -32.913   8.529   2.784  1.00 20.00     0.282 C 
HETATM    2  C2  UNL     1     -32.962   7.114   0.809  1.00 20.00     0.286 C 
HETATM    3  C3  UNL     1     -32.992   7.386   3.793  1.00 20.00     0.104 C 
HETATM    4  C4  UNL     1     -33.057   5.772   1.550  1.00 20.00     0.071 C 
HETATM    5  C5  UNL     1     -31.695   5.112   1.758  1.00 20.00     0.023 C 
HETATM    6  C6  UNL     1     -32.026   9.327   0.696  1.00 20.00     0.310 C 
HETATM    7  N7  UNL     1     -32.219   8.148   1.545  1.00 20.00     0.086 N 
HETATM    8  S8  UNL     1     -33.926   5.972   3.144  1.00 20.00    -0.161 SA
ENDROOT
TORSDOF 0
ENDMDL
MODEL 9
REMARK VINA RESULT:       2.9      1.749      3.014
REMARK  0 active torsions:
REMARK  status: ('A' for Active; 'I' for Inactive)
ROOT
HETATM    1  C1  UNL     1     -33.770   4.946   3.166  1.00 20.00     0.282 C 
HETATM    2  C2  UNL     1     -34.098   7.237   2.425  1.00 20.00     0.286 C 
HETATM    3  C3  UNL     1     -32.383   4.783   2.550  1.00 20.00     0.104 C 
HETATM    4  C4  UNL     1     -32.754   7.386   1.698  1.00 20.00     0.071 C 
HETATM    5  C5  UNL     1     -31.673   8.022   2.572  1.00 20.00     0.023 C 
HETATM    6  C6  UNL     1     -35.318   6.384   4.315  1.00 20.00     0.310 C 
HETATM    7  N7  UNL     1     -34.051   6.328   3.581  1.00 20.00     0.086 N 
HETATM    8  S8  UNL     1     -32.188   5.777   1.044  1.00 20.00    -0.161 SA
ENDROOT
TORSDOF 0
ENDMDL
