MODEL 1
REMARK VINA RESULT:       0.4      0.000      0.000
REMARK  0 active torsions:
REMARK  status: ('A' for Active; 'I' for Inactive)
ROOT
HETATM    1  C1  UNL     1     -31.770   6.543   1.377  1.00 20.00     0.282 C 
HETATM    2  C2  UNL     1     -32.203   8.155   3.154  1.00 20.00     0.286 C 
HETATM    3  C3  UNL     1     -33.132   5.856   1.458  1.00 20.00     0.104 C 
HETATM    4  C4  UNL     1     -33.630   7.676   3.466  1.00 20.00     0.071 C 
HETATM    5  C5  UNL     1     -33.984   7.946   4.926  1.00 20.00     0.023 C 
HETATM    6  C6  UNL     1     -32.434   8.820   0.819  1.00 20.00     0.310 C 
HETATM    7  N7  UNL     1     -31.747   7.955   1.772  1.00 20.00     0.086 N 
HETATM    8  S8  UNL     1     -33.797   5.886   3.146  1.00 20.00    -0.161 SA
ENDROOT
TORSDOF 0
ENDMDL
MODEL 2
REMARK VINA RESULT:       0.7      1.714      3.107
REMARK  0 active torsions:
REMARK  status: ('A' for Active; 'I' for Inactive)
ROOT
HETATM    1  C1  UNL     1     -34.609   6.355   3.686  1.00 20.00     0.282 C 
HETATM    2  C2  UNL     1     -33.535   8.328   2.741  1.00 20.00     0.286 C 
HETATM    3  C3  UNL     1     -33.533   5.366   3.243  1.00 20.00     0.104 C 
HETATM    4  C4  UNL     1     -32.311   7.592   2.173  1.00 20.00     0.071 C 
HETATM    5  C5  UNL     1     -31.764   8.320   0.947  1.00 20.00     0.023 C 
HETATM    6  C6  UNL     1     -33.311   7.839   5.119  1.00 20.00     0.310 C 
HETATM    7  N7  UNL     1     -34.150   7.726   3.930  1.00 20.00     0.086 N 
HETATM    8  S8  UNL     1     -32.747   5.886   1.692  1.00 20.00    -0.161 SA
ENDROOT
TORSDOF 0
ENDMDL
MODEL 3
REMARK VINA RESULT:       0.8      1.624      2.485
REMARK  0 active torsions:
REMARK  status: ('A' for Active; 'I' for Inactive)
ROOT
HETATM    1  C1  UNL     1     -32.186   7.800   1.616  1.00 20.00     0.282 C 
HETATM    2  C2  UNL     1     -33.944   6.163   2.025  1.00 20.00     0.286 C 
HETATM    3  C3  UNL     1     -31.994   8.191   3.080  1.00 20.00     0.104 C 
HETATM    4  C4  UNL     1     -33.980   6.340   3.552  1.00 20.00     0.071 C 
HETATM    5  C5  UNL     1     -35.370   6.026   4.100  1.00 20.00     0.023 C 
HETATM    6  C6  UNL     1     -31.643   5.426   1.696  1.00 20.00     0.310 C 
HETATM    7  N7  UNL     1     -32.653   6.431   1.379  1.00 20.00     0.086 N 
HETATM    8  S8  UNL     1     -33.542   8.050   4.017  1.00 20.00    -0.161 SA
ENDROOT
TORSDOF 0
ENDMDL
MODEL 4
REMARK VINA RESULT:       0.9      2.027      3.670
REMARK  0 active torsions:
REMARK  status: ('A' for Active; 'I' for Inactive)
ROOT
HETATM    1  C1  UNL     1     -33.635   7.605   4.263  1.00 20.00     0.282 C 
HETATM    2  C2  UNL     1     -33.462   5.471   3.099  1.00 20.00     0.286 C 
HETATM    3  C3  UNL     1     -33.246   8.467   3.064  1.00 20.00     0.104 C 
HETATM    4  C4  UNL     1     -33.049   6.059   1.740  1.00 20.00     0.071 C 
HETATM    5  C5  UNL     1     -32.195   5.064   0.957  1.00 20.00     0.023 C 
HETATM    6  C6  UNL     1     -35.643   6.514   3.416  1.00 20.00     0.310 C 
HETATM    7  N7  UNL     1     -34.294   6.335   3.945  1.00 20.00     0.086 N 
HETATM    8  S8  UNL     1     -32.095   7.599   1.962  1.00 20.00    -0.161 SA
ENDROOT
TORSDOF 0
ENDMDL
MODEL 5
REMARK VINA RESULT:       1.8      2.024      3.465
REMARK  0 active torsions:
REMARK  status: ('A' for Active; 'I' for Inactive)
ROOT
HETATM    1  C1  UNL     1     -35.289   6.263   4.123  1.00 20.00     0.282 C 
HETATM    2  C2  UNL     1     -33.674   6.964   2.437  1.00 20.00     0.286 C 
HETATM    3  C3  UNL     1     -34.608   4.935   4.446  1.00 20.00     0.104 C 
HETATM    4  C4  UNL     1     -32.776   5.721   2.544  1.00 20.00     0.071 C 
HETATM    5  C5  UNL     1     -32.072   5.448   1.217  1.00 20.00     0.023 C 
HETATM    6  C6  UNL     1     -33.527   7.841   4.708  1.00 20.00     0.310 C 
HETATM    7  N7  UNL     1     -34.403   7.335   3.657  1.00 20.00     0.086 N 
HETATM    8  S8  UNL     1     -33.758   4.250   2.997  1.00 20.00    -0.161 SA
ENDROOT
TORSDOF 0
ENDMDL
MODEL 6
REMARK VINA RESULT:       1.8      1.983      2.828
REMARK  0 active torsions:
REMARK  status: ('A' for Active; 'I' for Inactive)
ROOT
HETATM    1  C1  UNL     1     -33.318   5.512   1.545  1.00 20.00     0.282 C 
HETATM    2  C2  UNL     1     -34.384   6.430   3.537  1.00 20.00     0.286 C 
HETATM    3  C3  UNL     1     -32.021   6.306   1.685  1.00 20.00     0.104 C 
HETATM    4  C4  UNL     1     -33.217   7.347   3.938  1.00 20.00     0.071 C 
HETATM    5  C5  UNL     1     -33.727   8.567   4.701  1.00 20.00     0.023 C 
HETATM    6  C6  UNL     1     -33.308   4.243   3.625  1.00 20.00     0.310 C 
HETATM    7  N7  UNL     1     -34.018   5.214   2.799  1.00 20.00     0.086 N 
HETATM    8  S8  UNL     1     -32.306   7.920   2.464  1.00 20.00    -0.161 SA
ENDROOT
TORSDOF 0
ENDMDL
MODEL 7
REMARK VINA RESULT:       1.9      1.775      2.827
REMARK  0 active torsions:
REMARK  status: ('A' for Active; 'I' for Inactive)
ROOT
HETATM    1  C1  UNL     1     -33.425   5.102   2.963  1.00 20.00     0.282 C 
HETATM    2  C2  UNL     1     -31.921   6.493   1.642  1.00 20.00     0.286 C 
HETATM    3  C3  UNL     1     -34.338   6.242   3.408  1.00 20.00     0.104 C 
HETATM    4  C4  UNL     1     -32.645   7.821   1.915  1.00 20.00     0.071 C 
HETATM    5  C5  UNL     1     -31.667   8.992   1.852  1.00 20.00     0.023 C 
HETATM    6  C6  UNL     1     -33.686   5.219   0.543  1.00 20.00     0.310 C 
HETATM    7  N7  UNL     1     -32.761   5.289   1.669  1.00 20.00     0.086 N 
HETATM    8  S8  UNL     1     -33.429   7.805   3.564  1.00 20.00    -0.161 SA
ENDROOT
TORSDOF 0
ENDMDL
MODEL 8
REMARK VINA RESULT:       2.6      1.072      2.896
REMARK  0 active torsions:
REMARK  status: ('A' for Active; 'I' for Inactive)
ROOT
HETATM    1  C1  UNL     1     -33.702   8.275   3.051  1.00 20.00     0.282 C 
HETATM    2  C2  UNL     1     -32.287   7.288   1.329  1.00 20.00     0.286 C 
HETATM    3  C3  UNL     1     -33.896   6.986   3.848  1.00 20.00     0.104 C 
HETATM    4  C4  UNL     1     -32.295   5.864   1.906  1.00 20.00     0.071 C 
HETATM    5  C5  UNL     1     -32.117   4.830   0.797  1.00 20.00     0.023 C 
HETATM    6  C6  UNL     1     -31.282   8.532   3.169  1.00 20.00     0.310 C 
HETATM    7  N7  UNL     1     -32.445   8.376   2.303  1.00 20.00     0.086 N 
HETATM    8  S8  UNL     1     -33.866   5.525   2.773  1.00 20.00    -0.161 SA
ENDROOT
TORSDOF 0
ENDMDL
MODEL 9
REMARK VINA RESULT:       2.7      1.634      2.688
REMARK  0 active torsions:
REMARK  status: ('A' for Active; 'I' for Inactive)
ROOT
HETATM    1  C1  UNL     1     -33.598   7.997   2.096  1.00 20.00     0.282 C 
HETATM    2  C2  UNL     1     -33.187   5.597   1.970  1.00 20.00     0.286 C 
HETATM    3  C3  UNL     1     -33.844   8.032   3.603  1.00 20.00     0.104 C 
HETATM    4  C4  UNL     1     -33.379   5.319   3.470  1.00 20.00     0.071 C 
HETATM    5  C5  UNL     1     -33.881   3.895   3.696  1.00 20.00     0.023 C 
HETATM    6  C6  UNL     1     -31.312   7.155   2.021  1.00 20.00     0.310 C 
HETATM    7  N7  UNL     1     -32.699   6.938   1.624  1.00 20.00     0.086 N 
HETATM    8  S8  UNL     1     -34.583   6.484   4.196  1.00 20.00    -0.161 SA
ENDROOT
TORSDOF 0
ENDMDL
