MODEL 1
REMARK VINA RESULT:      -2.2      0.000      0.000
REMARK  3 active torsions:
REMARK  status: ('A' for Active; 'I' for Inactive)
REMARK    1  A    between atoms: C1_1  and  C4_4 
REMARK    2  A    between atoms: C2_2  and  C5_5 
REMARK    3  A    between atoms: C2_2  and  O9_9 
ROOT
HETATM    1  C3  UNL     1     -35.424   6.506   3.503  1.00 20.00     0.028 A 
HETATM    2  C4  UNL     1     -34.473   5.663   4.306  1.00 20.00     0.061 A 
HETATM    3  C5  UNL     1     -33.989   6.932   3.647  1.00 20.00     0.097 A 
ENDROOT
BRANCH   3   4
HETATM    4  C2  UNL     1     -33.103   6.881   2.478  1.00 20.00     0.263 C 
HETATM    5  O8  UNL     1     -33.126   5.991   1.639  1.00 20.00    -0.265 OA
BRANCH   4   6
HETATM    6  O9  UNL     1     -32.274   7.964   2.486  1.00 20.00    -0.326 OA
HETATM    7  C6  UNL     1     -32.092   8.609   1.221  1.00 20.00     0.213 C 
ENDBRANCH   4   6
ENDBRANCH   3   4
BRANCH   2   8
HETATM    8  C1  UNL     1     -34.069   4.349   3.793  1.00 20.00     0.236 C 
HETATM    9  O7  UNL     1     -33.870   3.374   4.509  1.00 20.00    -0.306 OA
ENDBRANCH   2   8
TORSDOF 3
ENDMDL
MODEL 2
REMARK VINA RESULT:      -2.0      1.885      2.698
REMARK  3 active torsions:
REMARK  status: ('A' for Active; 'I' for Inactive)
REMARK    1  A    between atoms: C1_1  and  C4_4 
REMARK    2  A    between atoms: C2_2  and  C5_5 
REMARK    3  A    between atoms: C2_2  and  O9_9 
ROOT
HETATM    1  C3  UNL     1     -32.076   5.671   1.729  1.00 20.00     0.028 A 
HETATM    2  C4  UNL     1     -33.489   6.100   2.012  1.00 20.00     0.061 A 
HETATM    3  C5  UNL     1     -32.575   6.989   1.204  1.00 20.00     0.097 A 
ENDROOT
BRANCH   3   4
HETATM    4  C2  UNL     1     -32.045   8.235   1.769  1.00 20.00     0.263 C 
HETATM    5  O8  UNL     1     -31.129   8.286   2.578  1.00 20.00    -0.265 OA
BRANCH   4   6
HETATM    6  O9  UNL     1     -32.729   9.297   1.254  1.00 20.00    -0.326 OA
HETATM    7  C6  UNL     1     -32.330   9.708  -0.057  1.00 20.00     0.213 C 
ENDBRANCH   4   6
ENDBRANCH   3   4
BRANCH   2   8
HETATM    8  C1  UNL     1     -33.868   6.462   3.383  1.00 20.00     0.236 C 
HETATM    9  O7  UNL     1     -35.026   6.465   3.786  1.00 20.00    -0.306 OA
ENDBRANCH   2   8
TORSDOF 3
ENDMDL
MODEL 3
REMARK VINA RESULT:      -1.9      1.911      4.251
REMARK  3 active torsions:
REMARK  status: ('A' for Active; 'I' for Inactive)
REMARK    1  A    between atoms: C1_1  and  C4_4 
REMARK    2  A    between atoms: C2_2  and  C5_5 
REMARK    3  A    between atoms: C2_2  and  O9_9 
ROOT
HETATM    1  C3  UNL     1     -33.143   6.279   1.416  1.00 20.00     0.028 A 
HETATM    2  C4  UNL     1     -32.106   7.306   1.780  1.00 20.00     0.061 A 
HETATM    3  C5  UNL     1     -32.831   6.545   2.863  1.00 20.00     0.097 A 
ENDROOT
BRANCH   3   4
HETATM    4  C2  UNL     1     -33.834   7.209   3.705  1.00 20.00     0.263 C 
HETATM    5  O8  UNL     1     -33.585   8.126   4.475  1.00 20.00    -0.265 OA
BRANCH   4   6
HETATM    6  O9  UNL     1     -35.057   6.645   3.487  1.00 20.00    -0.326 OA
HETATM    7  C6  UNL     1     -35.372   5.520   4.314  1.00 20.00     0.213 C 
ENDBRANCH   4   6
ENDBRANCH   3   4
BRANCH   2   8
HETATM    8  C1  UNL     1     -32.388   8.726   1.542  1.00 20.00     0.236 C 
HETATM    9  O7  UNL     1     -32.250   9.271   0.452  1.00 20.00    -0.306 OA
ENDBRANCH   2   8
TORSDOF 3
ENDMDL
MODEL 4
REMARK VINA RESULT:      -1.7      1.159      3.787
REMARK  3 active torsions:
REMARK  status: ('A' for Active; 'I' for Inactive)
REMARK    1  A    between atoms: C1_1  and  C4_4 
REMARK    2  A    between atoms: C2_2  and  C5_5 
REMARK    3  A    between atoms: C2_2  and  O9_9 
ROOT
HETATM    1  C3  UNL     1     -33.887   7.560   4.650  1.00 20.00     0.028 A 
HETATM    2  C4  UNL     1     -33.691   7.963   3.215  1.00 20.00     0.061 A 
HETATM    3  C5  UNL     1     -34.484   6.724   3.552  1.00 20.00     0.097 A 
ENDROOT
BRANCH   3   4
HETATM    4  C2  UNL     1     -33.938   5.387   3.288  1.00 20.00     0.263 C 
HETATM    5  O8  UNL     1     -33.225   5.114   2.331  1.00 20.00    -0.265 OA
BRANCH   4   6
HETATM    6  O9  UNL     1     -34.348   4.526   4.262  1.00 20.00    -0.326 OA
HETATM    7  C6  UNL     1     -33.539   3.358   4.432  1.00 20.00     0.213 C 
ENDBRANCH   4   6
ENDBRANCH   3   4
BRANCH   2   8
HETATM    8  C1  UNL     1     -32.355   7.860   2.616  1.00 20.00     0.236 C 
HETATM    9  O7  UNL     1     -32.088   8.256   1.487  1.00 20.00    -0.306 OA
ENDBRANCH   2   8
TORSDOF 3
ENDMDL
MODEL 5
REMARK VINA RESULT:      -1.7      1.549      4.117
REMARK  3 active torsions:
REMARK  status: ('A' for Active; 'I' for Inactive)
REMARK    1  A    between atoms: C1_1  and  C4_4 
REMARK    2  A    between atoms: C2_2  and  C5_5 
REMARK    3  A    between atoms: C2_2  and  O9_9 
ROOT
HETATM    1  C3  UNL     1     -33.220   5.965   0.990  1.00 20.00     0.028 A 
HETATM    2  C4  UNL     1     -32.038   6.585   1.682  1.00 20.00     0.061 A 
HETATM    3  C5  UNL     1     -33.005   5.725   2.459  1.00 20.00     0.097 A 
ENDROOT
BRANCH   3   4
HETATM    4  C2  UNL     1     -33.931   6.323   3.429  1.00 20.00     0.263 C 
HETATM    5  O8  UNL     1     -33.985   7.520   3.676  1.00 20.00    -0.265 OA
BRANCH   4   6
HETATM    6  O9  UNL     1     -34.697   5.345   3.990  1.00 20.00    -0.326 OA
HETATM    7  C6  UNL     1     -34.050   4.080   4.166  1.00 20.00     0.213 C 
ENDBRANCH   4   6
ENDBRANCH   3   4
BRANCH   2   8
HETATM    8  C1  UNL     1     -32.001   8.039   1.878  1.00 20.00     0.236 C 
HETATM    9  O7  UNL     1     -32.260   8.848   0.994  1.00 20.00    -0.306 OA
ENDBRANCH   2   8
TORSDOF 3
ENDMDL
MODEL 6
REMARK VINA RESULT:      -1.3      1.904      3.523
REMARK  3 active torsions:
REMARK  status: ('A' for Active; 'I' for Inactive)
REMARK    1  A    between atoms: C1_1  and  C4_4 
REMARK    2  A    between atoms: C2_2  and  C5_5 
REMARK    3  A    between atoms: C2_2  and  O9_9 
ROOT
HETATM    1  C3  UNL     1     -31.770   8.086   2.221  1.00 20.00     0.028 A 
HETATM    2  C4  UNL     1     -32.599   7.067   1.491  1.00 20.00     0.061 A 
HETATM    3  C5  UNL     1     -33.254   8.024   2.457  1.00 20.00     0.097 A 
ENDROOT
BRANCH   3   4
HETATM    4  C2  UNL     1     -33.756   7.555   3.755  1.00 20.00     0.263 C 
HETATM    5  O8  UNL     1     -33.147   7.675   4.809  1.00 20.00    -0.265 OA
BRANCH   4   6
HETATM    6  O9  UNL     1     -34.982   6.981   3.589  1.00 20.00    -0.326 OA
HETATM    7  C6  UNL     1     -35.161   5.716   4.234  1.00 20.00     0.213 C 
ENDBRANCH   4   6
ENDBRANCH   3   4
BRANCH   2   8
HETATM    8  C1  UNL     1     -32.450   5.646   1.826  1.00 20.00     0.236 C 
HETATM    9  O7  UNL     1     -31.839   4.846   1.126  1.00 20.00    -0.306 OA
ENDBRANCH   2   8
TORSDOF 3
ENDMDL
MODEL 7
REMARK VINA RESULT:      -1.3      1.037      1.278
REMARK  3 active torsions:
REMARK  status: ('A' for Active; 'I' for Inactive)
REMARK    1  A    between atoms: C1_1  and  C4_4 
REMARK    2  A    between atoms: C2_2  and  C5_5 
REMARK    3  A    between atoms: C2_2  and  O9_9 
ROOT
HETATM    1  C3  UNL     1     -34.455   8.267   3.638  1.00 20.00     0.028 A 
HETATM    2  C4  UNL     1     -34.250   6.938   4.312  1.00 20.00     0.061 A 
HETATM    3  C5  UNL     1     -33.123   7.575   3.536  1.00 20.00     0.097 A 
ENDROOT
BRANCH   3   4
HETATM    4  C2  UNL     1     -32.697   7.026   2.243  1.00 20.00     0.263 C 
HETATM    5  O8  UNL     1     -33.154   6.005   1.747  1.00 20.00    -0.265 OA
BRANCH   4   6
HETATM    6  O9  UNL     1     -31.731   7.825   1.705  1.00 20.00    -0.326 OA
HETATM    7  C6  UNL     1     -32.207   8.913   0.906  1.00 20.00     0.213 C 
ENDBRANCH   4   6
ENDBRANCH   3   4
BRANCH   2   8
HETATM    8  C1  UNL     1     -34.946   5.755   3.792  1.00 20.00     0.236 C 
HETATM    9  O7  UNL     1     -35.188   4.761   4.468  1.00 20.00    -0.306 OA
ENDBRANCH   2   8
TORSDOF 3
ENDMDL
MODEL 8
REMARK VINA RESULT:      -1.3      1.991      4.485
REMARK  3 active torsions:
REMARK  status: ('A' for Active; 'I' for Inactive)
REMARK    1  A    between atoms: C1_1  and  C4_4 
REMARK    2  A    between atoms: C2_2  and  C5_5 
REMARK    3  A    between atoms: C2_2  and  O9_9 
ROOT
HETATM    1  C3  UNL     1     -30.952   7.989   1.671  1.00 20.00     0.028 A 
HETATM    2  C4  UNL     1     -32.091   8.942   1.434  1.00 20.00     0.061 A 
HETATM    3  C5  UNL     1     -32.251   7.797   2.405  1.00 20.00     0.097 A 
ENDROOT
BRANCH   3   4
HETATM    4  C2  UNL     1     -33.099   6.646   2.075  1.00 20.00     0.263 C 
HETATM    5  O8  UNL     1     -32.829   5.819   1.214  1.00 20.00    -0.265 OA
BRANCH   4   6
HETATM    6  O9  UNL     1     -34.208   6.654   2.869  1.00 20.00    -0.326 OA
HETATM    7  C6  UNL     1     -34.104   7.435   4.064  1.00 20.00     0.213 C 
ENDBRANCH   4   6
ENDBRANCH   3   4
BRANCH   2   8
HETATM    8  C1  UNL     1     -32.780   8.930   0.138  1.00 20.00     0.236 C 
HETATM    9  O7  UNL     1     -32.831   9.900  -0.610  1.00 20.00    -0.306 OA
ENDBRANCH   2   8
TORSDOF 3
ENDMDL
MODEL 9
REMARK VINA RESULT:      -1.1      1.520      1.988
REMARK  3 active torsions:
REMARK  status: ('A' for Active; 'I' for Inactive)
REMARK    1  A    between atoms: C1_1  and  C4_4 
REMARK    2  A    between atoms: C2_2  and  C5_5 
REMARK    3  A    between atoms: C2_2  and  O9_9 
ROOT
HETATM    1  C3  UNL     1     -32.171   5.362   1.503  1.00 20.00     0.028 A 
HETATM    2  C4  UNL     1     -33.457   5.011   2.198  1.00 20.00     0.061 A 
HETATM    3  C5  UNL     1     -33.220   6.419   1.708  1.00 20.00     0.097 A 
ENDROOT
BRANCH   3   4
HETATM    4  C2  UNL     1     -32.964   7.512   2.655  1.00 20.00     0.263 C 
HETATM    5  O8  UNL     1     -33.631   7.718   3.660  1.00 20.00    -0.265 OA
BRANCH   4   6
HETATM    6  O9  UNL     1     -31.887   8.236   2.235  1.00 20.00    -0.326 OA
HETATM    7  C6  UNL     1     -32.076   8.974   1.024  1.00 20.00     0.213 C 
ENDBRANCH   4   6
ENDBRANCH   3   4
BRANCH   2   8
HETATM    8  C1  UNL     1     -33.437   4.702   3.633  1.00 20.00     0.236 C 
HETATM    9  O7  UNL     1     -34.097   3.802   4.141  1.00 20.00    -0.306 OA
ENDBRANCH   2   8
TORSDOF 3
ENDMDL
