MODEL 1
REMARK VINA RESULT:      -1.6      0.000      0.000
REMARK  1 active torsions:
REMARK  status: ('A' for Active; 'I' for Inactive)
REMARK    1  A    between atoms: C2_2  and  C5_5 
ROOT
HETATM    1  C1  UNL     1     -32.414   8.833   1.666  1.00 20.00     0.153 A 
HETATM    2  C2  UNL     1     -32.766   7.530   2.361  1.00 20.00     0.096 A 
HETATM    3  C3  UNL     1     -32.160   8.939   0.204  1.00 20.00     0.042 C 
HETATM    4  C4  UNL     1     -32.883   6.248   1.600  1.00 20.00     0.050 C 
HETATM    5  O6  UNL     1     -31.437   8.074   2.391  1.00 20.00    -0.369 OA
ENDROOT
BRANCH   2   6
HETATM    6  C5  UNL     1     -33.472   7.592   3.679  1.00 20.00     0.154 C 
HETATM    7 CL7  UNL     1     -34.842   6.452   3.726  1.00 20.00    -0.127 Cl
ENDBRANCH   2   6
TORSDOF 1
ENDMDL
MODEL 2
REMARK VINA RESULT:      -1.0      1.803      2.336
REMARK  1 active torsions:
REMARK  status: ('A' for Active; 'I' for Inactive)
REMARK    1  A    between atoms: C2_2  and  C5_5 
ROOT
HETATM    1  C1  UNL     1     -32.363   6.585   1.965  1.00 20.00     0.153 A 
HETATM    2  C2  UNL     1     -33.507   6.266   2.910  1.00 20.00     0.096 A 
HETATM    3  C3  UNL     1     -31.861   7.964   1.721  1.00 20.00     0.042 C 
HETATM    4  C4  UNL     1     -34.211   7.344   3.671  1.00 20.00     0.050 C 
HETATM    5  O6  UNL     1     -33.692   6.337   1.487  1.00 20.00    -0.369 OA
ENDROOT
BRANCH   2   6
HETATM    6  C5  UNL     1     -33.612   4.880   3.463  1.00 20.00     0.154 C 
HETATM    7 CL7  UNL     1     -35.031   4.722   4.530  1.00 20.00    -0.127 Cl
ENDBRANCH   2   6
TORSDOF 1
ENDMDL
MODEL 3
REMARK VINA RESULT:      -1.0      2.351      3.352
REMARK  1 active torsions:
REMARK  status: ('A' for Active; 'I' for Inactive)
REMARK    1  A    between atoms: C2_2  and  C5_5 
ROOT
HETATM    1  C1  UNL     1     -33.117   6.764   1.766  1.00 20.00     0.153 A 
HETATM    2  C2  UNL     1     -32.121   7.910   1.758  1.00 20.00     0.096 A 
HETATM    3  C3  UNL     1     -33.784   6.268   2.999  1.00 20.00     0.042 C 
HETATM    4  C4  UNL     1     -31.746   8.625   3.016  1.00 20.00     0.050 C 
HETATM    5  O6  UNL     1     -31.702   6.537   1.717  1.00 20.00    -0.369 OA
ENDROOT
BRANCH   2   6
HETATM    6  C5  UNL     1     -31.892   8.648   0.477  1.00 20.00     0.154 C 
HETATM    7 CL7  UNL     1     -32.630  10.269   0.530  1.00 20.00    -0.127 Cl
ENDBRANCH   2   6
TORSDOF 1
ENDMDL
MODEL 4
REMARK VINA RESULT:      -0.9      1.396      2.379
REMARK  1 active torsions:
REMARK  status: ('A' for Active; 'I' for Inactive)
REMARK    1  A    between atoms: C2_2  and  C5_5 
ROOT
HETATM    1  C1  UNL     1     -32.703   5.607   1.962  1.00 20.00     0.153 A 
HETATM    2  C2  UNL     1     -32.864   7.067   2.346  1.00 20.00     0.096 A 
HETATM    3  C3  UNL     1     -31.694   5.125   0.981  1.00 20.00     0.042 C 
HETATM    4  C4  UNL     1     -31.996   8.129   1.751  1.00 20.00     0.050 C 
HETATM    5  O6  UNL     1     -33.738   6.427   1.403  1.00 20.00    -0.369 OA
ENDROOT
BRANCH   2   6
HETATM    6  C5  UNL     1     -33.521   7.394   3.650  1.00 20.00     0.154 C 
HETATM    7 CL7  UNL     1     -35.083   6.549   3.811  1.00 20.00    -0.127 Cl
ENDBRANCH   2   6
TORSDOF 1
ENDMDL
MODEL 5
REMARK VINA RESULT:      -0.8      2.687      3.676
REMARK  1 active torsions:
REMARK  status: ('A' for Active; 'I' for Inactive)
REMARK    1  A    between atoms: C2_2  and  C5_5 
ROOT
HETATM    1  C1  UNL     1     -34.033   5.697   4.058  1.00 20.00     0.153 A 
HETATM    2  C2  UNL     1     -33.488   6.427   2.843  1.00 20.00     0.096 A 
HETATM    3  C3  UNL     1     -34.179   4.219   4.128  1.00 20.00     0.042 C 
HETATM    4  C4  UNL     1     -33.054   5.686   1.619  1.00 20.00     0.050 C 
HETATM    5  O6  UNL     1     -34.897   6.341   3.112  1.00 20.00    -0.369 OA
ENDROOT
BRANCH   2   6
HETATM    6  C5  UNL     1     -32.922   7.800   3.029  1.00 20.00     0.154 C 
HETATM    7 CL7  UNL     1     -31.991   8.307   1.596  1.00 20.00    -0.127 Cl
ENDBRANCH   2   6
TORSDOF 1
ENDMDL
MODEL 6
REMARK VINA RESULT:      -0.6      2.335      3.294
REMARK  1 active torsions:
REMARK  status: ('A' for Active; 'I' for Inactive)
REMARK    1  A    between atoms: C2_2  and  C5_5 
ROOT
HETATM    1  C1  UNL     1     -33.819   7.108   3.682  1.00 20.00     0.153 A 
HETATM    2  C2  UNL     1     -33.002   7.058   2.404  1.00 20.00     0.096 A 
HETATM    3  C3  UNL     1     -34.639   5.970   4.176  1.00 20.00     0.042 C 
HETATM    4  C4  UNL     1     -32.970   5.833   1.547  1.00 20.00     0.050 C 
HETATM    5  O6  UNL     1     -34.286   7.699   2.462  1.00 20.00    -0.369 OA
ENDROOT
BRANCH   2   6
HETATM    6  C5  UNL     1     -31.859   8.012   2.248  1.00 20.00     0.154 C 
HETATM    7 CL7  UNL     1     -32.117   9.099   0.859  1.00 20.00    -0.127 Cl
ENDBRANCH   2   6
TORSDOF 1
ENDMDL
MODEL 7
REMARK VINA RESULT:      -0.4      2.827      3.918
REMARK  1 active torsions:
REMARK  status: ('A' for Active; 'I' for Inactive)
REMARK    1  A    between atoms: C2_2  and  C5_5 
ROOT
HETATM    1  C1  UNL     1     -34.415   5.211   4.440  1.00 20.00     0.153 A 
HETATM    2  C2  UNL     1     -34.170   6.430   3.569  1.00 20.00     0.096 A 
HETATM    3  C3  UNL     1     -33.925   3.849   4.100  1.00 20.00     0.042 C 
HETATM    4  C4  UNL     1     -33.401   6.331   2.290  1.00 20.00     0.050 C 
HETATM    5  O6  UNL     1     -35.421   5.725   3.557  1.00 20.00    -0.369 OA
ENDROOT
BRANCH   2   6
HETATM    6  C5  UNL     1     -34.248   7.785   4.198  1.00 20.00     0.154 C 
HETATM    7 CL7  UNL     1     -32.650   8.312   4.786  1.00 20.00    -0.127 Cl
ENDBRANCH   2   6
TORSDOF 1
ENDMDL
MODEL 8
REMARK VINA RESULT:      -0.4      2.629      3.202
REMARK  1 active torsions:
REMARK  status: ('A' for Active; 'I' for Inactive)
REMARK    1  A    between atoms: C2_2  and  C5_5 
ROOT
HETATM    1  C1  UNL     1     -33.084   7.293   3.975  1.00 20.00     0.153 A 
HETATM    2  C2  UNL     1     -34.068   6.231   3.520  1.00 20.00     0.096 A 
HETATM    3  C3  UNL     1     -33.448   8.413   4.883  1.00 20.00     0.042 C 
HETATM    4  C4  UNL     1     -35.495   6.248   3.970  1.00 20.00     0.050 C 
HETATM    5  O6  UNL     1     -33.705   7.340   2.684  1.00 20.00    -0.369 OA
ENDROOT
BRANCH   2   6
HETATM    6  C5  UNL     1     -33.534   4.917   3.044  1.00 20.00     0.154 C 
HETATM    7 CL7  UNL     1     -33.781   3.644   4.267  1.00 20.00    -0.127 Cl
ENDBRANCH   2   6
TORSDOF 1
ENDMDL
MODEL 9
REMARK VINA RESULT:      -0.2      2.279      3.577
REMARK  1 active torsions:
REMARK  status: ('A' for Active; 'I' for Inactive)
REMARK    1  A    between atoms: C2_2  and  C5_5 
ROOT
HETATM    1  C1  UNL     1     -34.600   6.528   3.094  1.00 20.00     0.153 A 
HETATM    2  C2  UNL     1     -33.432   7.439   3.425  1.00 20.00     0.096 A 
HETATM    3  C3  UNL     1     -35.641   6.138   4.082  1.00 20.00     0.042 C 
HETATM    4  C4  UNL     1     -33.256   8.013   4.795  1.00 20.00     0.050 C 
HETATM    5  O6  UNL     1     -33.291   6.011   3.366  1.00 20.00    -0.369 OA
ENDROOT
BRANCH   2   6
HETATM    6  C5  UNL     1     -32.747   8.159   2.306  1.00 20.00     0.154 C 
HETATM    7 CL7  UNL     1     -31.605   7.085   1.457  1.00 20.00    -0.127 Cl
ENDBRANCH   2   6
TORSDOF 1
ENDMDL
