MODEL 1
REMARK VINA RESULT:       0.2      0.000      0.000
REMARK  1 active torsions:
REMARK  status: ('A' for Active; 'I' for Inactive)
REMARK    1  A    between atoms: C1_1  and  C9_9 
ROOT
HETATM    1  C1  UNL     1     -33.436   6.340   2.981  1.00 20.00     0.020 C 
HETATM    2  C2  UNL     1     -33.119   5.727   1.665  1.00 20.00     0.058 C 
HETATM    3  C3  UNL     1     -31.892   6.528   1.240  1.00 20.00     0.038 C 
HETATM    4  C4  UNL     1     -32.057   7.901   1.908  1.00 20.00     0.055 C 
HETATM    5  C5  UNL     1     -32.879   8.881   1.076  1.00 20.00     0.041 C 
HETATM    6  C6  UNL     1     -30.736   8.490   2.379  1.00 20.00     0.041 C 
HETATM    7  N10 UNL     1     -32.878   7.518   3.085  1.00 20.00    -0.224 N 
HETATM    8  O11 UNL     1     -33.036   8.292   4.081  1.00 20.00    -0.085 OA
ENDROOT
BRANCH   1   9
HETATM    9  C9  UNL     1     -34.349   5.791   4.007  1.00 20.00     0.025 C 
HETATM   10  C7  UNL     1     -35.796   6.218   3.740  1.00 20.00     0.016 C 
HETATM   11  C8  UNL     1     -34.255   4.263   4.083  1.00 20.00     0.016 C 
ENDBRANCH   1   9
TORSDOF 1
ENDMDL
MODEL 2
REMARK VINA RESULT:       0.7      1.540      4.108
REMARK  1 active torsions:
REMARK  status: ('A' for Active; 'I' for Inactive)
REMARK    1  A    between atoms: C1_1  and  C9_9 
ROOT
HETATM    1  C1  UNL     1     -32.964   7.539   2.646  1.00 20.00     0.020 C 
HETATM    2  C2  UNL     1     -33.442   8.357   3.792  1.00 20.00     0.058 C 
HETATM    3  C3  UNL     1     -34.089   7.298   4.678  1.00 20.00     0.038 C 
HETATM    4  C4  UNL     1     -34.567   6.203   3.713  1.00 20.00     0.055 C 
HETATM    5  C5  UNL     1     -35.961   6.461   3.150  1.00 20.00     0.041 C 
HETATM    6  C6  UNL     1     -34.412   4.803   4.288  1.00 20.00     0.041 C 
HETATM    7  N10 UNL     1     -33.596   6.395   2.605  1.00 20.00    -0.224 N 
HETATM    8  O11 UNL     1     -33.431   5.526   1.691  1.00 20.00    -0.085 OA
ENDROOT
BRANCH   1   9
HETATM    9  C9  UNL     1     -32.005   7.964   1.604  1.00 20.00     0.025 C 
HETATM   10  C7  UNL     1     -32.539   9.171   0.826  1.00 20.00     0.016 C 
HETATM   11  C8  UNL     1     -30.631   8.287   2.203  1.00 20.00     0.016 C 
ENDBRANCH   1   9
TORSDOF 1
ENDMDL
MODEL 3
REMARK VINA RESULT:       1.1      1.561      2.402
REMARK  1 active torsions:
REMARK  status: ('A' for Active; 'I' for Inactive)
REMARK    1  A    between atoms: C1_1  and  C9_9 
ROOT
HETATM    1  C1  UNL     1     -33.710   6.440   3.172  1.00 20.00     0.020 C 
HETATM    2  C2  UNL     1     -33.581   7.619   4.067  1.00 20.00     0.058 C 
HETATM    3  C3  UNL     1     -33.105   8.693   3.095  1.00 20.00     0.038 C 
HETATM    4  C4  UNL     1     -32.336   7.935   2.003  1.00 20.00     0.055 C 
HETATM    5  C5  UNL     1     -30.866   7.713   2.344  1.00 20.00     0.041 C 
HETATM    6  C6  UNL     1     -32.538   8.531   0.618  1.00 20.00     0.041 C 
HETATM    7  N10 UNL     1     -33.015   6.616   2.079  1.00 20.00    -0.224 N 
HETATM    8  O11 UNL     1     -32.894   5.739   1.166  1.00 20.00    -0.085 OA
ENDROOT
BRANCH   1   9
HETATM    9  C9  UNL     1     -34.408   5.174   3.484  1.00 20.00     0.025 C 
HETATM   10  C7  UNL     1     -33.430   4.124   4.021  1.00 20.00     0.016 C 
HETATM   11  C8  UNL     1     -35.549   5.393   4.485  1.00 20.00     0.016 C 
ENDBRANCH   1   9
TORSDOF 1
ENDMDL
MODEL 4
REMARK VINA RESULT:       2.1      1.810      2.891
REMARK  1 active torsions:
REMARK  status: ('A' for Active; 'I' for Inactive)
REMARK    1  A    between atoms: C1_1  and  C9_9 
ROOT
HETATM    1  C1  UNL     1     -33.274   7.204   2.811  1.00 20.00     0.020 C 
HETATM    2  C2  UNL     1     -32.262   7.986   2.054  1.00 20.00     0.058 C 
HETATM    3  C3  UNL     1     -32.062   7.115   0.818  1.00 20.00     0.038 C 
HETATM    4  C4  UNL     1     -32.359   5.682   1.284  1.00 20.00     0.055 C 
HETATM    5  C5  UNL     1     -31.142   4.975   1.873  1.00 20.00     0.041 C 
HETATM    6  C6  UNL     1     -33.067   4.853   0.223  1.00 20.00     0.041 C 
HETATM    7  N10 UNL     1     -33.296   5.963   2.401  1.00 20.00    -0.224 N 
HETATM    8  O11 UNL     1     -34.024   5.058   2.919  1.00 20.00    -0.085 OA
ENDROOT
BRANCH   1   9
HETATM    9  C9  UNL     1     -34.076   7.686   3.957  1.00 20.00     0.025 C 
HETATM   10  C7  UNL     1     -35.136   6.654   4.357  1.00 20.00     0.016 C 
HETATM   11  C8  UNL     1     -33.190   8.026   5.160  1.00 20.00     0.016 C 
ENDBRANCH   1   9
TORSDOF 1
ENDMDL
MODEL 5
REMARK VINA RESULT:       2.2      1.826      3.319
REMARK  1 active torsions:
REMARK  status: ('A' for Active; 'I' for Inactive)
REMARK    1  A    between atoms: C1_1  and  C9_9 
ROOT
HETATM    1  C1  UNL     1     -33.178   6.114   2.263  1.00 20.00     0.020 C 
HETATM    2  C2  UNL     1     -33.993   5.356   3.248  1.00 20.00     0.058 C 
HETATM    3  C3  UNL     1     -34.810   6.470   3.894  1.00 20.00     0.038 C 
HETATM    4  C4  UNL     1     -33.933   7.726   3.787  1.00 20.00     0.055 C 
HETATM    5  C5  UNL     1     -32.959   7.883   4.950  1.00 20.00     0.041 C 
HETATM    6  C6  UNL     1     -34.740   8.987   3.518  1.00 20.00     0.041 C 
HETATM    7  N10 UNL     1     -33.137   7.382   2.581  1.00 20.00    -0.224 N 
HETATM    8  O11 UNL     1     -32.457   8.250   1.948  1.00 20.00    -0.085 OA
ENDROOT
BRANCH   1   9
HETATM    9  C9  UNL     1     -32.403   5.542   1.141  1.00 20.00     0.025 C 
HETATM   10  C7  UNL     1     -31.240   4.687   1.655  1.00 20.00     0.016 C 
HETATM   11  C8  UNL     1     -33.294   4.715   0.207  1.00 20.00     0.016 C 
ENDBRANCH   1   9
TORSDOF 1
ENDMDL
MODEL 6
REMARK VINA RESULT:       2.2      0.773      3.943
REMARK  1 active torsions:
REMARK  status: ('A' for Active; 'I' for Inactive)
REMARK    1  A    between atoms: C1_1  and  C9_9 
ROOT
HETATM    1  C1  UNL     1     -32.831   7.285   2.281  1.00 20.00     0.020 C 
HETATM    2  C2  UNL     1     -32.847   6.093   1.394  1.00 20.00     0.058 C 
HETATM    3  C3  UNL     1     -34.074   5.345   1.906  1.00 20.00     0.038 C 
HETATM    4  C4  UNL     1     -34.191   5.731   3.387  1.00 20.00     0.055 C 
HETATM    5  C5  UNL     1     -33.367   4.838   4.310  1.00 20.00     0.041 C 
HETATM    6  C6  UNL     1     -35.634   5.882   3.845  1.00 20.00     0.041 C 
HETATM    7  N10 UNL     1     -33.538   7.065   3.358  1.00 20.00    -0.224 N 
HETATM    8  O11 UNL     1     -33.644   7.892   4.319  1.00 20.00    -0.085 OA
ENDROOT
BRANCH   1   9
HETATM    9  C9  UNL     1     -32.042   8.519   2.077  1.00 20.00     0.025 C 
HETATM   10  C7  UNL     1     -30.539   8.229   2.150  1.00 20.00     0.016 C 
HETATM   11  C8  UNL     1     -32.385   9.192   0.743  1.00 20.00     0.016 C 
ENDBRANCH   1   9
TORSDOF 1
ENDMDL
MODEL 7
REMARK VINA RESULT:       2.3      1.944      2.995
REMARK  1 active torsions:
REMARK  status: ('A' for Active; 'I' for Inactive)
REMARK    1  A    between atoms: C1_1  and  C9_9 
ROOT
HETATM    1  C1  UNL     1     -32.824   6.345   2.029  1.00 20.00     0.020 C 
HETATM    2  C2  UNL     1     -32.177   7.618   1.618  1.00 20.00     0.058 C 
HETATM    3  C3  UNL     1     -32.227   8.420   2.915  1.00 20.00     0.038 C 
HETATM    4  C4  UNL     1     -33.460   7.897   3.665  1.00 20.00     0.055 C 
HETATM    5  C5  UNL     1     -34.751   8.610   3.274  1.00 20.00     0.041 C 
HETATM    6  C6  UNL     1     -33.252   7.835   5.170  1.00 20.00     0.041 C 
HETATM    7  N10 UNL     1     -33.529   6.518   3.116  1.00 20.00    -0.224 N 
HETATM    8  O11 UNL     1     -34.240   5.610   3.653  1.00 20.00    -0.085 OA
ENDROOT
BRANCH   1   9
HETATM    9  C9  UNL     1     -32.805   5.070   1.279  1.00 20.00     0.025 C 
HETATM   10  C7  UNL     1     -33.775   5.115   0.094  1.00 20.00     0.016 C 
HETATM   11  C8  UNL     1     -31.393   4.725   0.793  1.00 20.00     0.016 C 
ENDBRANCH   1   9
TORSDOF 1
ENDMDL
MODEL 8
REMARK VINA RESULT:       2.6      1.475      2.123
REMARK  1 active torsions:
REMARK  status: ('A' for Active; 'I' for Inactive)
REMARK    1  A    between atoms: C1_1  and  C9_9 
ROOT
HETATM    1  C1  UNL     1     -33.558   7.035   3.509  1.00 20.00     0.020 C 
HETATM    2  C2  UNL     1     -32.754   8.012   4.290  1.00 20.00     0.058 C 
HETATM    3  C3  UNL     1     -32.230   8.929   3.190  1.00 20.00     0.038 C 
HETATM    4  C4  UNL     1     -32.145   8.046   1.936  1.00 20.00     0.055 C 
HETATM    5  C5  UNL     1     -30.825   7.292   1.818  1.00 20.00     0.041 C 
HETATM    6  C6  UNL     1     -32.515   8.792   0.663  1.00 20.00     0.041 C 
HETATM    7  N10 UNL     1     -33.201   7.050   2.251  1.00 20.00    -0.224 N 
HETATM    8  O11 UNL     1     -33.680   6.269   1.369  1.00 20.00    -0.085 OA
ENDROOT
BRANCH   1   9
HETATM    9  C9  UNL     1     -34.542   6.076   4.054  1.00 20.00     0.025 C 
HETATM   10  C7  UNL     1     -35.941   6.344   3.489  1.00 20.00     0.016 C 
HETATM   11  C8  UNL     1     -34.129   4.626   3.773  1.00 20.00     0.016 C 
ENDBRANCH   1   9
TORSDOF 1
ENDMDL
MODEL 9
REMARK VINA RESULT:       3.1      1.781      3.030
REMARK  1 active torsions:
REMARK  status: ('A' for Active; 'I' for Inactive)
REMARK    1  A    between atoms: C1_1  and  C9_9 
ROOT
HETATM    1  C1  UNL     1     -33.314   7.049   3.104  1.00 20.00     0.020 C 
HETATM    2  C2  UNL     1     -34.162   5.875   3.437  1.00 20.00     0.058 C 
HETATM    3  C3  UNL     1     -33.510   4.778   2.601  1.00 20.00     0.038 C 
HETATM    4  C4  UNL     1     -32.896   5.503   1.395  1.00 20.00     0.055 C 
HETATM    5  C5  UNL     1     -33.874   5.683   0.238  1.00 20.00     0.041 C 
HETATM    6  C6  UNL     1     -31.569   4.899   0.958  1.00 20.00     0.041 C 
HETATM    7  N10 UNL     1     -32.659   6.842   1.992  1.00 20.00    -0.224 N 
HETATM    8  O11 UNL     1     -31.907   7.706   1.439  1.00 20.00    -0.085 OA
ENDROOT
BRANCH   1   9
HETATM    9  C9  UNL     1     -33.277   8.338   3.828  1.00 20.00     0.025 C 
HETATM   10  C7  UNL     1     -33.945   8.216   5.202  1.00 20.00     0.016 C 
HETATM   11  C8  UNL     1     -31.843   8.855   3.984  1.00 20.00     0.016 C 
ENDBRANCH   1   9
TORSDOF 1
ENDMDL
