MODEL 1
REMARK VINA RESULT:      -1.3      0.000      0.000
REMARK  3 active torsions:
REMARK  status: ('A' for Active; 'I' for Inactive)
REMARK    1  A    between atoms: C2_2  and  C3_3 
REMARK    2  A    between atoms: C3_3  and  N8_8 
REMARK    3  A    between atoms: C7_7  and  N8_8 
ROOT
HETATM    1  C3  UNL     1     -32.975   7.222   2.472  1.00 20.00     0.102 C 
HETATM    2  S9  UNL     1     -32.757   5.795   1.607  1.00 20.00    -0.060 SA
ENDROOT
BRANCH   1   3
HETATM    3  C2  UNL     1     -33.827   7.319   3.690  1.00 20.00    -0.034 C 
HETATM    4  C1  UNL     1     -33.461   8.201   4.631  1.00 20.00     0.021 C 
HETATM    5  C4  UNL     1     -35.017   6.420   3.793  1.00 20.00     0.050 C 
ENDBRANCH   1   3
BRANCH   1   6
HETATM    6  N8  UNL     1     -32.354   8.378   2.051  1.00 20.00    -0.377 N 
HETATM    7  H22 UNL     1     -31.760   8.845   2.728  1.00 20.00     0.160 HD
BRANCH   6   8
HETATM    8  C7  UNL     1     -32.438   8.987   0.737  1.00 20.00     0.074 C 
HETATM    9  C5  UNL     1     -31.116   8.789   0.010  1.00 20.00     0.031 C 
HETATM   10  C6  UNL     1     -32.778  10.462   0.898  1.00 20.00     0.031 C 
ENDBRANCH   6   8
ENDBRANCH   1   6
TORSDOF 3
ENDMDL
MODEL 2
REMARK VINA RESULT:      -1.3      0.076      1.183
REMARK  3 active torsions:
REMARK  status: ('A' for Active; 'I' for Inactive)
REMARK    1  A    between atoms: C2_2  and  C3_3 
REMARK    2  A    between atoms: C3_3  and  N8_8 
REMARK    3  A    between atoms: C7_7  and  N8_8 
ROOT
HETATM    1  C3  UNL     1     -32.972   7.215   2.462  1.00 20.00     0.102 C 
HETATM    2  S9  UNL     1     -32.755   5.795   1.585  1.00 20.00    -0.060 SA
ENDROOT
BRANCH   1   3
HETATM    3  C2  UNL     1     -33.814   7.299   3.688  1.00 20.00    -0.034 C 
HETATM    4  C1  UNL     1     -34.906   6.525   3.742  1.00 20.00     0.021 C 
HETATM    5  C4  UNL     1     -33.399   8.249   4.766  1.00 20.00     0.050 C 
ENDBRANCH   1   3
BRANCH   1   6
HETATM    6  N8  UNL     1     -32.359   8.376   2.044  1.00 20.00    -0.377 N 
HETATM    7  H22 UNL     1     -31.775   8.851   2.726  1.00 20.00     0.160 HD
BRANCH   6   8
HETATM    8  C7  UNL     1     -32.439   8.983   0.729  1.00 20.00     0.074 C 
HETATM    9  C5  UNL     1     -31.113   8.788   0.009  1.00 20.00     0.031 C 
HETATM   10  C6  UNL     1     -32.785  10.457   0.886  1.00 20.00     0.031 C 
ENDBRANCH   6   8
ENDBRANCH   1   6
TORSDOF 3
ENDMDL
MODEL 3
REMARK VINA RESULT:      -0.8      1.428      1.821
REMARK  3 active torsions:
REMARK  status: ('A' for Active; 'I' for Inactive)
REMARK    1  A    between atoms: C2_2  and  C3_3 
REMARK    2  A    between atoms: C3_3  and  N8_8 
REMARK    3  A    between atoms: C7_7  and  N8_8 
ROOT
HETATM    1  C3  UNL     1     -33.234   6.086   2.302  1.00 20.00     0.102 C 
HETATM    2  S9  UNL     1     -32.395   5.006   1.321  1.00 20.00    -0.060 SA
ENDROOT
BRANCH   1   3
HETATM    3  C2  UNL     1     -34.119   5.658   3.420  1.00 20.00    -0.034 C 
HETATM    4  C1  UNL     1     -34.968   6.567   3.920  1.00 20.00     0.021 C 
HETATM    5  C4  UNL     1     -33.994   4.256   3.924  1.00 20.00     0.050 C 
ENDBRANCH   1   3
BRANCH   1   6
HETATM    6  N8  UNL     1     -33.123   7.441   2.077  1.00 20.00    -0.377 N 
HETATM    7  H22 UNL     1     -33.964   7.994   2.213  1.00 20.00     0.160 HD
BRANCH   6   8
HETATM    8  C7  UNL     1     -31.929   8.168   1.688  1.00 20.00     0.074 C 
HETATM    9  C5  UNL     1     -31.250   8.714   2.936  1.00 20.00     0.031 C 
HETATM   10  C6  UNL     1     -32.321   9.281   0.726  1.00 20.00     0.031 C 
ENDBRANCH   6   8
ENDBRANCH   1   6
TORSDOF 3
ENDMDL
MODEL 4
REMARK VINA RESULT:      -0.7      1.269      3.843
REMARK  3 active torsions:
REMARK  status: ('A' for Active; 'I' for Inactive)
REMARK    1  A    between atoms: C2_2  and  C3_3 
REMARK    2  A    between atoms: C3_3  and  N8_8 
REMARK    3  A    between atoms: C7_7  and  N8_8 
ROOT
HETATM    1  C3  UNL     1     -32.703   6.883   1.760  1.00 20.00     0.102 C 
HETATM    2  S9  UNL     1     -32.127   5.442   1.108  1.00 20.00    -0.060 SA
ENDROOT
BRANCH   1   3
HETATM    3  C2  UNL     1     -31.986   8.183   1.634  1.00 20.00    -0.034 C 
HETATM    4  C1  UNL     1     -31.061   8.470   2.560  1.00 20.00     0.021 C 
HETATM    5  C4  UNL     1     -32.354   9.086   0.500  1.00 20.00     0.050 C 
ENDBRANCH   1   3
BRANCH   1   6
HETATM    6  N8  UNL     1     -33.892   6.890   2.457  1.00 20.00    -0.377 N 
HETATM    7  H22 UNL     1     -34.730   7.095   1.922  1.00 20.00     0.160 HD
BRANCH   6   8
HETATM    8  C7  UNL     1     -34.078   6.615   3.869  1.00 20.00     0.074 C 
HETATM    9  C5  UNL     1     -35.452   5.994   4.078  1.00 20.00     0.031 C 
HETATM   10  C6  UNL     1     -33.920   7.911   4.650  1.00 20.00     0.031 C 
ENDBRANCH   6   8
ENDBRANCH   1   6
TORSDOF 3
ENDMDL
MODEL 5
REMARK VINA RESULT:      -0.6      1.296      3.820
REMARK  3 active torsions:
REMARK  status: ('A' for Active; 'I' for Inactive)
REMARK    1  A    between atoms: C2_2  and  C3_3 
REMARK    2  A    between atoms: C3_3  and  N8_8 
REMARK    3  A    between atoms: C7_7  and  N8_8 
ROOT
HETATM    1  C3  UNL     1     -32.631   6.735   1.898  1.00 20.00     0.102 C 
HETATM    2  S9  UNL     1     -32.616   5.555   0.698  1.00 20.00    -0.060 SA
ENDROOT
BRANCH   1   3
HETATM    3  C2  UNL     1     -32.008   8.078   1.733  1.00 20.00    -0.034 C 
HETATM    4  C1  UNL     1     -31.122   8.467   2.661  1.00 20.00     0.021 C 
HETATM    5  C4  UNL     1     -32.419   8.908   0.560  1.00 20.00     0.050 C 
ENDBRANCH   1   3
BRANCH   1   6
HETATM    6  N8  UNL     1     -33.235   6.471   3.108  1.00 20.00    -0.377 N 
HETATM    7  H22 UNL     1     -32.836   5.718   3.659  1.00 20.00     0.160 HD
BRANCH   6   8
HETATM    8  C7  UNL     1     -34.366   7.169   3.691  1.00 20.00     0.074 C 
HETATM    9  C5  UNL     1     -33.890   7.975   4.891  1.00 20.00     0.031 C 
HETATM   10  C6  UNL     1     -35.427   6.149   4.080  1.00 20.00     0.031 C 
ENDBRANCH   6   8
ENDBRANCH   1   6
TORSDOF 3
ENDMDL
MODEL 6
REMARK VINA RESULT:      -0.5      2.424      4.890
REMARK  3 active torsions:
REMARK  status: ('A' for Active; 'I' for Inactive)
REMARK    1  A    between atoms: C2_2  and  C3_3 
REMARK    2  A    between atoms: C3_3  and  N8_8 
REMARK    3  A    between atoms: C7_7  and  N8_8 
ROOT
HETATM    1  C3  UNL     1     -33.358   6.557   2.891  1.00 20.00     0.102 C 
HETATM    2  S9  UNL     1     -33.889   7.816   3.874  1.00 20.00    -0.060 SA
ENDROOT
BRANCH   1   3
HETATM    3  C2  UNL     1     -32.431   6.752   1.741  1.00 20.00    -0.034 C 
HETATM    4  C1  UNL     1     -32.095   5.668   1.028  1.00 20.00     0.021 C 
HETATM    5  C4  UNL     1     -31.924   8.132   1.468  1.00 20.00     0.050 C 
ENDBRANCH   1   3
BRANCH   1   6
HETATM    6  N8  UNL     1     -33.792   5.272   3.132  1.00 20.00    -0.377 N 
HETATM    7  H22 UNL     1     -33.938   4.683   2.318  1.00 20.00     0.160 HD
BRANCH   6   8
HETATM    8  C7  UNL     1     -34.040   4.661   4.424  1.00 20.00     0.074 C 
HETATM    9  C5  UNL     1     -33.619   3.200   4.374  1.00 20.00     0.031 C 
HETATM   10  C6  UNL     1     -35.516   4.812   4.766  1.00 20.00     0.031 C 
ENDBRANCH   6   8
ENDBRANCH   1   6
TORSDOF 3
ENDMDL
MODEL 7
REMARK VINA RESULT:      -0.5      2.416      4.749
REMARK  3 active torsions:
REMARK  status: ('A' for Active; 'I' for Inactive)
REMARK    1  A    between atoms: C2_2  and  C3_3 
REMARK    2  A    between atoms: C3_3  and  N8_8 
REMARK    3  A    between atoms: C7_7  and  N8_8 
ROOT
HETATM    1  C3  UNL     1     -33.328   6.627   2.915  1.00 20.00     0.102 C 
HETATM    2  S9  UNL     1     -33.869   7.873   3.909  1.00 20.00    -0.060 SA
ENDROOT
BRANCH   1   3
HETATM    3  C2  UNL     1     -32.378   6.832   1.788  1.00 20.00    -0.034 C 
HETATM    4  C1  UNL     1     -31.919   8.075   1.584  1.00 20.00     0.021 C 
HETATM    5  C4  UNL     1     -32.010   5.650   0.949  1.00 20.00     0.050 C 
ENDBRANCH   1   3
BRANCH   1   6
HETATM    6  N8  UNL     1     -33.777   5.341   3.127  1.00 20.00    -0.377 N 
HETATM    7  H22 UNL     1     -33.922   4.770   2.300  1.00 20.00     0.160 HD
BRANCH   6   8
HETATM    8  C7  UNL     1     -34.045   4.707   4.404  1.00 20.00     0.074 C 
HETATM    9  C5  UNL     1     -33.644   3.242   4.327  1.00 20.00     0.031 C 
HETATM   10  C6  UNL     1     -35.521   4.872   4.737  1.00 20.00     0.031 C 
ENDBRANCH   6   8
ENDBRANCH   1   6
TORSDOF 3
ENDMDL
MODEL 8
REMARK VINA RESULT:      -0.5      1.306      3.913
REMARK  3 active torsions:
REMARK  status: ('A' for Active; 'I' for Inactive)
REMARK    1  A    between atoms: C2_2  and  C3_3 
REMARK    2  A    between atoms: C3_3  and  N8_8 
REMARK    3  A    between atoms: C7_7  and  N8_8 
ROOT
HETATM    1  C3  UNL     1     -32.698   6.832   1.764  1.00 20.00     0.102 C 
HETATM    2  S9  UNL     1     -32.092   5.406   1.106  1.00 20.00    -0.060 SA
ENDROOT
BRANCH   1   3
HETATM    3  C2  UNL     1     -31.999   8.144   1.659  1.00 20.00    -0.034 C 
HETATM    4  C1  UNL     1     -32.273   8.907   0.592  1.00 20.00     0.021 C 
HETATM    5  C4  UNL     1     -31.030   8.516   2.735  1.00 20.00     0.050 C 
ENDBRANCH   1   3
BRANCH   1   6
HETATM    6  N8  UNL     1     -33.894   6.815   2.448  1.00 20.00    -0.377 N 
HETATM    7  H22 UNL     1     -34.733   6.967   1.896  1.00 20.00     0.160 HD
BRANCH   6   8
HETATM    8  C7  UNL     1     -34.087   6.581   3.866  1.00 20.00     0.074 C 
HETATM    9  C5  UNL     1     -35.452   5.947   4.086  1.00 20.00     0.031 C 
HETATM   10  C6  UNL     1     -33.955   7.905   4.607  1.00 20.00     0.031 C 
ENDBRANCH   6   8
ENDBRANCH   1   6
TORSDOF 3
ENDMDL
MODEL 9
REMARK VINA RESULT:      -0.4      1.839      2.605
REMARK  3 active torsions:
REMARK  status: ('A' for Active; 'I' for Inactive)
REMARK    1  A    between atoms: C2_2  and  C3_3 
REMARK    2  A    between atoms: C3_3  and  N8_8 
REMARK    3  A    between atoms: C7_7  and  N8_8 
ROOT
HETATM    1  C3  UNL     1     -33.688   7.294   3.713  1.00 20.00     0.102 C 
HETATM    2  S9  UNL     1     -33.182   8.170   5.058  1.00 20.00    -0.060 SA
ENDROOT
BRANCH   1   3
HETATM    3  C2  UNL     1     -34.514   6.058   3.804  1.00 20.00    -0.034 C 
HETATM    4  C1  UNL     1     -35.843   6.208   3.891  1.00 20.00     0.021 C 
HETATM    5  C4  UNL     1     -33.812   4.738   3.809  1.00 20.00     0.050 C 
ENDBRANCH   1   3
BRANCH   1   6
HETATM    6  N8  UNL     1     -33.328   7.712   2.451  1.00 20.00    -0.377 N 
HETATM    7  H22 UNL     1     -34.053   8.158   1.897  1.00 20.00     0.160 HD
BRANCH   6   8
HETATM    8  C7  UNL     1     -32.018   7.606   1.835  1.00 20.00     0.074 C 
HETATM    9  C5  UNL     1     -31.845   8.738   0.832  1.00 20.00     0.031 C 
HETATM   10  C6  UNL     1     -31.894   6.241   1.172  1.00 20.00     0.031 C 
ENDBRANCH   6   8
ENDBRANCH   1   6
TORSDOF 3
ENDMDL
