MODEL 1
REMARK VINA RESULT:      -0.2      0.000      0.000
REMARK  3 active torsions:
REMARK  status: ('A' for Active; 'I' for Inactive)
REMARK    1  A    between atoms: C4_4  and  C10_10 
REMARK    2  A    between atoms: C8_8  and  C10_10 
REMARK    3  A    between atoms: C8_8  and  O11_11 
ROOT
HETATM    1  C1  UNL     1     -34.932   5.098   4.110  1.00 20.00    -0.030 C 
HETATM    2  C2  UNL     1     -33.802   4.529   3.667  1.00 20.00    -0.028 C 
HETATM    3  C5  UNL     1     -35.236   6.555   3.945  1.00 20.00     0.030 C 
HETATM    4  C6  UNL     1     -32.731   5.284   2.931  1.00 20.00     0.065 C 
HETATM    5  C7  UNL     1     -34.016   7.384   3.524  1.00 20.00     0.042 C 
HETATM    6  C8  UNL     1     -33.182   6.676   2.446  1.00 20.00     0.068 C 
ENDROOT
BRANCH   6   7
HETATM    7  C10 UNL     1     -31.974   7.527   2.051  1.00 20.00     0.038 C 
HETATM    8  C9  UNL     1     -31.675   8.567   3.130  1.00 20.00     0.017 C 
BRANCH   7   9
HETATM    9  C4  UNL     1     -32.226   8.206   0.729  1.00 20.00    -0.030 C 
HETATM   10  C3  UNL     1     -32.315   9.532   0.576  1.00 20.00     0.007 C 
ENDBRANCH   7   9
ENDBRANCH   6   7
BRANCH   6  11
HETATM   11  O11 UNL     1     -34.001   6.522   1.281  1.00 20.00    -0.389 OA
HETATM   12  H27 UNL     1     -34.842   6.156   1.590  1.00 20.00     0.210 HD
ENDBRANCH   6  11
TORSDOF 3
ENDMDL
MODEL 2
REMARK VINA RESULT:      -0.0      1.297      2.207
REMARK  3 active torsions:
REMARK  status: ('A' for Active; 'I' for Inactive)
REMARK    1  A    between atoms: C4_4  and  C10_10 
REMARK    2  A    between atoms: C8_8  and  C10_10 
REMARK    3  A    between atoms: C8_8  and  O11_11 
ROOT
HETATM    1  C1  UNL     1     -35.364   5.064   4.723  1.00 20.00    -0.030 C 
HETATM    2  C2  UNL     1     -35.793   6.140   4.050  1.00 20.00    -0.028 C 
HETATM    3  C5  UNL     1     -34.054   4.392   4.447  1.00 20.00     0.030 C 
HETATM    4  C6  UNL     1     -34.995   6.810   2.967  1.00 20.00     0.065 C 
HETATM    5  C7  UNL     1     -33.411   4.841   3.129  1.00 20.00     0.042 C 
HETATM    6  C8  UNL     1     -33.522   6.359   2.920  1.00 20.00     0.068 C 
ENDROOT
BRANCH   6   7
HETATM    7  C10 UNL     1     -32.872   6.773   1.599  1.00 20.00     0.038 C 
HETATM    8  C9  UNL     1     -31.997   5.644   1.055  1.00 20.00     0.017 C 
BRANCH   7   9
HETATM    9  C4  UNL     1     -32.053   8.023   1.791  1.00 20.00    -0.030 C 
HETATM   10  C3  UNL     1     -32.071   9.063   0.949  1.00 20.00     0.007 C 
ENDBRANCH   7   9
ENDBRANCH   6   7
BRANCH   6  11
HETATM   11  O11 UNL     1     -32.802   7.006   3.976  1.00 20.00    -0.389 OA
HETATM   12  H27 UNL     1     -32.185   6.347   4.325  1.00 20.00     0.210 HD
ENDBRANCH   6  11
TORSDOF 3
ENDMDL
MODEL 3
REMARK VINA RESULT:       0.2      1.101      4.327
REMARK  3 active torsions:
REMARK  status: ('A' for Active; 'I' for Inactive)
REMARK    1  A    between atoms: C4_4  and  C10_10 
REMARK    2  A    between atoms: C8_8  and  C10_10 
REMARK    3  A    between atoms: C8_8  and  O11_11 
ROOT
HETATM    1  C1  UNL     1     -31.944   7.999   1.903  1.00 20.00    -0.030 C 
HETATM    2  C2  UNL     1     -32.589   8.218   3.057  1.00 20.00    -0.028 C 
HETATM    3  C5  UNL     1     -32.005   6.700   1.162  1.00 20.00     0.030 C 
HETATM    4  C6  UNL     1     -33.470   7.195   3.717  1.00 20.00     0.065 C 
HETATM    5  C7  UNL     1     -32.597   5.556   1.995  1.00 20.00     0.042 C 
HETATM    6  C8  UNL     1     -33.824   6.006   2.802  1.00 20.00     0.068 C 
ENDROOT
BRANCH   6   7
HETATM    7  C10 UNL     1     -34.388   4.844   3.621  1.00 20.00     0.038 C 
HETATM    8  C9  UNL     1     -35.406   5.352   4.642  1.00 20.00     0.017 C 
BRANCH   7   9
HETATM    9  C4  UNL     1     -33.273   4.108   4.318  1.00 20.00    -0.030 C 
HETATM   10  C3  UNL     1     -33.323   2.809   4.639  1.00 20.00     0.007 C 
ENDBRANCH   7   9
ENDBRANCH   6   7
BRANCH   6  11
HETATM   11  O11 UNL     1     -34.838   6.415   1.877  1.00 20.00    -0.389 OA
HETATM   12  H27 UNL     1     -35.181   5.604   1.476  1.00 20.00     0.210 HD
ENDBRANCH   6  11
TORSDOF 3
ENDMDL
MODEL 4
REMARK VINA RESULT:       0.2      1.554      4.331
REMARK  3 active torsions:
REMARK  status: ('A' for Active; 'I' for Inactive)
REMARK    1  A    between atoms: C4_4  and  C10_10 
REMARK    2  A    between atoms: C8_8  and  C10_10 
REMARK    3  A    between atoms: C8_8  and  O11_11 
ROOT
HETATM    1  C1  UNL     1     -31.938   9.983   0.006  1.00 20.00    -0.030 C 
HETATM    2  C2  UNL     1     -31.399   8.765  -0.141  1.00 20.00    -0.028 C 
HETATM    3  C5  UNL     1     -32.876  10.336   1.119  1.00 20.00     0.030 C 
HETATM    4  C6  UNL     1     -31.652   7.629   0.809  1.00 20.00     0.065 C 
HETATM    5  C7  UNL     1     -33.411   9.110   1.870  1.00 20.00     0.042 C 
HETATM    6  C8  UNL     1     -32.313   8.069   2.131  1.00 20.00     0.068 C 
ENDROOT
BRANCH   6   7
HETATM    7  C10 UNL     1     -32.880   6.861   2.879  1.00 20.00     0.038 C 
HETATM    8  C9  UNL     1     -33.193   5.726   1.905  1.00 20.00     0.017 C 
BRANCH   7   9
HETATM    9  C4  UNL     1     -34.120   7.254   3.638  1.00 20.00    -0.030 C 
HETATM   10  C3  UNL     1     -35.093   6.398   3.974  1.00 20.00     0.007 C 
ENDBRANCH   7   9
ENDBRANCH   6   7
BRANCH   6  11
HETATM   11  O11 UNL     1     -31.321   8.671   2.971  1.00 20.00    -0.389 OA
HETATM   12  H27 UNL     1     -30.719   7.959   3.229  1.00 20.00     0.210 HD
ENDBRANCH   6  11
TORSDOF 3
ENDMDL
MODEL 5
REMARK VINA RESULT:       0.6      1.612      4.085
REMARK  3 active torsions:
REMARK  status: ('A' for Active; 'I' for Inactive)
REMARK    1  A    between atoms: C4_4  and  C10_10 
REMARK    2  A    between atoms: C8_8  and  C10_10 
REMARK    3  A    between atoms: C8_8  and  O11_11 
ROOT
HETATM    1  C1  UNL     1     -31.479   8.506   0.155  1.00 20.00    -0.030 C 
HETATM    2  C2  UNL     1     -31.584   7.271   0.664  1.00 20.00    -0.028 C 
HETATM    3  C5  UNL     1     -32.150   9.702   0.757  1.00 20.00     0.030 C 
HETATM    4  C6  UNL     1     -32.361   6.955   1.911  1.00 20.00     0.065 C 
HETATM    5  C7  UNL     1     -33.215   9.336   1.799  1.00 20.00     0.042 C 
HETATM    6  C8  UNL     1     -32.750   8.204   2.727  1.00 20.00     0.068 C 
ENDROOT
BRANCH   6   7
HETATM    7  C10 UNL     1     -33.834   7.864   3.751  1.00 20.00     0.038 C 
HETATM    8  C9  UNL     1     -33.324   8.106   5.171  1.00 20.00     0.017 C 
BRANCH   7   9
HETATM    9  C4  UNL     1     -34.271   6.431   3.590  1.00 20.00    -0.030 C 
HETATM   10  C3  UNL     1     -35.371   5.919   4.155  1.00 20.00     0.007 C 
ENDBRANCH   7   9
ENDBRANCH   6   7
BRANCH   6  11
HETATM   11  O11 UNL     1     -31.603   8.666   3.449  1.00 20.00    -0.389 OA
HETATM   12  H27 UNL     1     -31.102   9.222   2.835  1.00 20.00     0.210 HD
ENDBRANCH   6  11
TORSDOF 3
ENDMDL
MODEL 6
REMARK VINA RESULT:       0.7      1.395      2.413
REMARK  3 active torsions:
REMARK  status: ('A' for Active; 'I' for Inactive)
REMARK    1  A    between atoms: C4_4  and  C10_10 
REMARK    2  A    between atoms: C8_8  and  C10_10 
REMARK    3  A    between atoms: C8_8  and  O11_11 
ROOT
HETATM    1  C1  UNL     1     -34.009   6.035   3.770  1.00 20.00    -0.030 C 
HETATM    2  C2  UNL     1     -34.238   7.354   3.809  1.00 20.00    -0.028 C 
HETATM    3  C5  UNL     1     -33.218   5.370   2.686  1.00 20.00     0.030 C 
HETATM    4  C6  UNL     1     -33.701   8.316   2.786  1.00 20.00     0.065 C 
HETATM    5  C7  UNL     1     -32.977   6.276   1.472  1.00 20.00     0.042 C 
HETATM    6  C8  UNL     1     -32.608   7.708   1.884  1.00 20.00     0.068 C 
ENDROOT
BRANCH   6   7
HETATM    7  C10 UNL     1     -32.376   8.584   0.652  1.00 20.00     0.038 C 
HETATM    8  C9  UNL     1     -30.922   8.489   0.193  1.00 20.00     0.017 C 
BRANCH   7   9
HETATM    9  C4  UNL     1     -32.735  10.016   0.956  1.00 20.00    -0.030 C 
HETATM   10  C3  UNL     1     -32.670  11.008   0.060  1.00 20.00     0.007 C 
ENDBRANCH   7   9
ENDBRANCH   6   7
BRANCH   6  11
HETATM   11  O11 UNL     1     -31.377   7.656   2.615  1.00 20.00    -0.389 OA
HETATM   12  H27 UNL     1     -31.416   8.375   3.262  1.00 20.00     0.210 HD
ENDBRANCH   6  11
TORSDOF 3
ENDMDL
MODEL 7
REMARK VINA RESULT:       0.8      1.285      1.929
REMARK  3 active torsions:
REMARK  status: ('A' for Active; 'I' for Inactive)
REMARK    1  A    between atoms: C4_4  and  C10_10 
REMARK    2  A    between atoms: C8_8  and  C10_10 
REMARK    3  A    between atoms: C8_8  and  O11_11 
ROOT
HETATM    1  C1  UNL     1     -35.346   5.401   4.530  1.00 20.00    -0.030 C 
HETATM    2  C2  UNL     1     -34.457   4.451   4.211  1.00 20.00    -0.028 C 
HETATM    3  C5  UNL     1     -35.245   6.815   4.049  1.00 20.00     0.030 C 
HETATM    4  C6  UNL     1     -33.278   4.693   3.311  1.00 20.00     0.065 C 
HETATM    5  C7  UNL     1     -33.878   7.149   3.438  1.00 20.00     0.042 C 
HETATM    6  C8  UNL     1     -33.359   6.022   2.534  1.00 20.00     0.068 C 
ENDROOT
BRANCH   6   7
HETATM    7  C10 UNL     1     -31.996   6.386   1.943  1.00 20.00     0.038 C 
HETATM    8  C9  UNL     1     -31.892   7.895   1.727  1.00 20.00     0.017 C 
BRANCH   7   9
HETATM    9  C4  UNL     1     -31.781   5.656   0.643  1.00 20.00    -0.030 C 
HETATM   10  C3  UNL     1     -31.319   4.402   0.558  1.00 20.00     0.007 C 
ENDBRANCH   7   9
ENDBRANCH   6   7
BRANCH   6  11
HETATM   11  O11 UNL     1     -34.275   5.869   1.444  1.00 20.00    -0.389 OA
HETATM   12  H27 UNL     1     -34.545   4.940   1.446  1.00 20.00     0.210 HD
ENDBRANCH   6  11
TORSDOF 3
ENDMDL
MODEL 8
REMARK VINA RESULT:       1.6      1.191      4.197
REMARK  3 active torsions:
REMARK  status: ('A' for Active; 'I' for Inactive)
REMARK    1  A    between atoms: C4_4  and  C10_10 
REMARK    2  A    between atoms: C8_8  and  C10_10 
REMARK    3  A    between atoms: C8_8  and  O11_11 
ROOT
HETATM    1  C1  UNL     1     -31.823   8.802   1.044  1.00 20.00    -0.030 C 
HETATM    2  C2  UNL     1     -32.678   8.103   0.286  1.00 20.00    -0.028 C 
HETATM    3  C5  UNL     1     -31.611   8.533   2.502  1.00 20.00     0.030 C 
HETATM    4  C6  UNL     1     -33.495   6.954   0.807  1.00 20.00     0.065 C 
HETATM    5  C7  UNL     1     -32.681   7.619   3.111  1.00 20.00     0.042 C 
HETATM    6  C8  UNL     1     -33.030   6.444   2.186  1.00 20.00     0.068 C 
ENDROOT
BRANCH   6   7
HETATM    7  C10 UNL     1     -34.100   5.554   2.821  1.00 20.00     0.038 C 
HETATM    8  C9  UNL     1     -34.872   6.324   3.891  1.00 20.00     0.017 C 
BRANCH   7   9
HETATM    9  C4  UNL     1     -33.465   4.324   3.418  1.00 20.00    -0.030 C 
HETATM   10  C3  UNL     1     -33.881   3.747   4.552  1.00 20.00     0.007 C 
ENDBRANCH   7   9
ENDBRANCH   6   7
BRANCH   6  11
HETATM   11  O11 UNL     1     -31.851   5.648   2.016  1.00 20.00    -0.389 OA
HETATM   12  H27 UNL     1     -31.138   6.123   2.465  1.00 20.00     0.210 HD
ENDBRANCH   6  11
TORSDOF 3
ENDMDL
MODEL 9
REMARK VINA RESULT:       1.6      1.049      4.381
REMARK  3 active torsions:
REMARK  status: ('A' for Active; 'I' for Inactive)
REMARK    1  A    between atoms: C4_4  and  C10_10 
REMARK    2  A    between atoms: C8_8  and  C10_10 
REMARK    3  A    between atoms: C8_8  and  O11_11 
ROOT
HETATM    1  C1  UNL     1     -31.956   9.852   0.104  1.00 20.00    -0.030 C 
HETATM    2  C2  UNL     1     -32.978  10.068   0.942  1.00 20.00    -0.028 C 
HETATM    3  C5  UNL     1     -31.117   8.612   0.136  1.00 20.00     0.030 C 
HETATM    4  C6  UNL     1     -33.415   9.079   1.986  1.00 20.00     0.065 C 
HETATM    5  C7  UNL     1     -31.323   7.775   1.405  1.00 20.00     0.042 C 
HETATM    6  C8  UNL     1     -32.805   7.676   1.797  1.00 20.00     0.068 C 
ENDROOT
BRANCH   6   7
HETATM    7  C10 UNL     1     -32.974   6.838   3.065  1.00 20.00     0.038 C 
HETATM    8  C9  UNL     1     -33.055   5.351   2.717  1.00 20.00     0.017 C 
BRANCH   7   9
HETATM    9  C4  UNL     1     -34.211   7.268   3.811  1.00 20.00    -0.030 C 
HETATM   10  C3  UNL     1     -35.271   6.476   4.017  1.00 20.00     0.007 C 
ENDBRANCH   7   9
ENDBRANCH   6   7
BRANCH   6  11
HETATM   11  O11 UNL     1     -33.499   7.004   0.739  1.00 20.00    -0.389 OA
HETATM   12  H27 UNL     1     -34.376   6.789   1.086  1.00 20.00     0.210 HD
ENDBRANCH   6  11
TORSDOF 3
ENDMDL
