MODEL 1
REMARK VINA RESULT:       1.2      0.000      0.000
REMARK  0 active torsions:
REMARK  status: ('A' for Active; 'I' for Inactive)
ROOT
HETATM    1  C1  UNL     1     -32.725   8.178   2.407  1.00 20.00     0.280 C 
HETATM    2  C2  UNL     1     -33.336   7.873   3.769  1.00 20.00     0.104 C 
HETATM    3  C3  UNL     1     -33.432   5.305   2.858  1.00 20.00     0.114 C 
HETATM    4  C4  UNL     1     -32.753   5.840   1.579  1.00 20.00     0.159 C 
HETATM    5  C5  UNL     1     -33.766   6.057   0.438  1.00 20.00     0.049 C 
HETATM    6  C6  UNL     1     -31.738   4.777   1.105  1.00 20.00     0.049 C 
HETATM    7  N7  UNL     1     -31.968   7.060   1.845  1.00 20.00     0.093 N 
HETATM    8  S8  UNL     1     -34.523   6.510   3.670  1.00 20.00    -0.165 SA
HETATM    9  H21 UNL     1     -31.518   7.367   0.984  1.00 20.00     0.316 HD
ENDROOT
TORSDOF 0
ENDMDL
MODEL 2
REMARK VINA RESULT:       1.7      1.193      2.865
REMARK  0 active torsions:
REMARK  status: ('A' for Active; 'I' for Inactive)
ROOT
HETATM    1  C1  UNL     1     -32.644   5.676   2.141  1.00 20.00     0.280 C 
HETATM    2  C2  UNL     1     -33.952   5.746   2.919  1.00 20.00     0.104 C 
HETATM    3  C3  UNL     1     -33.640   8.445   2.682  1.00 20.00     0.114 C 
HETATM    4  C4  UNL     1     -32.370   8.125   1.866  1.00 20.00     0.159 C 
HETATM    5  C5  UNL     1     -31.092   8.267   2.716  1.00 20.00     0.049 C 
HETATM    6  C6  UNL     1     -32.280   9.150   0.714  1.00 20.00     0.049 C 
HETATM    7  N7  UNL     1     -32.449   6.799   1.226  1.00 20.00     0.093 N 
HETATM    8  S8  UNL     1     -34.015   7.219   3.970  1.00 20.00    -0.165 SA
HETATM    9  H21 UNL     1     -31.604   6.637   0.679  1.00 20.00     0.316 HD
ENDROOT
TORSDOF 0
ENDMDL
MODEL 3
REMARK VINA RESULT:       1.9      2.020      2.985
REMARK  0 active torsions:
REMARK  status: ('A' for Active; 'I' for Inactive)
ROOT
HETATM    1  C1  UNL     1     -32.378   7.936   3.560  1.00 20.00     0.280 C 
HETATM    2  C2  UNL     1     -32.035   7.942   2.075  1.00 20.00     0.104 C 
HETATM    3  C3  UNL     1     -33.998   6.058   1.886  1.00 20.00     0.114 C 
HETATM    4  C4  UNL     1     -34.203   6.265   3.402  1.00 20.00     0.159 C 
HETATM    5  C5  UNL     1     -33.518   5.160   4.229  1.00 20.00     0.049 C 
HETATM    6  C6  UNL     1     -35.719   6.188   3.686  1.00 20.00     0.049 C 
HETATM    7  N7  UNL     1     -33.776   7.608   3.835  1.00 20.00     0.093 N 
HETATM    8  S8  UNL     1     -32.285   6.309   1.335  1.00 20.00    -0.165 SA
HETATM    9  H21 UNL     1     -33.950   7.713   4.834  1.00 20.00     0.316 HD
ENDROOT
TORSDOF 0
ENDMDL
MODEL 4
REMARK VINA RESULT:       1.9      1.880      2.852
REMARK  0 active torsions:
REMARK  status: ('A' for Active; 'I' for Inactive)
ROOT
HETATM    1  C1  UNL     1     -32.994   6.403   1.377  1.00 20.00     0.280 C 
HETATM    2  C2  UNL     1     -31.961   7.392   1.903  1.00 20.00     0.104 C 
HETATM    3  C3  UNL     1     -33.393   7.249   4.220  1.00 20.00     0.114 C 
HETATM    4  C4  UNL     1     -34.278   6.216   3.490  1.00 20.00     0.159 C 
HETATM    5  C5  UNL     1     -35.586   6.845   2.972  1.00 20.00     0.049 C 
HETATM    6  C6  UNL     1     -34.660   5.120   4.510  1.00 20.00     0.049 C 
HETATM    7  N7  UNL     1     -33.544   5.528   2.412  1.00 20.00     0.093 N 
HETATM    8  S8  UNL     1     -32.686   8.515   3.125  1.00 20.00    -0.165 SA
HETATM    9  H21 UNL     1     -34.153   4.840   1.972  1.00 20.00     0.316 HD
ENDROOT
TORSDOF 0
ENDMDL
MODEL 5
REMARK VINA RESULT:       2.0      1.713      2.663
REMARK  0 active torsions:
REMARK  status: ('A' for Active; 'I' for Inactive)
ROOT
HETATM    1  C1  UNL     1     -34.174   7.277   3.518  1.00 20.00     0.280 C 
HETATM    2  C2  UNL     1     -34.082   5.785   3.221  1.00 20.00     0.104 C 
HETATM    3  C3  UNL     1     -31.888   6.482   1.759  1.00 20.00     0.114 C 
HETATM    4  C4  UNL     1     -32.151   7.925   2.240  1.00 20.00     0.159 C 
HETATM    5  C5  UNL     1     -32.868   8.766   1.166  1.00 20.00     0.049 C 
HETATM    6  C6  UNL     1     -30.782   8.586   2.512  1.00 20.00     0.049 C 
HETATM    7  N7  UNL     1     -32.877   7.952   3.522  1.00 20.00     0.093 N 
HETATM    8  S8  UNL     1     -33.394   5.483   1.574  1.00 20.00    -0.165 SA
HETATM    9  H21 UNL     1     -33.009   8.919   3.817  1.00 20.00     0.316 HD
ENDROOT
TORSDOF 0
ENDMDL
MODEL 6
REMARK VINA RESULT:       2.3      1.820      3.478
REMARK  0 active torsions:
REMARK  status: ('A' for Active; 'I' for Inactive)
ROOT
HETATM    1  C1  UNL     1     -33.489   5.610   2.124  1.00 20.00     0.280 C 
HETATM    2  C2  UNL     1     -32.190   6.011   1.436  1.00 20.00     0.104 C 
HETATM    3  C3  UNL     1     -32.295   8.180   3.086  1.00 20.00     0.114 C 
HETATM    4  C4  UNL     1     -33.575   7.545   3.671  1.00 20.00     0.159 C 
HETATM    5  C5  UNL     1     -34.850   8.191   3.094  1.00 20.00     0.049 C 
HETATM    6  C6  UNL     1     -33.571   7.801   5.194  1.00 20.00     0.049 C 
HETATM    7  N7  UNL     1     -33.586   6.080   3.505  1.00 20.00     0.093 N 
HETATM    8  S8  UNL     1     -32.030   7.811   1.327  1.00 20.00    -0.165 SA
HETATM    9  H21 UNL     1     -34.433   5.699   3.924  1.00 20.00     0.316 HD
ENDROOT
TORSDOF 0
ENDMDL
MODEL 7
REMARK VINA RESULT:       2.5      1.832      2.316
REMARK  0 active torsions:
REMARK  status: ('A' for Active; 'I' for Inactive)
ROOT
HETATM    1  C1  UNL     1     -35.280   6.476   3.681  1.00 20.00     0.280 C 
HETATM    2  C2  UNL     1     -34.924   5.302   4.586  1.00 20.00     0.104 C 
HETATM    3  C3  UNL     1     -32.664   5.159   3.065  1.00 20.00     0.114 C 
HETATM    4  C4  UNL     1     -33.207   6.398   2.322  1.00 20.00     0.159 C 
HETATM    5  C5  UNL     1     -33.874   6.018   0.985  1.00 20.00     0.049 C 
HETATM    6  C6  UNL     1     -32.009   7.317   2.000  1.00 20.00     0.049 C 
HETATM    7  N7  UNL     1     -34.113   7.194   3.171  1.00 20.00     0.093 N 
HETATM    8  S8  UNL     1     -33.960   4.054   3.697  1.00 20.00    -0.165 SA
HETATM    9  H21 UNL     1     -34.430   8.013   2.653  1.00 20.00     0.316 HD
ENDROOT
TORSDOF 0
ENDMDL
MODEL 8
REMARK VINA RESULT:       2.5      1.633      2.282
REMARK  0 active torsions:
REMARK  status: ('A' for Active; 'I' for Inactive)
ROOT
HETATM    1  C1  UNL     1     -34.027   6.290   3.849  1.00 20.00     0.280 C 
HETATM    2  C2  UNL     1     -33.808   7.798   3.885  1.00 20.00     0.104 C 
HETATM    3  C3  UNL     1     -32.562   7.408   1.490  1.00 20.00     0.114 C 
HETATM    4  C4  UNL     1     -32.946   5.921   1.647  1.00 20.00     0.159 C 
HETATM    5  C5  UNL     1     -31.764   5.074   2.158  1.00 20.00     0.049 C 
HETATM    6  C6  UNL     1     -33.335   5.386   0.252  1.00 20.00     0.049 C 
HETATM    7  N7  UNL     1     -34.141   5.750   2.495  1.00 20.00     0.093 N 
HETATM    8  S8  UNL     1     -32.261   8.259   3.067  1.00 20.00    -0.165 SA
HETATM    9  H21 UNL     1     -34.375   4.759   2.554  1.00 20.00     0.316 HD
ENDROOT
TORSDOF 0
ENDMDL
MODEL 9
REMARK VINA RESULT:       3.0      1.385      3.244
REMARK  0 active torsions:
REMARK  status: ('A' for Active; 'I' for Inactive)
ROOT
HETATM    1  C1  UNL     1     -32.076   6.830   1.924  1.00 20.00     0.280 C 
HETATM    2  C2  UNL     1     -32.723   5.462   1.744  1.00 20.00     0.104 C 
HETATM    3  C3  UNL     1     -34.563   6.391   3.530  1.00 20.00     0.114 C 
HETATM    4  C4  UNL     1     -33.768   7.714   3.507  1.00 20.00     0.159 C 
HETATM    5  C5  UNL     1     -32.835   7.844   4.726  1.00 20.00     0.049 C 
HETATM    6  C6  UNL     1     -34.785   8.875   3.572  1.00 20.00     0.049 C 
HETATM    7  N7  UNL     1     -33.032   7.890   2.241  1.00 20.00     0.093 N 
HETATM    8  S8  UNL     1     -33.539   4.914   3.264  1.00 20.00    -0.165 SA
HETATM    9  H21 UNL     1     -32.541   8.783   2.256  1.00 20.00     0.316 HD
ENDROOT
TORSDOF 0
ENDMDL
