MODEL 1
REMARK VINA RESULT:      -1.6      0.000      0.000
REMARK  2 active torsions:
REMARK  status: ('A' for Active; 'I' for Inactive)
REMARK    1  A    between atoms: C1_1  and  C3_3 
REMARK    2  A    between atoms: C2_2  and  N9_9 
ROOT
HETATM    1  C1  UNL     1     -33.252   7.386   2.987  1.00 20.00     0.050 C 
HETATM    2  C2  UNL     1     -32.476   7.322   1.889  1.00 20.00     0.002 C 
HETATM    3  C4  UNL     1     -32.322   6.005   1.174  1.00 20.00     0.068 C 
ENDROOT
BRANCH   1   4
HETATM    4  C3  UNL     1     -33.977   6.204   3.538  1.00 20.00     0.026 C 
HETATM    5  C5  UNL     1     -35.433   6.433   3.883  1.00 20.00     0.070 C 
HETATM    6  N8  UNL     1     -33.375   5.067   3.667  1.00 20.00    -0.299 NA
HETATM    7  C6  UNL     1     -34.125   3.937   4.194  1.00 20.00     0.177 C 
ENDBRANCH   1   4
BRANCH   2   8
HETATM    8  N9  UNL     1     -31.795   8.366   1.327  1.00 20.00    -0.398 N 
HETATM    9  C7  UNL     1     -32.498   9.400   0.620  1.00 20.00     0.146 C 
HETATM   10  H23 UNL     1     -30.810   8.365   1.435  1.00 20.00     0.158 HD
ENDBRANCH   2   8
TORSDOF 2
ENDMDL
MODEL 2
REMARK VINA RESULT:      -1.2      1.186      1.470
REMARK  2 active torsions:
REMARK  status: ('A' for Active; 'I' for Inactive)
REMARK    1  A    between atoms: C1_1  and  C3_3 
REMARK    2  A    between atoms: C2_2  and  N9_9 
ROOT
HETATM    1  C1  UNL     1     -33.105   8.338   2.646  1.00 20.00     0.050 C 
HETATM    2  C2  UNL     1     -32.282   7.855   1.696  1.00 20.00     0.002 C 
HETATM    3  C4  UNL     1     -32.003   6.375   1.650  1.00 20.00     0.068 C 
ENDROOT
BRANCH   1   4
HETATM    4  C3  UNL     1     -33.762   7.471   3.667  1.00 20.00     0.026 C 
HETATM    5  C5  UNL     1     -33.473   7.827   5.109  1.00 20.00     0.070 C 
HETATM    6  N8  UNL     1     -34.547   6.510   3.305  1.00 20.00    -0.299 NA
HETATM    7  C6  UNL     1     -35.180   5.701   4.335  1.00 20.00     0.177 C 
ENDBRANCH   1   4
BRANCH   2   8
HETATM    8  N9  UNL     1     -31.657   8.590   0.727  1.00 20.00    -0.398 N 
HETATM    9  C7  UNL     1     -32.299   9.742   0.157  1.00 20.00     0.146 C 
HETATM   10  H23 UNL     1     -30.757   8.286   0.449  1.00 20.00     0.158 HD
ENDBRANCH   2   8
TORSDOF 2
ENDMDL
MODEL 3
REMARK VINA RESULT:      -1.1      1.058      4.555
REMARK  2 active torsions:
REMARK  status: ('A' for Active; 'I' for Inactive)
REMARK    1  A    between atoms: C1_1  and  C3_3 
REMARK    2  A    between atoms: C2_2  and  N9_9 
ROOT
HETATM    1  C1  UNL     1     -33.097   6.566   2.250  1.00 20.00     0.050 C 
HETATM    2  C2  UNL     1     -33.903   6.489   3.325  1.00 20.00     0.002 C 
HETATM    3  C4  UNL     1     -34.152   7.727   4.147  1.00 20.00     0.068 C 
ENDROOT
BRANCH   1   4
HETATM    4  C3  UNL     1     -32.428   7.832   1.827  1.00 20.00     0.026 C 
HETATM    5  C5  UNL     1     -31.201   8.220   2.622  1.00 20.00     0.070 C 
HETATM    6  N8  UNL     1     -32.879   8.506   0.821  1.00 20.00    -0.299 NA
HETATM    7  C6  UNL     1     -32.186   9.725   0.432  1.00 20.00     0.177 C 
ENDBRANCH   1   4
BRANCH   2   8
HETATM    8  N9  UNL     1     -34.553   5.368   3.761  1.00 20.00    -0.398 N 
HETATM    9  C7  UNL     1     -33.827   4.153   4.008  1.00 20.00     0.146 C 
HETATM   10  H23 UNL     1     -35.532   5.443   3.893  1.00 20.00     0.158 HD
ENDBRANCH   2   8
TORSDOF 2
ENDMDL
MODEL 4
REMARK VINA RESULT:      -0.8      1.205      4.509
REMARK  2 active torsions:
REMARK  status: ('A' for Active; 'I' for Inactive)
REMARK    1  A    between atoms: C1_1  and  C3_3 
REMARK    2  A    between atoms: C2_2  and  N9_9 
ROOT
HETATM    1  C1  UNL     1     -33.078   5.253   2.740  1.00 20.00     0.050 C 
HETATM    2  C2  UNL     1     -34.057   5.222   3.663  1.00 20.00     0.002 C 
HETATM    3  C4  UNL     1     -35.009   6.385   3.763  1.00 20.00     0.068 C 
ENDROOT
BRANCH   1   4
HETATM    4  C3  UNL     1     -32.887   6.395   1.798  1.00 20.00     0.026 C 
HETATM    5  C5  UNL     1     -33.440   6.192   0.405  1.00 20.00     0.070 C 
HETATM    6  N8  UNL     1     -32.310   7.481   2.194  1.00 20.00    -0.299 NA
HETATM    7  C6  UNL     1     -32.158   8.576   1.247  1.00 20.00     0.177 C 
ENDBRANCH   1   4
BRANCH   2   8
HETATM    8  N9  UNL     1     -34.294   4.206   4.547  1.00 20.00    -0.398 N 
HETATM    9  C7  UNL     1     -33.385   3.099   4.647  1.00 20.00     0.146 C 
HETATM   10  H23 UNL     1     -35.112   4.279   5.101  1.00 20.00     0.158 HD
ENDBRANCH   2   8
TORSDOF 2
ENDMDL
MODEL 5
REMARK VINA RESULT:      -0.7      1.233      4.416
REMARK  2 active torsions:
REMARK  status: ('A' for Active; 'I' for Inactive)
REMARK    1  A    between atoms: C1_1  and  C3_3 
REMARK    2  A    between atoms: C2_2  and  N9_9 
ROOT
HETATM    1  C1  UNL     1     -33.131   7.669   2.709  1.00 20.00     0.050 C 
HETATM    2  C2  UNL     1     -33.409   6.355   2.615  1.00 20.00     0.002 C 
HETATM    3  C4  UNL     1     -32.920   5.585   1.416  1.00 20.00     0.068 C 
ENDROOT
BRANCH   1   4
HETATM    4  C3  UNL     1     -32.352   8.409   1.673  1.00 20.00     0.026 C 
HETATM    5  C5  UNL     1     -30.891   8.032   1.561  1.00 20.00     0.070 C 
HETATM    6  N8  UNL     1     -32.931   9.285   0.919  1.00 20.00    -0.299 NA
HETATM    7  C6  UNL     1     -32.138   9.972  -0.089  1.00 20.00     0.177 C 
ENDBRANCH   1   4
BRANCH   2   8
HETATM    8  N9  UNL     1     -34.106   5.616   3.530  1.00 20.00    -0.398 N 
HETATM    9  C7  UNL     1     -35.305   6.135   4.126  1.00 20.00     0.146 C 
HETATM   10  H23 UNL     1     -33.742   4.721   3.750  1.00 20.00     0.158 HD
ENDBRANCH   2   8
TORSDOF 2
ENDMDL
MODEL 6
REMARK VINA RESULT:      -0.5      1.177      1.886
REMARK  2 active torsions:
REMARK  status: ('A' for Active; 'I' for Inactive)
REMARK    1  A    between atoms: C1_1  and  C3_3 
REMARK    2  A    between atoms: C2_2  and  N9_9 
ROOT
HETATM    1  C1  UNL     1     -33.059   6.767   1.693  1.00 20.00     0.050 C 
HETATM    2  C2  UNL     1     -32.305   7.865   1.885  1.00 20.00     0.002 C 
HETATM    3  C4  UNL     1     -32.131   8.402   3.283  1.00 20.00     0.068 C 
ENDROOT
BRANCH   1   4
HETATM    4  C3  UNL     1     -33.741   6.046   2.808  1.00 20.00     0.026 C 
HETATM    5  C5  UNL     1     -33.124   4.721   3.202  1.00 20.00     0.070 C 
HETATM    6  N8  UNL     1     -34.769   6.566   3.394  1.00 20.00    -0.299 NA
HETATM    7  C6  UNL     1     -35.393   5.835   4.486  1.00 20.00     0.177 C 
ENDBRANCH   1   4
BRANCH   2   8
HETATM    8  N9  UNL     1     -31.646   8.566   0.914  1.00 20.00    -0.398 N 
HETATM    9  C7  UNL     1     -32.266   9.698   0.284  1.00 20.00     0.146 C 
HETATM   10  H23 UNL     1     -30.737   8.252   0.677  1.00 20.00     0.158 HD
ENDBRANCH   2   8
TORSDOF 2
ENDMDL
MODEL 7
REMARK VINA RESULT:      -0.5      1.221      4.468
REMARK  2 active torsions:
REMARK  status: ('A' for Active; 'I' for Inactive)
REMARK    1  A    between atoms: C1_1  and  C3_3 
REMARK    2  A    between atoms: C2_2  and  N9_9 
ROOT
HETATM    1  C1  UNL     1     -33.050   5.517   3.057  1.00 20.00     0.050 C 
HETATM    2  C2  UNL     1     -34.091   4.995   3.733  1.00 20.00     0.002 C 
HETATM    3  C4  UNL     1     -35.232   5.895   4.132  1.00 20.00     0.068 C 
ENDROOT
BRANCH   1   4
HETATM    4  C3  UNL     1     -32.967   6.958   2.679  1.00 20.00     0.026 C 
HETATM    5  C5  UNL     1     -33.581   7.928   3.665  1.00 20.00     0.070 C 
HETATM    6  N8  UNL     1     -32.374   7.316   1.588  1.00 20.00    -0.299 NA
HETATM    7  C6  UNL     1     -32.303   8.734   1.266  1.00 20.00     0.177 C 
ENDBRANCH   1   4
BRANCH   2   8
HETATM    8  N9  UNL     1     -34.234   3.686   4.101  1.00 20.00    -0.398 N 
HETATM    9  C7  UNL     1     -33.161   2.992   4.756  1.00 20.00     0.146 C 
HETATM   10  H23 UNL     1     -35.102   3.258   3.893  1.00 20.00     0.158 HD
ENDBRANCH   2   8
TORSDOF 2
ENDMDL
MODEL 8
REMARK VINA RESULT:      -0.3      1.419      2.204
REMARK  2 active torsions:
REMARK  status: ('A' for Active; 'I' for Inactive)
REMARK    1  A    between atoms: C1_1  and  C3_3 
REMARK    2  A    between atoms: C2_2  and  N9_9 
ROOT
HETATM    1  C1  UNL     1     -32.905   7.402   1.071  1.00 20.00     0.050 C 
HETATM    2  C2  UNL     1     -32.181   8.461   1.476  1.00 20.00     0.002 C 
HETATM    3  C4  UNL     1     -31.433   8.384   2.782  1.00 20.00     0.068 C 
ENDROOT
BRANCH   1   4
HETATM    4  C3  UNL     1     -33.005   6.138   1.859  1.00 20.00     0.026 C 
HETATM    5  C5  UNL     1     -32.099   5.013   1.409  1.00 20.00     0.070 C 
HETATM    6  N8  UNL     1     -33.803   6.060   2.874  1.00 20.00    -0.299 NA
HETATM    7  C6  UNL     1     -33.857   4.815   3.624  1.00 20.00     0.177 C 
ENDBRANCH   1   4
BRANCH   2   8
HETATM    8  N9  UNL     1     -32.037   9.641   0.799  1.00 20.00    -0.398 N 
HETATM    9  C7  UNL     1     -32.748   9.868  -0.428  1.00 20.00     0.146 C 
HETATM   10  H23 UNL     1     -31.429  10.312   1.199  1.00 20.00     0.158 HD
ENDBRANCH   2   8
TORSDOF 2
ENDMDL
MODEL 9
REMARK VINA RESULT:       0.9      1.792      2.785
REMARK  2 active torsions:
REMARK  status: ('A' for Active; 'I' for Inactive)
REMARK    1  A    between atoms: C1_1  and  C3_3 
REMARK    2  A    between atoms: C2_2  and  N9_9 
ROOT
HETATM    1  C1  UNL     1     -33.396   5.768   2.531  1.00 20.00     0.050 C 
HETATM    2  C2  UNL     1     -32.472   6.209   1.657  1.00 20.00     0.002 C 
HETATM    3  C4  UNL     1     -32.023   7.646   1.726  1.00 20.00     0.068 C 
ENDROOT
BRANCH   1   4
HETATM    4  C3  UNL     1     -34.004   6.640   3.578  1.00 20.00     0.026 C 
HETATM    5  C5  UNL     1     -35.431   6.307   3.957  1.00 20.00     0.070 C 
HETATM    6  N8  UNL     1     -33.314   7.586   4.125  1.00 20.00    -0.299 NA
HETATM    7  C6  UNL     1     -33.942   8.401   5.154  1.00 20.00     0.177 C 
ENDBRANCH   1   4
BRANCH   2   8
HETATM    8  N9  UNL     1     -31.869   5.464   0.682  1.00 20.00    -0.398 N 
HETATM    9  C7  UNL     1     -32.530   4.315   0.129  1.00 20.00     0.146 C 
HETATM   10  H23 UNL     1     -30.970   5.759   0.389  1.00 20.00     0.158 HD
ENDBRANCH   2   8
TORSDOF 2
ENDMDL
