MODEL 1
REMARK VINA RESULT:      -2.3      0.000      0.000
REMARK  2 active torsions:
REMARK  status: ('A' for Active; 'I' for Inactive)
REMARK    1  A    between atoms: C5_5  and  C8_8 
REMARK    2  A    between atoms: C6_6  and  N9_9 
ROOT
HETATM    1  C1  UNL     1     -32.283   8.363   3.107  1.00 20.00     0.006 C 
HETATM    2  C2  UNL     1     -32.169   6.308   1.639  1.00 20.00     0.006 C 
HETATM    3  C3  UNL     1     -33.671   7.944   3.588  1.00 20.00     0.024 C 
HETATM    4  C4  UNL     1     -33.558   5.886   2.119  1.00 20.00     0.024 C 
HETATM    5  C5  UNL     1     -31.944   7.825   1.710  1.00 20.00    -0.015 C 
HETATM    6  C6  UNL     1     -33.854   6.429   3.515  1.00 20.00     0.109 C 
ENDROOT
BRANCH   5   7
HETATM    7  C8  UNL     1     -32.720   8.563   0.615  1.00 20.00     0.000 C 
HETATM    8  C7  UNL     1     -32.311   9.996   0.522  1.00 20.00     0.005 C 
ENDBRANCH   5   7
BRANCH   6   9
HETATM    9  N9  UNL     1     -35.235   6.091   3.880  1.00 20.00    -0.059 NA
HETATM   10  O10 UNL     1     -35.300   4.984   4.412  1.00 20.00    -0.101 OA
ENDBRANCH   6   9
TORSDOF 2
ENDMDL
MODEL 2
REMARK VINA RESULT:      -1.1      2.871      4.419
REMARK  2 active torsions:
REMARK  status: ('A' for Active; 'I' for Inactive)
REMARK    1  A    between atoms: C5_5  and  C8_8 
REMARK    2  A    between atoms: C6_6  and  N9_9 
ROOT
HETATM    1  C1  UNL     1     -34.777   6.275   3.889  1.00 20.00     0.006 C 
HETATM    2  C2  UNL     1     -33.690   4.834   2.119  1.00 20.00     0.006 C 
HETATM    3  C3  UNL     1     -33.705   7.344   3.680  1.00 20.00     0.024 C 
HETATM    4  C4  UNL     1     -32.617   5.901   1.907  1.00 20.00     0.024 C 
HETATM    5  C5  UNL     1     -34.296   4.862   3.529  1.00 20.00    -0.015 C 
HETATM    6  C6  UNL     1     -33.136   7.294   2.263  1.00 20.00     0.109 C 
ENDROOT
BRANCH   5   7
HETATM    7  C8  UNL     1     -33.320   4.313   4.575  1.00 20.00     0.000 C 
HETATM    8  C7  UNL     1     -33.319   2.821   4.597  1.00 20.00     0.005 C 
ENDBRANCH   5   7
BRANCH   6   9
HETATM    9  N9  UNL     1     -32.037   8.260   2.149  1.00 20.00    -0.059 NA
HETATM   10  O10 UNL     1     -32.089   8.873   1.085  1.00 20.00    -0.101 OA
ENDBRANCH   6   9
TORSDOF 2
ENDMDL
MODEL 3
REMARK VINA RESULT:      -0.7      2.286      3.262
REMARK  2 active torsions:
REMARK  status: ('A' for Active; 'I' for Inactive)
REMARK    1  A    between atoms: C5_5  and  C8_8 
REMARK    2  A    between atoms: C6_6  and  N9_9 
ROOT
HETATM    1  C1  UNL     1     -33.406   6.020   2.371  1.00 20.00     0.006 C 
HETATM    2  C2  UNL     1     -35.453   6.269   3.834  1.00 20.00     0.006 C 
HETATM    3  C3  UNL     1     -32.975   4.798   3.180  1.00 20.00     0.024 C 
HETATM    4  C4  UNL     1     -35.024   5.047   4.645  1.00 20.00     0.024 C 
HETATM    5  C5  UNL     1     -34.273   6.999   3.176  1.00 20.00    -0.015 C 
HETATM    6  C6  UNL     1     -34.175   4.092   3.809  1.00 20.00     0.109 C 
ENDROOT
BRANCH   5   7
HETATM    7  C8  UNL     1     -33.444   7.775   4.204  1.00 20.00     0.000 C 
HETATM    8  C7  UNL     1     -32.266   8.439   3.572  1.00 20.00     0.005 C 
ENDBRANCH   5   7
BRANCH   6   9
HETATM    9  N9  UNL     1     -33.699   2.997   4.662  1.00 20.00    -0.059 NA
HETATM   10  O10 UNL     1     -32.508   3.129   4.938  1.00 20.00    -0.101 OA
ENDBRANCH   6   9
TORSDOF 2
ENDMDL
MODEL 4
REMARK VINA RESULT:      -0.4      2.998      4.348
REMARK  2 active torsions:
REMARK  status: ('A' for Active; 'I' for Inactive)
REMARK    1  A    between atoms: C5_5  and  C8_8 
REMARK    2  A    between atoms: C6_6  and  N9_9 
ROOT
HETATM    1  C1  UNL     1     -32.797   5.874   2.236  1.00 20.00     0.006 C 
HETATM    2  C2  UNL     1     -32.595   7.837   3.818  1.00 20.00     0.006 C 
HETATM    3  C3  UNL     1     -32.733   6.827   1.044  1.00 20.00     0.024 C 
HETATM    4  C4  UNL     1     -32.530   8.792   2.626  1.00 20.00     0.024 C 
HETATM    5  C5  UNL     1     -33.351   6.537   3.506  1.00 20.00    -0.015 C 
HETATM    6  C6  UNL     1     -31.964   8.102   1.387  1.00 20.00     0.109 C 
ENDROOT
BRANCH   5   7
HETATM    7  C8  UNL     1     -34.861   6.771   3.409  1.00 20.00     0.000 C 
HETATM    8  C7  UNL     1     -35.623   5.805   4.256  1.00 20.00     0.005 C 
ENDBRANCH   5   7
BRANCH   6   9
HETATM    9  N9  UNL     1     -32.027   9.026   0.249  1.00 20.00    -0.059 NA
HETATM   10  O10 UNL     1     -32.568  10.085   0.562  1.00 20.00    -0.101 OA
ENDBRANCH   6   9
TORSDOF 2
ENDMDL
MODEL 5
REMARK VINA RESULT:       0.6      1.659      2.470
REMARK  2 active torsions:
REMARK  status: ('A' for Active; 'I' for Inactive)
REMARK    1  A    between atoms: C5_5  and  C8_8 
REMARK    2  A    between atoms: C6_6  and  N9_9 
ROOT
HETATM    1  C1  UNL     1     -33.009   5.853   1.368  1.00 20.00     0.006 C 
HETATM    2  C2  UNL     1     -34.128   7.624   2.785  1.00 20.00     0.006 C 
HETATM    3  C3  UNL     1     -33.136   4.853   2.516  1.00 20.00     0.024 C 
HETATM    4  C4  UNL     1     -34.257   6.625   3.934  1.00 20.00     0.024 C 
HETATM    5  C5  UNL     1     -32.954   7.312   1.846  1.00 20.00    -0.015 C 
HETATM    6  C6  UNL     1     -34.321   5.188   3.421  1.00 20.00     0.109 C 
ENDROOT
BRANCH   5   7
HETATM    7  C8  UNL     1     -31.607   7.645   2.494  1.00 20.00     0.000 C 
HETATM    8  C7  UNL     1     -31.702   8.846   3.375  1.00 20.00     0.005 C 
ENDBRANCH   5   7
BRANCH   6   9
HETATM    9  N9  UNL     1     -34.331   4.268   4.564  1.00 20.00    -0.059 NA
HETATM   10  O10 UNL     1     -33.515   3.360   4.416  1.00 20.00    -0.101 OA
ENDBRANCH   6   9
TORSDOF 2
ENDMDL
