MODEL 1
REMARK VINA RESULT:      -0.8      0.000      0.000
REMARK  1 active torsions:
REMARK  status: ('A' for Active; 'I' for Inactive)
REMARK    1  A    between atoms: C2_2  and  C6_6 
ROOT
HETATM    1  C1  UNL     1     -33.670   7.271   3.715  1.00 20.00     0.134 A 
HETATM    2  C2  UNL     1     -33.732   6.000   3.184  1.00 20.00     0.006 A 
HETATM    3  C3  UNL     1     -32.418   7.592   1.943  1.00 20.00     0.167 A 
HETATM    4  N7  UNL     1     -32.916   8.185   3.005  1.00 20.00    -0.240 NA
HETATM    5  S8  UNL     1     -32.816   5.935   1.735  1.00 20.00    -0.061 SA
HETATM    6 CL9  UNL     1     -31.422   8.391   0.800  1.00 20.00    -0.054 Cl
ENDROOT
BRANCH   2   7
HETATM    7  C6  UNL     1     -34.457   4.768   3.693  1.00 20.00     0.019 C 
HETATM    8  C4  UNL     1     -35.512   5.129   4.741  1.00 20.00     0.015 C 
HETATM    9  C5  UNL     1     -33.478   3.726   4.240  1.00 20.00     0.015 C 
ENDBRANCH   2   7
TORSDOF 1
ENDMDL
MODEL 2
REMARK VINA RESULT:      -0.5      1.364      1.547
REMARK  1 active torsions:
REMARK  status: ('A' for Active; 'I' for Inactive)
REMARK    1  A    between atoms: C2_2  and  C6_6 
ROOT
HETATM    1  C1  UNL     1     -32.677   5.312   1.799  1.00 20.00     0.134 A 
HETATM    2  C2  UNL     1     -33.549   5.566   2.837  1.00 20.00     0.006 A 
HETATM    3  C3  UNL     1     -32.492   7.496   1.859  1.00 20.00     0.167 A 
HETATM    4  N7  UNL     1     -32.069   6.418   1.237  1.00 20.00    -0.240 NA
HETATM    5  S8  UNL     1     -33.618   7.255   3.131  1.00 20.00    -0.061 SA
HETATM    6 CL9  UNL     1     -31.970   9.079   1.456  1.00 20.00    -0.054 Cl
ENDROOT
BRANCH   2   7
HETATM    7  C6  UNL     1     -34.374   4.604   3.670  1.00 20.00     0.019 C 
HETATM    8  C4  UNL     1     -35.336   5.348   4.600  1.00 20.00     0.015 C 
HETATM    9  C5  UNL     1     -33.486   3.640   4.461  1.00 20.00     0.015 C 
ENDBRANCH   2   7
TORSDOF 1
ENDMDL
MODEL 3
REMARK VINA RESULT:      -0.4      2.104      2.612
REMARK  1 active torsions:
REMARK  status: ('A' for Active; 'I' for Inactive)
REMARK    1  A    between atoms: C2_2  and  C6_6 
ROOT
HETATM    1  C1  UNL     1     -32.409   7.707   2.145  1.00 20.00     0.134 A 
HETATM    2  C2  UNL     1     -33.386   6.996   2.808  1.00 20.00     0.006 A 
HETATM    3  C3  UNL     1     -32.049   5.739   1.249  1.00 20.00     0.167 A 
HETATM    4  N7  UNL     1     -31.641   6.988   1.250  1.00 20.00    -0.240 NA
HETATM    5  S8  UNL     1     -33.353   5.359   2.298  1.00 20.00    -0.061 SA
HETATM    6 CL9  UNL     1     -31.347   4.521   0.267  1.00 20.00    -0.054 Cl
ENDROOT
BRANCH   2   7
HETATM    7  C6  UNL     1     -34.394   7.461   3.841  1.00 20.00     0.019 C 
HETATM    8  C4  UNL     1     -33.706   8.049   5.075  1.00 20.00     0.015 C 
HETATM    9  C5  UNL     1     -35.353   6.335   4.238  1.00 20.00     0.015 C 
ENDBRANCH   2   7
TORSDOF 1
ENDMDL
MODEL 4
REMARK VINA RESULT:      -0.4      1.435      1.960
REMARK  1 active torsions:
REMARK  status: ('A' for Active; 'I' for Inactive)
REMARK    1  A    between atoms: C2_2  and  C6_6 
ROOT
HETATM    1  C1  UNL     1     -32.784   5.705   1.904  1.00 20.00     0.134 A 
HETATM    2  C2  UNL     1     -33.399   6.216   3.028  1.00 20.00     0.006 A 
HETATM    3  C3  UNL     1     -32.356   7.830   1.575  1.00 20.00     0.167 A 
HETATM    4  N7  UNL     1     -32.186   6.629   1.070  1.00 20.00    -0.240 NA
HETATM    5  S8  UNL     1     -33.225   7.923   3.052  1.00 20.00    -0.061 SA
HETATM    6 CL9  UNL     1     -31.758   9.255   0.834  1.00 20.00    -0.054 Cl
ENDROOT
BRANCH   2   7
HETATM    7  C6  UNL     1     -34.140   5.502   4.141  1.00 20.00     0.019 C 
HETATM    8  C4  UNL     1     -33.974   3.983   4.044  1.00 20.00     0.015 C 
HETATM    9  C5  UNL     1     -35.622   5.888   4.168  1.00 20.00     0.015 C 
ENDBRANCH   2   7
TORSDOF 1
ENDMDL
MODEL 5
REMARK VINA RESULT:       0.0      2.730      4.540
REMARK  1 active torsions:
REMARK  status: ('A' for Active; 'I' for Inactive)
REMARK    1  A    between atoms: C2_2  and  C6_6 
ROOT
HETATM    1  C1  UNL     1     -32.634   6.289   1.616  1.00 20.00     0.134 A 
HETATM    2  C2  UNL     1     -32.639   7.627   1.950  1.00 20.00     0.006 A 
HETATM    3  C3  UNL     1     -34.073   6.209   3.268  1.00 20.00     0.167 A 
HETATM    4  N7  UNL     1     -33.455   5.474   2.371  1.00 20.00    -0.240 NA
HETATM    5  S8  UNL     1     -33.716   7.887   3.261  1.00 20.00    -0.061 SA
HETATM    6 CL9  UNL     1     -35.186   5.567   4.403  1.00 20.00    -0.054 Cl
ENDROOT
BRANCH   2   7
HETATM    7  C6  UNL     1     -31.872   8.784   1.342  1.00 20.00     0.019 C 
HETATM    8  C4  UNL     1     -32.793   9.963   1.020  1.00 20.00     0.015 C 
HETATM    9  C5  UNL     1     -31.089   8.349   0.100  1.00 20.00     0.015 C 
ENDBRANCH   2   7
TORSDOF 1
ENDMDL
MODEL 6
REMARK VINA RESULT:       0.1      2.394      4.269
REMARK  1 active torsions:
REMARK  status: ('A' for Active; 'I' for Inactive)
REMARK    1  A    between atoms: C2_2  and  C6_6 
ROOT
HETATM    1  C1  UNL     1     -33.486   8.175   3.297  1.00 20.00     0.134 A 
HETATM    2  C2  UNL     1     -32.699   7.882   2.203  1.00 20.00     0.006 A 
HETATM    3  C3  UNL     1     -33.729   5.995   3.291  1.00 20.00     0.167 A 
HETATM    4  N7  UNL     1     -34.077   7.094   3.922  1.00 20.00    -0.240 NA
HETATM    5  S8  UNL     1     -32.691   6.187   1.937  1.00 20.00    -0.061 SA
HETATM    6 CL9  UNL     1     -34.258   4.434   3.759  1.00 20.00    -0.054 Cl
ENDROOT
BRANCH   2   7
HETATM    7  C6  UNL     1     -31.913   8.808   1.296  1.00 20.00     0.019 C 
HETATM    8  C4  UNL     1     -32.783   9.949   0.764  1.00 20.00     0.015 C 
HETATM    9  C5  UNL     1     -31.256   8.042   0.144  1.00 20.00     0.015 C 
ENDBRANCH   2   7
TORSDOF 1
ENDMDL
MODEL 7
REMARK VINA RESULT:       0.2      0.781      1.423
REMARK  1 active torsions:
REMARK  status: ('A' for Active; 'I' for Inactive)
REMARK    1  A    between atoms: C2_2  and  C6_6 
ROOT
HETATM    1  C1  UNL     1     -33.082   7.949   3.628  1.00 20.00     0.134 A 
HETATM    2  C2  UNL     1     -33.456   6.660   3.315  1.00 20.00     0.006 A 
HETATM    3  C3  UNL     1     -32.129   7.801   1.660  1.00 20.00     0.167 A 
HETATM    4  N7  UNL     1     -32.321   8.605   2.681  1.00 20.00    -0.240 NA
HETATM    5  S8  UNL     1     -32.836   6.241   1.771  1.00 20.00    -0.061 SA
HETATM    6 CL9  UNL     1     -31.228   8.244   0.270  1.00 20.00    -0.054 Cl
ENDROOT
BRANCH   2   7
HETATM    7  C6  UNL     1     -34.280   5.665   4.110  1.00 20.00     0.019 C 
HETATM    8  C4  UNL     1     -33.958   4.223   3.712  1.00 20.00     0.015 C 
HETATM    9  C5  UNL     1     -35.779   5.945   3.979  1.00 20.00     0.015 C 
ENDBRANCH   2   7
TORSDOF 1
ENDMDL
MODEL 8
REMARK VINA RESULT:       0.3      2.602      4.329
REMARK  1 active torsions:
REMARK  status: ('A' for Active; 'I' for Inactive)
REMARK    1  A    between atoms: C2_2  and  C6_6 
ROOT
HETATM    1  C1  UNL     1     -33.671   8.159   3.442  1.00 20.00     0.134 A 
HETATM    2  C2  UNL     1     -33.011   7.516   2.417  1.00 20.00     0.006 A 
HETATM    3  C3  UNL     1     -34.423   6.129   3.791  1.00 20.00     0.167 A 
HETATM    4  N7  UNL     1     -34.480   7.366   4.231  1.00 20.00    -0.240 NA
HETATM    5  S8  UNL     1     -33.413   5.847   2.432  1.00 20.00    -0.061 SA
HETATM    6 CL9  UNL     1     -35.291   4.835   4.505  1.00 20.00    -0.054 Cl
ENDROOT
BRANCH   2   7
HETATM    7  C6  UNL     1     -32.058   8.068   1.375  1.00 20.00     0.019 C 
HETATM    8  C4  UNL     1     -30.657   8.283   1.953  1.00 20.00     0.015 C 
HETATM    9  C5  UNL     1     -32.594   9.359   0.750  1.00 20.00     0.015 C 
ENDBRANCH   2   7
TORSDOF 1
ENDMDL
MODEL 9
REMARK VINA RESULT:       0.6      1.937      2.339
REMARK  1 active torsions:
REMARK  status: ('A' for Active; 'I' for Inactive)
REMARK    1  A    between atoms: C2_2  and  C6_6 
ROOT
HETATM    1  C1  UNL     1     -32.858   5.997   1.949  1.00 20.00     0.134 A 
HETATM    2  C2  UNL     1     -33.216   6.919   2.910  1.00 20.00     0.006 A 
HETATM    3  C3  UNL     1     -31.886   7.765   1.088  1.00 20.00     0.167 A 
HETATM    4  N7  UNL     1     -32.095   6.481   0.903  1.00 20.00    -0.240 NA
HETATM    5  S8  UNL     1     -32.575   8.457   2.500  1.00 20.00    -0.061 SA
HETATM    6 CL9  UNL     1     -30.978   8.735   0.006  1.00 20.00    -0.054 Cl
ENDROOT
BRANCH   2   7
HETATM    7  C6  UNL     1     -34.035   6.738   4.173  1.00 20.00     0.019 C 
HETATM    8  C4  UNL     1     -35.468   6.305   3.858  1.00 20.00     0.015 C 
HETATM    9  C5  UNL     1     -34.024   8.002   5.037  1.00 20.00     0.015 C 
ENDBRANCH   2   7
TORSDOF 1
ENDMDL
