MODEL 1
REMARK VINA RESULT:      -1.1      0.000      0.000
REMARK  2 active torsions:
REMARK  status: ('A' for Active; 'I' for Inactive)
REMARK    1  A    between atoms: C2_2  and  C6_6 
REMARK    2  A    between atoms: C3_3  and  C7_7 
ROOT
HETATM    1  C1  UNL     1     -33.050   8.140   3.104  1.00 20.00     0.133 A 
HETATM    2  C2  UNL     1     -32.427   7.654   1.974  1.00 20.00     0.016 A 
HETATM    3  C3  UNL     1     -33.751   6.065   3.209  1.00 20.00     0.078 A 
HETATM    4  N8  UNL     1     -33.810   7.231   3.813  1.00 20.00    -0.257 NA
HETATM    5  S9  UNL     1     -32.800   5.990   1.783  1.00 20.00    -0.076 SA
ENDROOT
BRANCH   3   6
HETATM    6  C7  UNL     1     -34.458   4.812   3.690  1.00 20.00     0.037 C 
HETATM    7  C4  UNL     1     -35.529   5.135   4.735  1.00 20.00     0.016 C 
HETATM    8  C5  UNL     1     -33.466   3.777   4.227  1.00 20.00     0.016 C 
ENDBRANCH   3   6
BRANCH   2   9
HETATM    9  C6  UNL     1     -31.557   8.344   1.002  1.00 20.00     0.162 C 
HETATM   10 CL10 UNL     1     -32.383   9.752   0.283  1.00 20.00    -0.125 Cl
ENDBRANCH   2   9
TORSDOF 2
ENDMDL
MODEL 2
REMARK VINA RESULT:      -1.0      1.403      1.888
REMARK  2 active torsions:
REMARK  status: ('A' for Active; 'I' for Inactive)
REMARK    1  A    between atoms: C2_2  and  C6_6 
REMARK    2  A    between atoms: C3_3  and  C7_7 
ROOT
HETATM    1  C1  UNL     1     -32.240   6.547   1.093  1.00 20.00     0.133 A 
HETATM    2  C2  UNL     1     -32.185   7.844   1.556  1.00 20.00     0.016 A 
HETATM    3  C3  UNL     1     -33.372   6.282   2.952  1.00 20.00     0.078 A 
HETATM    4  N8  UNL     1     -32.919   5.648   1.892  1.00 20.00    -0.257 NA
HETATM    5  S9  UNL     1     -33.017   7.957   3.052  1.00 20.00    -0.076 SA
ENDROOT
BRANCH   3   6
HETATM    6  C7  UNL     1     -34.171   5.630   4.066  1.00 20.00     0.037 C 
HETATM    7  C4  UNL     1     -34.047   4.105   4.030  1.00 20.00     0.016 C 
HETATM    8  C5  UNL     1     -35.641   6.058   4.028  1.00 20.00     0.016 C 
ENDBRANCH   3   6
BRANCH   2   9
HETATM    9  C6  UNL     1     -31.549   9.034   0.960  1.00 20.00     0.162 C 
HETATM   10 CL10 UNL     1     -32.655   9.861  -0.169  1.00 20.00    -0.125 Cl
ENDBRANCH   2   9
TORSDOF 2
ENDMDL
MODEL 3
REMARK VINA RESULT:      -0.2      0.724      1.335
REMARK  2 active torsions:
REMARK  status: ('A' for Active; 'I' for Inactive)
REMARK    1  A    between atoms: C2_2  and  C6_6 
REMARK    2  A    between atoms: C3_3  and  C7_7 
ROOT
HETATM    1  C1  UNL     1     -32.441   8.559   2.988  1.00 20.00     0.133 A 
HETATM    2  C2  UNL     1     -32.271   7.942   1.768  1.00 20.00     0.016 A 
HETATM    3  C3  UNL     1     -33.491   6.683   3.420  1.00 20.00     0.078 A 
HETATM    4  N8  UNL     1     -33.142   7.841   3.937  1.00 20.00    -0.257 NA
HETATM    5  S9  UNL     1     -33.011   6.394   1.798  1.00 20.00    -0.076 SA
ENDROOT
BRANCH   3   6
HETATM    6  C7  UNL     1     -34.276   5.615   4.158  1.00 20.00     0.037 C 
HETATM    7  C4  UNL     1     -33.899   4.209   3.683  1.00 20.00     0.016 C 
HETATM    8  C5  UNL     1     -35.785   5.843   4.041  1.00 20.00     0.016 C 
ENDBRANCH   3   6
BRANCH   2   9
HETATM    9  C6  UNL     1     -31.584   8.420   0.553  1.00 20.00     0.162 C 
HETATM   10 CL10 UNL     1     -32.376   9.878  -0.103  1.00 20.00    -0.125 Cl
ENDBRANCH   2   9
TORSDOF 2
ENDMDL
MODEL 4
REMARK VINA RESULT:      -0.1      2.609      4.547
REMARK  2 active torsions:
REMARK  status: ('A' for Active; 'I' for Inactive)
REMARK    1  A    between atoms: C2_2  and  C6_6 
REMARK    2  A    between atoms: C3_3  and  C7_7 
ROOT
HETATM    1  C1  UNL     1     -34.244   7.364   4.240  1.00 20.00     0.133 A 
HETATM    2  C2  UNL     1     -34.205   6.086   3.725  1.00 20.00     0.016 A 
HETATM    3  C3  UNL     1     -32.862   7.722   2.575  1.00 20.00     0.078 A 
HETATM    4  N8  UNL     1     -33.474   8.304   3.583  1.00 20.00    -0.257 NA
HETATM    5  S9  UNL     1     -33.167   6.048   2.359  1.00 20.00    -0.076 SA
ENDROOT
BRANCH   3   6
HETATM    6  C7  UNL     1     -31.925   8.431   1.615  1.00 20.00     0.037 C 
HETATM    7  C4  UNL     1     -32.634   9.562   0.866  1.00 20.00     0.016 C 
HETATM    8  C5  UNL     1     -31.277   7.450   0.634  1.00 20.00     0.016 C 
ENDBRANCH   3   6
BRANCH   2   9
HETATM    9  C6  UNL     1     -34.894   4.862   4.176  1.00 20.00     0.162 C 
HETATM   10 CL10 UNL     1     -33.741   3.523   4.414  1.00 20.00    -0.125 Cl
ENDBRANCH   2   9
TORSDOF 2
ENDMDL
MODEL 5
REMARK VINA RESULT:      -0.0      2.822      4.913
REMARK  2 active torsions:
REMARK  status: ('A' for Active; 'I' for Inactive)
REMARK    1  A    between atoms: C2_2  and  C6_6 
REMARK    2  A    between atoms: C3_3  and  C7_7 
ROOT
HETATM    1  C1  UNL     1     -33.052   5.628   1.915  1.00 20.00     0.133 A 
HETATM    2  C2  UNL     1     -33.704   6.125   3.023  1.00 20.00     0.016 A 
HETATM    3  C3  UNL     1     -32.477   7.735   1.717  1.00 20.00     0.078 A 
HETATM    4  N8  UNL     1     -32.348   6.549   1.163  1.00 20.00    -0.257 NA
HETATM    5  S9  UNL     1     -33.430   7.815   3.141  1.00 20.00    -0.076 SA
ENDROOT
BRANCH   3   6
HETATM    6  C7  UNL     1     -31.845   9.006   1.180  1.00 20.00     0.037 C 
HETATM    7  C4  UNL     1     -32.887  10.107   0.968  1.00 20.00     0.016 C 
HETATM    8  C5  UNL     1     -31.060   8.743  -0.108  1.00 20.00     0.016 C 
ENDBRANCH   3   6
BRANCH   2   9
HETATM    9  C6  UNL     1     -34.533   5.429   4.024  1.00 20.00     0.162 C 
HETATM   10 CL10 UNL     1     -33.927   3.779   4.329  1.00 20.00    -0.125 Cl
ENDBRANCH   2   9
TORSDOF 2
ENDMDL
MODEL 6
REMARK VINA RESULT:       0.0      2.640      4.701
REMARK  2 active torsions:
REMARK  status: ('A' for Active; 'I' for Inactive)
REMARK    1  A    between atoms: C2_2  and  C6_6 
REMARK    2  A    between atoms: C3_3  and  C7_7 
ROOT
HETATM    1  C1  UNL     1     -34.287   7.240   4.081  1.00 20.00     0.133 A 
HETATM    2  C2  UNL     1     -34.218   5.916   3.701  1.00 20.00     0.016 A 
HETATM    3  C3  UNL     1     -32.947   7.461   2.360  1.00 20.00     0.078 A 
HETATM    4  N8  UNL     1     -33.557   8.127   3.314  1.00 20.00    -0.257 NA
HETATM    5  S9  UNL     1     -33.205   5.765   2.325  1.00 20.00    -0.076 SA
ENDROOT
BRANCH   3   6
HETATM    6  C7  UNL     1     -32.049   8.091   1.311  1.00 20.00     0.037 C 
HETATM    7  C4  UNL     1     -30.632   8.317   1.845  1.00 20.00     0.016 C 
HETATM    8  C5  UNL     1     -32.643   9.395   0.772  1.00 20.00     0.016 C 
ENDBRANCH   3   6
BRANCH   2   9
HETATM    9  C6  UNL     1     -34.862   4.728   4.292  1.00 20.00     0.162 C 
HETATM   10 CL10 UNL     1     -33.695   3.395   4.495  1.00 20.00    -0.125 Cl
ENDBRANCH   2   9
TORSDOF 2
ENDMDL
MODEL 7
REMARK VINA RESULT:       0.8      2.969      4.883
REMARK  2 active torsions:
REMARK  status: ('A' for Active; 'I' for Inactive)
REMARK    1  A    between atoms: C2_2  and  C6_6 
REMARK    2  A    between atoms: C3_3  and  C7_7 
ROOT
HETATM    1  C1  UNL     1     -33.221   5.083   2.099  1.00 20.00     0.133 A 
HETATM    2  C2  UNL     1     -33.833   5.335   3.309  1.00 20.00     0.016 A 
HETATM    3  C3  UNL     1     -32.854   7.242   2.209  1.00 20.00     0.078 A 
HETATM    4  N8  UNL     1     -32.660   6.175   1.466  1.00 20.00    -0.257 NA
HETATM    5  S9  UNL     1     -33.704   7.005   3.681  1.00 20.00    -0.076 SA
ENDROOT
BRANCH   3   6
HETATM    6  C7  UNL     1     -32.381   8.638   1.848  1.00 20.00     0.037 C 
HETATM    7  C4  UNL     1     -32.030   8.747   0.362  1.00 20.00     0.016 C 
HETATM    8  C5  UNL     1     -31.201   9.075   2.720  1.00 20.00     0.016 C 
ENDBRANCH   3   6
BRANCH   2   9
HETATM    9  C6  UNL     1     -34.520   4.412   4.231  1.00 20.00     0.162 C 
HETATM   10 CL10 UNL     1     -33.456   3.061   4.705  1.00 20.00    -0.125 Cl
ENDBRANCH   2   9
TORSDOF 2
ENDMDL
MODEL 8
REMARK VINA RESULT:       0.8      2.963      4.891
REMARK  2 active torsions:
REMARK  status: ('A' for Active; 'I' for Inactive)
REMARK    1  A    between atoms: C2_2  and  C6_6 
REMARK    2  A    between atoms: C3_3  and  C7_7 
ROOT
HETATM    1  C1  UNL     1     -33.120   5.055   1.900  1.00 20.00     0.133 A 
HETATM    2  C2  UNL     1     -33.693   5.432   3.096  1.00 20.00     0.016 A 
HETATM    3  C3  UNL     1     -32.437   7.138   1.949  1.00 20.00     0.078 A 
HETATM    4  N8  UNL     1     -32.400   6.032   1.240  1.00 20.00    -0.257 NA
HETATM    5  S9  UNL     1     -33.319   7.075   3.420  1.00 20.00    -0.076 SA
ENDROOT
BRANCH   3   6
HETATM    6  C7  UNL     1     -31.759   8.436   1.551  1.00 20.00     0.037 C 
HETATM    7  C4  UNL     1     -31.369   9.267   2.776  1.00 20.00     0.016 C 
HETATM    8  C5  UNL     1     -32.629   9.254   0.593  1.00 20.00     0.016 C 
ENDBRANCH   3   6
BRANCH   2   9
HETATM    9  C6  UNL     1     -34.515   4.650   4.039  1.00 20.00     0.162 C 
HETATM   10 CL10 UNL     1     -33.620   3.235   4.654  1.00 20.00    -0.125 Cl
ENDBRANCH   2   9
TORSDOF 2
ENDMDL
MODEL 9
REMARK VINA RESULT:       1.1      2.610      3.102
REMARK  2 active torsions:
REMARK  status: ('A' for Active; 'I' for Inactive)
REMARK    1  A    between atoms: C2_2  and  C6_6 
REMARK    2  A    between atoms: C3_3  and  C7_7 
ROOT
HETATM    1  C1  UNL     1     -31.709   7.095   1.418  1.00 20.00     0.133 A 
HETATM    2  C2  UNL     1     -32.119   5.789   1.259  1.00 20.00     0.016 A 
HETATM    3  C3  UNL     1     -33.356   7.090   2.865  1.00 20.00     0.078 A 
HETATM    4  N8  UNL     1     -32.417   7.844   2.337  1.00 20.00    -0.257 NA
HETATM    5  S9  UNL     1     -33.445   5.472   2.302  1.00 20.00    -0.076 SA
ENDROOT
BRANCH   3   6
HETATM    6  C7  UNL     1     -34.343   7.559   3.919  1.00 20.00     0.037 C 
HETATM    7  C4  UNL     1     -33.627   8.135   5.143  1.00 20.00     0.016 C 
HETATM    8  C5  UNL     1     -35.305   6.440   4.326  1.00 20.00     0.016 C 
ENDBRANCH   3   6
BRANCH   2   9
HETATM    9  C6  UNL     1     -31.592   4.732   0.375  1.00 20.00     0.162 C 
HETATM   10 CL10 UNL     1     -32.912   3.883  -0.473  1.00 20.00    -0.125 Cl
ENDBRANCH   2   9
TORSDOF 2
ENDMDL
