MODEL 1
REMARK VINA RESULT:      -1.6      0.000      0.000
REMARK  2 active torsions:
REMARK  status: ('A' for Active; 'I' for Inactive)
REMARK    1  A    between atoms: C4_4  and  C8_8 
REMARK    2  A    between atoms: C5_5  and  O9_9 
ROOT
HETATM    1  C1  UNL     1     -32.702   5.829   1.651  1.00 20.00     0.007 C 
HETATM    2  C2  UNL     1     -32.080   7.152   1.188  1.00 20.00     0.032 C 
HETATM    3  C3  UNL     1     -33.574   7.567   3.049  1.00 20.00     0.036 C 
HETATM    4  C4  UNL     1     -33.207   6.083   3.071  1.00 20.00    -0.009 C 
HETATM    5  C5  UNL     1     -32.430   8.187   2.256  1.00 20.00     0.118 C 
ENDROOT
BRANCH   4   6
HETATM    6  C8  UNL     1     -34.369   5.186   3.462  1.00 20.00    -0.019 C 
HETATM    7  C6  UNL     1     -33.878   3.978   4.262  1.00 20.00     0.010 C 
HETATM    8  C7  UNL     1     -35.412   5.966   4.266  1.00 20.00     0.010 C 
ENDBRANCH   4   6
BRANCH   5   9
HETATM    9  O9  UNL     1     -31.300   8.374   3.103  1.00 20.00    -0.396 OA
HETATM   10  H25 UNL     1     -31.536   9.077   3.729  1.00 20.00     0.210 HD
ENDBRANCH   5   9
TORSDOF 2
ENDMDL
MODEL 2
REMARK VINA RESULT:      -1.5      2.009      3.679
REMARK  2 active torsions:
REMARK  status: ('A' for Active; 'I' for Inactive)
REMARK    1  A    between atoms: C4_4  and  C8_8 
REMARK    2  A    between atoms: C5_5  and  O9_9 
ROOT
HETATM    1  C1  UNL     1     -33.680   4.711   3.418  1.00 20.00     0.007 C 
HETATM    2  C2  UNL     1     -34.855   4.904   4.384  1.00 20.00     0.032 C 
HETATM    3  C3  UNL     1     -34.122   7.061   3.559  1.00 20.00     0.036 C 
HETATM    4  C4  UNL     1     -33.608   5.995   2.591  1.00 20.00    -0.009 C 
HETATM    5  C5  UNL     1     -35.291   6.362   4.242  1.00 20.00     0.118 C 
ENDROOT
BRANCH   4   6
HETATM    6  C8  UNL     1     -32.215   6.289   2.063  1.00 20.00    -0.019 C 
HETATM    7  C6  UNL     1     -31.899   5.420   0.845  1.00 20.00     0.010 C 
HETATM    8  C7  UNL     1     -32.069   7.771   1.710  1.00 20.00     0.010 C 
ENDBRANCH   4   6
BRANCH   5   9
HETATM    9  O9  UNL     1     -36.444   6.418   3.407  1.00 20.00    -0.396 OA
HETATM   10  H25 UNL     1     -36.508   7.331   3.084  1.00 20.00     0.210 HD
ENDBRANCH   5   9
TORSDOF 2
ENDMDL
MODEL 3
REMARK VINA RESULT:      -1.4      1.900      3.837
REMARK  2 active torsions:
REMARK  status: ('A' for Active; 'I' for Inactive)
REMARK    1  A    between atoms: C4_4  and  C8_8 
REMARK    2  A    between atoms: C5_5  and  O9_9 
ROOT
HETATM    1  C1  UNL     1     -32.990   5.693   2.204  1.00 20.00     0.007 C 
HETATM    2  C2  UNL     1     -33.934   5.127   3.271  1.00 20.00     0.032 C 
HETATM    3  C3  UNL     1     -33.618   7.500   3.644  1.00 20.00     0.036 C 
HETATM    4  C4  UNL     1     -33.229   7.202   2.196  1.00 20.00    -0.009 C 
HETATM    5  C5  UNL     1     -34.532   6.332   3.996  1.00 20.00     0.118 C 
ENDROOT
BRANCH   4   6
HETATM    6  C8  UNL     1     -32.023   7.998   1.726  1.00 20.00    -0.019 C 
HETATM    7  C6  UNL     1     -32.444   9.099   0.751  1.00 20.00     0.010 C 
HETATM    8  C7  UNL     1     -31.272   8.601   2.915  1.00 20.00     0.010 C 
ENDBRANCH   4   6
BRANCH   5   9
HETATM    9  O9  UNL     1     -35.841   6.572   3.488  1.00 20.00    -0.396 OA
HETATM   10  H25 UNL     1     -36.450   6.481   4.238  1.00 20.00     0.210 HD
ENDBRANCH   5   9
TORSDOF 2
ENDMDL
MODEL 4
REMARK VINA RESULT:      -1.2      1.134      1.742
REMARK  2 active torsions:
REMARK  status: ('A' for Active; 'I' for Inactive)
REMARK    1  A    between atoms: C4_4  and  C8_8 
REMARK    2  A    between atoms: C5_5  and  O9_9 
ROOT
HETATM    1  C1  UNL     1     -33.149   7.748   3.825  1.00 20.00     0.007 C 
HETATM    2  C2  UNL     1     -31.951   8.468   3.195  1.00 20.00     0.032 C 
HETATM    3  C3  UNL     1     -32.560   6.562   1.829  1.00 20.00     0.036 C 
HETATM    4  C4  UNL     1     -33.763   6.908   2.705  1.00 20.00    -0.009 C 
HETATM    5  C5  UNL     1     -31.775   7.868   1.801  1.00 20.00     0.118 C 
ENDROOT
BRANCH   4   6
HETATM    6  C8  UNL     1     -34.505   5.684   3.213  1.00 20.00    -0.019 C 
HETATM    7  C6  UNL     1     -33.524   4.609   3.686  1.00 20.00     0.010 C 
HETATM    8  C7  UNL     1     -35.465   6.059   4.344  1.00 20.00     0.010 C 
ENDBRANCH   4   6
BRANCH   5   9
HETATM    9  O9  UNL     1     -32.346   8.754   0.843  1.00 20.00    -0.396 OA
HETATM   10  H25 UNL     1     -31.965   9.630   1.015  1.00 20.00     0.210 HD
ENDBRANCH   5   9
TORSDOF 2
ENDMDL
MODEL 5
REMARK VINA RESULT:      -1.2      1.819      2.494
REMARK  2 active torsions:
REMARK  status: ('A' for Active; 'I' for Inactive)
REMARK    1  A    between atoms: C4_4  and  C8_8 
REMARK    2  A    between atoms: C5_5  and  O9_9 
ROOT
HETATM    1  C1  UNL     1     -32.689   7.824   2.252  1.00 20.00     0.007 C 
HETATM    2  C2  UNL     1     -31.671   6.994   1.463  1.00 20.00     0.032 C 
HETATM    3  C3  UNL     1     -33.155   5.514   2.678  1.00 20.00     0.036 C 
HETATM    4  C4  UNL     1     -33.844   6.875   2.567  1.00 20.00    -0.009 C 
HETATM    5  C5  UNL     1     -32.157   5.546   1.527  1.00 20.00     0.118 C 
ENDROOT
BRANCH   4   6
HETATM    6  C8  UNL     1     -34.611   7.260   3.821  1.00 20.00    -0.019 C 
HETATM    7  C6  UNL     1     -35.333   6.047   4.412  1.00 20.00     0.010 C 
HETATM    8  C7  UNL     1     -33.676   7.880   4.861  1.00 20.00     0.010 C 
ENDBRANCH   4   6
BRANCH   5   9
HETATM    9  O9  UNL     1     -32.816   5.227   0.305  1.00 20.00    -0.396 OA
HETATM   10  H25 UNL     1     -33.380   4.459   0.487  1.00 20.00     0.210 HD
ENDBRANCH   5   9
TORSDOF 2
ENDMDL
MODEL 6
REMARK VINA RESULT:      -1.0      1.995      3.735
REMARK  2 active torsions:
REMARK  status: ('A' for Active; 'I' for Inactive)
REMARK    1  A    between atoms: C4_4  and  C8_8 
REMARK    2  A    between atoms: C5_5  and  O9_9 
ROOT
HETATM    1  C1  UNL     1     -33.539   4.794   2.962  1.00 20.00     0.007 C 
HETATM    2  C2  UNL     1     -34.454   4.890   4.187  1.00 20.00     0.032 C 
HETATM    3  C3  UNL     1     -34.024   7.111   3.322  1.00 20.00     0.036 C 
HETATM    4  C4  UNL     1     -33.716   6.112   2.208  1.00 20.00    -0.009 C 
HETATM    5  C5  UNL     1     -34.967   6.329   4.227  1.00 20.00     0.118 C 
ENDROOT
BRANCH   4   6
HETATM    6  C8  UNL     1     -32.501   6.496   1.380  1.00 20.00    -0.019 C 
HETATM    7  C6  UNL     1     -31.841   7.759   1.935  1.00 20.00     0.010 C 
HETATM    8  C7  UNL     1     -31.492   5.347   1.330  1.00 20.00     0.010 C 
ENDBRANCH   4   6
BRANCH   5   9
HETATM    9  O9  UNL     1     -36.288   6.361   3.694  1.00 20.00    -0.396 OA
HETATM   10  H25 UNL     1     -36.800   6.960   4.260  1.00 20.00     0.210 HD
ENDBRANCH   5   9
TORSDOF 2
ENDMDL
MODEL 7
REMARK VINA RESULT:      -0.7      1.993      4.047
REMARK  2 active torsions:
REMARK  status: ('A' for Active; 'I' for Inactive)
REMARK    1  A    between atoms: C4_4  and  C8_8 
REMARK    2  A    between atoms: C5_5  and  O9_9 
ROOT
HETATM    1  C1  UNL     1     -34.569   6.670   3.684  1.00 20.00     0.007 C 
HETATM    2  C2  UNL     1     -35.270   5.552   4.464  1.00 20.00     0.032 C 
HETATM    3  C3  UNL     1     -33.740   4.581   2.856  1.00 20.00     0.036 C 
HETATM    4  C4  UNL     1     -33.318   6.033   3.081  1.00 20.00    -0.009 C 
HETATM    5  C5  UNL     1     -34.531   4.260   4.119  1.00 20.00     0.118 C 
ENDROOT
BRANCH   4   6
HETATM    6  C8  UNL     1     -32.847   6.721   1.811  1.00 20.00    -0.019 C 
HETATM    7  C6  UNL     1     -32.047   7.983   2.141  1.00 20.00     0.010 C 
HETATM    8  C7  UNL     1     -32.009   5.770   0.955  1.00 20.00     0.010 C 
ENDBRANCH   4   6
BRANCH   5   9
HETATM    9  O9  UNL     1     -33.639   3.942   5.182  1.00 20.00    -0.396 OA
HETATM   10  H25 UNL     1     -33.747   4.636   5.851  1.00 20.00     0.210 HD
ENDBRANCH   5   9
TORSDOF 2
ENDMDL
MODEL 8
REMARK VINA RESULT:      -0.6      2.158      3.667
REMARK  2 active torsions:
REMARK  status: ('A' for Active; 'I' for Inactive)
REMARK    1  A    between atoms: C4_4  and  C8_8 
REMARK    2  A    between atoms: C5_5  and  O9_9 
ROOT
HETATM    1  C1  UNL     1     -33.207   7.575   3.883  1.00 20.00     0.007 C 
HETATM    2  C2  UNL     1     -34.632   7.576   4.446  1.00 20.00     0.032 C 
HETATM    3  C3  UNL     1     -34.529   6.128   2.507  1.00 20.00     0.036 C 
HETATM    4  C4  UNL     1     -33.103   6.317   3.021  1.00 20.00    -0.009 C 
HETATM    5  C5  UNL     1     -35.376   6.448   3.733  1.00 20.00     0.118 C 
ENDROOT
BRANCH   4   6
HETATM    6  C8  UNL     1     -32.076   6.437   1.907  1.00 20.00    -0.019 C 
HETATM    7  C6  UNL     1     -32.413   5.492   0.752  1.00 20.00     0.010 C 
HETATM    8  C7  UNL     1     -31.986   7.879   1.404  1.00 20.00     0.010 C 
ENDBRANCH   4   6
BRANCH   5   9
HETATM    9  O9  UNL     1     -35.428   5.314   4.594  1.00 20.00    -0.396 OA
HETATM   10  H25 UNL     1     -34.753   5.454   5.277  1.00 20.00     0.210 HD
ENDBRANCH   5   9
TORSDOF 2
ENDMDL
MODEL 9
REMARK VINA RESULT:      -0.4      1.824      3.850
REMARK  2 active torsions:
REMARK  status: ('A' for Active; 'I' for Inactive)
REMARK    1  A    between atoms: C4_4  and  C8_8 
REMARK    2  A    between atoms: C5_5  and  O9_9 
ROOT
HETATM    1  C1  UNL     1     -33.953   7.760   3.817  1.00 20.00     0.007 C 
HETATM    2  C2  UNL     1     -34.975   6.643   4.051  1.00 20.00     0.032 C 
HETATM    3  C3  UNL     1     -33.481   6.009   2.253  1.00 20.00     0.036 C 
HETATM    4  C4  UNL     1     -32.795   7.111   3.060  1.00 20.00    -0.009 C 
HETATM    5  C5  UNL     1     -34.487   5.439   3.245  1.00 20.00     0.118 C 
ENDROOT
BRANCH   4   6
HETATM    6  C8  UNL     1     -32.021   8.091   2.195  1.00 20.00    -0.019 C 
HETATM    7  C6  UNL     1     -31.331   7.369   1.036  1.00 20.00     0.010 C 
HETATM    8  C7  UNL     1     -32.941   9.192   1.661  1.00 20.00     0.010 C 
ENDBRANCH   4   6
BRANCH   5   9
HETATM    9  O9  UNL     1     -33.835   4.529   4.126  1.00 20.00    -0.396 OA
HETATM   10  H25 UNL     1     -34.536   4.050   4.597  1.00 20.00     0.210 HD
ENDBRANCH   5   9
TORSDOF 2
ENDMDL
