MODEL 1
REMARK VINA RESULT:      -1.7      0.000      0.000
REMARK  2 active torsions:
REMARK  status: ('A' for Active; 'I' for Inactive)
REMARK    1  A    between atoms: C4_4  and  C7_7 
REMARK    2  A    between atoms: C5_5  and  O8_8 
ROOT
HETATM    1  C1  UNL     1     -31.631   6.540   1.504  1.00 20.00     0.007 C 
HETATM    2  C2  UNL     1     -32.999   5.888   1.699  1.00 20.00     0.032 C 
HETATM    3  C3  UNL     1     -32.883   8.036   2.861  1.00 20.00     0.036 C 
HETATM    4  C4  UNL     1     -31.862   8.034   1.727  1.00 20.00    -0.012 C 
HETATM    5  C5  UNL     1     -33.813   6.864   2.552  1.00 20.00     0.118 C 
ENDROOT
BRANCH   4   6
HETATM    6  C7  UNL     1     -32.381   8.735   0.474  1.00 20.00     0.000 C 
HETATM    7  C6  UNL     1     -32.517  10.212   0.673  1.00 20.00     0.005 C 
ENDBRANCH   4   6
BRANCH   5   8
HETATM    8  O8  UNL     1     -34.246   6.257   3.759  1.00 20.00    -0.396 OA
HETATM    9  H22 UNL     1     -33.612   5.548   3.954  1.00 20.00     0.210 HD
ENDBRANCH   5   8
TORSDOF 2
ENDMDL
MODEL 2
REMARK VINA RESULT:      -0.9      2.132      3.394
REMARK  2 active torsions:
REMARK  status: ('A' for Active; 'I' for Inactive)
REMARK    1  A    between atoms: C4_4  and  C7_7 
REMARK    2  A    between atoms: C5_5  and  O8_8 
ROOT
HETATM    1  C1  UNL     1     -35.515   6.219   3.749  1.00 20.00     0.007 C 
HETATM    2  C2  UNL     1     -35.093   5.146   4.751  1.00 20.00     0.032 C 
HETATM    3  C3  UNL     1     -33.564   5.209   2.844  1.00 20.00     0.036 C 
HETATM    4  C4  UNL     1     -34.245   6.568   2.974  1.00 20.00    -0.012 C 
HETATM    5  C5  UNL     1     -33.822   4.512   4.179  1.00 20.00     0.118 C 
ENDROOT
BRANCH   4   6
HETATM    6  C7  UNL     1     -33.378   7.587   3.710  1.00 20.00     0.000 C 
HETATM    7  C6  UNL     1     -32.315   8.160   2.827  1.00 20.00     0.005 C 
ENDBRANCH   4   6
BRANCH   5   8
HETATM    8  O8  UNL     1     -33.987   3.119   3.975  1.00 20.00    -0.396 OA
HETATM    9  H22 UNL     1     -33.567   2.677   4.729  1.00 20.00     0.210 HD
ENDBRANCH   5   8
TORSDOF 2
ENDMDL
MODEL 3
REMARK VINA RESULT:      -0.8      1.917      3.347
REMARK  2 active torsions:
REMARK  status: ('A' for Active; 'I' for Inactive)
REMARK    1  A    between atoms: C4_4  and  C7_7 
REMARK    2  A    between atoms: C5_5  and  O8_8 
ROOT
HETATM    1  C1  UNL     1     -32.335   8.031   2.879  1.00 20.00     0.007 C 
HETATM    2  C2  UNL     1     -32.423   7.523   1.440  1.00 20.00     0.032 C 
HETATM    3  C3  UNL     1     -32.925   5.734   3.029  1.00 20.00     0.036 C 
HETATM    4  C4  UNL     1     -33.206   7.078   3.695  1.00 20.00    -0.012 C 
HETATM    5  C5  UNL     1     -32.827   6.049   1.538  1.00 20.00     0.118 C 
ENDROOT
BRANCH   4   6
HETATM    6  C7  UNL     1     -34.685   7.455   3.645  1.00 20.00     0.000 C 
HETATM    7  C6  UNL     1     -35.571   6.294   3.969  1.00 20.00     0.005 C 
ENDBRANCH   4   6
BRANCH   5   8
HETATM    8  O8  UNL     1     -31.863   5.208   0.927  1.00 20.00    -0.396 OA
HETATM    9  H22 UNL     1     -31.013   5.672   0.989  1.00 20.00     0.210 HD
ENDBRANCH   5   8
TORSDOF 2
ENDMDL
MODEL 4
REMARK VINA RESULT:      -0.5      2.053      3.794
REMARK  2 active torsions:
REMARK  status: ('A' for Active; 'I' for Inactive)
REMARK    1  A    between atoms: C4_4  and  C7_7 
REMARK    2  A    between atoms: C5_5  and  O8_8 
ROOT
HETATM    1  C1  UNL     1     -33.305   5.507   1.561  1.00 20.00     0.007 C 
HETATM    2  C2  UNL     1     -32.016   6.325   1.512  1.00 20.00     0.032 C 
HETATM    3  C3  UNL     1     -33.730   7.476   2.821  1.00 20.00     0.036 C 
HETATM    4  C4  UNL     1     -34.035   5.981   2.817  1.00 20.00    -0.012 C 
HETATM    5  C5  UNL     1     -32.282   7.581   2.345  1.00 20.00     0.118 C 
ENDROOT
BRANCH   4   6
HETATM    6  C7  UNL     1     -33.535   5.280   4.078  1.00 20.00     0.000 C 
HETATM    7  C6  UNL     1     -33.848   3.817   4.068  1.00 20.00     0.005 C 
ENDBRANCH   4   6
BRANCH   5   8
HETATM    8  O8  UNL     1     -32.110   8.758   1.572  1.00 20.00    -0.396 OA
HETATM    9  H22 UNL     1     -32.827   8.766   0.919  1.00 20.00     0.210 HD
ENDBRANCH   5   8
TORSDOF 2
ENDMDL
MODEL 5
REMARK VINA RESULT:      -0.4      2.494      4.462
REMARK  2 active torsions:
REMARK  status: ('A' for Active; 'I' for Inactive)
REMARK    1  A    between atoms: C4_4  and  C7_7 
REMARK    2  A    between atoms: C5_5  and  O8_8 
ROOT
HETATM    1  C1  UNL     1     -33.576   5.355   2.569  1.00 20.00     0.007 C 
HETATM    2  C2  UNL     1     -33.097   6.711   3.085  1.00 20.00     0.032 C 
HETATM    3  C3  UNL     1     -35.245   6.106   4.085  1.00 20.00     0.036 C 
HETATM    4  C4  UNL     1     -34.532   4.832   3.640  1.00 20.00    -0.012 C 
HETATM    5  C5  UNL     1     -34.161   7.182   4.080  1.00 20.00     0.118 C 
ENDROOT
BRANCH   4   6
HETATM    6  C7  UNL     1     -33.798   4.143   4.788  1.00 20.00     0.000 C 
HETATM    7  C6  UNL     1     -33.270   2.801   4.391  1.00 20.00     0.005 C 
ENDBRANCH   4   6
BRANCH   5   8
HETATM    8  O8  UNL     1     -34.717   8.427   3.689  1.00 20.00    -0.396 OA
HETATM    9  H22 UNL     1     -34.488   8.551   2.755  1.00 20.00     0.210 HD
ENDBRANCH   5   8
TORSDOF 2
ENDMDL
MODEL 6
REMARK VINA RESULT:      -0.4      2.205      3.325
REMARK  2 active torsions:
REMARK  status: ('A' for Active; 'I' for Inactive)
REMARK    1  A    between atoms: C4_4  and  C7_7 
REMARK    2  A    between atoms: C5_5  and  O8_8 
ROOT
HETATM    1  C1  UNL     1     -35.164   6.192   3.887  1.00 20.00     0.007 C 
HETATM    2  C2  UNL     1     -34.111   5.161   3.483  1.00 20.00     0.032 C 
HETATM    3  C3  UNL     1     -33.550   7.370   2.600  1.00 20.00     0.036 C 
HETATM    4  C4  UNL     1     -34.450   7.542   3.821  1.00 20.00    -0.012 C 
HETATM    5  C5  UNL     1     -33.060   5.926   2.675  1.00 20.00     0.118 C 
ENDROOT
BRANCH   4   6
HETATM    6  C7  UNL     1     -33.658   7.843   5.091  1.00 20.00     0.000 C 
HETATM    7  C6  UNL     1     -32.429   8.648   4.807  1.00 20.00     0.005 C 
ENDBRANCH   4   6
BRANCH   5   8
HETATM    8  O8  UNL     1     -32.924   5.392   1.368  1.00 20.00    -0.396 OA
HETATM    9  H22 UNL     1     -32.960   6.144   0.757  1.00 20.00     0.210 HD
ENDBRANCH   5   8
TORSDOF 2
ENDMDL
MODEL 7
REMARK VINA RESULT:      -0.3      2.078      3.477
REMARK  2 active torsions:
REMARK  status: ('A' for Active; 'I' for Inactive)
REMARK    1  A    between atoms: C4_4  and  C7_7 
REMARK    2  A    between atoms: C5_5  and  O8_8 
ROOT
HETATM    1  C1  UNL     1     -33.103   5.717   1.510  1.00 20.00     0.007 C 
HETATM    2  C2  UNL     1     -31.668   6.232   1.609  1.00 20.00     0.032 C 
HETATM    3  C3  UNL     1     -33.270   8.065   1.836  1.00 20.00     0.036 C 
HETATM    4  C4  UNL     1     -33.955   6.760   2.231  1.00 20.00    -0.012 C 
HETATM    5  C5  UNL     1     -31.777   7.741   1.844  1.00 20.00     0.118 C 
ENDROOT
BRANCH   4   6
HETATM    6  C7  UNL     1     -33.976   6.547   3.743  1.00 20.00     0.000 C 
HETATM    7  C6  UNL     1     -35.298   6.029   4.218  1.00 20.00     0.005 C 
ENDBRANCH   4   6
BRANCH   5   8
HETATM    8  O8  UNL     1     -31.117   8.471   0.823  1.00 20.00    -0.396 OA
HETATM    9  H22 UNL     1     -31.796   9.007   0.383  1.00 20.00     0.210 HD
ENDBRANCH   5   8
TORSDOF 2
ENDMDL
MODEL 8
REMARK VINA RESULT:      -0.3      1.329      2.935
REMARK  2 active torsions:
REMARK  status: ('A' for Active; 'I' for Inactive)
REMARK    1  A    between atoms: C4_4  and  C7_7 
REMARK    2  A    between atoms: C5_5  and  O8_8 
ROOT
HETATM    1  C1  UNL     1     -32.336   7.835   1.494  1.00 20.00     0.007 C 
HETATM    2  C2  UNL     1     -32.258   8.167   2.983  1.00 20.00     0.032 C 
HETATM    3  C3  UNL     1     -33.877   6.382   2.571  1.00 20.00     0.036 C 
HETATM    4  C4  UNL     1     -32.865   6.404   1.428  1.00 20.00    -0.012 C 
HETATM    5  C5  UNL     1     -33.233   7.214   3.679  1.00 20.00     0.118 C 
ENDROOT
BRANCH   4   6
HETATM    6  C7  UNL     1     -31.759   5.366   1.609  1.00 20.00     0.000 C 
HETATM    7  C6  UNL     1     -31.633   4.468   0.419  1.00 20.00     0.005 C 
ENDBRANCH   4   6
BRANCH   5   8
HETATM    8  O8  UNL     1     -34.231   7.926   4.392  1.00 20.00    -0.396 OA
HETATM    9  H22 UNL     1     -35.066   7.775   3.923  1.00 20.00     0.210 HD
ENDBRANCH   5   8
TORSDOF 2
ENDMDL
MODEL 9
REMARK VINA RESULT:       0.0      1.491      2.866
REMARK  2 active torsions:
REMARK  status: ('A' for Active; 'I' for Inactive)
REMARK    1  A    between atoms: C4_4  and  C7_7 
REMARK    2  A    between atoms: C5_5  and  O8_8 
ROOT
HETATM    1  C1  UNL     1     -32.733   7.933   2.373  1.00 20.00     0.007 C 
HETATM    2  C2  UNL     1     -33.211   7.517   3.764  1.00 20.00     0.032 C 
HETATM    3  C3  UNL     1     -34.129   6.038   2.047  1.00 20.00     0.036 C 
HETATM    4  C4  UNL     1     -32.848   6.675   1.515  1.00 20.00    -0.012 C 
HETATM    5  C5  UNL     1     -34.090   6.281   3.555  1.00 20.00     0.118 C 
ENDROOT
BRANCH   4   6
HETATM    6  C7  UNL     1     -31.636   5.758   1.664  1.00 20.00     0.000 C 
HETATM    7  C6  UNL     1     -31.678   4.612   0.701  1.00 20.00     0.005 C 
ENDBRANCH   4   6
BRANCH   5   8
HETATM    8  O8  UNL     1     -35.403   6.493   4.046  1.00 20.00    -0.396 OA
HETATM    9  H22 UNL     1     -35.802   7.174   3.482  1.00 20.00     0.210 HD
ENDBRANCH   5   8
TORSDOF 2
ENDMDL
