MODEL 1
REMARK VINA RESULT:      -0.7      0.000      0.000
REMARK  1 active torsions:
REMARK  status: ('A' for Active; 'I' for Inactive)
REMARK    1  A    between atoms: C1_1  and  C8_8 
ROOT
HETATM    1  C2  UNL     1     -34.203   7.448   4.022  1.00 20.00     0.000 C 
HETATM    2  C3  UNL     1     -32.813   7.904   4.453  1.00 20.00     0.001 C 
HETATM    3  C4  UNL     1     -34.117   6.430   2.891  1.00 20.00     0.006 C 
HETATM    4  C5  UNL     1     -32.114   8.662   3.328  1.00 20.00     0.019 C 
HETATM    5  C6  UNL     1     -31.753   6.552   1.843  1.00 20.00     0.025 A 
HETATM    6  C7  UNL     1     -33.222   6.879   1.775  1.00 20.00     0.004 A 
HETATM    7  C8  UNL     1     -32.202   7.993   1.969  1.00 20.00     0.040 A 
ENDROOT
BRANCH   7   8
HETATM    8  C1  UNL     1     -31.934   8.859   0.796  1.00 20.00     0.228 C 
HETATM    9  O9  UNL     1     -31.080   8.571  -0.037  1.00 20.00    -0.279 OA
HETATM   10 CL10 UNL     1     -32.952  10.268   0.777  1.00 20.00    -0.043 Cl
ENDBRANCH   7   8
TORSDOF 1
ENDMDL
MODEL 2
REMARK VINA RESULT:      -0.3      1.205      1.205
REMARK  1 active torsions:
REMARK  status: ('A' for Active; 'I' for Inactive)
REMARK    1  A    between atoms: C1_1  and  C8_8 
ROOT
HETATM    1  C2  UNL     1     -34.222   7.229   3.948  1.00 20.00     0.000 C 
HETATM    2  C3  UNL     1     -32.909   7.852   4.408  1.00 20.00     0.001 C 
HETATM    3  C4  UNL     1     -33.994   6.280   2.777  1.00 20.00     0.006 C 
HETATM    4  C5  UNL     1     -32.316   8.744   3.321  1.00 20.00     0.019 C 
HETATM    5  C6  UNL     1     -31.666   6.765   1.756  1.00 20.00     0.025 A 
HETATM    6  C7  UNL     1     -33.165   6.891   1.689  1.00 20.00     0.004 A 
HETATM    7  C8  UNL     1     -32.308   8.125   1.936  1.00 20.00     0.040 A 
ENDROOT
BRANCH   7   8
HETATM    8  C1  UNL     1     -32.157   9.066   0.801  1.00 20.00     0.228 C 
HETATM    9  O9  UNL     1     -32.847  10.076   0.704  1.00 20.00    -0.279 OA
HETATM   10 CL10 UNL     1     -30.925   8.556  -0.314  1.00 20.00    -0.043 Cl
ENDBRANCH   7   8
TORSDOF 1
ENDMDL
MODEL 3
REMARK VINA RESULT:       0.1      1.103      1.395
REMARK  1 active torsions:
REMARK  status: ('A' for Active; 'I' for Inactive)
REMARK    1  A    between atoms: C1_1  and  C8_8 
ROOT
HETATM    1  C2  UNL     1     -33.871   6.190   2.769  1.00 20.00     0.000 C 
HETATM    2  C3  UNL     1     -33.530   7.404   3.625  1.00 20.00     0.001 C 
HETATM    3  C4  UNL     1     -32.711   5.828   1.849  1.00 20.00     0.006 C 
HETATM    4  C5  UNL     1     -33.345   8.648   2.760  1.00 20.00     0.019 C 
HETATM    5  C6  UNL     1     -31.096   7.846   1.716  1.00 20.00     0.025 A 
HETATM    6  C7  UNL     1     -32.182   7.009   1.092  1.00 20.00     0.004 A 
HETATM    7  C8  UNL     1     -32.479   8.436   1.532  1.00 20.00     0.040 A 
ENDROOT
BRANCH   7   8
HETATM    8  C1  UNL     1     -32.613   9.448   0.457  1.00 20.00     0.228 C 
HETATM    9  O9  UNL     1     -32.742   9.124  -0.720  1.00 20.00    -0.279 OA
HETATM   10 CL10 UNL     1     -32.561  11.071   1.075  1.00 20.00    -0.043 Cl
ENDBRANCH   7   8
TORSDOF 1
ENDMDL
MODEL 4
REMARK VINA RESULT:       0.5      3.134      4.216
REMARK  1 active torsions:
REMARK  status: ('A' for Active; 'I' for Inactive)
REMARK    1  A    between atoms: C1_1  and  C8_8 
ROOT
HETATM    1  C2  UNL     1     -32.164   7.403   1.102  1.00 20.00     0.000 C 
HETATM    2  C3  UNL     1     -31.901   6.058   1.770  1.00 20.00     0.001 C 
HETATM    3  C4  UNL     1     -32.475   8.475   2.140  1.00 20.00     0.006 C 
HETATM    4  C5  UNL     1     -33.155   5.541   2.469  1.00 20.00     0.019 C 
HETATM    5  C6  UNL     1     -33.083   7.317   4.373  1.00 20.00     0.025 A 
HETATM    6  C7  UNL     1     -33.517   8.042   3.126  1.00 20.00     0.004 A 
HETATM    7  C8  UNL     1     -33.873   6.574   3.317  1.00 20.00     0.040 A 
ENDROOT
BRANCH   7   8
HETATM    8  C1  UNL     1     -35.284   6.272   3.658  1.00 20.00     0.228 C 
HETATM    9  O9  UNL     1     -36.214   6.918   3.185  1.00 20.00    -0.279 OA
HETATM   10 CL10 UNL     1     -35.419   4.940   4.767  1.00 20.00    -0.043 Cl
ENDBRANCH   7   8
TORSDOF 1
ENDMDL
MODEL 5
REMARK VINA RESULT:       0.5      2.145      2.920
REMARK  1 active torsions:
REMARK  status: ('A' for Active; 'I' for Inactive)
REMARK    1  A    between atoms: C1_1  and  C8_8 
ROOT
HETATM    1  C2  UNL     1     -32.913   8.032   4.716  1.00 20.00     0.000 C 
HETATM    2  C3  UNL     1     -34.254   7.677   4.087  1.00 20.00     0.001 C 
HETATM    3  C4  UNL     1     -31.978   8.662   3.689  1.00 20.00     0.006 C 
HETATM    4  C5  UNL     1     -34.090   6.593   3.025  1.00 20.00     0.019 C 
HETATM    5  C6  UNL     1     -32.883   8.149   1.319  1.00 20.00     0.025 A 
HETATM    6  C7  UNL     1     -31.894   7.870   2.420  1.00 20.00     0.004 A 
HETATM    7  C8  UNL     1     -32.945   6.829   2.058  1.00 20.00     0.040 A 
ENDROOT
BRANCH   7   8
HETATM    8  C1  UNL     1     -32.472   5.643   1.304  1.00 20.00     0.228 C 
HETATM    9  O9  UNL     1     -31.357   5.165   1.487  1.00 20.00    -0.279 OA
HETATM   10 CL10 UNL     1     -33.666   5.063   0.182  1.00 20.00    -0.043 Cl
ENDBRANCH   7   8
TORSDOF 1
ENDMDL
MODEL 6
REMARK VINA RESULT:       0.6      3.136      3.974
REMARK  1 active torsions:
REMARK  status: ('A' for Active; 'I' for Inactive)
REMARK    1  A    between atoms: C1_1  and  C8_8 
ROOT
HETATM    1  C2  UNL     1     -31.587   7.993   2.300  1.00 20.00     0.000 C 
HETATM    2  C3  UNL     1     -32.999   8.489   2.589  1.00 20.00     0.001 C 
HETATM    3  C4  UNL     1     -31.613   6.790   1.365  1.00 20.00     0.006 C 
HETATM    4  C5  UNL     1     -33.799   7.441   3.359  1.00 20.00     0.019 C 
HETATM    5  C6  UNL     1     -34.007   5.808   1.339  1.00 20.00     0.025 A 
HETATM    6  C7  UNL     1     -32.578   5.732   1.808  1.00 20.00     0.004 A 
HETATM    7  C8  UNL     1     -33.691   6.034   2.803  1.00 20.00     0.040 A 
ENDROOT
BRANCH   7   8
HETATM    8  C1  UNL     1     -34.073   4.937   3.724  1.00 20.00     0.228 C 
HETATM    9  O9  UNL     1     -33.396   3.918   3.829  1.00 20.00    -0.279 OA
HETATM   10 CL10 UNL     1     -35.542   5.286   4.584  1.00 20.00    -0.043 Cl
ENDBRANCH   7   8
TORSDOF 1
ENDMDL
MODEL 7
REMARK VINA RESULT:       0.8      2.995      4.136
REMARK  1 active torsions:
REMARK  status: ('A' for Active; 'I' for Inactive)
REMARK    1  A    between atoms: C1_1  and  C8_8 
ROOT
HETATM    1  C2  UNL     1     -32.416   7.697   1.299  1.00 20.00     0.000 C 
HETATM    2  C3  UNL     1     -32.030   6.314   1.812  1.00 20.00     0.001 C 
HETATM    3  C4  UNL     1     -32.770   8.627   2.454  1.00 20.00     0.006 C 
HETATM    4  C5  UNL     1     -33.218   5.630   2.484  1.00 20.00     0.019 C 
HETATM    5  C6  UNL     1     -33.213   7.196   4.566  1.00 20.00     0.025 A 
HETATM    6  C7  UNL     1     -33.742   8.012   3.416  1.00 20.00     0.004 A 
HETATM    7  C8  UNL     1     -33.981   6.509   3.457  1.00 20.00     0.040 A 
ENDROOT
BRANCH   7   8
HETATM    8  C1  UNL     1     -35.353   6.064   3.800  1.00 20.00     0.228 C 
HETATM    9  O9  UNL     1     -35.556   5.176   4.623  1.00 20.00    -0.279 OA
HETATM   10 CL10 UNL     1     -36.565   6.937   2.912  1.00 20.00    -0.043 Cl
ENDBRANCH   7   8
TORSDOF 1
ENDMDL
MODEL 8
REMARK VINA RESULT:       0.9      2.280      3.696
REMARK  1 active torsions:
REMARK  status: ('A' for Active; 'I' for Inactive)
REMARK    1  A    between atoms: C1_1  and  C8_8 
ROOT
HETATM    1  C2  UNL     1     -32.363   9.908  -0.236  1.00 20.00     0.000 C 
HETATM    2  C3  UNL     1     -31.117   9.035  -0.141  1.00 20.00     0.001 C 
HETATM    3  C4  UNL     1     -32.889  10.259   1.152  1.00 20.00     0.006 C 
HETATM    4  C5  UNL     1     -31.446   7.680   0.481  1.00 20.00     0.019 C 
HETATM    5  C6  UNL     1     -31.839   8.636   2.873  1.00 20.00     0.025 A 
HETATM    6  C7  UNL     1     -33.021   9.060   2.041  1.00 20.00     0.004 A 
HETATM    7  C8  UNL     1     -32.301   7.754   1.732  1.00 20.00     0.040 A 
ENDROOT
BRANCH   7   8
HETATM    8  C1  UNL     1     -32.996   6.504   2.121  1.00 20.00     0.228 C 
HETATM    9  O9  UNL     1     -32.831   5.455   1.506  1.00 20.00    -0.279 OA
HETATM   10 CL10 UNL     1     -34.026   6.731   3.503  1.00 20.00    -0.043 Cl
ENDBRANCH   7   8
TORSDOF 1
ENDMDL
MODEL 9
REMARK VINA RESULT:       1.0      2.417      3.433
REMARK  1 active torsions:
REMARK  status: ('A' for Active; 'I' for Inactive)
REMARK    1  A    between atoms: C1_1  and  C8_8 
ROOT
HETATM    1  C2  UNL     1     -34.108   3.919   4.402  1.00 20.00     0.000 C 
HETATM    2  C3  UNL     1     -33.662   4.078   2.953  1.00 20.00     0.001 C 
HETATM    3  C4  UNL     1     -35.206   4.919   4.746  1.00 20.00     0.006 C 
HETATM    4  C5  UNL     1     -33.005   5.437   2.729  1.00 20.00     0.019 C 
HETATM    5  C6  UNL     1     -35.225   6.784   2.951  1.00 20.00     0.025 A 
HETATM    6  C7  UNL     1     -34.864   6.320   4.338  1.00 20.00     0.004 A 
HETATM    7  C8  UNL     1     -33.767   6.609   3.321  1.00 20.00     0.040 A 
ENDROOT
BRANCH   7   8
HETATM    8  C1  UNL     1     -32.995   7.859   3.516  1.00 20.00     0.228 C 
HETATM    9  O9  UNL     1     -32.914   8.404   4.612  1.00 20.00    -0.279 OA
HETATM   10 CL10 UNL     1     -32.261   8.411   2.040  1.00 20.00    -0.043 Cl
ENDBRANCH   7   8
TORSDOF 1
ENDMDL
