MODEL 1
REMARK VINA RESULT:      -0.5      0.000      0.000
REMARK  2 active torsions:
REMARK  status: ('A' for Active; 'I' for Inactive)
REMARK    1  A    between atoms: C4_4  and  C8_8 
REMARK    2  A    between atoms: C5_5  and  O9_9 
ROOT
HETATM    1  C1  UNL     1     -33.050   5.697   1.518  1.00 20.00     0.007 C 
HETATM    2  C2  UNL     1     -31.625   6.226   1.642  1.00 20.00     0.032 C 
HETATM    3  C3  UNL     1     -33.249   8.064   1.737  1.00 20.00     0.036 C 
HETATM    4  C4  UNL     1     -33.918   6.762   2.183  1.00 20.00    -0.009 C 
HETATM    5  C5  UNL     1     -31.752   7.750   1.664  1.00 20.00     0.118 C 
ENDROOT
BRANCH   4   6
HETATM    6  C8  UNL     1     -33.954   6.617   3.703  1.00 20.00    -0.019 C 
HETATM    7  C6  UNL     1     -33.947   7.989   4.381  1.00 20.00     0.010 C 
HETATM    8  C7  UNL     1     -35.178   5.813   4.145  1.00 20.00     0.010 C 
ENDBRANCH   4   6
BRANCH   5   9
HETATM    9  O9  UNL     1     -31.080   8.261   2.808  1.00 20.00    -0.396 OA
HETATM   10  H25 UNL     1     -30.859   7.497   3.364  1.00 20.00     0.210 HD
ENDBRANCH   5   9
TORSDOF 2
ENDMDL
MODEL 2
REMARK VINA RESULT:      -0.4      1.947      3.481
REMARK  2 active torsions:
REMARK  status: ('A' for Active; 'I' for Inactive)
REMARK    1  A    between atoms: C4_4  and  C8_8 
REMARK    2  A    between atoms: C5_5  and  O9_9 
ROOT
HETATM    1  C1  UNL     1     -31.975   6.774   1.251  1.00 20.00     0.007 C 
HETATM    2  C2  UNL     1     -33.170   6.348   2.098  1.00 20.00     0.032 C 
HETATM    3  C3  UNL     1     -32.071   8.314   3.070  1.00 20.00     0.036 C 
HETATM    4  C4  UNL     1     -31.786   8.255   1.568  1.00 20.00    -0.009 C 
HETATM    5  C5  UNL     1     -33.155   7.264   3.323  1.00 20.00     0.118 C 
ENDROOT
BRANCH   4   6
HETATM    6  C8  UNL     1     -32.727   9.148   0.762  1.00 20.00    -0.019 C 
HETATM    7  C6  UNL     1     -32.715  10.580   1.301  1.00 20.00     0.010 C 
HETATM    8  C7  UNL     1     -32.353   9.136  -0.721  1.00 20.00     0.010 C 
ENDBRANCH   4   6
BRANCH   5   9
HETATM    9  O9  UNL     1     -34.428   7.885   3.460  1.00 20.00    -0.396 OA
HETATM   10  H25 UNL     1     -34.312   8.616   4.086  1.00 20.00     0.210 HD
ENDBRANCH   5   9
TORSDOF 2
ENDMDL
MODEL 3
REMARK VINA RESULT:      -0.3      2.000      3.539
REMARK  2 active torsions:
REMARK  status: ('A' for Active; 'I' for Inactive)
REMARK    1  A    between atoms: C4_4  and  C8_8 
REMARK    2  A    between atoms: C5_5  and  O9_9 
ROOT
HETATM    1  C1  UNL     1     -33.351   5.164   3.847  1.00 20.00     0.007 C 
HETATM    2  C2  UNL     1     -34.870   5.043   3.785  1.00 20.00     0.032 C 
HETATM    3  C3  UNL     1     -34.194   7.382   4.096  1.00 20.00     0.036 C 
HETATM    4  C4  UNL     1     -33.060   6.602   3.426  1.00 20.00    -0.009 C 
HETATM    5  C5  UNL     1     -35.407   6.448   4.064  1.00 20.00     0.118 C 
ENDROOT
BRANCH   4   6
HETATM    6  C8  UNL     1     -33.053   6.775   1.909  1.00 20.00    -0.019 C 
HETATM    7  C6  UNL     1     -32.215   7.989   1.503  1.00 20.00     0.010 C 
HETATM    8  C7  UNL     1     -32.529   5.514   1.220  1.00 20.00     0.010 C 
ENDBRANCH   4   6
BRANCH   5   9
HETATM    9  O9  UNL     1     -36.297   6.826   3.021  1.00 20.00    -0.396 OA
HETATM   10  H25 UNL     1     -36.241   7.791   2.945  1.00 20.00     0.210 HD
ENDBRANCH   5   9
TORSDOF 2
ENDMDL
MODEL 4
REMARK VINA RESULT:      -0.2      2.020      3.436
REMARK  2 active torsions:
REMARK  status: ('A' for Active; 'I' for Inactive)
REMARK    1  A    between atoms: C4_4  and  C8_8 
REMARK    2  A    between atoms: C5_5  and  O9_9 
ROOT
HETATM    1  C1  UNL     1     -35.405   6.286   3.850  1.00 20.00     0.007 C 
HETATM    2  C2  UNL     1     -35.041   5.034   4.641  1.00 20.00     0.032 C 
HETATM    3  C3  UNL     1     -33.798   5.120   2.527  1.00 20.00     0.036 C 
HETATM    4  C4  UNL     1     -34.200   6.536   2.946  1.00 20.00    -0.009 C 
HETATM    5  C5  UNL     1     -34.102   4.233   3.738  1.00 20.00     0.118 C 
ENDROOT
BRANCH   4   6
HETATM    6  C8  UNL     1     -33.073   7.271   3.669  1.00 20.00    -0.019 C 
HETATM    7  C6  UNL     1     -32.212   8.057   2.677  1.00 20.00     0.010 C 
HETATM    8  C7  UNL     1     -33.633   8.205   4.743  1.00 20.00     0.010 C 
ENDBRANCH   4   6
BRANCH   5   9
HETATM    9  O9  UNL     1     -32.907   3.935   4.449  1.00 20.00    -0.396 OA
HETATM   10  H25 UNL     1     -32.707   3.001   4.276  1.00 20.00     0.210 HD
ENDBRANCH   5   9
TORSDOF 2
ENDMDL
MODEL 5
REMARK VINA RESULT:      -0.1      1.961      3.197
REMARK  2 active torsions:
REMARK  status: ('A' for Active; 'I' for Inactive)
REMARK    1  A    between atoms: C4_4  and  C8_8 
REMARK    2  A    between atoms: C5_5  and  O9_9 
ROOT
HETATM    1  C1  UNL     1     -32.190   9.075   2.562  1.00 20.00     0.007 C 
HETATM    2  C2  UNL     1     -32.794   9.976   1.490  1.00 20.00     0.032 C 
HETATM    3  C3  UNL     1     -31.268   8.335   0.490  1.00 20.00     0.036 C 
HETATM    4  C4  UNL     1     -31.801   7.798   1.820  1.00 20.00    -0.009 C 
HETATM    5  C5  UNL     1     -32.111   9.575   0.182  1.00 20.00     0.118 C 
ENDROOT
BRANCH   4   6
HETATM    6  C8  UNL     1     -32.984   6.851   1.632  1.00 20.00    -0.019 C 
HETATM    7  C6  UNL     1     -32.511   5.476   1.155  1.00 20.00     0.010 C 
HETATM    8  C7  UNL     1     -33.785   6.716   2.929  1.00 20.00     0.010 C 
ENDBRANCH   4   6
BRANCH   5   9
HETATM    9  O9  UNL     1     -33.102   9.274  -0.792  1.00 20.00    -0.396 OA
HETATM   10  H25 UNL     1     -33.848   8.877  -0.315  1.00 20.00     0.210 HD
ENDBRANCH   5   9
TORSDOF 2
ENDMDL
MODEL 6
REMARK VINA RESULT:       0.1      1.898      3.771
REMARK  2 active torsions:
REMARK  status: ('A' for Active; 'I' for Inactive)
REMARK    1  A    between atoms: C4_4  and  C8_8 
REMARK    2  A    between atoms: C5_5  and  O9_9 
ROOT
HETATM    1  C1  UNL     1     -33.873   8.189   4.061  1.00 20.00     0.007 C 
HETATM    2  C2  UNL     1     -34.190   7.031   5.001  1.00 20.00     0.032 C 
HETATM    3  C3  UNL     1     -35.103   6.610   2.763  1.00 20.00     0.036 C 
HETATM    4  C4  UNL     1     -33.920   7.576   2.663  1.00 20.00    -0.009 C 
HETATM    5  C5  UNL     1     -35.077   6.079   4.198  1.00 20.00     0.118 C 
ENDROOT
BRANCH   4   6
HETATM    6  C8  UNL     1     -32.619   6.867   2.294  1.00 20.00    -0.019 C 
HETATM    7  C6  UNL     1     -32.885   5.705   1.335  1.00 20.00     0.010 C 
HETATM    8  C7  UNL     1     -31.621   7.848   1.676  1.00 20.00     0.010 C 
ENDBRANCH   4   6
BRANCH   5   9
HETATM    9  O9  UNL     1     -34.517   4.772   4.236  1.00 20.00    -0.396 OA
HETATM   10  H25 UNL     1     -34.338   4.574   5.168  1.00 20.00     0.210 HD
ENDBRANCH   5   9
TORSDOF 2
ENDMDL
MODEL 7
REMARK VINA RESULT:       0.7      1.527      2.013
REMARK  2 active torsions:
REMARK  status: ('A' for Active; 'I' for Inactive)
REMARK    1  A    between atoms: C4_4  and  C8_8 
REMARK    2  A    between atoms: C5_5  and  O9_9 
ROOT
HETATM    1  C1  UNL     1     -33.140   6.094   1.874  1.00 20.00     0.007 C 
HETATM    2  C2  UNL     1     -32.139   7.069   2.483  1.00 20.00     0.032 C 
HETATM    3  C3  UNL     1     -34.416   7.571   3.245  1.00 20.00     0.036 C 
HETATM    4  C4  UNL     1     -34.322   6.098   2.841  1.00 20.00    -0.009 C 
HETATM    5  C5  UNL     1     -32.974   8.084   3.265  1.00 20.00     0.118 C 
ENDROOT
BRANCH   4   6
HETATM    6  C8  UNL     1     -34.096   5.180   4.040  1.00 20.00    -0.019 C 
HETATM    7  C6  UNL     1     -35.382   5.017   4.851  1.00 20.00     0.010 C 
HETATM    8  C7  UNL     1     -33.575   3.814   3.589  1.00 20.00     0.010 C 
ENDBRANCH   4   6
BRANCH   5   9
HETATM    9  O9  UNL     1     -32.491   8.159   4.601  1.00 20.00    -0.396 OA
HETATM   10  H25 UNL     1     -31.653   7.671   4.620  1.00 20.00     0.210 HD
ENDBRANCH   5   9
TORSDOF 2
ENDMDL
MODEL 8
REMARK VINA RESULT:       0.8      1.759      2.499
REMARK  2 active torsions:
REMARK  status: ('A' for Active; 'I' for Inactive)
REMARK    1  A    between atoms: C4_4  and  C8_8 
REMARK    2  A    between atoms: C5_5  and  O9_9 
ROOT
HETATM    1  C1  UNL     1     -32.002   7.770   2.467  1.00 20.00     0.007 C 
HETATM    2  C2  UNL     1     -32.399   7.583   1.006  1.00 20.00     0.032 C 
HETATM    3  C3  UNL     1     -32.744   5.510   2.273  1.00 20.00     0.036 C 
HETATM    4  C4  UNL     1     -32.799   6.709   3.223  1.00 20.00    -0.009 C 
HETATM    5  C5  UNL     1     -32.761   6.104   0.862  1.00 20.00     0.118 C 
ENDROOT
BRANCH   4   6
HETATM    6  C8  UNL     1     -34.231   7.156   3.513  1.00 20.00    -0.019 C 
HETATM    7  C6  UNL     1     -35.098   5.965   3.927  1.00 20.00     0.010 C 
HETATM    8  C7  UNL     1     -34.256   8.233   4.598  1.00 20.00     0.010 C 
ENDBRANCH   4   6
BRANCH   5   9
HETATM    9  O9  UNL     1     -34.059   5.992   0.291  1.00 20.00    -0.396 OA
HETATM   10  H25 UNL     1     -34.449   6.880   0.312  1.00 20.00     0.210 HD
ENDBRANCH   5   9
TORSDOF 2
ENDMDL
MODEL 9
REMARK VINA RESULT:       0.9      1.659      2.741
REMARK  2 active torsions:
REMARK  status: ('A' for Active; 'I' for Inactive)
REMARK    1  A    between atoms: C4_4  and  C8_8 
REMARK    2  A    between atoms: C5_5  and  O9_9 
ROOT
HETATM    1  C1  UNL     1     -33.327   6.884   1.903  1.00 20.00     0.007 C 
HETATM    2  C2  UNL     1     -32.666   7.949   2.772  1.00 20.00     0.032 C 
HETATM    3  C3  UNL     1     -34.621   6.990   3.905  1.00 20.00     0.036 C 
HETATM    4  C4  UNL     1     -34.070   5.986   2.890  1.00 20.00    -0.009 C 
HETATM    5  C5  UNL     1     -33.566   8.096   4.000  1.00 20.00     0.118 C 
ENDROOT
BRANCH   4   6
HETATM    6  C8  UNL     1     -33.154   4.949   3.536  1.00 20.00    -0.019 C 
HETATM    7  C6  UNL     1     -33.972   3.851   4.219  1.00 20.00     0.010 C 
HETATM    8  C7  UNL     1     -32.207   4.339   2.502  1.00 20.00     0.010 C 
ENDBRANCH   4   6
BRANCH   5   9
HETATM    9  O9  UNL     1     -32.783   7.938   5.177  1.00 20.00    -0.396 OA
HETATM   10  H25 UNL     1     -32.001   8.502   5.067  1.00 20.00     0.210 HD
ENDBRANCH   5   9
TORSDOF 2
ENDMDL
