MODEL 1
REMARK VINA RESULT:      -1.3      0.000      0.000
REMARK  1 active torsions:
REMARK  status: ('A' for Active; 'I' for Inactive)
REMARK    1  A    between atoms: C5_5  and  O10_10 
ROOT
HETATM    1  C1  UNL     1     -32.929   4.795   1.989  1.00 20.00     0.050 A 
HETATM    2  C2  UNL     1     -31.816   6.792   1.155  1.00 20.00     0.079 A 
HETATM    3  C3  UNL     1     -33.618   5.596   2.884  1.00 20.00    -0.046 A 
HETATM    4  C4  UNL     1     -33.409   6.980   2.923  1.00 20.00    -0.018 A 
HETATM    5  C5  UNL     1     -32.506   7.591   2.069  1.00 20.00     0.075 A 
HETATM    6  C6  UNL     1     -32.026   5.403   1.115  1.00 20.00     0.119 A 
HETATM    7  C7  UNL     1     -34.598   5.175   3.933  1.00 20.00     0.039 C 
HETATM    8  C8  UNL     1     -34.230   7.612   4.001  1.00 20.00     0.042 C 
HETATM    9  C9  UNL     1     -35.272   6.515   4.264  1.00 20.00     0.009 C 
HETATM   10  F11 UNL     1     -31.347   4.656   0.235  1.00 20.00    -0.206 F 
ENDROOT
BRANCH   5  11
HETATM   11  O10 UNL     1     -32.288   8.929   2.113  1.00 20.00    -0.360 OA
HETATM   12  H20 UNL     1     -32.265   9.300   1.214  1.00 20.00     0.217 HD
ENDBRANCH   5  11
TORSDOF 1
ENDMDL
MODEL 2
REMARK VINA RESULT:      -1.0      2.118      2.828
REMARK  1 active torsions:
REMARK  status: ('A' for Active; 'I' for Inactive)
REMARK    1  A    between atoms: C5_5  and  O10_10 
ROOT
HETATM    1  C1  UNL     1     -33.564   8.047   2.915  1.00 20.00     0.050 A 
HETATM    2  C2  UNL     1     -31.924   7.080   1.399  1.00 20.00     0.079 A 
HETATM    3  C3  UNL     1     -33.953   6.763   3.257  1.00 20.00    -0.046 A 
HETATM    4  C4  UNL     1     -33.342   5.645   2.675  1.00 20.00    -0.018 A 
HETATM    5  C5  UNL     1     -32.331   5.788   1.741  1.00 20.00     0.075 A 
HETATM    6  C6  UNL     1     -32.537   8.201   1.983  1.00 20.00     0.119 A 
HETATM    7  C7  UNL     1     -35.044   6.347   4.192  1.00 20.00     0.039 C 
HETATM    8  C8  UNL     1     -33.968   4.379   3.169  1.00 20.00     0.042 C 
HETATM    9  C9  UNL     1     -34.683   4.875   4.435  1.00 20.00     0.009 C 
HETATM   10  F11 UNL     1     -32.135   9.431   1.634  1.00 20.00    -0.206 F 
ENDROOT
BRANCH   5  11
HETATM   11  O10 UNL     1     -31.746   4.709   1.162  1.00 20.00    -0.360 OA
HETATM   12  H20 UNL     1     -32.412   4.153   0.724  1.00 20.00     0.217 HD
ENDBRANCH   5  11
TORSDOF 1
ENDMDL
MODEL 3
REMARK VINA RESULT:      -0.5      2.449      3.907
REMARK  1 active torsions:
REMARK  status: ('A' for Active; 'I' for Inactive)
REMARK    1  A    between atoms: C5_5  and  O10_10 
ROOT
HETATM    1  C1  UNL     1     -34.071   7.492   3.655  1.00 20.00     0.050 A 
HETATM    2  C2  UNL     1     -33.897   5.218   2.807  1.00 20.00     0.079 A 
HETATM    3  C3  UNL     1     -33.130   7.877   2.715  1.00 20.00    -0.046 A 
HETATM    4  C4  UNL     1     -32.571   6.946   1.831  1.00 20.00    -0.018 A 
HETATM    5  C5  UNL     1     -32.939   5.613   1.869  1.00 20.00     0.075 A 
HETATM    6  C6  UNL     1     -34.459   6.152   3.694  1.00 20.00     0.119 A 
HETATM    7  C7  UNL     1     -32.534   9.233   2.509  1.00 20.00     0.039 C 
HETATM    8  C8  UNL     1     -31.550   7.595   0.951  1.00 20.00     0.042 C 
HETATM    9  C9  UNL     1     -31.919   9.077   1.110  1.00 20.00     0.009 C 
HETATM   10  F11 UNL     1     -35.370   5.748   4.589  1.00 20.00    -0.206 F 
ENDROOT
BRANCH   5  11
HETATM   11  O10 UNL     1     -32.390   4.703   1.026  1.00 20.00    -0.360 OA
HETATM   12  H20 UNL     1     -31.805   4.097   1.511  1.00 20.00     0.217 HD
ENDBRANCH   5  11
TORSDOF 1
ENDMDL
MODEL 4
REMARK VINA RESULT:      -0.4      2.058      3.468
REMARK  1 active torsions:
REMARK  status: ('A' for Active; 'I' for Inactive)
REMARK    1  A    between atoms: C5_5  and  O10_10 
ROOT
HETATM    1  C1  UNL     1     -33.719   4.870   2.991  1.00 20.00     0.050 A 
HETATM    2  C2  UNL     1     -34.796   6.525   4.412  1.00 20.00     0.079 A 
HETATM    3  C3  UNL     1     -33.038   5.900   2.366  1.00 20.00    -0.046 A 
HETATM    4  C4  UNL     1     -33.234   7.232   2.752  1.00 20.00    -0.018 A 
HETATM    5  C5  UNL     1     -34.114   7.560   3.768  1.00 20.00     0.075 A 
HETATM    6  C6  UNL     1     -34.600   5.189   4.026  1.00 20.00     0.119 A 
HETATM    7  C7  UNL     1     -32.083   5.813   1.218  1.00 20.00     0.039 C 
HETATM    8  C8  UNL     1     -32.426   8.157   1.898  1.00 20.00     0.042 C 
HETATM    9  C9  UNL     1     -31.401   7.187   1.294  1.00 20.00     0.009 C 
HETATM   10  F11 UNL     1     -35.271   4.213   4.653  1.00 20.00    -0.206 F 
ENDROOT
BRANCH   5  11
HETATM   11  O10 UNL     1     -34.319   8.850   4.137  1.00 20.00    -0.360 OA
HETATM   12  H20 UNL     1     -35.270   9.037   4.211  1.00 20.00     0.217 HD
ENDBRANCH   5  11
TORSDOF 1
ENDMDL
MODEL 5
REMARK VINA RESULT:       0.5      2.265      3.618
REMARK  1 active torsions:
REMARK  status: ('A' for Active; 'I' for Inactive)
REMARK    1  A    between atoms: C5_5  and  O10_10 
ROOT
HETATM    1  C1  UNL     1     -34.536   5.817   3.033  1.00 20.00     0.050 A 
HETATM    2  C2  UNL     1     -33.914   7.594   4.574  1.00 20.00     0.079 A 
HETATM    3  C3  UNL     1     -33.433   6.146   2.264  1.00 20.00    -0.046 A 
HETATM    4  C4  UNL     1     -32.579   7.190   2.637  1.00 20.00    -0.018 A 
HETATM    5  C5  UNL     1     -32.810   7.927   3.786  1.00 20.00     0.075 A 
HETATM    6  C6  UNL     1     -34.771   6.546   4.200  1.00 20.00     0.119 A 
HETATM    7  C7  UNL     1     -33.001   5.542   0.965  1.00 20.00     0.039 C 
HETATM    8  C8  UNL     1     -31.495   7.380   1.623  1.00 20.00     0.042 C 
HETATM    9  C9  UNL     1     -31.551   6.041   0.874  1.00 20.00     0.009 C 
HETATM   10  F11 UNL     1     -35.828   6.249   4.968  1.00 20.00    -0.206 F 
ENDROOT
BRANCH   5  11
HETATM   11  O10 UNL     1     -31.994   8.950   4.146  1.00 20.00    -0.360 OA
HETATM   12  H20 UNL     1     -32.516   9.718   4.433  1.00 20.00     0.217 HD
ENDBRANCH   5  11
TORSDOF 1
ENDMDL
MODEL 6
REMARK VINA RESULT:       0.8      2.809      4.327
REMARK  1 active torsions:
REMARK  status: ('A' for Active; 'I' for Inactive)
REMARK    1  A    between atoms: C5_5  and  O10_10 
ROOT
HETATM    1  C1  UNL     1     -33.062   8.176   3.390  1.00 20.00     0.050 A 
HETATM    2  C2  UNL     1     -34.508   6.633   4.594  1.00 20.00     0.079 A 
HETATM    3  C3  UNL     1     -32.751   7.148   2.516  1.00 20.00    -0.046 A 
HETATM    4  C4  UNL     1     -33.306   5.872   2.677  1.00 20.00    -0.018 A 
HETATM    5  C5  UNL     1     -34.180   5.598   3.714  1.00 20.00     0.075 A 
HETATM    6  C6  UNL     1     -33.952   7.913   4.432  1.00 20.00     0.119 A 
HETATM    7  C7  UNL     1     -31.803   7.175   1.360  1.00 20.00     0.039 C 
HETATM    8  C8  UNL     1     -32.780   4.929   1.641  1.00 20.00     0.042 C 
HETATM    9  C9  UNL     1     -32.228   5.911   0.598  1.00 20.00     0.009 C 
HETATM   10  F11 UNL     1     -34.276   8.889   5.292  1.00 20.00    -0.206 F 
ENDROOT
BRANCH   5  11
HETATM   11  O10 UNL     1     -34.709   4.360   3.884  1.00 20.00    -0.360 OA
HETATM   12  H20 UNL     1     -34.004   3.703   4.016  1.00 20.00     0.217 HD
ENDBRANCH   5  11
TORSDOF 1
ENDMDL
MODEL 7
REMARK VINA RESULT:       0.8      1.868      2.675
REMARK  1 active torsions:
REMARK  status: ('A' for Active; 'I' for Inactive)
REMARK    1  A    between atoms: C5_5  and  O10_10 
ROOT
HETATM    1  C1  UNL     1     -32.290   6.608   1.528  1.00 20.00     0.050 A 
HETATM    2  C2  UNL     1     -32.967   4.370   2.205  1.00 20.00     0.079 A 
HETATM    3  C3  UNL     1     -33.044   7.114   2.573  1.00 20.00    -0.046 A 
HETATM    4  C4  UNL     1     -33.759   6.263   3.426  1.00 20.00    -0.018 A 
HETATM    5  C5  UNL     1     -33.734   4.890   3.250  1.00 20.00     0.075 A 
HETATM    6  C6  UNL     1     -32.249   5.224   1.350  1.00 20.00     0.119 A 
HETATM    7  C7  UNL     1     -33.272   8.547   2.937  1.00 20.00     0.039 C 
HETATM    8  C8  UNL     1     -34.528   7.049   4.439  1.00 20.00     0.042 C 
HETATM    9  C9  UNL     1     -33.816   8.407   4.367  1.00 20.00     0.009 C 
HETATM   10  F11 UNL     1     -31.525   4.703   0.350  1.00 20.00    -0.206 F 
ENDROOT
BRANCH   5  11
HETATM   11  O10 UNL     1     -34.437   4.061   4.063  1.00 20.00    -0.360 OA
HETATM   12  H20 UNL     1     -34.385   4.364   4.986  1.00 20.00     0.217 HD
ENDBRANCH   5  11
TORSDOF 1
ENDMDL
MODEL 8
REMARK VINA RESULT:       1.1      2.353      3.220
REMARK  1 active torsions:
REMARK  status: ('A' for Active; 'I' for Inactive)
REMARK    1  A    between atoms: C5_5  and  O10_10 
ROOT
HETATM    1  C1  UNL     1     -34.647   7.102   3.936  1.00 20.00     0.050 A 
HETATM    2  C2  UNL     1     -33.037   7.427   2.141  1.00 20.00     0.079 A 
HETATM    3  C3  UNL     1     -34.340   5.752   3.919  1.00 20.00    -0.046 A 
HETATM    4  C4  UNL     1     -33.396   5.238   3.021  1.00 20.00    -0.018 A 
HETATM    5  C5  UNL     1     -32.742   6.062   2.122  1.00 20.00     0.075 A 
HETATM    6  C6  UNL     1     -33.983   7.943   3.042  1.00 20.00     0.119 A 
HETATM    7  C7  UNL     1     -34.941   4.659   4.745  1.00 20.00     0.039 C 
HETATM    8  C8  UNL     1     -33.278   3.754   3.165  1.00 20.00     0.042 C 
HETATM    9  C9  UNL     1     -33.910   3.538   4.548  1.00 20.00     0.009 C 
HETATM   10  F11 UNL     1     -34.255   9.256   3.036  1.00 20.00    -0.206 F 
ENDROOT
BRANCH   5  11
HETATM   11  O10 UNL     1     -31.837   5.567   1.239  1.00 20.00    -0.360 OA
HETATM   12  H20 UNL     1     -31.801   6.122   0.442  1.00 20.00     0.217 HD
ENDBRANCH   5  11
TORSDOF 1
ENDMDL
MODEL 9
REMARK VINA RESULT:       1.3      1.317      1.702
REMARK  1 active torsions:
REMARK  status: ('A' for Active; 'I' for Inactive)
REMARK    1  A    between atoms: C5_5  and  O10_10 
ROOT
HETATM    1  C1  UNL     1     -32.493   5.603   2.079  1.00 20.00     0.050 A 
HETATM    2  C2  UNL     1     -32.783   8.015   2.216  1.00 20.00     0.079 A 
HETATM    3  C3  UNL     1     -33.468   5.466   3.052  1.00 20.00    -0.046 A 
HETATM    4  C4  UNL     1     -34.094   6.588   3.610  1.00 20.00    -0.018 A 
HETATM    5  C5  UNL     1     -33.758   7.869   3.206  1.00 20.00     0.075 A 
HETATM    6  C6  UNL     1     -32.156   6.890   1.656  1.00 20.00     0.119 A 
HETATM    7  C7  UNL     1     -33.967   4.207   3.688  1.00 20.00     0.039 C 
HETATM    8  C8  UNL     1     -35.070   6.182   4.668  1.00 20.00     0.042 C 
HETATM    9  C9  UNL     1     -35.272   4.697   4.334  1.00 20.00     0.009 C 
HETATM   10  F11 UNL     1     -31.218   7.055   0.713  1.00 20.00    -0.206 F 
ENDROOT
BRANCH   5  11
HETATM   11  O10 UNL     1     -34.350   8.960   3.753  1.00 20.00    -0.360 OA
HETATM   12  H20 UNL     1     -34.846   9.453   3.078  1.00 20.00     0.217 HD
ENDBRANCH   5  11
TORSDOF 1
ENDMDL
