MODEL 1
REMARK VINA RESULT:      -2.6      0.000      0.000
REMARK  2 active torsions:
REMARK  status: ('A' for Active; 'I' for Inactive)
REMARK    1  A    between atoms: C6_6  and  C8_8 
REMARK    2  A    between atoms: C7_7  and  C8_8 
ROOT
HETATM    1  C1  UNL     1     -34.969   5.707   4.083  1.00 20.00     0.001 A 
HETATM    2  C2  UNL     1     -34.882   7.113   4.433  1.00 20.00     0.001 A 
HETATM    3  C3  UNL     1     -34.072   5.429   3.123  1.00 20.00     0.013 A 
HETATM    4  C4  UNL     1     -33.933   7.701   3.690  1.00 20.00     0.013 A 
HETATM    5  C5  UNL     1     -33.381   6.670   2.834  1.00 20.00    -0.018 A 
HETATM    6  C7  UNL     1     -32.407   6.834   1.935  1.00 20.00     0.028 C 
HETATM    7 CL10 UNL     1     -31.898   5.499   0.954  1.00 20.00    -0.088 Cl
ENDROOT
BRANCH   6   8
HETATM    8  C8  UNL     1     -31.719   8.139   1.670  1.00 20.00     0.121 C 
BRANCH   8   9
HETATM    9  C6  UNL     1     -32.394   8.926   0.567  1.00 20.00     0.236 C 
HETATM   10  O9  UNL     1     -32.465  10.149   0.512  1.00 20.00    -0.307 OA
ENDBRANCH   8   9
ENDBRANCH   6   8
TORSDOF 2
ENDMDL
MODEL 2
REMARK VINA RESULT:      -2.2      3.071      4.630
REMARK  2 active torsions:
REMARK  status: ('A' for Active; 'I' for Inactive)
REMARK    1  A    between atoms: C6_6  and  C8_8 
REMARK    2  A    between atoms: C7_7  and  C8_8 
ROOT
HETATM    1  C1  UNL     1     -31.569   7.616   1.470  1.00 20.00     0.001 A 
HETATM    2  C2  UNL     1     -32.146   6.397   0.933  1.00 20.00     0.001 A 
HETATM    3  C3  UNL     1     -32.227   7.969   2.586  1.00 20.00     0.013 A 
HETATM    4  C4  UNL     1     -33.158   5.998   1.718  1.00 20.00     0.013 A 
HETATM    5  C5  UNL     1     -33.255   6.967   2.792  1.00 20.00    -0.018 A 
HETATM    6  C7  UNL     1     -34.136   6.942   3.795  1.00 20.00     0.028 C 
HETATM    7 CL10 UNL     1     -34.145   8.213   4.974  1.00 20.00    -0.088 Cl
ENDROOT
BRANCH   6   8
HETATM    8  C8  UNL     1     -35.182   5.884   3.968  1.00 20.00     0.121 C 
BRANCH   8   9
HETATM    9  C6  UNL     1     -34.642   4.654   4.665  1.00 20.00     0.236 C 
HETATM   10  O9  UNL     1     -34.081   3.715   4.111  1.00 20.00    -0.307 OA
ENDBRANCH   8   9
ENDBRANCH   6   8
TORSDOF 2
ENDMDL
MODEL 3
REMARK VINA RESULT:      -1.6      3.362      4.840
REMARK  2 active torsions:
REMARK  status: ('A' for Active; 'I' for Inactive)
REMARK    1  A    between atoms: C6_6  and  C8_8 
REMARK    2  A    between atoms: C7_7  and  C8_8 
ROOT
HETATM    1  C1  UNL     1     -32.282   8.286   1.822  1.00 20.00     0.001 A 
HETATM    2  C2  UNL     1     -31.673   7.099   1.252  1.00 20.00     0.001 A 
HETATM    3  C3  UNL     1     -33.253   7.925   2.676  1.00 20.00     0.013 A 
HETATM    4  C4  UNL     1     -32.268   6.006   1.754  1.00 20.00     0.013 A 
HETATM    5  C5  UNL     1     -33.288   6.476   2.671  1.00 20.00    -0.018 A 
HETATM    6  C7  UNL     1     -34.114   5.708   3.386  1.00 20.00     0.028 C 
HETATM    7 CL10 UNL     1     -35.314   6.438   4.402  1.00 20.00    -0.088 Cl
ENDROOT
BRANCH   6   8
HETATM    8  C8  UNL     1     -34.113   4.211   3.349  1.00 20.00     0.121 C 
BRANCH   8   9
HETATM    9  C6  UNL     1     -33.593   3.607   4.636  1.00 20.00     0.236 C 
HETATM   10  O9  UNL     1     -33.134   2.476   4.753  1.00 20.00    -0.307 OA
ENDBRANCH   8   9
ENDBRANCH   6   8
TORSDOF 2
ENDMDL
MODEL 4
REMARK VINA RESULT:      -1.3      2.173      4.302
REMARK  2 active torsions:
REMARK  status: ('A' for Active; 'I' for Inactive)
REMARK    1  A    between atoms: C6_6  and  C8_8 
REMARK    2  A    between atoms: C7_7  and  C8_8 
ROOT
HETATM    1  C1  UNL     1     -31.941   9.945  -0.471  1.00 20.00     0.001 A 
HETATM    2  C2  UNL     1     -32.678  10.728   0.505  1.00 20.00     0.001 A 
HETATM    3  C3  UNL     1     -31.824   8.681  -0.034  1.00 20.00     0.013 A 
HETATM    4  C4  UNL     1     -33.015   9.947   1.543  1.00 20.00     0.013 A 
HETATM    5  C5  UNL     1     -32.494   8.626   1.251  1.00 20.00    -0.018 A 
HETATM    6  C7  UNL     1     -32.610   7.547   2.030  1.00 20.00     0.028 C 
HETATM    7 CL10 UNL     1     -31.881   6.049   1.551  1.00 20.00    -0.088 Cl
ENDROOT
BRANCH   6   8
HETATM    8  C8  UNL     1     -33.312   7.537   3.353  1.00 20.00     0.121 C 
BRANCH   8   9
HETATM    9  C6  UNL     1     -34.249   6.357   3.494  1.00 20.00     0.236 C 
HETATM   10  O9  UNL     1     -35.333   6.377   4.068  1.00 20.00    -0.307 OA
ENDBRANCH   8   9
ENDBRANCH   6   8
TORSDOF 2
ENDMDL
MODEL 5
REMARK VINA RESULT:      -0.6      1.696      2.168
REMARK  2 active torsions:
REMARK  status: ('A' for Active; 'I' for Inactive)
REMARK    1  A    between atoms: C6_6  and  C8_8 
REMARK    2  A    between atoms: C7_7  and  C8_8 
ROOT
HETATM    1  C1  UNL     1     -35.241   5.037   4.547  1.00 20.00     0.001 A 
HETATM    2  C2  UNL     1     -34.171   4.239   3.978  1.00 20.00     0.001 A 
HETATM    3  C3  UNL     1     -35.096   6.316   4.166  1.00 20.00     0.013 A 
HETATM    4  C4  UNL     1     -33.366   5.025   3.248  1.00 20.00     0.013 A 
HETATM    5  C5  UNL     1     -33.911   6.366   3.332  1.00 20.00    -0.018 A 
HETATM    6  C7  UNL     1     -33.410   7.455   2.746  1.00 20.00     0.028 C 
HETATM    7 CL10 UNL     1     -34.162   8.998   2.993  1.00 20.00    -0.088 Cl
ENDROOT
BRANCH   6   8
HETATM    8  C8  UNL     1     -32.180   7.459   1.891  1.00 20.00     0.121 C 
BRANCH   8   9
HETATM    9  C6  UNL     1     -31.891   8.827   1.310  1.00 20.00     0.236 C 
HETATM   10  O9  UNL     1     -32.294   9.236   0.226  1.00 20.00    -0.307 OA
ENDBRANCH   8   9
ENDBRANCH   6   8
TORSDOF 2
ENDMDL
MODEL 6
REMARK VINA RESULT:      -0.6      2.409      2.996
REMARK  2 active torsions:
REMARK  status: ('A' for Active; 'I' for Inactive)
REMARK    1  A    between atoms: C6_6  and  C8_8 
REMARK    2  A    between atoms: C7_7  and  C8_8 
ROOT
HETATM    1  C1  UNL     1     -34.401   7.612   4.716  1.00 20.00     0.001 A 
HETATM    2  C2  UNL     1     -35.065   6.368   4.372  1.00 20.00     0.001 A 
HETATM    3  C3  UNL     1     -33.455   7.882   3.802  1.00 20.00     0.013 A 
HETATM    4  C4  UNL     1     -34.529   5.871   3.247  1.00 20.00     0.013 A 
HETATM    5  C5  UNL     1     -33.493   6.800   2.838  1.00 20.00    -0.018 A 
HETATM    6  C7  UNL     1     -32.711   6.679   1.763  1.00 20.00     0.028 C 
HETATM    7 CL10 UNL     1     -31.483   7.861   1.447  1.00 20.00    -0.088 Cl
ENDROOT
BRANCH   6   8
HETATM    8  C8  UNL     1     -32.786   5.541   0.792  1.00 20.00     0.121 C 
BRANCH   8   9
HETATM    9  C6  UNL     1     -31.548   4.672   0.834  1.00 20.00     0.236 C 
HETATM   10  O9  UNL     1     -31.146   3.968  -0.087  1.00 20.00    -0.307 OA
ENDBRANCH   8   9
ENDBRANCH   6   8
TORSDOF 2
ENDMDL
MODEL 7
REMARK VINA RESULT:      -0.2      1.625      1.944
REMARK  2 active torsions:
REMARK  status: ('A' for Active; 'I' for Inactive)
REMARK    1  A    between atoms: C6_6  and  C8_8 
REMARK    2  A    between atoms: C7_7  and  C8_8 
ROOT
HETATM    1  C1  UNL     1     -34.866   6.857   4.712  1.00 20.00     0.001 A 
HETATM    2  C2  UNL     1     -35.074   6.084   3.502  1.00 20.00     0.001 A 
HETATM    3  C3  UNL     1     -33.807   7.667   4.550  1.00 20.00     0.013 A 
HETATM    4  C4  UNL     1     -34.143   6.416   2.594  1.00 20.00     0.013 A 
HETATM    5  C5  UNL     1     -33.305   7.425   3.211  1.00 20.00    -0.018 A 
HETATM    6  C7  UNL     1     -32.255   8.027   2.647  1.00 20.00     0.028 C 
HETATM    7 CL10 UNL     1     -31.328   9.181   3.549  1.00 20.00    -0.088 Cl
ENDROOT
BRANCH   6   8
HETATM    8  C8  UNL     1     -31.772   7.745   1.257  1.00 20.00     0.121 C 
BRANCH   8   9
HETATM    9  C6  UNL     1     -31.772   8.985   0.390  1.00 20.00     0.236 C 
HETATM   10  O9  UNL     1     -32.562   9.919   0.488  1.00 20.00    -0.307 OA
ENDBRANCH   8   9
ENDBRANCH   6   8
TORSDOF 2
ENDMDL
MODEL 8
REMARK VINA RESULT:      -0.2      2.803      4.482
REMARK  2 active torsions:
REMARK  status: ('A' for Active; 'I' for Inactive)
REMARK    1  A    between atoms: C6_6  and  C8_8 
REMARK    2  A    between atoms: C7_7  and  C8_8 
ROOT
HETATM    1  C1  UNL     1     -32.751  10.856   0.358  1.00 20.00     0.001 A 
HETATM    2  C2  UNL     1     -32.029  10.063  -0.619  1.00 20.00     0.001 A 
HETATM    3  C3  UNL     1     -32.986  10.112   1.452  1.00 20.00     0.013 A 
HETATM    4  C4  UNL     1     -31.819   8.831  -0.130  1.00 20.00     0.013 A 
HETATM    5  C5  UNL     1     -32.411   8.807   1.193  1.00 20.00    -0.018 A 
HETATM    6  C7  UNL     1     -32.424   7.765   2.027  1.00 20.00     0.028 C 
HETATM    7 CL10 UNL     1     -33.223   7.891   3.561  1.00 20.00    -0.088 Cl
ENDROOT
BRANCH   6   8
HETATM    8  C8  UNL     1     -31.816   6.431   1.717  1.00 20.00     0.121 C 
BRANCH   8   9
HETATM    9  C6  UNL     1     -32.864   5.368   1.470  1.00 20.00     0.236 C 
HETATM   10  O9  UNL     1     -33.277   5.023   0.368  1.00 20.00    -0.307 OA
ENDBRANCH   8   9
ENDBRANCH   6   8
TORSDOF 2
ENDMDL
MODEL 9
REMARK VINA RESULT:      -0.0      2.332      3.733
REMARK  2 active torsions:
REMARK  status: ('A' for Active; 'I' for Inactive)
REMARK    1  A    between atoms: C6_6  and  C8_8 
REMARK    2  A    between atoms: C7_7  and  C8_8 
ROOT
HETATM    1  C1  UNL     1     -31.599   5.708   0.895  1.00 20.00     0.001 A 
HETATM    2  C2  UNL     1     -31.900   7.127   0.954  1.00 20.00     0.001 A 
HETATM    3  C3  UNL     1     -32.346   5.054   1.799  1.00 20.00     0.013 A 
HETATM    4  C4  UNL     1     -32.831   7.348   1.894  1.00 20.00     0.013 A 
HETATM    5  C5  UNL     1     -33.154   6.056   2.467  1.00 20.00    -0.018 A 
HETATM    6  C7  UNL     1     -34.040   5.827   3.440  1.00 20.00     0.028 C 
HETATM    7 CL10 UNL     1     -34.269   4.219   4.045  1.00 20.00    -0.088 Cl
ENDROOT
BRANCH   6   8
HETATM    8  C8  UNL     1     -34.854   6.896   4.102  1.00 20.00     0.121 C 
BRANCH   8   9
HETATM    9  C6  UNL     1     -34.010   8.082   4.519  1.00 20.00     0.236 C 
HETATM   10  O9  UNL     1     -33.071   8.040   5.307  1.00 20.00    -0.307 OA
ENDBRANCH   8   9
ENDBRANCH   6   8
TORSDOF 2
ENDMDL
