MODEL 1
REMARK VINA RESULT:       0.0      0.000      0.000
REMARK  1 active torsions:
REMARK  status: ('A' for Active; 'I' for Inactive)
REMARK    1  A    between atoms: C5_5  and  C8_8 
ROOT
HETATM    1  C1  UNL     1     -33.662   6.398   2.420  1.00 20.00     0.052 C 
HETATM    2  C2  UNL     1     -33.436   7.418   3.261  1.00 20.00    -0.080 C 
HETATM    3  C3  UNL     1     -32.688   6.073   1.349  1.00 20.00     0.150 C 
HETATM    4  C6  UNL     1     -32.235   8.327   3.148  1.00 20.00     0.043 C 
HETATM    5  C7  UNL     1     -31.395   6.857   1.284  1.00 20.00     0.092 C 
HETATM    6  C8  UNL     1     -31.574   8.299   1.761  1.00 20.00     0.024 C 
HETATM    7  C9  UNL     1     -34.379   7.720   4.391  1.00 20.00     0.043 C 
HETATM    8  O11 UNL     1     -32.916   5.141   0.580  1.00 20.00    -0.293 OA
ENDROOT
BRANCH   6   9
HETATM    9  C5  UNL     1     -32.345   9.118   0.762  1.00 20.00    -0.088 C 
HETATM   10  C4  UNL     1     -32.511   8.715  -0.506  1.00 20.00     0.014 C 
HETATM   11  C10 UNL     1     -32.915  10.410   1.265  1.00 20.00     0.043 C 
ENDBRANCH   6   9
TORSDOF 1
ENDMDL
MODEL 2
REMARK VINA RESULT:       0.9      2.293      3.784
REMARK  1 active torsions:
REMARK  status: ('A' for Active; 'I' for Inactive)
REMARK    1  A    between atoms: C5_5  and  C8_8 
ROOT
HETATM    1  C1  UNL     1     -33.298   4.731   2.915  1.00 20.00     0.052 C 
HETATM    2  C2  UNL     1     -32.930   5.576   1.941  1.00 20.00    -0.080 C 
HETATM    3  C3  UNL     1     -34.376   5.099   3.866  1.00 20.00     0.150 C 
HETATM    4  C6  UNL     1     -33.527   6.953   1.778  1.00 20.00     0.043 C 
HETATM    5  C7  UNL     1     -35.112   6.405   3.656  1.00 20.00     0.092 C 
HETATM    6  C8  UNL     1     -34.210   7.481   3.049  1.00 20.00     0.024 C 
HETATM    7  C9  UNL     1     -31.886   5.193   0.931  1.00 20.00     0.043 C 
HETATM    8  O11 UNL     1     -34.693   4.317   4.760  1.00 20.00    -0.293 OA
ENDROOT
BRANCH   6   9
HETATM    9  C5  UNL     1     -33.206   7.985   4.049  1.00 20.00    -0.088 C 
HETATM   10  C4  UNL     1     -33.475   8.030   5.363  1.00 20.00     0.014 C 
HETATM   11  C10 UNL     1     -31.888   8.435   3.495  1.00 20.00     0.043 C 
ENDBRANCH   6   9
TORSDOF 1
ENDMDL
MODEL 3
REMARK VINA RESULT:       1.2      2.304      3.706
REMARK  1 active torsions:
REMARK  status: ('A' for Active; 'I' for Inactive)
REMARK    1  A    between atoms: C5_5  and  C8_8 
ROOT
HETATM    1  C1  UNL     1     -33.252   4.713   2.889  1.00 20.00     0.052 C 
HETATM    2  C2  UNL     1     -32.890   5.540   1.897  1.00 20.00    -0.080 C 
HETATM    3  C3  UNL     1     -34.328   5.097   3.836  1.00 20.00     0.150 C 
HETATM    4  C6  UNL     1     -33.492   6.912   1.709  1.00 20.00     0.043 C 
HETATM    5  C7  UNL     1     -35.069   6.396   3.603  1.00 20.00     0.092 C 
HETATM    6  C8  UNL     1     -34.172   7.462   2.972  1.00 20.00     0.024 C 
HETATM    7  C9  UNL     1     -31.848   5.140   0.891  1.00 20.00     0.043 C 
HETATM    8  O11 UNL     1     -34.640   4.331   4.747  1.00 20.00    -0.293 OA
ENDROOT
BRANCH   6   9
HETATM    9  C5  UNL     1     -33.165   7.989   3.959  1.00 20.00    -0.088 C 
HETATM   10  C4  UNL     1     -31.941   8.385   3.579  1.00 20.00     0.014 C 
HETATM   11  C10 UNL     1     -33.609   8.048   5.389  1.00 20.00     0.043 C 
ENDBRANCH   6   9
TORSDOF 1
ENDMDL
MODEL 4
REMARK VINA RESULT:       1.9      1.849      3.716
REMARK  1 active torsions:
REMARK  status: ('A' for Active; 'I' for Inactive)
REMARK    1  A    between atoms: C5_5  and  C8_8 
ROOT
HETATM    1  C1  UNL     1     -32.518   8.055   3.334  1.00 20.00     0.052 C 
HETATM    2  C2  UNL     1     -33.577   7.737   4.093  1.00 20.00    -0.080 C 
HETATM    3  C3  UNL     1     -32.351   7.464   1.984  1.00 20.00     0.150 C 
HETATM    4  C6  UNL     1     -34.622   6.734   3.666  1.00 20.00     0.043 C 
HETATM    5  C7  UNL     1     -33.447   6.568   1.445  1.00 20.00     0.092 C 
HETATM    6  C8  UNL     1     -34.144   5.783   2.558  1.00 20.00     0.024 C 
HETATM    7  C9  UNL     1     -33.795   8.376   5.435  1.00 20.00     0.043 C 
HETATM    8  O11 UNL     1     -31.368   7.759   1.306  1.00 20.00    -0.293 OA
ENDROOT
BRANCH   6   9
HETATM    9  C5  UNL     1     -33.258   4.696   3.103  1.00 20.00    -0.088 C 
HETATM   10  C4  UNL     1     -32.057   4.426   2.570  1.00 20.00     0.014 C 
HETATM   11  C10 UNL     1     -33.793   3.932   4.276  1.00 20.00     0.043 C 
ENDBRANCH   6   9
TORSDOF 1
ENDMDL
MODEL 5
REMARK VINA RESULT:       1.9      1.777      3.680
REMARK  1 active torsions:
REMARK  status: ('A' for Active; 'I' for Inactive)
REMARK    1  A    between atoms: C5_5  and  C8_8 
ROOT
HETATM    1  C1  UNL     1     -32.681   7.048   0.680  1.00 20.00     0.052 C 
HETATM    2  C2  UNL     1     -32.828   5.845   1.255  1.00 20.00    -0.080 C 
HETATM    3  C3  UNL     1     -32.330   8.237   1.494  1.00 20.00     0.150 C 
HETATM    4  C6  UNL     1     -32.709   5.626   2.744  1.00 20.00     0.043 C 
HETATM    5  C7  UNL     1     -32.051   8.046   2.970  1.00 20.00     0.092 C 
HETATM    6  C8  UNL     1     -32.882   6.911   3.569  1.00 20.00     0.024 C 
HETATM    7  C9  UNL     1     -33.119   4.620   0.436  1.00 20.00     0.043 C 
HETATM    8  O11 UNL     1     -32.211   9.334   0.952  1.00 20.00    -0.293 OA
ENDROOT
BRANCH   6   9
HETATM    9  C5  UNL     1     -34.331   7.297   3.696  1.00 20.00    -0.088 C 
HETATM   10  C4  UNL     1     -34.732   8.575   3.631  1.00 20.00     0.014 C 
HETATM   11  C10 UNL     1     -35.300   6.172   3.901  1.00 20.00     0.043 C 
ENDBRANCH   6   9
TORSDOF 1
ENDMDL
MODEL 6
REMARK VINA RESULT:       2.6      2.317      3.591
REMARK  1 active torsions:
REMARK  status: ('A' for Active; 'I' for Inactive)
REMARK    1  A    between atoms: C5_5  and  C8_8 
ROOT
HETATM    1  C1  UNL     1     -33.905   5.621   4.499  1.00 20.00     0.052 C 
HETATM    2  C2  UNL     1     -33.759   4.525   3.739  1.00 20.00    -0.080 C 
HETATM    3  C3  UNL     1     -34.205   6.935   3.879  1.00 20.00     0.150 C 
HETATM    4  C6  UNL     1     -33.828   4.555   2.231  1.00 20.00     0.043 C 
HETATM    5  C7  UNL     1     -34.433   6.994   2.383  1.00 20.00     0.092 C 
HETATM    6  C8  UNL     1     -33.600   5.952   1.634  1.00 20.00     0.024 C 
HETATM    7  C9  UNL     1     -33.520   3.176   4.356  1.00 20.00     0.043 C 
HETATM    8  O11 UNL     1     -34.324   7.931   4.589  1.00 20.00    -0.293 OA
ENDROOT
BRANCH   6   9
HETATM    9  C5  UNL     1     -32.141   6.319   1.620  1.00 20.00    -0.088 C 
HETATM   10  C4  UNL     1     -31.179   5.394   1.490  1.00 20.00     0.014 C 
HETATM   11  C10 UNL     1     -31.824   7.777   1.761  1.00 20.00     0.043 C 
ENDBRANCH   6   9
TORSDOF 1
ENDMDL
MODEL 7
REMARK VINA RESULT:       3.0      2.009      3.429
REMARK  1 active torsions:
REMARK  status: ('A' for Active; 'I' for Inactive)
REMARK    1  A    between atoms: C5_5  and  C8_8 
ROOT
HETATM    1  C1  UNL     1     -33.323   7.579   3.912  1.00 20.00     0.052 C 
HETATM    2  C2  UNL     1     -34.346   6.830   3.476  1.00 20.00    -0.080 C 
HETATM    3  C3  UNL     1     -32.263   8.029   2.976  1.00 20.00     0.150 C 
HETATM    4  C6  UNL     1     -34.464   6.350   2.049  1.00 20.00     0.043 C 
HETATM    5  C7  UNL     1     -32.411   7.703   1.505  1.00 20.00     0.092 C 
HETATM    6  C8  UNL     1     -33.133   6.372   1.282  1.00 20.00     0.024 C 
HETATM    7  C9  UNL     1     -35.460   6.421   4.397  1.00 20.00     0.043 C 
HETATM    8  O11 UNL     1     -31.326   8.706   3.395  1.00 20.00    -0.293 OA
ENDROOT
BRANCH   6   9
HETATM    9  C5  UNL     1     -32.260   5.204   1.651  1.00 20.00    -0.088 C 
HETATM   10  C4  UNL     1     -31.133   4.922   0.981  1.00 20.00     0.014 C 
HETATM   11  C10 UNL     1     -32.721   4.373   2.810  1.00 20.00     0.043 C 
ENDBRANCH   6   9
TORSDOF 1
ENDMDL
