MODEL 1
REMARK VINA RESULT:       1.5      0.000      0.000
REMARK  0 active torsions:
REMARK  status: ('A' for Active; 'I' for Inactive)
ROOT
HETATM    1  C1  UNL     1     -33.866   5.402   2.881  1.00 20.00     0.047 A 
HETATM    2  C2  UNL     1     -33.034   6.444   2.435  1.00 20.00     0.026 A 
HETATM    3  C3  UNL     1     -33.169   7.584   3.174  1.00 20.00    -0.001 A 
HETATM    4  C4  UNL     1     -34.618   5.819   3.969  1.00 20.00     0.075 A 
HETATM    5  C5  UNL     1     -32.059   6.665   1.397  1.00 20.00     0.175 A 
HETATM    6  C6  UNL     1     -32.298   8.713   2.756  1.00 20.00     0.071 A 
HETATM    7  C7  UNL     1     -31.580   8.120   1.506  1.00 20.00     0.137 A 
HETATM    8  O8  UNL     1     -31.702   5.840   0.572  1.00 20.00    -0.291 OA
HETATM    9  S9  UNL     1     -34.287   7.458   4.416  1.00 20.00    -0.082 SA
HETATM   10 CL10 UNL     1     -35.771   4.912   4.857  1.00 20.00    -0.076 Cl
HETATM   11 BR11 UNL     1     -32.162   9.007  -0.118  1.00 20.00    -0.082 Br
ENDROOT
TORSDOF 0
ENDMDL
MODEL 2
REMARK VINA RESULT:       3.3      1.227      1.383
REMARK  0 active torsions:
REMARK  status: ('A' for Active; 'I' for Inactive)
ROOT
HETATM    1  C1  UNL     1     -32.624   5.698   2.280  1.00 20.00     0.047 A 
HETATM    2  C2  UNL     1     -32.523   7.076   2.016  1.00 20.00     0.026 A 
HETATM    3  C3  UNL     1     -33.403   7.821   2.747  1.00 20.00    -0.001 A 
HETATM    4  C4  UNL     1     -33.609   5.460   3.225  1.00 20.00     0.075 A 
HETATM    5  C5  UNL     1     -31.746   7.950   1.175  1.00 20.00     0.175 A 
HETATM    6  C6  UNL     1     -33.326   9.288   2.520  1.00 20.00     0.071 A 
HETATM    7  C7  UNL     1     -32.242   9.386   1.404  1.00 20.00     0.137 A 
HETATM    8  O8  UNL     1     -30.865   7.598   0.407  1.00 20.00    -0.291 OA
HETATM    9  S9  UNL     1     -34.377   6.915   3.765  1.00 20.00    -0.082 SA
HETATM   10 CL10 UNL     1     -34.102   3.949   3.870  1.00 20.00    -0.076 Cl
HETATM   11 BR11 UNL     1     -33.021   9.966  -0.275  1.00 20.00    -0.082 Br
ENDROOT
TORSDOF 0
ENDMDL
MODEL 3
REMARK VINA RESULT:       3.5      3.917      4.701
REMARK  0 active torsions:
REMARK  status: ('A' for Active; 'I' for Inactive)
ROOT
HETATM    1  C1  UNL     1     -32.641   9.370   2.097  1.00 20.00     0.047 A 
HETATM    2  C2  UNL     1     -32.939   8.102   2.627  1.00 20.00     0.026 A 
HETATM    3  C3  UNL     1     -32.858   7.106   1.696  1.00 20.00    -0.001 A 
HETATM    4  C4  UNL     1     -32.342   9.270   0.747  1.00 20.00     0.075 A 
HETATM    5  C5  UNL     1     -33.319   7.535   3.895  1.00 20.00     0.175 A 
HETATM    6  C6  UNL     1     -33.146   5.741   2.208  1.00 20.00     0.071 A 
HETATM    7  C7  UNL     1     -33.524   6.026   3.693  1.00 20.00     0.137 A 
HETATM    8  O8  UNL     1     -33.469   8.157   4.935  1.00 20.00    -0.291 OA
HETATM    9  S9  UNL     1     -32.429   7.640   0.168  1.00 20.00    -0.082 SA
HETATM   10 CL10 UNL     1     -31.918  10.534  -0.330  1.00 20.00    -0.076 Cl
HETATM   11 BR11 UNL     1     -35.406   5.684   4.012  1.00 20.00    -0.082 Br
ENDROOT
TORSDOF 0
ENDMDL
MODEL 4
REMARK VINA RESULT:       3.5      3.471      3.879
REMARK  0 active torsions:
REMARK  status: ('A' for Active; 'I' for Inactive)
ROOT
HETATM    1  C1  UNL     1     -33.150   5.030   1.930  1.00 20.00     0.047 A 
HETATM    2  C2  UNL     1     -33.445   6.224   2.611  1.00 20.00     0.026 A 
HETATM    3  C3  UNL     1     -32.650   7.266   2.225  1.00 20.00    -0.001 A 
HETATM    4  C4  UNL     1     -32.111   5.231   1.035  1.00 20.00     0.075 A 
HETATM    5  C5  UNL     1     -34.360   6.679   3.627  1.00 20.00     0.175 A 
HETATM    6  C6  UNL     1     -32.932   8.558   2.902  1.00 20.00     0.071 A 
HETATM    7  C7  UNL     1     -34.055   8.158   3.906  1.00 20.00     0.137 A 
HETATM    8  O8  UNL     1     -35.209   5.994   4.174  1.00 20.00    -0.291 OA
HETATM    9  S9  UNL     1     -31.530   6.862   1.047  1.00 20.00    -0.082 SA
HETATM   10 CL10 UNL     1     -31.398   4.083  -0.020  1.00 20.00    -0.076 Cl
HETATM   11 BR11 UNL     1     -33.417   8.246   5.736  1.00 20.00    -0.082 Br
ENDROOT
TORSDOF 0
ENDMDL
MODEL 5
REMARK VINA RESULT:       4.2      3.302      4.087
REMARK  0 active torsions:
REMARK  status: ('A' for Active; 'I' for Inactive)
ROOT
HETATM    1  C1  UNL     1     -32.420   7.151   1.535  1.00 20.00     0.047 A 
HETATM    2  C2  UNL     1     -33.109   6.207   2.317  1.00 20.00     0.026 A 
HETATM    3  C3  UNL     1     -33.834   6.780   3.324  1.00 20.00    -0.001 A 
HETATM    4  C4  UNL     1     -32.661   8.433   2.003  1.00 20.00     0.075 A 
HETATM    5  C5  UNL     1     -33.274   4.777   2.371  1.00 20.00     0.175 A 
HETATM    6  C6  UNL     1     -34.597   5.828   4.172  1.00 20.00     0.071 A 
HETATM    7  C7  UNL     1     -34.175   4.452   3.572  1.00 20.00     0.137 A 
HETATM    8  O8  UNL     1     -32.765   3.975   1.604  1.00 20.00    -0.291 OA
HETATM    9  S9  UNL     1     -33.718   8.450   3.374  1.00 20.00    -0.082 SA
HETATM   10 CL10 UNL     1     -32.048   9.909   1.383  1.00 20.00    -0.076 Cl
HETATM   11 BR11 UNL     1     -33.077   3.455   4.822  1.00 20.00    -0.082 Br
ENDROOT
TORSDOF 0
ENDMDL
