MODEL 1
REMARK VINA RESULT:      -1.3      0.000      0.000
REMARK  4 active torsions:
REMARK  status: ('A' for Active; 'I' for Inactive)
REMARK    1  A    between atoms: C1_1  and  C7_7 
REMARK    2  A    between atoms: C1_1  and  O11_11 
REMARK    3  A    between atoms: C7_7  and  C8_8 
REMARK    4  A    between atoms: C8_8  and  C9_9 
ROOT
HETATM    1  C2  UNL     1     -32.743   5.592   1.608  1.00 20.00     0.011 C 
HETATM    2  C8  UNL     1     -33.397   6.851   2.209  1.00 20.00    -0.002 C 
ENDROOT
BRANCH   2   3
HETATM    3  C7  UNL     1     -32.307   7.928   2.423  1.00 20.00     0.116 C 
BRANCH   3   4
HETATM    4  C1  UNL     1     -31.921   8.646   1.144  1.00 20.00     0.258 C 
HETATM    5  O10 UNL     1     -31.057   8.274   0.362  1.00 20.00    -0.265 OA
BRANCH   4   6
HETATM    6  O11 UNL     1     -32.717   9.746   0.993  1.00 20.00    -0.326 OA
HETATM    7  C6  UNL     1     -32.746  10.309  -0.323  1.00 20.00     0.213 C 
ENDBRANCH   4   6
ENDBRANCH   3   4
ENDBRANCH   2   3
BRANCH   2   8
HETATM    8  C9  UNL     1     -34.241   6.553   3.505  1.00 20.00    -0.048 C 
HETATM    9  C3  UNL     1     -34.036   5.115   4.020  1.00 20.00     0.015 C 
HETATM   10  C4  UNL     1     -35.748   6.759   3.235  1.00 20.00     0.015 C 
HETATM   11  C5  UNL     1     -33.847   7.532   4.635  1.00 20.00     0.015 C 
ENDBRANCH   2   8
TORSDOF 4
ENDMDL
MODEL 2
REMARK VINA RESULT:      -1.0      2.774      4.873
REMARK  4 active torsions:
REMARK  status: ('A' for Active; 'I' for Inactive)
REMARK    1  A    between atoms: C1_1  and  C7_7 
REMARK    2  A    between atoms: C1_1  and  O11_11 
REMARK    3  A    between atoms: C7_7  and  C8_8 
REMARK    4  A    between atoms: C8_8  and  C9_9 
ROOT
HETATM    1  C2  UNL     1     -33.193   8.163   4.487  1.00 20.00     0.011 C 
HETATM    2  C8  UNL     1     -33.432   7.573   3.083  1.00 20.00    -0.002 C 
ENDROOT
BRANCH   2   3
HETATM    3  C7  UNL     1     -33.725   6.060   3.220  1.00 20.00     0.116 C 
BRANCH   3   4
HETATM    4  C1  UNL     1     -35.072   5.769   3.854  1.00 20.00     0.258 C 
HETATM    5  O10 UNL     1     -36.069   6.469   3.740  1.00 20.00    -0.265 OA
BRANCH   4   6
HETATM    6  O11 UNL     1     -34.998   4.588   4.535  1.00 20.00    -0.326 OA
HETATM    7  C6  UNL     1     -33.835   3.795   4.270  1.00 20.00     0.213 C 
ENDBRANCH   4   6
ENDBRANCH   3   4
ENDBRANCH   2   3
BRANCH   2   8
HETATM    8  C9  UNL     1     -32.271   7.894   2.069  1.00 20.00    -0.048 C 
HETATM    9  C3  UNL     1     -32.679   8.950   1.024  1.00 20.00     0.015 C 
HETATM   10  C4  UNL     1     -31.832   6.616   1.320  1.00 20.00     0.015 C 
HETATM   11  C5  UNL     1     -31.030   8.418   2.828  1.00 20.00     0.015 C 
ENDBRANCH   2   8
TORSDOF 4
ENDMDL
MODEL 3
REMARK VINA RESULT:      -1.0      2.779      4.874
REMARK  4 active torsions:
REMARK  status: ('A' for Active; 'I' for Inactive)
REMARK    1  A    between atoms: C1_1  and  C7_7 
REMARK    2  A    between atoms: C1_1  and  O11_11 
REMARK    3  A    between atoms: C7_7  and  C8_8 
REMARK    4  A    between atoms: C8_8  and  C9_9 
ROOT
HETATM    1  C2  UNL     1     -33.252   8.190   4.459  1.00 20.00     0.011 C 
HETATM    2  C8  UNL     1     -33.448   7.559   3.066  1.00 20.00    -0.002 C 
ENDROOT
BRANCH   2   3
HETATM    3  C7  UNL     1     -33.731   6.047   3.237  1.00 20.00     0.116 C 
BRANCH   3   4
HETATM    4  C1  UNL     1     -35.082   5.761   3.863  1.00 20.00     0.258 C 
HETATM    5  O10 UNL     1     -36.072   6.472   3.755  1.00 20.00    -0.265 OA
BRANCH   4   6
HETATM    6  O11 UNL     1     -35.022   4.570   4.528  1.00 20.00    -0.326 OA
HETATM    7  C6  UNL     1     -33.837   3.797   4.304  1.00 20.00     0.213 C 
ENDBRANCH   4   6
ENDBRANCH   3   4
ENDBRANCH   2   3
BRANCH   2   8
HETATM    8  C9  UNL     1     -32.262   7.863   2.076  1.00 20.00    -0.048 C 
HETATM    9  C3  UNL     1     -31.811   6.611   1.299  1.00 20.00     0.015 C 
HETATM   10  C4  UNL     1     -31.042   8.423   2.840  1.00 20.00     0.015 C 
HETATM   11  C5  UNL     1     -32.686   8.942   1.052  1.00 20.00     0.015 C 
ENDBRANCH   2   8
TORSDOF 4
ENDMDL
MODEL 4
REMARK VINA RESULT:      -0.5      3.237      5.259
REMARK  4 active torsions:
REMARK  status: ('A' for Active; 'I' for Inactive)
REMARK    1  A    between atoms: C1_1  and  C7_7 
REMARK    2  A    between atoms: C1_1  and  O11_11 
REMARK    3  A    between atoms: C7_7  and  C8_8 
REMARK    4  A    between atoms: C8_8  and  C9_9 
ROOT
HETATM    1  C2  UNL     1     -33.885   7.603   3.757  1.00 20.00     0.011 C 
HETATM    2  C8  UNL     1     -33.729   6.345   2.881  1.00 20.00    -0.002 C 
ENDROOT
BRANCH   2   3
HETATM    3  C7  UNL     1     -33.259   5.170   3.770  1.00 20.00     0.116 C 
BRANCH   3   4
HETATM    4  C1  UNL     1     -34.406   4.347   4.323  1.00 20.00     0.258 C 
HETATM    5  O10 UNL     1     -35.515   4.782   4.600  1.00 20.00    -0.265 OA
BRANCH   4   6
HETATM    6  O11 UNL     1     -34.011   3.043   4.424  1.00 20.00    -0.326 OA
HETATM    7  C6  UNL     1     -32.785   2.823   5.130  1.00 20.00     0.213 C 
ENDBRANCH   4   6
ENDBRANCH   3   4
ENDBRANCH   2   3
BRANCH   2   8
HETATM    8  C9  UNL     1     -32.814   6.577   1.620  1.00 20.00    -0.048 C 
HETATM    9  C3  UNL     1     -32.077   7.930   1.672  1.00 20.00     0.015 C 
HETATM   10  C4  UNL     1     -33.650   6.532   0.322  1.00 20.00     0.015 C 
HETATM   11  C5  UNL     1     -31.757   5.454   1.514  1.00 20.00     0.015 C 
ENDBRANCH   2   8
TORSDOF 4
ENDMDL
MODEL 5
REMARK VINA RESULT:       0.3      2.850      4.858
REMARK  4 active torsions:
REMARK  status: ('A' for Active; 'I' for Inactive)
REMARK    1  A    between atoms: C1_1  and  C7_7 
REMARK    2  A    between atoms: C1_1  and  O11_11 
REMARK    3  A    between atoms: C7_7  and  C8_8 
REMARK    4  A    between atoms: C8_8  and  C9_9 
ROOT
HETATM    1  C2  UNL     1     -33.300   5.732   1.042  1.00 20.00     0.011 C 
HETATM    2  C8  UNL     1     -32.966   6.408   2.387  1.00 20.00    -0.002 C 
ENDROOT
BRANCH   2   3
HETATM    3  C7  UNL     1     -34.245   6.453   3.256  1.00 20.00     0.116 C 
BRANCH   3   4
HETATM    4  C1  UNL     1     -34.515   5.151   3.985  1.00 20.00     0.258 C 
HETATM    5  O10 UNL     1     -35.533   4.897   4.616  1.00 20.00    -0.265 OA
BRANCH   4   6
HETATM    6  O11 UNL     1     -33.462   4.305   3.792  1.00 20.00    -0.326 OA
HETATM    7  C6  UNL     1     -33.426   3.159   4.649  1.00 20.00     0.213 C 
ENDBRANCH   4   6
ENDBRANCH   3   4
ENDBRANCH   2   3
BRANCH   2   8
HETATM    8  C9  UNL     1     -32.277   7.814   2.220  1.00 20.00    -0.048 C 
HETATM    9  C3  UNL     1     -33.062   8.744   1.275  1.00 20.00     0.015 C 
HETATM   10  C4  UNL     1     -30.844   7.657   1.662  1.00 20.00     0.015 C 
HETATM   11  C5  UNL     1     -32.151   8.513   3.593  1.00 20.00     0.015 C 
ENDBRANCH   2   8
TORSDOF 4
ENDMDL
MODEL 6
REMARK VINA RESULT:       0.4      0.964      1.870
REMARK  4 active torsions:
REMARK  status: ('A' for Active; 'I' for Inactive)
REMARK    1  A    between atoms: C1_1  and  C7_7 
REMARK    2  A    between atoms: C1_1  and  O11_11 
REMARK    3  A    between atoms: C7_7  and  C8_8 
REMARK    4  A    between atoms: C8_8  and  C9_9 
ROOT
HETATM    1  C2  UNL     1     -33.590   7.974   4.977  1.00 20.00     0.011 C 
HETATM    2  C8  UNL     1     -33.191   7.300   3.649  1.00 20.00    -0.002 C 
ENDROOT
BRANCH   2   3
HETATM    3  C7  UNL     1     -33.200   8.364   2.526  1.00 20.00     0.116 C 
BRANCH   3   4
HETATM    4  C1  UNL     1     -32.022   8.241   1.580  1.00 20.00     0.258 C 
HETATM    5  O10 UNL     1     -30.987   7.634   1.820  1.00 20.00    -0.265 OA
BRANCH   4   6
HETATM    6  O11 UNL     1     -32.320   8.881   0.411  1.00 20.00    -0.326 OA
HETATM    7  C6  UNL     1     -32.521  10.294   0.515  1.00 20.00     0.213 C 
ENDBRANCH   4   6
ENDBRANCH   3   4
ENDBRANCH   2   3
BRANCH   2   8
HETATM    8  C9  UNL     1     -34.059   6.031   3.312  1.00 20.00    -0.048 C 
HETATM    9  C3  UNL     1     -33.636   4.796   4.131  1.00 20.00     0.015 C 
HETATM   10  C4  UNL     1     -33.949   5.677   1.812  1.00 20.00     0.015 C 
HETATM   11  C5  UNL     1     -35.552   6.314   3.599  1.00 20.00     0.015 C 
ENDBRANCH   2   8
TORSDOF 4
ENDMDL
MODEL 7
REMARK VINA RESULT:       0.5      2.344      4.454
REMARK  4 active torsions:
REMARK  status: ('A' for Active; 'I' for Inactive)
REMARK    1  A    between atoms: C1_1  and  C7_7 
REMARK    2  A    between atoms: C1_1  and  O11_11 
REMARK    3  A    between atoms: C7_7  and  C8_8 
REMARK    4  A    between atoms: C8_8  and  C9_9 
ROOT
HETATM    1  C2  UNL     1     -32.237   5.578   1.079  1.00 20.00     0.011 C 
HETATM    2  C8  UNL     1     -32.558   6.678   2.110  1.00 20.00    -0.002 C 
ENDROOT
BRANCH   2   3
HETATM    3  C7  UNL     1     -34.081   6.681   2.380  1.00 20.00     0.116 C 
BRANCH   3   4
HETATM    4  C1  UNL     1     -34.424   6.791   3.853  1.00 20.00     0.258 C 
HETATM    5  O10 UNL     1     -34.119   7.729   4.578  1.00 20.00    -0.265 OA
BRANCH   4   6
HETATM    6  O11 UNL     1     -35.157   5.700   4.223  1.00 20.00    -0.326 OA
HETATM    7  C6  UNL     1     -34.443   4.459   4.250  1.00 20.00     0.213 C 
ENDBRANCH   4   6
ENDBRANCH   3   4
ENDBRANCH   2   3
BRANCH   2   8
HETATM    8  C9  UNL     1     -31.994   8.091   1.704  1.00 20.00    -0.048 C 
HETATM    9  C3  UNL     1     -33.113   9.128   1.483  1.00 20.00     0.015 C 
HETATM   10  C4  UNL     1     -31.162   7.995   0.405  1.00 20.00     0.015 C 
HETATM   11  C5  UNL     1     -31.049   8.625   2.805  1.00 20.00     0.015 C 
ENDBRANCH   2   8
TORSDOF 4
ENDMDL
MODEL 8
REMARK VINA RESULT:       1.3      1.091      2.257
REMARK  4 active torsions:
REMARK  status: ('A' for Active; 'I' for Inactive)
REMARK    1  A    between atoms: C1_1  and  C7_7 
REMARK    2  A    between atoms: C1_1  and  O11_11 
REMARK    3  A    between atoms: C7_7  and  C8_8 
REMARK    4  A    between atoms: C8_8  and  C9_9 
ROOT
HETATM    1  C2  UNL     1     -34.441   6.940   3.750  1.00 20.00     0.011 C 
HETATM    2  C8  UNL     1     -33.209   6.850   2.830  1.00 20.00    -0.002 C 
ENDROOT
BRANCH   2   3
HETATM    3  C7  UNL     1     -33.230   8.045   1.847  1.00 20.00     0.116 C 
BRANCH   3   4
HETATM    4  C1  UNL     1     -31.846   8.576   1.526  1.00 20.00     0.258 C 
HETATM    5  O10 UNL     1     -30.864   8.459   2.246  1.00 20.00    -0.265 OA
BRANCH   4   6
HETATM    6  O11 UNL     1     -31.870   9.167   0.295  1.00 20.00    -0.326 OA
HETATM    7  C6  UNL     1     -32.647  10.366   0.201  1.00 20.00     0.213 C 
ENDBRANCH   4   6
ENDBRANCH   3   4
ENDBRANCH   2   3
BRANCH   2   8
HETATM    8  C9  UNL     1     -33.072   5.455   2.111  1.00 20.00    -0.048 C 
HETATM    9  C3  UNL     1     -31.609   5.112   1.771  1.00 20.00     0.015 C 
HETATM   10  C4  UNL     1     -33.891   5.433   0.801  1.00 20.00     0.015 C 
HETATM   11  C5  UNL     1     -33.635   4.333   3.014  1.00 20.00     0.015 C 
ENDBRANCH   2   8
TORSDOF 4
ENDMDL
MODEL 9
REMARK VINA RESULT:       1.3      2.724      4.524
REMARK  4 active torsions:
REMARK  status: ('A' for Active; 'I' for Inactive)
REMARK    1  A    between atoms: C1_1  and  C7_7 
REMARK    2  A    between atoms: C1_1  and  O11_11 
REMARK    3  A    between atoms: C7_7  and  C8_8 
REMARK    4  A    between atoms: C8_8  and  C9_9 
ROOT
HETATM    1  C2  UNL     1     -33.184   8.056   4.430  1.00 20.00     0.011 C 
HETATM    2  C8  UNL     1     -33.395   7.510   3.004  1.00 20.00    -0.002 C 
ENDROOT
BRANCH   2   3
HETATM    3  C7  UNL     1     -33.622   5.982   3.082  1.00 20.00     0.116 C 
BRANCH   3   4
HETATM    4  C1  UNL     1     -34.823   5.600   3.925  1.00 20.00     0.258 C 
HETATM    5  O10 UNL     1     -34.971   4.526   4.492  1.00 20.00    -0.265 OA
BRANCH   4   6
HETATM    6  O11 UNL     1     -35.684   6.658   3.979  1.00 20.00    -0.326 OA
HETATM    7  C6  UNL     1     -36.637   6.732   2.913  1.00 20.00     0.213 C 
ENDBRANCH   4   6
ENDBRANCH   3   4
ENDBRANCH   2   3
BRANCH   2   8
HETATM    8  C9  UNL     1     -32.247   7.920   2.007  1.00 20.00    -0.048 C 
HETATM    9  C3  UNL     1     -32.700   8.997   1.002  1.00 20.00     0.015 C 
HETATM   10  C4  UNL     1     -31.752   6.693   1.210  1.00 20.00     0.015 C 
HETATM   11  C5  UNL     1     -31.031   8.468   2.790  1.00 20.00     0.015 C 
ENDBRANCH   2   8
TORSDOF 4
ENDMDL
