MODEL 1
REMARK VINA RESULT:       0.7      0.000      0.000
REMARK  2 active torsions:
REMARK  status: ('A' for Active; 'I' for Inactive)
REMARK    1  A    between atoms: C7_7  and  C8_8 
REMARK    2  A    between atoms: C8_8  and  O10_10 
ROOT
HETATM    1  C1  UNL     1     -33.455   5.033   3.859  1.00 20.00     0.071 C 
HETATM    2  C2  UNL     1     -32.064   7.834   1.902  1.00 20.00     0.000 C 
HETATM    3  C3  UNL     1     -32.131   7.804   3.424  1.00 20.00     0.002 C 
HETATM    4  C4  UNL     1     -32.608   6.548   1.289  1.00 20.00     0.002 C 
HETATM    5  C5  UNL     1     -33.547   7.508   3.922  1.00 20.00     0.027 C 
HETATM    6  C6  UNL     1     -34.027   6.247   1.777  1.00 20.00     0.027 C 
HETATM    7  C7  UNL     1     -34.150   6.223   3.315  1.00 20.00     0.070 C 
HETATM    8  N9  UNL     1     -32.911   4.101   4.285  1.00 20.00    -0.196 NA
ENDROOT
BRANCH   7   9
HETATM    9  C8  UNL     1     -35.635   6.124   3.705  1.00 20.00     0.188 C 
BRANCH   9  10
HETATM   10  O10 UNL     1     -35.778   5.058   4.619  1.00 20.00    -0.399 OA
HETATM   11  H23 UNL     1     -36.484   5.305   5.243  1.00 20.00     0.209 HD
ENDBRANCH   9  10
ENDBRANCH   7   9
TORSDOF 2
ENDMDL
MODEL 2
REMARK VINA RESULT:       1.0      1.663      2.488
REMARK  2 active torsions:
REMARK  status: ('A' for Active; 'I' for Inactive)
REMARK    1  A    between atoms: C7_7  and  C8_8 
REMARK    2  A    between atoms: C8_8  and  O10_10 
ROOT
HETATM    1  C1  UNL     1     -35.481   6.556   3.147  1.00 20.00     0.071 C 
HETATM    2  C2  UNL     1     -32.174   7.871   2.174  1.00 20.00     0.000 C 
HETATM    3  C3  UNL     1     -32.952   6.834   1.373  1.00 20.00     0.002 C 
HETATM    4  C4  UNL     1     -32.946   8.325   3.408  1.00 20.00     0.002 C 
HETATM    5  C5  UNL     1     -33.364   5.642   2.239  1.00 20.00     0.027 C 
HETATM    6  C6  UNL     1     -33.358   7.139   4.284  1.00 20.00     0.027 C 
HETATM    7  C7  UNL     1     -34.136   6.053   3.512  1.00 20.00     0.070 C 
HETATM    8  N9  UNL     1     -36.534   6.951   2.862  1.00 20.00    -0.196 NA
ENDROOT
BRANCH   7   9
HETATM    9  C8  UNL     1     -34.320   4.820   4.415  1.00 20.00     0.188 C 
BRANCH   9  10
HETATM   10  O10 UNL     1     -35.684   4.736   4.768  1.00 20.00    -0.399 OA
HETATM   11  H23 UNL     1     -36.202   4.870   3.955  1.00 20.00     0.209 HD
ENDBRANCH   9  10
ENDBRANCH   7   9
TORSDOF 2
ENDMDL
MODEL 3
REMARK VINA RESULT:       1.5      2.511      3.705
REMARK  2 active torsions:
REMARK  status: ('A' for Active; 'I' for Inactive)
REMARK    1  A    between atoms: C7_7  and  C8_8 
REMARK    2  A    between atoms: C8_8  and  O10_10 
ROOT
HETATM    1  C1  UNL     1     -33.695   6.041   1.139  1.00 20.00     0.071 C 
HETATM    2  C2  UNL     1     -34.965   5.135   4.481  1.00 20.00     0.000 C 
HETATM    3  C3  UNL     1     -35.380   6.388   3.719  1.00 20.00     0.002 C 
HETATM    4  C4  UNL     1     -33.988   4.284   3.677  1.00 20.00     0.002 C 
HETATM    5  C5  UNL     1     -34.167   7.207   3.273  1.00 20.00     0.027 C 
HETATM    6  C6  UNL     1     -32.768   5.093   3.231  1.00 20.00     0.027 C 
HETATM    7  C7  UNL     1     -33.138   6.382   2.468  1.00 20.00     0.070 C 
HETATM    8  N9  UNL     1     -34.130   5.774   0.097  1.00 20.00    -0.196 NA
ENDROOT
BRANCH   7   9
HETATM    9  C8  UNL     1     -31.870   7.226   2.249  1.00 20.00     0.188 C 
BRANCH   9  10
HETATM   10  O10 UNL     1     -32.174   8.240   1.315  1.00 20.00    -0.399 OA
HETATM   11  H23 UNL     1     -33.100   8.502   1.465  1.00 20.00     0.209 HD
ENDBRANCH   9  10
ENDBRANCH   7   9
TORSDOF 2
ENDMDL
MODEL 4
REMARK VINA RESULT:       1.8      2.705      3.601
REMARK  2 active torsions:
REMARK  status: ('A' for Active; 'I' for Inactive)
REMARK    1  A    between atoms: C7_7  and  C8_8 
REMARK    2  A    between atoms: C8_8  and  O10_10 
ROOT
HETATM    1  C1  UNL     1     -33.600   5.701   0.623  1.00 20.00     0.071 C 
HETATM    2  C2  UNL     1     -33.888   7.593   3.777  1.00 20.00     0.000 C 
HETATM    3  C3  UNL     1     -33.246   8.138   2.507  1.00 20.00     0.002 C 
HETATM    4  C4  UNL     1     -34.430   6.182   3.573  1.00 20.00     0.002 C 
HETATM    5  C5  UNL     1     -32.162   7.200   1.973  1.00 20.00     0.027 C 
HETATM    6  C6  UNL     1     -33.351   5.234   3.043  1.00 20.00     0.027 C 
HETATM    7  C7  UNL     1     -32.658   5.752   1.766  1.00 20.00     0.070 C 
HETATM    8  N9  UNL     1     -34.338   5.660  -0.271  1.00 20.00    -0.196 NA
ENDROOT
BRANCH   7   9
HETATM    9  C8  UNL     1     -31.459   4.847   1.433  1.00 20.00     0.188 C 
BRANCH   9  10
HETATM   10  O10 UNL     1     -31.646   4.333   0.132  1.00 20.00    -0.399 OA
HETATM   11  H23 UNL     1     -32.395   3.713   0.171  1.00 20.00     0.209 HD
ENDBRANCH   9  10
ENDBRANCH   7   9
TORSDOF 2
ENDMDL
MODEL 5
REMARK VINA RESULT:       1.8      3.018      4.040
REMARK  2 active torsions:
REMARK  status: ('A' for Active; 'I' for Inactive)
REMARK    1  A    between atoms: C7_7  and  C8_8 
REMARK    2  A    between atoms: C8_8  and  O10_10 
ROOT
HETATM    1  C1  UNL     1     -32.538   8.790   1.171  1.00 20.00     0.071 C 
HETATM    2  C2  UNL     1     -33.871   5.565   2.368  1.00 20.00     0.000 C 
HETATM    3  C3  UNL     1     -34.365   6.926   2.845  1.00 20.00     0.002 C 
HETATM    4  C4  UNL     1     -32.783   5.701   1.309  1.00 20.00     0.002 C 
HETATM    5  C5  UNL     1     -33.215   7.804   3.341  1.00 20.00     0.027 C 
HETATM    6  C6  UNL     1     -31.624   6.574   1.797  1.00 20.00     0.027 C 
HETATM    7  C7  UNL     1     -32.077   7.958   2.307  1.00 20.00     0.070 C 
HETATM    8  N9  UNL     1     -32.898   9.441   0.281  1.00 20.00    -0.196 NA
ENDROOT
BRANCH   7   9
HETATM    9  C8  UNL     1     -30.885   8.673   2.966  1.00 20.00     0.188 C 
BRANCH   9  10
HETATM   10  O10 UNL     1     -31.283   9.093   4.253  1.00 20.00    -0.399 OA
HETATM   11  H23 UNL     1     -30.978   8.417   4.885  1.00 20.00     0.209 HD
ENDBRANCH   9  10
ENDBRANCH   7   9
TORSDOF 2
ENDMDL
MODEL 6
REMARK VINA RESULT:       1.9      2.406      3.683
REMARK  2 active torsions:
REMARK  status: ('A' for Active; 'I' for Inactive)
REMARK    1  A    between atoms: C7_7  and  C8_8 
REMARK    2  A    between atoms: C8_8  and  O10_10 
ROOT
HETATM    1  C1  UNL     1     -32.978   7.627   4.021  1.00 20.00     0.071 C 
HETATM    2  C2  UNL     1     -35.090   4.619   4.341  1.00 20.00     0.000 C 
HETATM    3  C3  UNL     1     -33.567   4.594   4.295  1.00 20.00     0.002 C 
HETATM    4  C4  UNL     1     -35.632   6.042   4.275  1.00 20.00     0.002 C 
HETATM    5  C5  UNL     1     -33.025   5.338   3.073  1.00 20.00     0.027 C 
HETATM    6  C6  UNL     1     -35.101   6.794   3.052  1.00 20.00     0.027 C 
HETATM    7  C7  UNL     1     -33.561   6.782   2.952  1.00 20.00     0.070 C 
HETATM    8  N9  UNL     1     -32.522   8.289   4.858  1.00 20.00    -0.196 NA
ENDROOT
BRANCH   7   9
HETATM    9  C8  UNL     1     -33.134   7.371   1.596  1.00 20.00     0.188 C 
BRANCH   9  10
HETATM   10  O10 UNL     1     -31.972   8.146   1.802  1.00 20.00    -0.399 OA
HETATM   11  H23 UNL     1     -31.398   7.650   2.412  1.00 20.00     0.209 HD
ENDBRANCH   9  10
ENDBRANCH   7   9
TORSDOF 2
ENDMDL
MODEL 7
REMARK VINA RESULT:       2.0      2.966      3.923
REMARK  2 active torsions:
REMARK  status: ('A' for Active; 'I' for Inactive)
REMARK    1  A    between atoms: C7_7  and  C8_8 
REMARK    2  A    between atoms: C8_8  and  O10_10 
ROOT
HETATM    1  C1  UNL     1     -32.588   8.860   1.213  1.00 20.00     0.071 C 
HETATM    2  C2  UNL     1     -33.559   7.976   4.660  1.00 20.00     0.000 C 
HETATM    3  C3  UNL     1     -32.290   8.738   4.297  1.00 20.00     0.002 C 
HETATM    4  C4  UNL     1     -34.396   7.656   3.426  1.00 20.00     0.002 C 
HETATM    5  C5  UNL     1     -31.465   7.995   3.245  1.00 20.00     0.027 C 
HETATM    6  C6  UNL     1     -33.581   6.908   2.370  1.00 20.00     0.027 C 
HETATM    7  C7  UNL     1     -32.276   7.632   1.981  1.00 20.00     0.070 C 
HETATM    8  N9  UNL     1     -32.833   9.821   0.611  1.00 20.00    -0.196 NA
ENDROOT
BRANCH   7   9
HETATM    9  C8  UNL     1     -31.431   6.712   1.082  1.00 20.00     0.188 C 
BRANCH   9  10
HETATM   10  O10 UNL     1     -31.890   5.389   1.255  1.00 20.00    -0.399 OA
HETATM   11  H23 UNL     1     -32.777   5.441   1.652  1.00 20.00     0.209 HD
ENDBRANCH   9  10
ENDBRANCH   7   9
TORSDOF 2
ENDMDL
MODEL 8
REMARK VINA RESULT:       2.2      2.928      4.052
REMARK  2 active torsions:
REMARK  status: ('A' for Active; 'I' for Inactive)
REMARK    1  A    between atoms: C7_7  and  C8_8 
REMARK    2  A    between atoms: C8_8  and  O10_10 
ROOT
HETATM    1  C1  UNL     1     -31.525   8.160   2.490  1.00 20.00     0.071 C 
HETATM    2  C2  UNL     1     -34.271   5.930   3.537  1.00 20.00     0.000 C 
HETATM    3  C3  UNL     1     -33.072   5.481   2.710  1.00 20.00     0.002 C 
HETATM    4  C4  UNL     1     -34.178   7.406   3.909  1.00 20.00     0.002 C 
HETATM    5  C5  UNL     1     -32.882   6.356   1.469  1.00 20.00     0.027 C 
HETATM    6  C6  UNL     1     -33.992   8.290   2.674  1.00 20.00     0.027 C 
HETATM    7  C7  UNL     1     -32.799   7.864   1.794  1.00 20.00     0.070 C 
HETATM    8  N9  UNL     1     -30.528   8.393   3.036  1.00 20.00    -0.196 NA
ENDROOT
BRANCH   7   9
HETATM    9  C8  UNL     1     -32.821   8.668   0.482  1.00 20.00     0.188 C 
BRANCH   9  10
HETATM   10  O10 UNL     1     -32.360   9.973   0.761  1.00 20.00    -0.399 OA
HETATM   11  H23 UNL     1     -32.150  10.008   1.711  1.00 20.00     0.209 HD
ENDBRANCH   9  10
ENDBRANCH   7   9
TORSDOF 2
ENDMDL
MODEL 9
REMARK VINA RESULT:       2.2      1.481      2.185
REMARK  2 active torsions:
REMARK  status: ('A' for Active; 'I' for Inactive)
REMARK    1  A    between atoms: C7_7  and  C8_8 
REMARK    2  A    between atoms: C8_8  and  O10_10 
ROOT
HETATM    1  C1  UNL     1     -33.435   7.345   4.276  1.00 20.00     0.071 C 
HETATM    2  C2  UNL     1     -32.223   5.492   1.325  1.00 20.00     0.000 C 
HETATM    3  C3  UNL     1     -32.820   6.893   1.270  1.00 20.00     0.002 C 
HETATM    4  C4  UNL     1     -32.154   4.965   2.755  1.00 20.00     0.002 C 
HETATM    5  C5  UNL     1     -34.190   6.951   1.949  1.00 20.00     0.027 C 
HETATM    6  C6  UNL     1     -33.520   5.014   3.441  1.00 20.00     0.027 C 
HETATM    7  C7  UNL     1     -34.175   6.411   3.396  1.00 20.00     0.070 C 
HETATM    8  N9  UNL     1     -32.855   8.076   4.965  1.00 20.00    -0.196 NA
ENDROOT
BRANCH   7   9
HETATM    9  C8  UNL     1     -35.620   6.313   3.917  1.00 20.00     0.188 C 
BRANCH   9  10
HETATM   10  O10 UNL     1     -35.755   5.088   4.605  1.00 20.00    -0.399 OA
HETATM   11  H23 UNL     1     -35.421   4.388   4.017  1.00 20.00     0.209 HD
ENDBRANCH   9  10
ENDBRANCH   7   9
TORSDOF 2
ENDMDL
