MODEL 1
REMARK VINA RESULT:      -1.2      0.000      0.000
REMARK  2 active torsions:
REMARK  status: ('A' for Active; 'I' for Inactive)
REMARK    1  A    between atoms: C4_4  and  C7_7 
REMARK    2  A    between atoms: C5_5  and  O8_8 
ROOT
HETATM    1  C1  UNL     1     -32.912   7.986   2.987  1.00 20.00     0.007 C 
HETATM    2  C2  UNL     1     -33.674   6.698   2.698  1.00 20.00     0.032 C 
HETATM    3  C3  UNL     1     -31.535   6.731   1.496  1.00 20.00     0.036 C 
HETATM    4  C4  UNL     1     -31.988   8.165   1.785  1.00 20.00    -0.012 C 
HETATM    5  C5  UNL     1     -32.729   5.843   1.850  1.00 20.00     0.118 C 
ENDROOT
BRANCH   4   6
HETATM    6  C7  UNL     1     -32.700   8.800   0.592  1.00 20.00     0.000 C 
HETATM    7  C6  UNL     1     -32.405  10.263   0.478  1.00 20.00     0.005 C 
ENDBRANCH   4   6
BRANCH   5   8
HETATM    8  O8  UNL     1     -33.382   5.423   0.659  1.00 20.00    -0.396 OA
HETATM    9  H22 UNL     1     -32.705   5.405  -0.035  1.00 20.00     0.210 HD
ENDBRANCH   5   8
TORSDOF 2
ENDMDL
MODEL 2
REMARK VINA RESULT:      -0.9      1.796      3.303
REMARK  2 active torsions:
REMARK  status: ('A' for Active; 'I' for Inactive)
REMARK    1  A    between atoms: C4_4  and  C7_7 
REMARK    2  A    between atoms: C5_5  and  O8_8 
ROOT
HETATM    1  C1  UNL     1     -32.737   5.927   2.211  1.00 20.00     0.007 C 
HETATM    2  C2  UNL     1     -32.537   6.780   0.964  1.00 20.00     0.032 C 
HETATM    3  C3  UNL     1     -32.002   8.060   2.988  1.00 20.00     0.036 C 
HETATM    4  C4  UNL     1     -32.982   6.934   3.332  1.00 20.00    -0.012 C 
HETATM    5  C5  UNL     1     -31.940   8.098   1.460  1.00 20.00     0.118 C 
ENDROOT
BRANCH   4   6
HETATM    6  C7  UNL     1     -34.430   7.418   3.373  1.00 20.00     0.000 C 
HETATM    7  C6  UNL     1     -35.352   6.380   3.933  1.00 20.00     0.005 C 
ENDBRANCH   4   6
BRANCH   5   8
HETATM    8  O8  UNL     1     -32.705   9.196   0.979  1.00 20.00    -0.396 OA
HETATM    9  H22 UNL     1     -32.076   9.817   0.580  1.00 20.00     0.210 HD
ENDBRANCH   5   8
TORSDOF 2
ENDMDL
MODEL 3
REMARK VINA RESULT:      -0.7      2.340      4.243
REMARK  2 active torsions:
REMARK  status: ('A' for Active; 'I' for Inactive)
REMARK    1  A    between atoms: C4_4  and  C7_7 
REMARK    2  A    between atoms: C5_5  and  O8_8 
ROOT
HETATM    1  C1  UNL     1     -35.071   6.296   3.952  1.00 20.00     0.007 C 
HETATM    2  C2  UNL     1     -34.247   7.573   4.059  1.00 20.00     0.032 C 
HETATM    3  C3  UNL     1     -33.564   6.258   2.103  1.00 20.00     0.036 C 
HETATM    4  C4  UNL     1     -34.195   5.337   3.151  1.00 20.00    -0.012 C 
HETATM    5  C5  UNL     1     -33.377   7.607   2.800  1.00 20.00     0.118 C 
ENDROOT
BRANCH   4   6
HETATM    6  C7  UNL     1     -33.147   4.643   4.019  1.00 20.00     0.000 C 
HETATM    7  C6  UNL     1     -33.580   3.270   4.429  1.00 20.00     0.005 C 
ENDBRANCH   4   6
BRANCH   5   8
HETATM    8  O8  UNL     1     -32.010   7.778   3.152  1.00 20.00    -0.396 OA
HETATM    9  H22 UNL     1     -31.925   8.679   3.501  1.00 20.00     0.210 HD
ENDBRANCH   5   8
TORSDOF 2
ENDMDL
MODEL 4
REMARK VINA RESULT:      -0.5      1.347      1.638
REMARK  2 active torsions:
REMARK  status: ('A' for Active; 'I' for Inactive)
REMARK    1  A    between atoms: C4_4  and  C7_7 
REMARK    2  A    between atoms: C5_5  and  O8_8 
ROOT
HETATM    1  C1  UNL     1     -31.877   8.310   3.226  1.00 20.00     0.007 C 
HETATM    2  C2  UNL     1     -33.121   7.917   4.014  1.00 20.00     0.032 C 
HETATM    3  C3  UNL     1     -32.841   6.470   2.052  1.00 20.00     0.036 C 
HETATM    4  C4  UNL     1     -32.146   7.813   1.808  1.00 20.00    -0.012 C 
HETATM    5  C5  UNL     1     -33.657   6.656   3.333  1.00 20.00     0.118 C 
ENDROOT
BRANCH   4   6
HETATM    6  C7  UNL     1     -33.016   8.779   1.007  1.00 20.00     0.000 C 
HETATM    7  C6  UNL     1     -32.195   9.787   0.264  1.00 20.00     0.005 C 
ENDBRANCH   4   6
BRANCH   5   8
HETATM    8  O8  UNL     1     -35.031   6.822   3.003  1.00 20.00    -0.396 OA
HETATM    9  H22 UNL     1     -35.089   7.621   2.456  1.00 20.00     0.210 HD
ENDBRANCH   5   8
TORSDOF 2
ENDMDL
MODEL 5
REMARK VINA RESULT:      -0.3      2.675      3.364
REMARK  2 active torsions:
REMARK  status: ('A' for Active; 'I' for Inactive)
REMARK    1  A    between atoms: C4_4  and  C7_7 
REMARK    2  A    between atoms: C5_5  and  O8_8 
ROOT
HETATM    1  C1  UNL     1     -33.093   7.327   3.783  1.00 20.00     0.007 C 
HETATM    2  C2  UNL     1     -34.560   7.693   3.978  1.00 20.00     0.032 C 
HETATM    3  C3  UNL     1     -34.278   5.258   3.865  1.00 20.00     0.036 C 
HETATM    4  C4  UNL     1     -33.123   5.947   3.132  1.00 20.00    -0.012 C 
HETATM    5  C5  UNL     1     -35.293   6.362   4.163  1.00 20.00     0.118 C 
ENDROOT
BRANCH   4   6
HETATM    6  C7  UNL     1     -33.354   6.018   1.624  1.00 20.00     0.000 C 
HETATM    7  C6  UNL     1     -32.287   5.298   0.860  1.00 20.00     0.005 C 
ENDBRANCH   4   6
BRANCH   5   8
HETATM    8  O8  UNL     1     -36.381   6.270   3.252  1.00 20.00    -0.396 OA
HETATM    9  H22 UNL     1     -36.251   5.451   2.750  1.00 20.00     0.210 HD
ENDBRANCH   5   8
TORSDOF 2
ENDMDL
MODEL 6
REMARK VINA RESULT:      -0.2      1.932      2.825
REMARK  2 active torsions:
REMARK  status: ('A' for Active; 'I' for Inactive)
REMARK    1  A    between atoms: C4_4  and  C7_7 
REMARK    2  A    between atoms: C5_5  and  O8_8 
ROOT
HETATM    1  C1  UNL     1     -33.023   7.436   4.115  1.00 20.00     0.007 C 
HETATM    2  C2  UNL     1     -34.505   7.763   4.264  1.00 20.00     0.032 C 
HETATM    3  C3  UNL     1     -34.196   5.442   3.530  1.00 20.00     0.036 C 
HETATM    4  C4  UNL     1     -32.982   6.281   3.118  1.00 20.00    -0.012 C 
HETATM    5  C5  UNL     1     -35.243   6.445   4.017  1.00 20.00     0.118 C 
ENDROOT
BRANCH   4   6
HETATM    6  C7  UNL     1     -33.071   6.757   1.670  1.00 20.00     0.000 C 
HETATM    7  C6  UNL     1     -32.083   7.842   1.376  1.00 20.00     0.005 C 
ENDBRANCH   4   6
BRANCH   5   8
HETATM    8  O8  UNL     1     -36.239   6.620   3.018  1.00 20.00    -0.396 OA
HETATM    9  H22 UNL     1     -36.386   7.575   2.939  1.00 20.00     0.210 HD
ENDBRANCH   5   8
TORSDOF 2
ENDMDL
MODEL 7
REMARK VINA RESULT:       0.0      2.839      3.693
REMARK  2 active torsions:
REMARK  status: ('A' for Active; 'I' for Inactive)
REMARK    1  A    between atoms: C4_4  and  C7_7 
REMARK    2  A    between atoms: C5_5  and  O8_8 
ROOT
HETATM    1  C1  UNL     1     -33.700   6.689   2.596  1.00 20.00     0.007 C 
HETATM    2  C2  UNL     1     -33.240   5.270   2.906  1.00 20.00     0.032 C 
HETATM    3  C3  UNL     1     -35.359   5.763   4.040  1.00 20.00     0.036 C 
HETATM    4  C4  UNL     1     -34.602   7.067   3.768  1.00 20.00    -0.012 C 
HETATM    5  C5  UNL     1     -34.371   4.640   3.722  1.00 20.00     0.118 C 
ENDROOT
BRANCH   4   6
HETATM    6  C7  UNL     1     -33.809   7.541   4.984  1.00 20.00     0.000 C 
HETATM    7  C6  UNL     1     -32.672   8.435   4.597  1.00 20.00     0.005 C 
ENDBRANCH   4   6
BRANCH   5   8
HETATM    8  O8  UNL     1     -33.860   4.096   4.932  1.00 20.00    -0.396 OA
HETATM    9  H22 UNL     1     -33.126   4.668   5.204  1.00 20.00     0.210 HD
ENDBRANCH   5   8
TORSDOF 2
ENDMDL
MODEL 8
REMARK VINA RESULT:       0.1      1.451      2.971
REMARK  2 active torsions:
REMARK  status: ('A' for Active; 'I' for Inactive)
REMARK    1  A    between atoms: C4_4  and  C7_7 
REMARK    2  A    between atoms: C5_5  and  O8_8 
ROOT
HETATM    1  C1  UNL     1     -32.425   8.373   2.045  1.00 20.00     0.007 C 
HETATM    2  C2  UNL     1     -31.337   7.336   1.794  1.00 20.00     0.032 C 
HETATM    3  C3  UNL     1     -33.557   6.400   1.324  1.00 20.00     0.036 C 
HETATM    4  C4  UNL     1     -33.683   7.554   2.323  1.00 20.00    -0.012 C 
HETATM    5  C5  UNL     1     -32.057   6.120   1.206  1.00 20.00     0.118 C 
ENDROOT
BRANCH   4   6
HETATM    6  C7  UNL     1     -33.751   7.064   3.768  1.00 20.00     0.000 C 
HETATM    7  C6  UNL     1     -35.019   6.317   4.047  1.00 20.00     0.005 C 
ENDBRANCH   4   6
BRANCH   5   8
HETATM    8  O8  UNL     1     -31.731   4.950   1.945  1.00 20.00    -0.396 OA
HETATM    9  H22 UNL     1     -31.704   4.220   1.309  1.00 20.00     0.210 HD
ENDBRANCH   5   8
TORSDOF 2
ENDMDL
MODEL 9
REMARK VINA RESULT:       0.3      1.949      2.711
REMARK  2 active torsions:
REMARK  status: ('A' for Active; 'I' for Inactive)
REMARK    1  A    between atoms: C4_4  and  C7_7 
REMARK    2  A    between atoms: C5_5  and  O8_8 
ROOT
HETATM    1  C1  UNL     1     -33.110   5.290   2.209  1.00 20.00     0.007 C 
HETATM    2  C2  UNL     1     -33.478   5.438   3.680  1.00 20.00     0.032 C 
HETATM    3  C3  UNL     1     -34.430   7.273   2.358  1.00 20.00     0.036 C 
HETATM    4  C4  UNL     1     -33.198   6.706   1.645  1.00 20.00    -0.012 C 
HETATM    5  C5  UNL     1     -34.431   6.634   3.748  1.00 20.00     0.118 C 
ENDROOT
BRANCH   4   6
HETATM    6  C7  UNL     1     -31.939   7.524   1.925  1.00 20.00     0.000 C 
HETATM    7  C6  UNL     1     -31.926   8.811   1.161  1.00 20.00     0.005 C 
ENDBRANCH   4   6
BRANCH   5   8
HETATM    8  O8  UNL     1     -33.970   7.576   4.708  1.00 20.00    -0.396 OA
HETATM    9  H22 UNL     1     -33.722   8.373   4.215  1.00 20.00     0.210 HD
ENDBRANCH   5   8
TORSDOF 2
ENDMDL
