MODEL 1
REMARK VINA RESULT:      -0.3      0.000      0.000
REMARK  2 active torsions:
REMARK  status: ('A' for Active; 'I' for Inactive)
REMARK    1  A    between atoms: C2_2  and  C5_5 
REMARK    2  A    between atoms: C9_9  and  N10_10 
ROOT
HETATM    1  C3  UNL     1     -31.720   6.637   1.149  1.00 20.00     0.070 C 
HETATM    2  C4  UNL     1     -32.645   5.589   1.800  1.00 20.00     0.277 C 
HETATM    3  C5  UNL     1     -32.442   7.644   2.075  1.00 20.00     0.247 C 
HETATM    4  N10 UNL     1     -33.593   6.698   2.086  1.00 20.00     0.105 N 
ENDROOT
BRANCH   4   5
HETATM    5  C9  UNL     1     -34.142   6.563   3.432  1.00 20.00     0.150 C 
HETATM    6  C6  UNL     1     -35.654   6.810   3.388  1.00 20.00     0.048 C 
HETATM    7  C7  UNL     1     -33.864   5.147   3.948  1.00 20.00     0.048 C 
HETATM    8  C8  UNL     1     -33.480   7.591   4.356  1.00 20.00     0.048 C 
ENDBRANCH   4   5
BRANCH   3   9
HETATM    9  C2  UNL     1     -32.805   8.935   1.462  1.00 20.00    -0.002 C 
HETATM   10  C1  UNL     1     -32.099   9.529   0.495  1.00 20.00     0.009 C 
ENDBRANCH   3   9
TORSDOF 2
ENDMDL
MODEL 2
REMARK VINA RESULT:       0.3      1.205      3.400
REMARK  2 active torsions:
REMARK  status: ('A' for Active; 'I' for Inactive)
REMARK    1  A    between atoms: C2_2  and  C5_5 
REMARK    2  A    between atoms: C9_9  and  N10_10 
ROOT
HETATM    1  C3  UNL     1     -34.931   5.388   4.191  1.00 20.00     0.070 C 
HETATM    2  C4  UNL     1     -33.887   4.657   3.324  1.00 20.00     0.277 C 
HETATM    3  C5  UNL     1     -34.492   6.649   3.410  1.00 20.00     0.247 C 
HETATM    4  N10 UNL     1     -33.191   5.962   3.177  1.00 20.00     0.105 N 
ENDROOT
BRANCH   4   5
HETATM    5  C9  UNL     1     -32.744   6.148   1.799  1.00 20.00     0.150 C 
HETATM    6  C6  UNL     1     -32.079   7.522   1.665  1.00 20.00     0.048 C 
HETATM    7  C7  UNL     1     -31.738   5.048   1.446  1.00 20.00     0.048 C 
HETATM    8  C8  UNL     1     -33.952   6.068   0.859  1.00 20.00     0.048 C 
ENDBRANCH   4   5
BRANCH   3   9
HETATM    9  C2  UNL     1     -34.324   7.875   4.211  1.00 20.00    -0.002 C 
HETATM   10  C1  UNL     1     -33.252   8.134   4.967  1.00 20.00     0.009 C 
ENDBRANCH   3   9
TORSDOF 2
ENDMDL
MODEL 3
REMARK VINA RESULT:       0.4      1.404      4.248
REMARK  2 active torsions:
REMARK  status: ('A' for Active; 'I' for Inactive)
REMARK    1  A    between atoms: C2_2  and  C5_5 
REMARK    2  A    between atoms: C9_9  and  N10_10 
ROOT
HETATM    1  C3  UNL     1     -34.949   6.096   4.435  1.00 20.00     0.070 C 
HETATM    2  C4  UNL     1     -34.760   6.985   3.191  1.00 20.00     0.277 C 
HETATM    3  C5  UNL     1     -33.753   5.292   3.870  1.00 20.00     0.247 C 
HETATM    4  N10 UNL     1     -34.134   5.812   2.526  1.00 20.00     0.105 N 
ENDROOT
BRANCH   4   5
HETATM    5  C9  UNL     1     -32.952   6.224   1.774  1.00 20.00     0.150 C 
HETATM    6  C6  UNL     1     -33.345   6.481   0.315  1.00 20.00     0.048 C 
HETATM    7  C7  UNL     1     -32.387   7.507   2.392  1.00 20.00     0.048 C 
HETATM    8  C8  UNL     1     -31.900   5.111   1.835  1.00 20.00     0.048 C 
ENDBRANCH   4   5
BRANCH   3   9
HETATM    9  C2  UNL     1     -33.875   3.825   3.939  1.00 20.00    -0.002 C 
HETATM   10  C1  UNL     1     -33.142   3.050   4.746  1.00 20.00     0.009 C 
ENDBRANCH   3   9
TORSDOF 2
ENDMDL
MODEL 4
REMARK VINA RESULT:       0.4      1.403      4.222
REMARK  2 active torsions:
REMARK  status: ('A' for Active; 'I' for Inactive)
REMARK    1  A    between atoms: C2_2  and  C5_5 
REMARK    2  A    between atoms: C9_9  and  N10_10 
ROOT
HETATM    1  C3  UNL     1     -34.959   6.097   4.439  1.00 20.00     0.070 C 
HETATM    2  C4  UNL     1     -34.768   6.992   3.200  1.00 20.00     0.277 C 
HETATM    3  C5  UNL     1     -33.759   5.299   3.875  1.00 20.00     0.247 C 
HETATM    4  N10 UNL     1     -34.136   5.824   2.533  1.00 20.00     0.105 N 
ENDROOT
BRANCH   4   5
HETATM    5  C9  UNL     1     -32.952   6.243   1.787  1.00 20.00     0.150 C 
HETATM    6  C6  UNL     1     -32.390   7.525   2.410  1.00 20.00     0.048 C 
HETATM    7  C7  UNL     1     -31.900   5.131   1.853  1.00 20.00     0.048 C 
HETATM    8  C8  UNL     1     -33.338   6.506   0.328  1.00 20.00     0.048 C 
ENDBRANCH   4   5
BRANCH   3   9
HETATM    9  C2  UNL     1     -33.877   3.831   3.937  1.00 20.00    -0.002 C 
HETATM   10  C1  UNL     1     -33.149   3.054   4.747  1.00 20.00     0.009 C 
ENDBRANCH   3   9
TORSDOF 2
ENDMDL
MODEL 5
REMARK VINA RESULT:       0.4      1.416      4.240
REMARK  2 active torsions:
REMARK  status: ('A' for Active; 'I' for Inactive)
REMARK    1  A    between atoms: C2_2  and  C5_5 
REMARK    2  A    between atoms: C9_9  and  N10_10 
ROOT
HETATM    1  C3  UNL     1     -34.970   6.124   4.444  1.00 20.00     0.070 C 
HETATM    2  C4  UNL     1     -34.779   7.009   3.197  1.00 20.00     0.277 C 
HETATM    3  C5  UNL     1     -33.778   5.315   3.880  1.00 20.00     0.247 C 
HETATM    4  N10 UNL     1     -34.158   5.833   2.536  1.00 20.00     0.105 N 
ENDROOT
BRANCH   4   5
HETATM    5  C9  UNL     1     -32.974   6.238   1.782  1.00 20.00     0.150 C 
HETATM    6  C6  UNL     1     -31.943   5.106   1.813  1.00 20.00     0.048 C 
HETATM    7  C7  UNL     1     -33.379   6.533   0.334  1.00 20.00     0.048 C 
HETATM    8  C8  UNL     1     -32.374   7.497   2.419  1.00 20.00     0.048 C 
ENDBRANCH   4   5
BRANCH   3   9
HETATM    9  C2  UNL     1     -33.905   3.847   3.953  1.00 20.00    -0.002 C 
HETATM   10  C1  UNL     1     -33.165   3.071   4.751  1.00 20.00     0.009 C 
ENDBRANCH   3   9
TORSDOF 2
ENDMDL
MODEL 6
REMARK VINA RESULT:       0.4      1.243      3.323
REMARK  2 active torsions:
REMARK  status: ('A' for Active; 'I' for Inactive)
REMARK    1  A    between atoms: C2_2  and  C5_5 
REMARK    2  A    between atoms: C9_9  and  N10_10 
ROOT
HETATM    1  C3  UNL     1     -32.296   8.431   3.056  1.00 20.00     0.070 C 
HETATM    2  C4  UNL     1     -31.837   7.728   1.764  1.00 20.00     0.277 C 
HETATM    3  C5  UNL     1     -33.136   7.152   3.287  1.00 20.00     0.247 C 
HETATM    4  N10 UNL     1     -33.104   6.953   1.811  1.00 20.00     0.105 N 
ENDROOT
BRANCH   4   5
HETATM    5  C9  UNL     1     -32.857   5.552   1.480  1.00 20.00     0.150 C 
HETATM    6  C6  UNL     1     -33.156   4.683   2.707  1.00 20.00     0.048 C 
HETATM    7  C7  UNL     1     -33.769   5.143   0.319  1.00 20.00     0.048 C 
HETATM    8  C8  UNL     1     -31.390   5.379   1.073  1.00 20.00     0.048 C 
ENDBRANCH   4   5
BRANCH   3   9
HETATM    9  C2  UNL     1     -34.510   7.365   3.778  1.00 20.00    -0.002 C 
HETATM   10  C1  UNL     1     -35.333   6.379   4.150  1.00 20.00     0.009 C 
ENDBRANCH   3   9
TORSDOF 2
ENDMDL
MODEL 7
REMARK VINA RESULT:       0.5      1.106      2.647
REMARK  2 active torsions:
REMARK  status: ('A' for Active; 'I' for Inactive)
REMARK    1  A    between atoms: C2_2  and  C5_5 
REMARK    2  A    between atoms: C9_9  and  N10_10 
ROOT
HETATM    1  C3  UNL     1     -31.924   7.847   1.510  1.00 20.00     0.070 C 
HETATM    2  C4  UNL     1     -32.490   8.230   2.892  1.00 20.00     0.277 C 
HETATM    3  C5  UNL     1     -32.900   6.649   1.598  1.00 20.00     0.247 C 
HETATM    4  N10 UNL     1     -32.830   6.795   3.079  1.00 20.00     0.105 N 
ENDROOT
BRANCH   4   5
HETATM    5  C9  UNL     1     -34.155   6.660   3.678  1.00 20.00     0.150 C 
HETATM    6  C6  UNL     1     -34.354   5.214   4.144  1.00 20.00     0.048 C 
HETATM    7  C7  UNL     1     -34.264   7.611   4.874  1.00 20.00     0.048 C 
HETATM    8  C8  UNL     1     -35.221   7.014   2.635  1.00 20.00     0.048 C 
ENDBRANCH   4   5
BRANCH   3   9
HETATM    9  C2  UNL     1     -32.363   5.349   1.154  1.00 20.00    -0.002 C 
HETATM   10  C1  UNL     1     -32.988   4.535   0.297  1.00 20.00     0.009 C 
ENDBRANCH   3   9
TORSDOF 2
ENDMDL
MODEL 8
REMARK VINA RESULT:       0.5      1.106      2.321
REMARK  2 active torsions:
REMARK  status: ('A' for Active; 'I' for Inactive)
REMARK    1  A    between atoms: C2_2  and  C5_5 
REMARK    2  A    between atoms: C9_9  and  N10_10 
ROOT
HETATM    1  C3  UNL     1     -31.920   7.836   1.494  1.00 20.00     0.070 C 
HETATM    2  C4  UNL     1     -32.476   8.219   2.880  1.00 20.00     0.277 C 
HETATM    3  C5  UNL     1     -32.896   6.639   1.589  1.00 20.00     0.247 C 
HETATM    4  N10 UNL     1     -32.815   6.785   3.070  1.00 20.00     0.105 N 
ENDROOT
BRANCH   4   5
HETATM    5  C9  UNL     1     -34.135   6.650   3.679  1.00 20.00     0.150 C 
HETATM    6  C6  UNL     1     -35.207   7.014   2.646  1.00 20.00     0.048 C 
HETATM    7  C7  UNL     1     -34.329   5.202   4.140  1.00 20.00     0.048 C 
HETATM    8  C8  UNL     1     -34.238   7.596   4.881  1.00 20.00     0.048 C 
ENDBRANCH   4   5
BRANCH   3   9
HETATM    9  C2  UNL     1     -32.364   5.339   1.141  1.00 20.00    -0.002 C 
HETATM   10  C1  UNL     1     -33.000   4.522   0.295  1.00 20.00     0.009 C 
ENDBRANCH   3   9
TORSDOF 2
ENDMDL
MODEL 9
REMARK VINA RESULT:       0.6      1.230      3.917
REMARK  2 active torsions:
REMARK  status: ('A' for Active; 'I' for Inactive)
REMARK    1  A    between atoms: C2_2  and  C5_5 
REMARK    2  A    between atoms: C9_9  and  N10_10 
ROOT
HETATM    1  C3  UNL     1     -33.083   8.069   5.003  1.00 20.00     0.070 C 
HETATM    2  C4  UNL     1     -32.179   8.797   3.990  1.00 20.00     0.277 C 
HETATM    3  C5  UNL     1     -33.445   7.153   3.809  1.00 20.00     0.247 C 
HETATM    4  N10 UNL     1     -33.077   8.291   2.920  1.00 20.00     0.105 N 
ENDROOT
BRANCH   4   5
HETATM    5  C9  UNL     1     -32.297   7.825   1.777  1.00 20.00     0.150 C 
HETATM    6  C6  UNL     1     -32.738   6.405   1.408  1.00 20.00     0.048 C 
HETATM    7  C7  UNL     1     -32.533   8.767   0.592  1.00 20.00     0.048 C 
HETATM    8  C8  UNL     1     -30.809   7.821   2.148  1.00 20.00     0.048 C 
ENDBRANCH   4   5
BRANCH   3   9
HETATM    9  C2  UNL     1     -34.871   6.800   3.679  1.00 20.00    -0.002 C 
HETATM   10  C1  UNL     1     -35.414   5.682   4.173  1.00 20.00     0.009 C 
ENDBRANCH   3   9
TORSDOF 2
ENDMDL
