MODEL 1
REMARK VINA RESULT:       0.2      0.000      0.000
REMARK  0 active torsions:
REMARK  status: ('A' for Active; 'I' for Inactive)
ROOT
HETATM    1  C1  UNL     1     -33.819   5.143   2.953  1.00 20.00     0.047 A 
HETATM    2  C2  UNL     1     -32.985   6.091   2.334  1.00 20.00     0.025 A 
HETATM    3  C3  UNL     1     -33.143   7.348   2.844  1.00 20.00    -0.002 A 
HETATM    4  C4  UNL     1     -34.593   5.748   3.932  1.00 20.00     0.075 A 
HETATM    5  C5  UNL     1     -31.990   6.124   1.296  1.00 20.00     0.161 A 
HETATM    6  C6  UNL     1     -32.285   8.386   2.226  1.00 20.00     0.055 A 
HETATM    7  C7  UNL     1     -31.488   7.570   1.160  1.00 20.00     0.089 A 
HETATM    8  O8  UNL     1     -31.611   5.170   0.637  1.00 20.00    -0.292 OA
HETATM    9  S9  UNL     1     -34.282   7.446   4.067  1.00 20.00    -0.082 SA
HETATM   10 CL10 UNL     1     -35.756   5.012   4.954  1.00 20.00    -0.076 Cl
ENDROOT
TORSDOF 0
ENDMDL
MODEL 2
REMARK VINA RESULT:       0.5      3.064      3.687
REMARK  0 active torsions:
REMARK  status: ('A' for Active; 'I' for Inactive)
ROOT
HETATM    1  C1  UNL     1     -33.325   5.070   2.099  1.00 20.00     0.047 A 
HETATM    2  C2  UNL     1     -33.705   6.134   2.937  1.00 20.00     0.025 A 
HETATM    3  C3  UNL     1     -32.940   7.250   2.757  1.00 20.00    -0.002 A 
HETATM    4  C4  UNL     1     -32.257   5.446   1.300  1.00 20.00     0.075 A 
HETATM    5  C5  UNL     1     -34.688   6.395   3.954  1.00 20.00     0.161 A 
HETATM    6  C6  UNL     1     -33.299   8.402   3.618  1.00 20.00     0.055 A 
HETATM    7  C7  UNL     1     -34.495   7.837   4.448  1.00 20.00     0.089 A 
HETATM    8  O8  UNL     1     -35.530   5.608   4.355  1.00 20.00    -0.292 OA
HETATM    9  S9  UNL     1     -31.749   7.075   1.593  1.00 20.00    -0.082 SA
HETATM   10 CL10 UNL     1     -31.444   4.501   0.122  1.00 20.00    -0.076 Cl
ENDROOT
TORSDOF 0
ENDMDL
MODEL 3
REMARK VINA RESULT:       0.6      2.693      3.822
REMARK  0 active torsions:
REMARK  status: ('A' for Active; 'I' for Inactive)
ROOT
HETATM    1  C1  UNL     1     -32.454   5.834   2.176  1.00 20.00     0.047 A 
HETATM    2  C2  UNL     1     -33.490   5.551   3.085  1.00 20.00     0.025 A 
HETATM    3  C3  UNL     1     -34.207   6.660   3.431  1.00 20.00    -0.002 A 
HETATM    4  C4  UNL     1     -32.437   7.186   1.870  1.00 20.00     0.075 A 
HETATM    5  C5  UNL     1     -34.027   4.408   3.772  1.00 20.00     0.161 A 
HETATM    6  C6  UNL     1     -35.313   6.417   4.388  1.00 20.00     0.055 A 
HETATM    7  C7  UNL     1     -35.206   4.879   4.637  1.00 20.00     0.089 A 
HETATM    8  O8  UNL     1     -33.617   3.262   3.684  1.00 20.00    -0.292 OA
HETATM    9  S9  UNL     1     -33.678   8.067   2.695  1.00 20.00    -0.082 SA
HETATM   10 CL10 UNL     1     -31.365   8.010   0.815  1.00 20.00    -0.076 Cl
ENDROOT
TORSDOF 0
ENDMDL
MODEL 4
REMARK VINA RESULT:       0.6      3.371      4.442
REMARK  0 active torsions:
REMARK  status: ('A' for Active; 'I' for Inactive)
ROOT
HETATM    1  C1  UNL     1     -32.465   8.346   2.472  1.00 20.00     0.047 A 
HETATM    2  C2  UNL     1     -33.289   7.419   3.135  1.00 20.00     0.025 A 
HETATM    3  C3  UNL     1     -33.349   6.213   2.497  1.00 20.00    -0.002 A 
HETATM    4  C4  UNL     1     -31.926   7.779   1.328  1.00 20.00     0.075 A 
HETATM    5  C5  UNL     1     -34.105   7.369   4.318  1.00 20.00     0.161 A 
HETATM    6  C6  UNL     1     -34.205   5.199   3.156  1.00 20.00     0.055 A 
HETATM    7  C7  UNL     1     -34.736   5.970   4.405  1.00 20.00     0.089 A 
HETATM    8  O8  UNL     1     -34.270   8.279   5.113  1.00 20.00    -0.292 OA
HETATM    9  S9  UNL     1     -32.437   6.141   1.095  1.00 20.00    -0.082 SA
HETATM   10 CL10 UNL     1     -30.866   8.509   0.193  1.00 20.00    -0.076 Cl
ENDROOT
TORSDOF 0
ENDMDL
MODEL 5
REMARK VINA RESULT:       0.9      3.261      4.343
REMARK  0 active torsions:
REMARK  status: ('A' for Active; 'I' for Inactive)
ROOT
HETATM    1  C1  UNL     1     -33.253   7.833   2.550  1.00 20.00     0.047 A 
HETATM    2  C2  UNL     1     -33.697   6.617   3.101  1.00 20.00     0.025 A 
HETATM    3  C3  UNL     1     -33.081   5.530   2.550  1.00 20.00    -0.002 A 
HETATM    4  C4  UNL     1     -32.293   7.599   1.579  1.00 20.00     0.075 A 
HETATM    5  C5  UNL     1     -34.633   6.173   4.099  1.00 20.00     0.161 A 
HETATM    6  C6  UNL     1     -33.513   4.222   3.096  1.00 20.00     0.055 A 
HETATM    7  C7  UNL     1     -34.579   4.639   4.158  1.00 20.00     0.089 A 
HETATM    8  O8  UNL     1     -35.347   6.891   4.780  1.00 20.00    -0.292 OA
HETATM    9  S9  UNL     1     -31.962   5.913   1.366  1.00 20.00    -0.082 SA
HETATM   10 CL10 UNL     1     -31.457   8.757   0.629  1.00 20.00    -0.076 Cl
ENDROOT
TORSDOF 0
ENDMDL
MODEL 6
REMARK VINA RESULT:       1.4      1.784      2.237
REMARK  0 active torsions:
REMARK  status: ('A' for Active; 'I' for Inactive)
ROOT
HETATM    1  C1  UNL     1     -34.209   7.105   3.587  1.00 20.00     0.047 A 
HETATM    2  C2  UNL     1     -33.204   7.117   2.603  1.00 20.00     0.025 A 
HETATM    3  C3  UNL     1     -32.852   5.864   2.191  1.00 20.00    -0.002 A 
HETATM    4  C4  UNL     1     -34.580   5.803   3.880  1.00 20.00     0.075 A 
HETATM    5  C5  UNL     1     -32.419   8.087   1.888  1.00 20.00     0.161 A 
HETATM    6  C6  UNL     1     -31.795   5.821   1.153  1.00 20.00     0.055 A 
HETATM    7  C7  UNL     1     -31.481   7.334   0.932  1.00 20.00     0.089 A 
HETATM    8  O8  UNL     1     -32.486   9.299   2.018  1.00 20.00    -0.292 OA
HETATM    9  S9  UNL     1     -33.697   4.637   2.953  1.00 20.00    -0.082 SA
HETATM   10 CL10 UNL     1     -35.761   5.275   5.007  1.00 20.00    -0.076 Cl
ENDROOT
TORSDOF 0
ENDMDL
MODEL 7
REMARK VINA RESULT:       1.9      1.917      2.400
REMARK  0 active torsions:
REMARK  status: ('A' for Active; 'I' for Inactive)
ROOT
HETATM    1  C1  UNL     1     -32.817   4.590   3.111  1.00 20.00     0.047 A 
HETATM    2  C2  UNL     1     -33.252   5.925   3.036  1.00 20.00     0.025 A 
HETATM    3  C3  UNL     1     -34.343   6.171   3.820  1.00 20.00    -0.002 A 
HETATM    4  C4  UNL     1     -33.626   3.867   3.973  1.00 20.00     0.075 A 
HETATM    5  C5  UNL     1     -32.874   7.137   2.360  1.00 20.00     0.161 A 
HETATM    6  C6  UNL     1     -34.842   7.566   3.778  1.00 20.00     0.055 A 
HETATM    7  C7  UNL     1     -33.851   8.245   2.781  1.00 20.00     0.089 A 
HETATM    8  O8  UNL     1     -31.940   7.263   1.585  1.00 20.00    -0.292 OA
HETATM    9  S9  UNL     1     -34.886   4.832   4.664  1.00 20.00    -0.082 SA
HETATM   10 CL10 UNL     1     -33.498   2.208   4.391  1.00 20.00    -0.076 Cl
ENDROOT
TORSDOF 0
ENDMDL
MODEL 8
REMARK VINA RESULT:       2.3      2.818      3.699
REMARK  0 active torsions:
REMARK  status: ('A' for Active; 'I' for Inactive)
ROOT
HETATM    1  C1  UNL     1     -31.999   7.972   0.771  1.00 20.00     0.047 A 
HETATM    2  C2  UNL     1     -32.531   6.992   1.629  1.00 20.00     0.025 A 
HETATM    3  C3  UNL     1     -33.379   7.512   2.565  1.00 20.00    -0.002 A 
HETATM    4  C4  UNL     1     -32.484   9.225   1.112  1.00 20.00     0.075 A 
HETATM    5  C5  UNL     1     -32.441   5.568   1.811  1.00 20.00     0.161 A 
HETATM    6  C6  UNL     1     -33.968   6.519   3.494  1.00 20.00     0.055 A 
HETATM    7  C7  UNL     1     -33.337   5.180   2.997  1.00 20.00     0.089 A 
HETATM    8  O8  UNL     1     -31.769   4.801   1.141  1.00 20.00    -0.292 OA
HETATM    9  S9  UNL     1     -33.569   9.171   2.460  1.00 20.00    -0.082 SA
HETATM   10 CL10 UNL     1     -32.128  10.728   0.365  1.00 20.00    -0.076 Cl
ENDROOT
TORSDOF 0
ENDMDL
MODEL 9
REMARK VINA RESULT:       2.6      1.427      1.698
REMARK  0 active torsions:
REMARK  status: ('A' for Active; 'I' for Inactive)
ROOT
HETATM    1  C1  UNL     1     -32.695   5.464   2.598  1.00 20.00     0.047 A 
HETATM    2  C2  UNL     1     -32.777   6.848   2.359  1.00 20.00     0.025 A 
HETATM    3  C3  UNL     1     -33.772   7.450   3.074  1.00 20.00    -0.002 A 
HETATM    4  C4  UNL     1     -33.663   5.075   3.510  1.00 20.00     0.075 A 
HETATM    5  C5  UNL     1     -32.103   7.837   1.562  1.00 20.00     0.161 A 
HETATM    6  C6  UNL     1     -33.901   8.911   2.858  1.00 20.00     0.055 A 
HETATM    7  C7  UNL     1     -32.768   9.197   1.823  1.00 20.00     0.089 A 
HETATM    8  O8  UNL     1     -31.165   7.632   0.808  1.00 20.00    -0.292 OA
HETATM    9  S9  UNL     1     -34.639   6.400   4.047  1.00 20.00    -0.082 SA
HETATM   10 CL10 UNL     1     -33.961   3.498   4.116  1.00 20.00    -0.076 Cl
ENDROOT
TORSDOF 0
ENDMDL
