MODEL 1
REMARK VINA RESULT:       4.5      0.000      0.000
REMARK  0 active torsions:
REMARK  status: ('A' for Active; 'I' for Inactive)
ROOT
HETATM    1  C1  UNL     1     -32.877   8.816   3.083  1.00 20.00     0.097 A 
HETATM    2  C2  UNL     1     -31.592   7.917   1.344  1.00 20.00     0.097 A 
HETATM    3  C3  UNL     1     -33.482   7.584   3.323  1.00 20.00    -0.016 A 
HETATM    4  C4  UNL     1     -32.157   6.655   1.530  1.00 20.00    -0.016 A 
HETATM    5  C5  UNL     1     -33.105   6.465   2.555  1.00 20.00     0.045 A 
HETATM    6  C6  UNL     1     -34.490   7.459   4.435  1.00 20.00     0.044 C 
HETATM    7  C7  UNL     1     -31.705   5.509   0.667  1.00 20.00     0.044 C 
HETATM    8  C8  UNL     1     -35.366   6.226   4.249  1.00 20.00     0.025 C 
HETATM    9  C9  UNL     1     -32.724   4.377   0.675  1.00 20.00     0.025 C 
HETATM   10  C10 UNL     1     -34.504   5.003   3.964  1.00 20.00     0.123 C 
HETATM   11  C11 UNL     1     -33.130   4.040   2.104  1.00 20.00     0.123 C 
HETATM   12  N12 UNL     1     -31.965   8.943   2.115  1.00 20.00    -0.374 N 
HETATM   13  N13 UNL     1     -33.683   5.214   2.775  1.00 20.00    -0.380 N 
HETATM   14  H28 UNL     1     -31.536   9.855   1.960  1.00 20.00     0.164 HD
ENDROOT
TORSDOF 0
ENDMDL
MODEL 2
REMARK VINA RESULT:       4.5      1.057      3.973
REMARK  0 active torsions:
REMARK  status: ('A' for Active; 'I' for Inactive)
ROOT
HETATM    1  C1  UNL     1     -31.695   5.568   0.684  1.00 20.00     0.097 A 
HETATM    2  C2  UNL     1     -33.102   4.290   2.053  1.00 20.00     0.097 A 
HETATM    3  C3  UNL     1     -32.076   6.744   1.328  1.00 20.00    -0.016 A 
HETATM    4  C4  UNL     1     -33.526   5.427   2.741  1.00 20.00    -0.016 A 
HETATM    5  C5  UNL     1     -32.991   6.684   2.398  1.00 20.00     0.045 A 
HETATM    6  C6  UNL     1     -31.461   8.051   0.902  1.00 20.00     0.044 C 
HETATM    7  C7  UNL     1     -34.509   5.283   3.871  1.00 20.00     0.044 C 
HETATM    8  C8  UNL     1     -32.311   9.232   1.357  1.00 20.00     0.025 C 
HETATM    9  C9  UNL     1     -35.201   6.607   4.172  1.00 20.00     0.025 C 
HETATM   10  C10 UNL     1     -32.669   9.090   2.830  1.00 20.00     0.123 C 
HETATM   11  C11 UNL     1     -34.174   7.724   4.295  1.00 20.00     0.123 C 
HETATM   12  N12 UNL     1     -32.213   4.395   1.060  1.00 20.00    -0.374 N 
HETATM   13  N13 UNL     1     -33.386   7.841   3.071  1.00 20.00    -0.380 N 
HETATM   14  H28 UNL     1     -31.918   3.549   0.574  1.00 20.00     0.164 HD
ENDROOT
TORSDOF 0
ENDMDL
MODEL 3
REMARK VINA RESULT:       5.1      1.273      3.287
REMARK  0 active torsions:
REMARK  status: ('A' for Active; 'I' for Inactive)
ROOT
HETATM    1  C1  UNL     1     -32.012   4.816   1.361  1.00 20.00     0.097 A 
HETATM    2  C2  UNL     1     -31.967   7.157   1.349  1.00 20.00     0.097 A 
HETATM    3  C3  UNL     1     -32.896   4.802   2.439  1.00 20.00    -0.016 A 
HETATM    4  C4  UNL     1     -32.850   7.217   2.426  1.00 20.00    -0.016 A 
HETATM    5  C5  UNL     1     -33.353   6.021   2.976  1.00 20.00     0.045 A 
HETATM    6  C6  UNL     1     -33.388   3.483   2.974  1.00 20.00     0.044 C 
HETATM    7  C7  UNL     1     -33.290   8.558   2.947  1.00 20.00     0.044 C 
HETATM    8  C8  UNL     1     -33.933   3.633   4.389  1.00 20.00     0.025 C 
HETATM    9  C9  UNL     1     -33.840   8.445   4.363  1.00 20.00     0.025 C 
HETATM   10  C10 UNL     1     -34.901   4.806   4.461  1.00 20.00     0.123 C 
HETATM   11  C11 UNL     1     -34.853   7.311   4.449  1.00 20.00     0.123 C 
HETATM   12  N12 UNL     1     -31.580   5.975   0.857  1.00 20.00    -0.374 N 
HETATM   13  N13 UNL     1     -34.246   6.044   4.048  1.00 20.00    -0.380 N 
HETATM   14  H28 UNL     1     -30.934   5.959   0.068  1.00 20.00     0.164 HD
ENDROOT
TORSDOF 0
ENDMDL
MODEL 4
REMARK VINA RESULT:       5.3      1.179      3.705
REMARK  0 active torsions:
REMARK  status: ('A' for Active; 'I' for Inactive)
ROOT
HETATM    1  C1  UNL     1     -34.580   5.705   3.910  1.00 20.00     0.097 A 
HETATM    2  C2  UNL     1     -34.215   8.013   4.072  1.00 20.00     0.097 A 
HETATM    3  C3  UNL     1     -33.695   5.603   2.837  1.00 20.00    -0.016 A 
HETATM    4  C4  UNL     1     -33.318   7.983   3.004  1.00 20.00    -0.016 A 
HETATM    5  C5  UNL     1     -33.024   6.755   2.381  1.00 20.00     0.045 A 
HETATM    6  C6  UNL     1     -33.433   4.255   2.221  1.00 20.00     0.044 C 
HETATM    7  C7  UNL     1     -32.643   9.256   2.571  1.00 20.00     0.044 C 
HETATM    8  C8  UNL     1     -32.849   4.394   0.821  1.00 20.00     0.025 C 
HETATM    9  C9  UNL     1     -32.099   9.137   1.153  1.00 20.00     0.025 C 
HETATM   10  C10 UNL     1     -31.690   5.382   0.827  1.00 20.00     0.123 C 
HETATM   11  C11 UNL     1     -31.299   7.850   1.000  1.00 20.00     0.123 C 
HETATM   12  N12 UNL     1     -34.810   6.889   4.485  1.00 20.00    -0.374 N 
HETATM   13  N13 UNL     1     -32.124   6.687   1.317  1.00 20.00    -0.380 N 
HETATM   14  H28 UNL     1     -35.461   6.937   5.268  1.00 20.00     0.164 HD
ENDROOT
TORSDOF 0
ENDMDL
MODEL 5
REMARK VINA RESULT:       5.3      1.185      3.286
REMARK  0 active torsions:
REMARK  status: ('A' for Active; 'I' for Inactive)
ROOT
HETATM    1  C1  UNL     1     -33.432   8.618   3.073  1.00 20.00     0.097 A 
HETATM    2  C2  UNL     1     -34.753   7.392   4.568  1.00 20.00     0.097 A 
HETATM    3  C3  UNL     1     -32.953   7.450   2.481  1.00 20.00    -0.016 A 
HETATM    4  C4  UNL     1     -34.316   6.185   4.022  1.00 20.00    -0.016 A 
HETATM    5  C5  UNL     1     -33.417   6.201   2.938  1.00 20.00     0.045 A 
HETATM    6  C6  UNL     1     -31.990   7.548   1.327  1.00 20.00     0.044 C 
HETATM    7  C7  UNL     1     -34.854   4.890   4.568  1.00 20.00     0.044 C 
HETATM    8  C8  UNL     1     -31.231   6.240   1.132  1.00 20.00     0.025 C 
HETATM    9  C9  UNL     1     -33.948   3.720   4.205  1.00 20.00     0.025 C 
HETATM   10  C10 UNL     1     -32.198   5.064   1.121  1.00 20.00     0.123 C 
HETATM   11  C11 UNL     1     -33.612   3.752   2.720  1.00 20.00     0.123 C 
HETATM   12  N12 UNL     1     -34.303   8.554   4.083  1.00 20.00    -0.374 N 
HETATM   13  N13 UNL     1     -32.966   5.013   2.362  1.00 20.00    -0.380 N 
HETATM   14  H28 UNL     1     -34.639   9.422   4.499  1.00 20.00     0.164 HD
ENDROOT
TORSDOF 0
ENDMDL
MODEL 6
REMARK VINA RESULT:       5.7      1.179      3.248
REMARK  0 active torsions:
REMARK  status: ('A' for Active; 'I' for Inactive)
ROOT
HETATM    1  C1  UNL     1     -34.926   6.585   4.776  1.00 20.00     0.097 A 
HETATM    2  C2  UNL     1     -34.789   4.913   3.142  1.00 20.00     0.097 A 
HETATM    3  C3  UNL     1     -33.872   7.289   4.197  1.00 20.00    -0.016 A 
HETATM    4  C4  UNL     1     -33.730   5.566   2.510  1.00 20.00    -0.016 A 
HETATM    5  C5  UNL     1     -33.269   6.794   3.024  1.00 20.00     0.045 A 
HETATM    6  C6  UNL     1     -33.433   8.595   4.805  1.00 20.00     0.044 C 
HETATM    7  C7  UNL     1     -33.135   4.972   1.263  1.00 20.00     0.044 C 
HETATM    8  C8  UNL     1     -32.024   8.964   4.357  1.00 20.00     0.025 C 
HETATM    9  C9  UNL     1     -31.742   5.528   0.998  1.00 20.00     0.025 C 
HETATM   10  C10 UNL     1     -31.899   8.836   2.845  1.00 20.00     0.123 C 
HETATM   11  C11 UNL     1     -31.751   7.048   1.096  1.00 20.00     0.123 C 
HETATM   12  N12 UNL     1     -35.345   5.435   4.240  1.00 20.00    -0.374 N 
HETATM   13  N13 UNL     1     -32.218   7.479   2.412  1.00 20.00    -0.380 N 
HETATM   14  H28 UNL     1     -36.118   4.939   4.682  1.00 20.00     0.164 HD
ENDROOT
TORSDOF 0
ENDMDL
MODEL 7
REMARK VINA RESULT:       5.7      1.139      4.315
REMARK  0 active torsions:
REMARK  status: ('A' for Active; 'I' for Inactive)
ROOT
HETATM    1  C1  UNL     1     -34.244   4.287   3.677  1.00 20.00     0.097 A 
HETATM    2  C2  UNL     1     -35.173   6.260   4.531  1.00 20.00     0.097 A 
HETATM    3  C3  UNL     1     -33.386   5.006   2.847  1.00 20.00    -0.016 A 
HETATM    4  C4  UNL     1     -34.343   7.042   3.728  1.00 20.00    -0.016 A 
HETATM    5  C5  UNL     1     -33.407   6.415   2.882  1.00 20.00     0.045 A 
HETATM    6  C6  UNL     1     -32.414   4.265   1.967  1.00 20.00     0.044 C 
HETATM    7  C7  UNL     1     -34.427   8.541   3.818  1.00 20.00     0.044 C 
HETATM    8  C8  UNL     1     -31.921   5.147   0.827  1.00 20.00     0.025 C 
HETATM    9  C9  UNL     1     -33.829   9.202   2.582  1.00 20.00     0.025 C 
HETATM   10  C10 UNL     1     -31.467   6.499   1.362  1.00 20.00     0.123 C 
HETATM   11  C11 UNL     1     -32.460   8.610   2.275  1.00 20.00     0.123 C 
HETATM   12  N12 UNL     1     -35.098   4.926   4.480  1.00 20.00    -0.374 N 
HETATM   13  N13 UNL     1     -32.555   7.166   2.072  1.00 20.00    -0.380 N 
HETATM   14  H28 UNL     1     -35.715   4.377   5.079  1.00 20.00     0.164 HD
ENDROOT
TORSDOF 0
ENDMDL
MODEL 8
REMARK VINA RESULT:       5.9      1.021      1.228
REMARK  0 active torsions:
REMARK  status: ('A' for Active; 'I' for Inactive)
ROOT
HETATM    1  C1  UNL     1     -34.388   8.386   3.850  1.00 20.00     0.097 A 
HETATM    2  C2  UNL     1     -32.813   8.440   2.118  1.00 20.00     0.097 A 
HETATM    3  C3  UNL     1     -34.332   6.994   3.907  1.00 20.00    -0.016 A 
HETATM    4  C4  UNL     1     -32.707   7.050   2.120  1.00 20.00    -0.016 A 
HETATM    5  C5  UNL     1     -33.458   6.300   3.046  1.00 20.00     0.045 A 
HETATM    6  C6  UNL     1     -35.167   6.262   4.923  1.00 20.00     0.044 C 
HETATM    7  C7  UNL     1     -31.755   6.380   1.168  1.00 20.00     0.044 C 
HETATM    8  C8  UNL     1     -35.346   4.798   4.537  1.00 20.00     0.025 C 
HETATM    9  C9  UNL     1     -32.109   4.910   0.976  1.00 20.00     0.025 C 
HETATM   10  C10 UNL     1     -34.002   4.178   4.179  1.00 20.00     0.123 C 
HETATM   11  C11 UNL     1     -32.317   4.236   2.325  1.00 20.00     0.123 C 
HETATM   12  N12 UNL     1     -33.638   9.056   2.970  1.00 20.00    -0.374 N 
HETATM   13  N13 UNL     1     -33.370   4.908   3.083  1.00 20.00    -0.380 N 
HETATM   14  H28 UNL     1     -33.696  10.074   2.949  1.00 20.00     0.164 HD
ENDROOT
TORSDOF 0
ENDMDL
MODEL 9
REMARK VINA RESULT:       6.1      0.899      3.309
REMARK  0 active torsions:
REMARK  status: ('A' for Active; 'I' for Inactive)
ROOT
HETATM    1  C1  UNL     1     -31.575   7.966   0.514  1.00 20.00     0.097 A 
HETATM    2  C2  UNL     1     -32.751   9.413   1.930  1.00 20.00     0.097 A 
HETATM    3  C3  UNL     1     -32.072   6.848   1.182  1.00 20.00    -0.016 A 
HETATM    4  C4  UNL     1     -33.286   8.341   2.643  1.00 20.00    -0.016 A 
HETATM    5  C5  UNL     1     -32.968   7.024   2.254  1.00 20.00     0.045 A 
HETATM    6  C6  UNL     1     -31.685   5.472   0.709  1.00 20.00     0.044 C 
HETATM    7  C7  UNL     1     -34.234   8.609   3.780  1.00 20.00     0.044 C 
HETATM    8  C8  UNL     1     -31.915   4.432   1.799  1.00 20.00     0.025 C 
HETATM    9  C9  UNL     1     -34.332   7.406   4.711  1.00 20.00     0.025 C 
HETATM   10  C10 UNL     1     -33.309   4.586   2.392  1.00 20.00     0.123 C 
HETATM   11  C11 UNL     1     -34.567   6.133   3.908  1.00 20.00     0.123 C 
HETATM   12  N12 UNL     1     -31.923   9.196   0.903  1.00 20.00    -0.374 N 
HETATM   13  N13 UNL     1     -33.493   5.927   2.939  1.00 20.00    -0.380 N 
HETATM   14  H28 UNL     1     -31.546   9.997   0.398  1.00 20.00     0.164 HD
ENDROOT
TORSDOF 0
ENDMDL
