MODEL 1
REMARK VINA RESULT:      -1.2      0.000      0.000
REMARK  1 active torsions:
REMARK  status: ('A' for Active; 'I' for Inactive)
REMARK    1  A    between atoms: C2_2  and  C6_6 
ROOT
HETATM    1  C1  UNL     1     -33.435   7.767   3.728  1.00 20.00    -0.021 C 
HETATM    2  C2  UNL     1     -34.078   6.649   3.344  1.00 20.00    -0.061 C 
HETATM    3  C3  UNL     1     -32.254   8.380   3.033  1.00 20.00     0.037 C 
HETATM    4  C4  UNL     1     -33.691   5.800   2.159  1.00 20.00     0.108 C 
HETATM    5  C5  UNL     1     -32.005   7.882   1.615  1.00 20.00     0.078 C 
HETATM    6  S7  UNL     1     -31.998   6.072   1.569  1.00 20.00    -0.165 SA
ENDROOT
BRANCH   2   7
HETATM    7  C6  UNL     1     -35.276   6.155   4.108  1.00 20.00     0.149 C 
HETATM    8 CL8  UNL     1     -34.920   4.500   4.594  1.00 20.00    -0.126 Cl
ENDBRANCH   2   7
TORSDOF 1
ENDMDL
MODEL 2
REMARK VINA RESULT:      -0.9      1.097      1.943
REMARK  1 active torsions:
REMARK  status: ('A' for Active; 'I' for Inactive)
REMARK    1  A    between atoms: C2_2  and  C6_6 
ROOT
HETATM    1  C1  UNL     1     -33.633   5.623   2.296  1.00 20.00    -0.021 C 
HETATM    2  C2  UNL     1     -33.948   6.598   3.169  1.00 20.00    -0.061 C 
HETATM    3  C3  UNL     1     -32.517   5.673   1.294  1.00 20.00     0.037 C 
HETATM    4  C4  UNL     1     -33.244   7.928   3.261  1.00 20.00     0.108 C 
HETATM    5  C5  UNL     1     -31.475   6.758   1.536  1.00 20.00     0.078 C 
HETATM    6  S7  UNL     1     -32.275   8.361   1.791  1.00 20.00    -0.165 SA
ENDROOT
BRANCH   2   7
HETATM    7  C6  UNL     1     -35.073   6.411   4.150  1.00 20.00     0.149 C 
HETATM    8 CL8  UNL     1     -35.093   4.703   4.578  1.00 20.00    -0.126 Cl
ENDBRANCH   2   7
TORSDOF 1
ENDMDL
MODEL 3
REMARK VINA RESULT:      -0.6      2.924      4.121
REMARK  1 active torsions:
REMARK  status: ('A' for Active; 'I' for Inactive)
REMARK    1  A    between atoms: C2_2  and  C6_6 
ROOT
HETATM    1  C1  UNL     1     -32.811   6.217   1.888  1.00 20.00    -0.021 C 
HETATM    2  C2  UNL     1     -32.500   7.524   1.957  1.00 20.00    -0.061 C 
HETATM    3  C3  UNL     1     -33.754   5.493   2.804  1.00 20.00     0.037 C 
HETATM    4  C4  UNL     1     -33.026   8.479   2.999  1.00 20.00     0.108 C 
HETATM    5  C5  UNL     1     -34.667   6.386   3.634  1.00 20.00     0.078 C 
HETATM    6  S7  UNL     1     -33.706   7.671   4.473  1.00 20.00    -0.165 SA
ENDROOT
BRANCH   2   7
HETATM    7  C6  UNL     1     -31.564   8.141   0.954  1.00 20.00     0.149 C 
HETATM    8 CL8  UNL     1     -32.353   9.595   0.352  1.00 20.00    -0.126 Cl
ENDBRANCH   2   7
TORSDOF 1
ENDMDL
MODEL 4
REMARK VINA RESULT:      -0.3      2.766      3.729
REMARK  1 active torsions:
REMARK  status: ('A' for Active; 'I' for Inactive)
REMARK    1  A    between atoms: C2_2  and  C6_6 
ROOT
HETATM    1  C1  UNL     1     -33.304   8.035   2.950  1.00 20.00    -0.021 C 
HETATM    2  C2  UNL     1     -32.379   7.785   2.005  1.00 20.00    -0.061 C 
HETATM    3  C3  UNL     1     -34.183   7.012   3.606  1.00 20.00     0.037 C 
HETATM    4  C4  UNL     1     -32.096   6.426   1.418  1.00 20.00     0.108 C 
HETATM    5  C5  UNL     1     -33.742   5.565   3.424  1.00 20.00     0.078 C 
HETATM    6  S7  UNL     1     -33.419   5.213   1.678  1.00 20.00    -0.165 SA
ENDROOT
BRANCH   2   7
HETATM    7  C6  UNL     1     -31.533   8.899   1.450  1.00 20.00     0.149 C 
HETATM    8 CL8  UNL     1     -32.479   9.671   0.181  1.00 20.00    -0.126 Cl
ENDBRANCH   2   7
TORSDOF 1
ENDMDL
MODEL 5
REMARK VINA RESULT:       0.0      1.074      1.074
REMARK  1 active torsions:
REMARK  status: ('A' for Active; 'I' for Inactive)
REMARK    1  A    between atoms: C2_2  and  C6_6 
ROOT
HETATM    1  C1  UNL     1     -33.262   7.760   3.709  1.00 20.00    -0.021 C 
HETATM    2  C2  UNL     1     -33.948   6.661   3.345  1.00 20.00    -0.061 C 
HETATM    3  C3  UNL     1     -32.087   8.340   2.979  1.00 20.00     0.037 C 
HETATM    4  C4  UNL     1     -33.622   5.802   2.149  1.00 20.00     0.108 C 
HETATM    5  C5  UNL     1     -31.896   7.837   1.554  1.00 20.00     0.078 C 
HETATM    6  S7  UNL     1     -31.941   6.028   1.507  1.00 20.00    -0.165 SA
ENDROOT
BRANCH   2   7
HETATM    7  C6  UNL     1     -35.135   6.200   4.146  1.00 20.00     0.149 C 
HETATM    8 CL8  UNL     1     -36.569   6.612   3.211  1.00 20.00    -0.126 Cl
ENDBRANCH   2   7
TORSDOF 1
ENDMDL
MODEL 6
REMARK VINA RESULT:       0.2      2.471      3.737
REMARK  1 active torsions:
REMARK  status: ('A' for Active; 'I' for Inactive)
REMARK    1  A    between atoms: C2_2  and  C6_6 
ROOT
HETATM    1  C1  UNL     1     -33.448   5.129   2.749  1.00 20.00    -0.021 C 
HETATM    2  C2  UNL     1     -32.967   6.293   2.275  1.00 20.00    -0.061 C 
HETATM    3  C3  UNL     1     -34.473   4.983   3.835  1.00 20.00     0.037 C 
HETATM    4  C4  UNL     1     -33.357   7.655   2.788  1.00 20.00     0.108 C 
HETATM    5  C5  UNL     1     -35.256   6.249   4.163  1.00 20.00     0.078 C 
HETATM    6  S7  UNL     1     -34.129   7.641   4.428  1.00 20.00    -0.165 SA
ENDROOT
BRANCH   2   7
HETATM    7  C6  UNL     1     -31.963   6.305   1.155  1.00 20.00     0.149 C 
HETATM    8 CL8  UNL     1     -31.751   4.632   0.646  1.00 20.00    -0.126 Cl
ENDBRANCH   2   7
TORSDOF 1
ENDMDL
MODEL 7
REMARK VINA RESULT:       0.2      2.339      3.075
REMARK  1 active torsions:
REMARK  status: ('A' for Active; 'I' for Inactive)
REMARK    1  A    between atoms: C2_2  and  C6_6 
ROOT
HETATM    1  C1  UNL     1     -32.291   7.289   1.831  1.00 20.00    -0.021 C 
HETATM    2  C2  UNL     1     -32.702   6.008   1.856  1.00 20.00    -0.061 C 
HETATM    3  C3  UNL     1     -32.692   8.356   2.806  1.00 20.00     0.037 C 
HETATM    4  C4  UNL     1     -33.672   5.437   2.859  1.00 20.00     0.108 C 
HETATM    5  C5  UNL     1     -33.329   7.852   4.095  1.00 20.00     0.078 C 
HETATM    6  S7  UNL     1     -34.662   6.683   3.729  1.00 20.00    -0.165 SA
ENDROOT
BRANCH   2   7
HETATM    7  C6  UNL     1     -32.197   5.023   0.838  1.00 20.00     0.149 C 
HETATM    8 CL8  UNL     1     -33.596   4.484  -0.085  1.00 20.00    -0.126 Cl
ENDBRANCH   2   7
TORSDOF 1
ENDMDL
MODEL 8
REMARK VINA RESULT:       0.3      1.865      2.514
REMARK  1 active torsions:
REMARK  status: ('A' for Active; 'I' for Inactive)
REMARK    1  A    between atoms: C2_2  and  C6_6 
ROOT
HETATM    1  C1  UNL     1     -33.788   5.835   2.499  1.00 20.00    -0.021 C 
HETATM    2  C2  UNL     1     -33.636   6.972   3.202  1.00 20.00    -0.061 C 
HETATM    3  C3  UNL     1     -32.933   5.397   1.347  1.00 20.00     0.037 C 
HETATM    4  C4  UNL     1     -32.590   8.021   2.921  1.00 20.00     0.108 C 
HETATM    5  C5  UNL     1     -31.606   6.133   1.207  1.00 20.00     0.078 C 
HETATM    6  S7  UNL     1     -31.864   7.923   1.263  1.00 20.00    -0.165 SA
ENDROOT
BRANCH   2   7
HETATM    7  C6  UNL     1     -34.542   7.281   4.363  1.00 20.00     0.149 C 
HETATM    8 CL8  UNL     1     -33.643   8.346   5.438  1.00 20.00    -0.126 Cl
ENDBRANCH   2   7
TORSDOF 1
ENDMDL
MODEL 9
REMARK VINA RESULT:       0.4      2.422      3.027
REMARK  1 active torsions:
REMARK  status: ('A' for Active; 'I' for Inactive)
REMARK    1  A    between atoms: C2_2  and  C6_6 
ROOT
HETATM    1  C1  UNL     1     -33.010   5.029   2.801  1.00 20.00    -0.021 C 
HETATM    2  C2  UNL     1     -33.732   4.397   3.744  1.00 20.00    -0.061 C 
HETATM    3  C3  UNL     1     -33.160   6.468   2.403  1.00 20.00     0.037 C 
HETATM    4  C4  UNL     1     -34.845   5.028   4.541  1.00 20.00     0.108 C 
HETATM    5  C5  UNL     1     -33.943   7.334   3.383  1.00 20.00     0.078 C 
HETATM    6  S7  UNL     1     -35.516   6.545   3.810  1.00 20.00    -0.165 SA
ENDROOT
BRANCH   2   7
HETATM    7  C6  UNL     1     -33.459   2.954   4.076  1.00 20.00     0.149 C 
HETATM    8 CL8  UNL     1     -32.674   2.936   5.652  1.00 20.00    -0.126 Cl
ENDBRANCH   2   7
TORSDOF 1
ENDMDL
