MODEL 1
REMARK VINA RESULT:       0.2      0.000      0.000
REMARK  0 active torsions:
REMARK  status: ('A' for Active; 'I' for Inactive)
ROOT
HETATM    1  C1  UNL     1     -31.760   6.621   1.177  1.00 20.00     0.136 A 
HETATM    2  C2  UNL     1     -31.803   7.921   1.680  1.00 20.00     0.136 A 
HETATM    3  C3  UNL     1     -34.277   5.164   3.216  1.00 20.00     0.083 A 
HETATM    4  C4  UNL     1     -34.352   7.479   4.114  1.00 20.00     0.083 A 
HETATM    5  C5  UNL     1     -33.377   5.996   2.598  1.00 20.00     0.092 A 
HETATM    6  C6  UNL     1     -33.420   7.332   3.115  1.00 20.00     0.092 A 
HETATM    7  N7  UNL     1     -32.540   5.597   1.606  1.00 20.00    -0.257 NA
HETATM    8  N8  UNL     1     -32.629   8.343   2.670  1.00 20.00    -0.257 NA
HETATM    9  S9  UNL     1     -35.172   6.000   4.423  1.00 20.00    -0.109 SA
ENDROOT
TORSDOF 0
ENDMDL
MODEL 2
REMARK VINA RESULT:       0.2      0.026      2.047
REMARK  0 active torsions:
REMARK  status: ('A' for Active; 'I' for Inactive)
ROOT
HETATM    1  C1  UNL     1     -31.790   7.892   1.658  1.00 20.00     0.136 A 
HETATM    2  C2  UNL     1     -31.761   6.589   1.164  1.00 20.00     0.136 A 
HETATM    3  C3  UNL     1     -34.334   7.493   4.103  1.00 20.00     0.083 A 
HETATM    4  C4  UNL     1     -34.285   5.171   3.222  1.00 20.00     0.083 A 
HETATM    5  C5  UNL     1     -33.409   7.330   3.103  1.00 20.00     0.092 A 
HETATM    6  C6  UNL     1     -33.379   5.991   2.594  1.00 20.00     0.092 A 
HETATM    7  N7  UNL     1     -32.609   8.329   2.647  1.00 20.00    -0.257 NA
HETATM    8  N8  UNL     1     -32.550   5.575   1.602  1.00 20.00    -0.257 NA
HETATM    9  S9  UNL     1     -35.168   6.024   4.425  1.00 20.00    -0.109 SA
ENDROOT
TORSDOF 0
ENDMDL
MODEL 3
REMARK VINA RESULT:       0.5      2.098      3.116
REMARK  0 active torsions:
REMARK  status: ('A' for Active; 'I' for Inactive)
ROOT
HETATM    1  C1  UNL     1     -34.739   5.072   3.989  1.00 20.00     0.136 A 
HETATM    2  C2  UNL     1     -35.040   6.348   4.465  1.00 20.00     0.136 A 
HETATM    3  C3  UNL     1     -32.219   5.948   1.643  1.00 20.00     0.083 A 
HETATM    4  C4  UNL     1     -32.758   8.221   2.489  1.00 20.00     0.083 A 
HETATM    5  C5  UNL     1     -33.201   5.932   2.602  1.00 20.00     0.092 A 
HETATM    6  C6  UNL     1     -33.512   7.243   3.091  1.00 20.00     0.092 A 
HETATM    7  N7  UNL     1     -33.809   4.799   3.040  1.00 20.00    -0.257 NA
HETATM    8  N8  UNL     1     -34.448   7.494   4.044  1.00 20.00    -0.257 NA
HETATM    9  S9  UNL     1     -31.676   7.550   1.334  1.00 20.00    -0.109 SA
ENDROOT
TORSDOF 0
ENDMDL
MODEL 4
REMARK VINA RESULT:       0.5      2.096      3.720
REMARK  0 active torsions:
REMARK  status: ('A' for Active; 'I' for Inactive)
ROOT
HETATM    1  C1  UNL     1     -35.028   6.408   4.493  1.00 20.00     0.136 A 
HETATM    2  C2  UNL     1     -34.772   5.128   4.003  1.00 20.00     0.136 A 
HETATM    3  C3  UNL     1     -32.717   8.228   2.503  1.00 20.00     0.083 A 
HETATM    4  C4  UNL     1     -32.258   5.947   1.630  1.00 20.00     0.083 A 
HETATM    5  C5  UNL     1     -33.491   7.269   3.107  1.00 20.00     0.092 A 
HETATM    6  C6  UNL     1     -33.227   5.953   2.604  1.00 20.00     0.092 A 
HETATM    7  N7  UNL     1     -34.407   7.538   4.073  1.00 20.00    -0.257 NA
HETATM    8  N8  UNL     1     -33.863   4.834   3.039  1.00 20.00    -0.257 NA
HETATM    9  S9  UNL     1     -31.670   7.534   1.328  1.00 20.00    -0.109 SA
ENDROOT
TORSDOF 0
ENDMDL
MODEL 5
REMARK VINA RESULT:       2.3      2.062      3.007
REMARK  0 active torsions:
REMARK  status: ('A' for Active; 'I' for Inactive)
ROOT
HETATM    1  C1  UNL     1     -34.337   7.527   4.661  1.00 20.00     0.136 A 
HETATM    2  C2  UNL     1     -33.291   8.448   4.618  1.00 20.00     0.136 A 
HETATM    3  C3  UNL     1     -33.515   5.637   1.768  1.00 20.00     0.083 A 
HETATM    4  C4  UNL     1     -31.653   7.279   1.691  1.00 20.00     0.083 A 
HETATM    5  C5  UNL     1     -33.567   6.537   2.803  1.00 20.00     0.092 A 
HETATM    6  C6  UNL     1     -32.492   7.485   2.759  1.00 20.00     0.092 A 
HETATM    7  N7  UNL     1     -34.528   6.529   3.762  1.00 20.00    -0.257 NA
HETATM    8  N8  UNL     1     -32.319   8.476   3.672  1.00 20.00    -0.257 NA
HETATM    9  S9  UNL     1     -32.168   5.940   0.744  1.00 20.00    -0.109 SA
ENDROOT
TORSDOF 0
ENDMDL
MODEL 6
REMARK VINA RESULT:       2.4      0.995      1.085
REMARK  0 active torsions:
REMARK  status: ('A' for Active; 'I' for Inactive)
ROOT
HETATM    1  C1  UNL     1     -31.858   7.670   2.047  1.00 20.00     0.136 A 
HETATM    2  C2  UNL     1     -32.439   8.631   2.873  1.00 20.00     0.136 A 
HETATM    3  C3  UNL     1     -33.748   4.847   3.083  1.00 20.00     0.083 A 
HETATM    4  C4  UNL     1     -34.782   6.559   4.556  1.00 20.00     0.083 A 
HETATM    5  C5  UNL     1     -33.201   6.093   2.903  1.00 20.00     0.092 A 
HETATM    6  C6  UNL     1     -33.798   7.082   3.753  1.00 20.00     0.092 A 
HETATM    7  N7  UNL     1     -32.207   6.359   2.018  1.00 20.00    -0.257 NA
HETATM    8  N8  UNL     1     -33.433   8.390   3.765  1.00 20.00    -0.257 NA
HETATM    9  S9  UNL     1     -34.982   4.874   4.280  1.00 20.00    -0.109 SA
ENDROOT
TORSDOF 0
ENDMDL
MODEL 7
REMARK VINA RESULT:       2.9      2.270      3.151
REMARK  0 active torsions:
REMARK  status: ('A' for Active; 'I' for Inactive)
ROOT
HETATM    1  C1  UNL     1     -33.089   5.104   2.573  1.00 20.00     0.136 A 
HETATM    2  C2  UNL     1     -33.859   5.926   3.397  1.00 20.00     0.136 A 
HETATM    3  C3  UNL     1     -31.549   7.613   0.586  1.00 20.00     0.083 A 
HETATM    4  C4  UNL     1     -32.920   9.077   2.051  1.00 20.00     0.083 A 
HETATM    5  C5  UNL     1     -32.287   6.900   1.497  1.00 20.00     0.092 A 
HETATM    6  C6  UNL     1     -33.078   7.744   2.343  1.00 20.00     0.092 A 
HETATM    7  N7  UNL     1     -32.268   5.545   1.588  1.00 20.00    -0.257 NA
HETATM    8  N8  UNL     1     -33.894   7.280   3.325  1.00 20.00    -0.257 NA
HETATM    9  S9  UNL     1     -31.815   9.303   0.754  1.00 20.00    -0.109 SA
ENDROOT
TORSDOF 0
ENDMDL
