MODEL 1
REMARK VINA RESULT:      -2.7      0.000      0.000
REMARK  4 active torsions:
REMARK  status: ('A' for Active; 'I' for Inactive)
REMARK    1  A    between atoms: C2_2  and  C6_6 
REMARK    2  A    between atoms: C6_6  and  C8_8 
REMARK    3  A    between atoms: C7_7  and  C8_8 
REMARK    4  A    between atoms: C8_8  and  O9_9 
ROOT
HETATM    1  C1  UNL     1     -32.367   9.567   0.420  1.00 20.00    -0.111 C 
HETATM    2  C2  UNL     1     -32.230   8.676   1.213  1.00 20.00    -0.104 C 
HETATM    3  C3  UNL     1     -32.532  10.653  -0.545  1.00 20.00     0.112 C 
ENDROOT
BRANCH   2   4
HETATM    4  C6  UNL     1     -32.065   7.582   2.187  1.00 20.00     0.126 C 
BRANCH   4   5
HETATM    5  C8  UNL     1     -33.334   6.724   2.289  1.00 20.00     0.132 C 
BRANCH   5   6
HETATM    6  C7  UNL     1     -33.886   6.652   3.732  1.00 20.00     0.007 C 
HETATM    7  C4  UNL     1     -35.346   6.192   3.794  1.00 20.00     0.012 C 
HETATM    8  C5  UNL     1     -33.753   8.010   4.429  1.00 20.00     0.012 C 
ENDBRANCH   5   6
BRANCH   5   9
HETATM    9  O9  UNL     1     -33.048   5.402   1.830  1.00 20.00    -0.394 OA
HETATM   10  H23 UNL     1     -33.441   4.798   2.476  1.00 20.00     0.210 HD
ENDBRANCH   5   9
ENDBRANCH   4   5
ENDBRANCH   2   4
TORSDOF 4
ENDMDL
MODEL 2
REMARK VINA RESULT:      -2.6      0.436      1.255
REMARK  4 active torsions:
REMARK  status: ('A' for Active; 'I' for Inactive)
REMARK    1  A    between atoms: C2_2  and  C6_6 
REMARK    2  A    between atoms: C6_6  and  C8_8 
REMARK    3  A    between atoms: C7_7  and  C8_8 
REMARK    4  A    between atoms: C8_8  and  O9_9 
ROOT
HETATM    1  C1  UNL     1     -32.397   9.468   0.568  1.00 20.00    -0.111 C 
HETATM    2  C2  UNL     1     -32.284   8.540   1.322  1.00 20.00    -0.104 C 
HETATM    3  C3  UNL     1     -32.536  10.597  -0.351  1.00 20.00     0.112 C 
ENDROOT
BRANCH   2   4
HETATM    4  C6  UNL     1     -32.145   7.401   2.245  1.00 20.00     0.126 C 
BRANCH   4   5
HETATM    5  C8  UNL     1     -33.466   6.633   2.393  1.00 20.00     0.132 C 
BRANCH   5   6
HETATM    6  C7  UNL     1     -34.357   7.198   3.525  1.00 20.00     0.007 C 
HETATM    7  C4  UNL     1     -33.552   7.848   4.655  1.00 20.00     0.012 C 
HETATM    8  C5  UNL     1     -35.251   6.099   4.109  1.00 20.00     0.012 C 
ENDBRANCH   5   6
BRANCH   5   9
HETATM    9  O9  UNL     1     -33.187   5.258   2.660  1.00 20.00    -0.394 OA
HETATM   10  H23 UNL     1     -33.879   4.748   2.216  1.00 20.00     0.210 HD
ENDBRANCH   5   9
ENDBRANCH   4   5
ENDBRANCH   2   4
TORSDOF 4
ENDMDL
MODEL 3
REMARK VINA RESULT:      -2.6      2.228      5.081
REMARK  4 active torsions:
REMARK  status: ('A' for Active; 'I' for Inactive)
REMARK    1  A    between atoms: C2_2  and  C6_6 
REMARK    2  A    between atoms: C6_6  and  C8_8 
REMARK    3  A    between atoms: C7_7  and  C8_8 
REMARK    4  A    between atoms: C8_8  and  O9_9 
ROOT
HETATM    1  C1  UNL     1     -33.847   3.930   4.422  1.00 20.00    -0.111 C 
HETATM    2  C2  UNL     1     -34.413   4.946   4.122  1.00 20.00    -0.104 C 
HETATM    3  C3  UNL     1     -33.156   2.694   4.787  1.00 20.00     0.112 C 
ENDROOT
BRANCH   2   4
HETATM    4  C6  UNL     1     -35.108   6.191   3.753  1.00 20.00     0.126 C 
BRANCH   4   5
HETATM    5  C8  UNL     1     -34.113   7.325   3.467  1.00 20.00     0.132 C 
BRANCH   5   6
HETATM    6  C7  UNL     1     -32.900   6.853   2.632  1.00 20.00     0.007 C 
HETATM    7  C4  UNL     1     -32.041   8.011   2.113  1.00 20.00     0.012 C 
HETATM    8  C5  UNL     1     -33.360   5.995   1.449  1.00 20.00     0.012 C 
ENDBRANCH   5   6
BRANCH   5   9
HETATM    9  O9  UNL     1     -33.648   7.869   4.703  1.00 20.00    -0.394 OA
HETATM   10  H23 UNL     1     -34.434   8.017   5.249  1.00 20.00     0.210 HD
ENDBRANCH   5   9
ENDBRANCH   4   5
ENDBRANCH   2   4
TORSDOF 4
ENDMDL
MODEL 4
REMARK VINA RESULT:      -2.0      1.499      1.828
REMARK  4 active torsions:
REMARK  status: ('A' for Active; 'I' for Inactive)
REMARK    1  A    between atoms: C2_2  and  C6_6 
REMARK    2  A    between atoms: C6_6  and  C8_8 
REMARK    3  A    between atoms: C7_7  and  C8_8 
REMARK    4  A    between atoms: C8_8  and  O9_9 
ROOT
HETATM    1  C1  UNL     1     -32.426   8.968   0.852  1.00 20.00    -0.111 C 
HETATM    2  C2  UNL     1     -32.446   7.860   1.314  1.00 20.00    -0.104 C 
HETATM    3  C3  UNL     1     -32.403  10.317   0.288  1.00 20.00     0.112 C 
ENDROOT
BRANCH   2   4
HETATM    4  C6  UNL     1     -32.470   6.500   1.880  1.00 20.00     0.126 C 
BRANCH   4   5
HETATM    5  C8  UNL     1     -33.107   6.484   3.277  1.00 20.00     0.132 C 
BRANCH   5   6
HETATM    6  C7  UNL     1     -34.324   5.532   3.361  1.00 20.00     0.007 C 
HETATM    7  C4  UNL     1     -35.521   6.150   4.092  1.00 20.00     0.012 C 
HETATM    8  C5  UNL     1     -33.935   4.219   4.049  1.00 20.00     0.012 C 
ENDBRANCH   5   6
BRANCH   5   9
HETATM    9  O9  UNL     1     -33.522   7.806   3.622  1.00 20.00    -0.394 OA
HETATM   10  H23 UNL     1     -34.449   7.881   3.350  1.00 20.00     0.210 HD
ENDBRANCH   5   9
ENDBRANCH   4   5
ENDBRANCH   2   4
TORSDOF 4
ENDMDL
MODEL 5
REMARK VINA RESULT:      -1.5      1.153      4.289
REMARK  4 active torsions:
REMARK  status: ('A' for Active; 'I' for Inactive)
REMARK    1  A    between atoms: C2_2  and  C6_6 
REMARK    2  A    between atoms: C6_6  and  C8_8 
REMARK    3  A    between atoms: C7_7  and  C8_8 
REMARK    4  A    between atoms: C8_8  and  O9_9 
ROOT
HETATM    1  C1  UNL     1     -34.319   6.927   3.755  1.00 20.00    -0.111 C 
HETATM    2  C2  UNL     1     -33.380   7.620   3.475  1.00 20.00    -0.104 C 
HETATM    3  C3  UNL     1     -35.462   6.081   4.097  1.00 20.00     0.112 C 
ENDROOT
BRANCH   2   4
HETATM    4  C6  UNL     1     -32.227   8.471   3.131  1.00 20.00     0.126 C 
BRANCH   4   5
HETATM    5  C8  UNL     1     -31.819   8.294   1.661  1.00 20.00     0.132 C 
BRANCH   5   6
HETATM    6  C7  UNL     1     -32.678   9.149   0.700  1.00 20.00     0.007 C 
HETATM    7  C4  UNL     1     -32.211   9.069  -0.757  1.00 20.00     0.012 C 
HETATM    8  C5  UNL     1     -32.691  10.615   1.147  1.00 20.00     0.012 C 
ENDBRANCH   5   6
BRANCH   5   9
HETATM    9  O9  UNL     1     -31.940   6.918   1.299  1.00 20.00    -0.394 OA
HETATM   10  H23 UNL     1     -31.587   6.408   2.042  1.00 20.00     0.210 HD
ENDBRANCH   5   9
ENDBRANCH   4   5
ENDBRANCH   2   4
TORSDOF 4
ENDMDL
MODEL 6
REMARK VINA RESULT:      -1.2      1.495      1.816
REMARK  4 active torsions:
REMARK  status: ('A' for Active; 'I' for Inactive)
REMARK    1  A    between atoms: C2_2  and  C6_6 
REMARK    2  A    between atoms: C6_6  and  C8_8 
REMARK    3  A    between atoms: C7_7  and  C8_8 
REMARK    4  A    between atoms: C8_8  and  O9_9 
ROOT
HETATM    1  C1  UNL     1     -32.450   9.094   0.828  1.00 20.00    -0.111 C 
HETATM    2  C2  UNL     1     -32.553   8.082   1.466  1.00 20.00    -0.104 C 
HETATM    3  C3  UNL     1     -32.325  10.327   0.051  1.00 20.00     0.112 C 
ENDROOT
BRANCH   2   4
HETATM    4  C6  UNL     1     -32.680   6.841   2.250  1.00 20.00     0.126 C 
BRANCH   4   5
HETATM    5  C8  UNL     1     -33.297   7.109   3.630  1.00 20.00     0.132 C 
BRANCH   5   6
HETATM    6  C7  UNL     1     -34.213   5.956   4.103  1.00 20.00     0.007 C 
HETATM    7  C4  UNL     1     -33.841   4.602   3.490  1.00 20.00     0.012 C 
HETATM    8  C5  UNL     1     -35.681   6.267   3.787  1.00 20.00     0.012 C 
ENDBRANCH   5   6
BRANCH   5   9
HETATM    9  O9  UNL     1     -34.055   8.319   3.582  1.00 20.00    -0.394 OA
HETATM   10  H23 UNL     1     -34.812   8.144   3.004  1.00 20.00     0.210 HD
ENDBRANCH   5   9
ENDBRANCH   4   5
ENDBRANCH   2   4
TORSDOF 4
ENDMDL
MODEL 7
REMARK VINA RESULT:      -1.0      1.647      4.698
REMARK  4 active torsions:
REMARK  status: ('A' for Active; 'I' for Inactive)
REMARK    1  A    between atoms: C2_2  and  C6_6 
REMARK    2  A    between atoms: C6_6  and  C8_8 
REMARK    3  A    between atoms: C7_7  and  C8_8 
REMARK    4  A    between atoms: C8_8  and  O9_9 
ROOT
HETATM    1  C1  UNL     1     -34.392   5.967   3.495  1.00 20.00    -0.111 C 
HETATM    2  C2  UNL     1     -33.575   6.334   2.695  1.00 20.00    -0.104 C 
HETATM    3  C3  UNL     1     -35.387   5.521   4.470  1.00 20.00     0.112 C 
ENDROOT
BRANCH   2   4
HETATM    4  C6  UNL     1     -32.571   6.783   1.715  1.00 20.00     0.126 C 
BRANCH   4   5
HETATM    5  C8  UNL     1     -32.328   8.296   1.812  1.00 20.00     0.132 C 
BRANCH   5   6
HETATM    6  C7  UNL     1     -32.304   8.982   0.426  1.00 20.00     0.007 C 
HETATM    7  C4  UNL     1     -30.948   8.868  -0.278  1.00 20.00     0.012 C 
HETATM    8  C5  UNL     1     -32.686  10.462   0.550  1.00 20.00     0.012 C 
ENDBRANCH   5   6
BRANCH   5   9
HETATM    9  O9  UNL     1     -31.085   8.533   2.474  1.00 20.00    -0.394 OA
HETATM   10  H23 UNL     1     -31.211   9.325   3.016  1.00 20.00     0.210 HD
ENDBRANCH   5   9
ENDBRANCH   4   5
ENDBRANCH   2   4
TORSDOF 4
ENDMDL
MODEL 8
REMARK VINA RESULT:      -1.0      1.500      1.979
REMARK  4 active torsions:
REMARK  status: ('A' for Active; 'I' for Inactive)
REMARK    1  A    between atoms: C2_2  and  C6_6 
REMARK    2  A    between atoms: C6_6  and  C8_8 
REMARK    3  A    between atoms: C7_7  and  C8_8 
REMARK    4  A    between atoms: C8_8  and  O9_9 
ROOT
HETATM    1  C1  UNL     1     -32.516   9.566   0.409  1.00 20.00    -0.111 C 
HETATM    2  C2  UNL     1     -32.133   8.782   1.233  1.00 20.00    -0.104 C 
HETATM    3  C3  UNL     1     -32.980  10.523  -0.595  1.00 20.00     0.112 C 
ENDROOT
BRANCH   2   4
HETATM    4  C6  UNL     1     -31.666   7.819   2.246  1.00 20.00     0.126 C 
BRANCH   4   5
HETATM    5  C8  UNL     1     -32.830   7.283   3.091  1.00 20.00     0.132 C 
BRANCH   5   6
HETATM    6  C7  UNL     1     -33.551   6.091   2.417  1.00 20.00     0.007 C 
HETATM    7  C4  UNL     1     -34.114   5.082   3.424  1.00 20.00     0.012 C 
HETATM    8  C5  UNL     1     -32.609   5.367   1.449  1.00 20.00     0.012 C 
ENDBRANCH   5   6
BRANCH   5   9
HETATM    9  O9  UNL     1     -33.772   8.332   3.318  1.00 20.00    -0.394 OA
HETATM   10  H23 UNL     1     -34.544   8.129   2.770  1.00 20.00     0.210 HD
ENDBRANCH   5   9
ENDBRANCH   4   5
ENDBRANCH   2   4
TORSDOF 4
ENDMDL
MODEL 9
REMARK VINA RESULT:      -0.9      2.309      5.063
REMARK  4 active torsions:
REMARK  status: ('A' for Active; 'I' for Inactive)
REMARK    1  A    between atoms: C2_2  and  C6_6 
REMARK    2  A    between atoms: C6_6  and  C8_8 
REMARK    3  A    between atoms: C7_7  and  C8_8 
REMARK    4  A    between atoms: C8_8  and  O9_9 
ROOT
HETATM    1  C1  UNL     1     -33.565   3.166   4.351  1.00 20.00    -0.111 C 
HETATM    2  C2  UNL     1     -33.861   4.235   3.892  1.00 20.00    -0.104 C 
HETATM    3  C3  UNL     1     -33.206   1.862   4.908  1.00 20.00     0.112 C 
ENDROOT
BRANCH   2   4
HETATM    4  C6  UNL     1     -34.226   5.547   3.331  1.00 20.00     0.126 C 
BRANCH   4   5
HETATM    5  C8  UNL     1     -33.096   6.121   2.464  1.00 20.00     0.132 C 
BRANCH   5   6
HETATM    6  C7  UNL     1     -33.052   7.666   2.493  1.00 20.00     0.007 C 
HETATM    7  C4  UNL     1     -31.812   8.246   1.805  1.00 20.00     0.012 C 
HETATM    8  C5  UNL     1     -33.118   8.181   3.935  1.00 20.00     0.012 C 
ENDBRANCH   5   6
BRANCH   5   9
HETATM    9  O9  UNL     1     -33.267   5.683   1.115  1.00 20.00    -0.394 OA
HETATM   10  H23 UNL     1     -34.067   5.137   1.105  1.00 20.00     0.210 HD
ENDBRANCH   5   9
ENDBRANCH   4   5
ENDBRANCH   2   4
TORSDOF 4
ENDMDL
