MODEL 1
REMARK VINA RESULT:       0.9      0.000      0.000
REMARK  2 active torsions:
REMARK  status: ('A' for Active; 'I' for Inactive)
REMARK    1  A    between atoms: C7_7  and  C9_9 
REMARK    2  A    between atoms: C8_8  and  C10_10 
ROOT
HETATM    1  C1  UNL     1     -32.293   7.792   1.309  1.00 20.00     0.131 C 
HETATM    2  C2  UNL     1     -30.982   7.044   1.229  1.00 20.00     0.083 C 
HETATM    3  C6  UNL     1     -32.835   5.601   0.843  1.00 20.00     0.018 C 
HETATM    4  C7  UNL     1     -33.415   6.811   1.588  1.00 20.00     0.060 C 
HETATM    5  C8  UNL     1     -31.499   5.639   1.601  1.00 20.00    -0.002 C 
HETATM    6  O11 UNL     1     -32.423   9.001   1.190  1.00 20.00    -0.298 OA
ENDROOT
BRANCH   4   7
HETATM    7  C9  UNL     1     -33.328   6.335   3.047  1.00 20.00     0.001 C 
HETATM    8  C4  UNL     1     -34.323   5.281   3.520  1.00 20.00     0.006 C 
HETATM    9  C3  UNL     1     -35.458   6.046   4.192  1.00 20.00     0.001 C 
HETATM   10  C5  UNL     1     -34.801   7.294   4.771  1.00 20.00     0.005 C 
HETATM   11  C10 UNL     1     -33.634   7.628   3.847  1.00 20.00    -0.005 C 
ENDBRANCH   4   7
TORSDOF 2
ENDMDL
MODEL 2
REMARK VINA RESULT:       1.1      1.988      3.985
REMARK  2 active torsions:
REMARK  status: ('A' for Active; 'I' for Inactive)
REMARK    1  A    between atoms: C7_7  and  C9_9 
REMARK    2  A    between atoms: C8_8  and  C10_10 
ROOT
HETATM    1  C1  UNL     1     -32.960   7.536   3.346  1.00 20.00     0.131 C 
HETATM    2  C2  UNL     1     -33.723   6.290   2.955  1.00 20.00     0.083 C 
HETATM    3  C6  UNL     1     -31.725   6.527   1.681  1.00 20.00     0.018 C 
HETATM    4  C7  UNL     1     -32.033   7.934   2.213  1.00 20.00     0.060 C 
HETATM    5  C8  UNL     1     -33.206   6.153   1.508  1.00 20.00    -0.002 C 
HETATM    6  O11 UNL     1     -33.089   8.140   4.399  1.00 20.00    -0.298 OA
ENDROOT
BRANCH   4   7
HETATM    7  C9  UNL     1     -32.861   8.519   1.056  1.00 20.00     0.001 C 
HETATM    8  C4  UNL     1     -32.188   8.667  -0.304  1.00 20.00     0.006 C 
HETATM    9  C3  UNL     1     -31.696  10.108  -0.375  1.00 20.00     0.001 C 
HETATM   10  C5  UNL     1     -32.688  10.903   0.468  1.00 20.00     0.005 C 
HETATM   11  C10 UNL     1     -33.180   9.952   1.555  1.00 20.00    -0.005 C 
ENDBRANCH   4   7
TORSDOF 2
ENDMDL
MODEL 3
REMARK VINA RESULT:       2.0      1.496      2.400
REMARK  2 active torsions:
REMARK  status: ('A' for Active; 'I' for Inactive)
REMARK    1  A    between atoms: C7_7  and  C9_9 
REMARK    2  A    between atoms: C8_8  and  C10_10 
ROOT
HETATM    1  C1  UNL     1     -31.908   6.587   1.268  1.00 20.00     0.131 C 
HETATM    2  C2  UNL     1     -31.950   7.724   0.271  1.00 20.00     0.083 C 
HETATM    3  C6  UNL     1     -31.451   8.504   2.464  1.00 20.00     0.018 C 
HETATM    4  C7  UNL     1     -32.120   7.137   2.665  1.00 20.00     0.060 C 
HETATM    5  C8  UNL     1     -32.311   8.865   1.243  1.00 20.00    -0.002 C 
HETATM    6  O11 UNL     1     -31.753   5.409   0.987  1.00 20.00    -0.298 OA
ENDROOT
BRANCH   4   7
HETATM    7  C9  UNL     1     -33.593   7.546   2.836  1.00 20.00     0.001 C 
HETATM    8  C4  UNL     1     -34.014   8.178   4.158  1.00 20.00     0.006 C 
HETATM    9  C3  UNL     1     -34.582   7.044   5.004  1.00 20.00     0.001 C 
HETATM   10  C5  UNL     1     -35.181   6.067   3.999  1.00 20.00     0.005 C 
HETATM   11  C10 UNL     1     -34.338   6.190   2.733  1.00 20.00    -0.005 C 
ENDBRANCH   4   7
TORSDOF 2
ENDMDL
MODEL 4
REMARK VINA RESULT:       2.1      1.368      3.809
REMARK  2 active torsions:
REMARK  status: ('A' for Active; 'I' for Inactive)
REMARK    1  A    between atoms: C7_7  and  C9_9 
REMARK    2  A    between atoms: C8_8  and  C10_10 
ROOT
HETATM    1  C1  UNL     1     -33.753   7.512   4.494  1.00 20.00     0.131 C 
HETATM    2  C2  UNL     1     -35.253   7.669   4.379  1.00 20.00     0.083 C 
HETATM    3  C6  UNL     1     -34.579   5.420   3.988  1.00 20.00     0.018 C 
HETATM    4  C7  UNL     1     -33.321   6.265   3.747  1.00 20.00     0.060 C 
HETATM    5  C8  UNL     1     -35.533   6.487   3.429  1.00 20.00    -0.002 C 
HETATM    6  O11 UNL     1     -33.006   8.282   5.077  1.00 20.00    -0.298 OA
ENDROOT
BRANCH   4   7
HETATM    7  C9  UNL     1     -33.415   6.517   2.232  1.00 20.00     0.001 C 
HETATM    8  C4  UNL     1     -32.961   5.408   1.289  1.00 20.00     0.006 C 
HETATM    9  C3  UNL     1     -31.521   5.739   0.913  1.00 20.00     0.001 C 
HETATM   10  C5  UNL     1     -31.445   7.262   0.958  1.00 20.00     0.005 C 
HETATM   11  C10 UNL     1     -32.442   7.706   2.023  1.00 20.00    -0.005 C 
ENDBRANCH   4   7
TORSDOF 2
ENDMDL
MODEL 5
REMARK VINA RESULT:       2.6      2.100      4.151
REMARK  2 active torsions:
REMARK  status: ('A' for Active; 'I' for Inactive)
REMARK    1  A    between atoms: C7_7  and  C9_9 
REMARK    2  A    between atoms: C8_8  and  C10_10 
ROOT
HETATM    1  C1  UNL     1     -34.298   4.746   3.738  1.00 20.00     0.131 C 
HETATM    2  C2  UNL     1     -34.894   5.495   4.909  1.00 20.00     0.083 C 
HETATM    3  C6  UNL     1     -35.243   6.656   2.861  1.00 20.00     0.018 C 
HETATM    4  C7  UNL     1     -34.065   5.710   2.591  1.00 20.00     0.060 C 
HETATM    5  C8  UNL     1     -34.838   6.919   4.320  1.00 20.00    -0.002 C 
HETATM    6  O11 UNL     1     -34.025   3.555   3.728  1.00 20.00    -0.298 OA
ENDROOT
BRANCH   4   7
HETATM    7  C9  UNL     1     -32.868   6.619   2.922  1.00 20.00     0.001 C 
HETATM    8  C4  UNL     1     -33.060   8.127   2.813  1.00 20.00     0.006 C 
HETATM    9  C3  UNL     1     -32.543   8.519   1.434  1.00 20.00     0.001 C 
HETATM   10  C5  UNL     1     -31.437   7.514   1.131  1.00 20.00     0.005 C 
HETATM   11  C10 UNL     1     -31.829   6.223   1.842  1.00 20.00    -0.005 C 
ENDBRANCH   4   7
TORSDOF 2
ENDMDL
MODEL 6
REMARK VINA RESULT:       2.8      1.937      4.190
REMARK  2 active torsions:
REMARK  status: ('A' for Active; 'I' for Inactive)
REMARK    1  A    between atoms: C7_7  and  C9_9 
REMARK    2  A    between atoms: C8_8  and  C10_10 
ROOT
HETATM    1  C1  UNL     1     -34.839   6.590   4.182  1.00 20.00     0.131 C 
HETATM    2  C2  UNL     1     -34.308   7.326   5.392  1.00 20.00     0.083 C 
HETATM    3  C6  UNL     1     -34.196   8.672   3.432  1.00 20.00     0.018 C 
HETATM    4  C7  UNL     1     -34.283   7.227   2.923  1.00 20.00     0.060 C 
HETATM    5  C8  UNL     1     -33.358   8.301   4.666  1.00 20.00    -0.002 C 
HETATM    6  O11 UNL     1     -35.580   5.620   4.217  1.00 20.00    -0.298 OA
ENDROOT
BRANCH   4   7
HETATM    7  C9  UNL     1     -32.795   6.867   2.782  1.00 20.00     0.001 C 
HETATM    8  C4  UNL     1     -31.916   7.769   1.921  1.00 20.00     0.006 C 
HETATM    9  C3  UNL     1     -31.858   7.111   0.547  1.00 20.00     0.001 C 
HETATM   10  C5  UNL     1     -31.985   5.617   0.822  1.00 20.00     0.005 C 
HETATM   11  C10 UNL     1     -32.842   5.487   2.077  1.00 20.00    -0.005 C 
ENDBRANCH   4   7
TORSDOF 2
ENDMDL
MODEL 7
REMARK VINA RESULT:       2.8      1.840      4.006
REMARK  2 active torsions:
REMARK  status: ('A' for Active; 'I' for Inactive)
REMARK    1  A    between atoms: C7_7  and  C9_9 
REMARK    2  A    between atoms: C8_8  and  C10_10 
ROOT
HETATM    1  C1  UNL     1     -33.139   5.728   2.100  1.00 20.00     0.131 C 
HETATM    2  C2  UNL     1     -33.199   5.662   3.609  1.00 20.00     0.083 C 
HETATM    3  C6  UNL     1     -34.702   7.294   2.746  1.00 20.00     0.018 C 
HETATM    4  C7  UNL     1     -33.668   7.071   1.634  1.00 20.00     0.060 C 
HETATM    5  C8  UNL     1     -33.683   7.101   3.880  1.00 20.00    -0.002 C 
HETATM    6  O11 UNL     1     -32.710   4.846   1.372  1.00 20.00    -0.298 OA
ENDROOT
BRANCH   4   7
HETATM    7  C9  UNL     1     -32.638   8.167   1.959  1.00 20.00     0.001 C 
HETATM    8  C4  UNL     1     -32.993   9.610   1.619  1.00 20.00     0.006 C 
HETATM    9  C3  UNL     1     -32.362   9.890   0.260  1.00 20.00     0.001 C 
HETATM   10  C5  UNL     1     -31.115   9.013   0.219  1.00 20.00     0.005 C 
HETATM   11  C10 UNL     1     -31.435   7.781   1.060  1.00 20.00    -0.005 C 
ENDBRANCH   4   7
TORSDOF 2
ENDMDL
MODEL 8
REMARK VINA RESULT:       2.8      1.554      2.888
REMARK  2 active torsions:
REMARK  status: ('A' for Active; 'I' for Inactive)
REMARK    1  A    between atoms: C7_7  and  C9_9 
REMARK    2  A    between atoms: C8_8  and  C10_10 
ROOT
HETATM    1  C1  UNL     1     -31.501   8.671   0.425  1.00 20.00     0.131 C 
HETATM    2  C2  UNL     1     -32.343   9.926   0.373  1.00 20.00     0.083 C 
HETATM    3  C6  UNL     1     -32.004   9.194   2.613  1.00 20.00     0.018 C 
HETATM    4  C7  UNL     1     -31.744   7.958   1.741  1.00 20.00     0.060 C 
HETATM    5  C8  UNL     1     -33.111   9.739   1.697  1.00 20.00    -0.002 C 
HETATM    6  O11 UNL     1     -30.761   8.282  -0.465  1.00 20.00    -0.298 OA
ENDROOT
BRANCH   4   7
HETATM    7  C9  UNL     1     -33.137   7.306   1.720  1.00 20.00     0.001 C 
HETATM    8  C4  UNL     1     -33.961   7.331   3.003  1.00 20.00     0.006 C 
HETATM    9  C3  UNL     1     -33.715   5.991   3.687  1.00 20.00     0.001 C 
HETATM   10  C5  UNL     1     -33.462   5.010   2.547  1.00 20.00     0.005 C 
HETATM   11  C10 UNL     1     -32.814   5.818   1.428  1.00 20.00    -0.005 C 
ENDBRANCH   4   7
TORSDOF 2
ENDMDL
MODEL 9
REMARK VINA RESULT:       2.9      1.544      2.691
REMARK  2 active torsions:
REMARK  status: ('A' for Active; 'I' for Inactive)
REMARK    1  A    between atoms: C7_7  and  C9_9 
REMARK    2  A    between atoms: C8_8  and  C10_10 
ROOT
HETATM    1  C1  UNL     1     -32.188   7.883   2.264  1.00 20.00     0.131 C 
HETATM    2  C2  UNL     1     -33.133   8.990   1.853  1.00 20.00     0.083 C 
HETATM    3  C6  UNL     1     -33.472   8.349   4.121  1.00 20.00     0.018 C 
HETATM    4  C7  UNL     1     -32.758   7.158   3.469  1.00 20.00     0.060 C 
HETATM    5  C8  UNL     1     -34.269   8.702   2.856  1.00 20.00    -0.002 C 
HETATM    6  O11 UNL     1     -31.143   7.602   1.699  1.00 20.00    -0.298 OA
ENDROOT
BRANCH   4   7
HETATM    7  C9  UNL     1     -33.953   6.296   3.029  1.00 20.00     0.001 C 
HETATM    8  C4  UNL     1     -35.153   6.201   3.964  1.00 20.00     0.006 C 
HETATM    9  C3  UNL     1     -34.959   4.922   4.770  1.00 20.00     0.001 C 
HETATM   10  C5  UNL     1     -34.199   3.984   3.839  1.00 20.00     0.005 C 
HETATM   11  C10 UNL     1     -33.338   4.874   2.949  1.00 20.00    -0.005 C 
ENDBRANCH   4   7
TORSDOF 2
ENDMDL
