MODEL 1
REMARK VINA RESULT:      -2.4      0.000      0.000
REMARK  2 active torsions:
REMARK  status: ('A' for Active; 'I' for Inactive)
REMARK    1  A    between atoms: C1_1  and  C4_4 
REMARK    2  A    between atoms: C1_1  and  C5_5 
ROOT
HETATM    1  C2  UNL     1     -34.551   5.722   4.037  1.00 20.00     0.055 A 
HETATM    2  C3  UNL     1     -35.336   6.829   3.397  1.00 20.00     0.055 A 
HETATM    3  C4  UNL     1     -33.846   6.963   3.562  1.00 20.00     0.164 A 
HETATM    4  F7  UNL     1     -33.431   7.835   4.563  1.00 20.00    -0.235 F 
ENDROOT
BRANCH   3   5
HETATM    5  C1  UNL     1     -32.974   6.900   2.385  1.00 20.00     0.179 C 
HETATM    6  O6  UNL     1     -33.048   5.957   1.600  1.00 20.00    -0.293 OA
BRANCH   5   7
HETATM    7  C5  UNL     1     -32.008   8.051   2.223  1.00 20.00     0.196 C 
HETATM    8 CL8  UNL     1     -32.441   9.038   0.820  1.00 20.00    -0.122 Cl
ENDBRANCH   5   7
ENDBRANCH   3   5
TORSDOF 2
ENDMDL
MODEL 2
REMARK VINA RESULT:      -2.3      3.377      3.899
REMARK  2 active torsions:
REMARK  status: ('A' for Active; 'I' for Inactive)
REMARK    1  A    between atoms: C1_1  and  C4_4 
REMARK    2  A    between atoms: C1_1  and  C5_5 
ROOT
HETATM    1  C2  UNL     1     -33.730   7.033   3.010  1.00 20.00     0.055 A 
HETATM    2  C3  UNL     1     -34.117   7.505   4.381  1.00 20.00     0.055 A 
HETATM    3  C4  UNL     1     -34.897   6.401   3.719  1.00 20.00     0.164 A 
HETATM    4  F7  UNL     1     -36.153   6.759   3.240  1.00 20.00    -0.235 F 
ENDROOT
BRANCH   3   5
HETATM    5  C1  UNL     1     -34.787   5.029   4.223  1.00 20.00     0.179 C 
HETATM    6  O6  UNL     1     -35.611   4.586   5.020  1.00 20.00    -0.293 OA
BRANCH   5   7
HETATM    7  C5  UNL     1     -33.614   4.231   3.701  1.00 20.00     0.196 C 
HETATM    8 CL8  UNL     1     -33.177   2.946   4.837  1.00 20.00    -0.122 Cl
ENDBRANCH   5   7
ENDBRANCH   3   5
TORSDOF 2
ENDMDL
MODEL 3
REMARK VINA RESULT:      -2.0      2.200      3.372
REMARK  2 active torsions:
REMARK  status: ('A' for Active; 'I' for Inactive)
REMARK    1  A    between atoms: C1_1  and  C4_4 
REMARK    2  A    between atoms: C1_1  and  C5_5 
ROOT
HETATM    1  C2  UNL     1     -32.399   8.845   1.147  1.00 20.00     0.055 A 
HETATM    2  C3  UNL     1     -31.353   7.769   1.133  1.00 20.00     0.055 A 
HETATM    3  C4  UNL     1     -32.202   7.975   2.359  1.00 20.00     0.164 A 
HETATM    4  F7  UNL     1     -31.562   8.584   3.434  1.00 20.00    -0.235 F 
ENDROOT
BRANCH   3   5
HETATM    5  C1  UNL     1     -33.218   6.981   2.715  1.00 20.00     0.179 C 
HETATM    6  O6  UNL     1     -33.299   5.919   2.101  1.00 20.00    -0.293 OA
BRANCH   5   7
HETATM    7  C5  UNL     1     -34.131   7.358   3.860  1.00 20.00     0.196 C 
HETATM    8 CL8  UNL     1     -35.406   6.148   4.066  1.00 20.00    -0.122 Cl
ENDBRANCH   5   7
ENDBRANCH   3   5
TORSDOF 2
ENDMDL
MODEL 4
REMARK VINA RESULT:      -1.9      1.698      1.853
REMARK  2 active torsions:
REMARK  status: ('A' for Active; 'I' for Inactive)
REMARK    1  A    between atoms: C1_1  and  C4_4 
REMARK    2  A    between atoms: C1_1  and  C5_5 
ROOT
HETATM    1  C2  UNL     1     -34.590   5.692   4.123  1.00 20.00     0.055 A 
HETATM    2  C3  UNL     1     -35.460   6.764   3.534  1.00 20.00     0.055 A 
HETATM    3  C4  UNL     1     -33.981   6.997   3.686  1.00 20.00     0.164 A 
HETATM    4  F7  UNL     1     -33.614   7.859   4.715  1.00 20.00    -0.235 F 
ENDROOT
BRANCH   3   5
HETATM    5  C1  UNL     1     -33.125   7.040   2.498  1.00 20.00     0.179 C 
HETATM    6  O6  UNL     1     -32.409   8.015   2.276  1.00 20.00    -0.293 OA
BRANCH   5   7
HETATM    7  C5  UNL     1     -33.193   5.829   1.596  1.00 20.00     0.196 C 
HETATM    8 CL8  UNL     1     -31.569   5.229   1.230  1.00 20.00    -0.122 Cl
ENDBRANCH   5   7
ENDBRANCH   3   5
TORSDOF 2
ENDMDL
MODEL 5
REMARK VINA RESULT:      -1.8      2.760      3.637
REMARK  2 active torsions:
REMARK  status: ('A' for Active; 'I' for Inactive)
REMARK    1  A    between atoms: C1_1  and  C4_4 
REMARK    2  A    between atoms: C1_1  and  C5_5 
ROOT
HETATM    1  C2  UNL     1     -31.603   7.821   2.181  1.00 20.00     0.055 A 
HETATM    2  C3  UNL     1     -32.793   8.360   1.443  1.00 20.00     0.055 A 
HETATM    3  C4  UNL     1     -32.942   7.150   2.326  1.00 20.00     0.164 A 
HETATM    4  F7  UNL     1     -33.077   5.936   1.659  1.00 20.00    -0.235 F 
ENDROOT
BRANCH   3   5
HETATM    5  C1  UNL     1     -33.678   7.257   3.588  1.00 20.00     0.179 C 
HETATM    6  O6  UNL     1     -33.275   7.991   4.488  1.00 20.00    -0.293 OA
BRANCH   5   7
HETATM    7  C5  UNL     1     -34.930   6.416   3.690  1.00 20.00     0.196 C 
HETATM    8 CL8  UNL     1     -34.538   4.771   4.211  1.00 20.00    -0.122 Cl
ENDBRANCH   5   7
ENDBRANCH   3   5
TORSDOF 2
ENDMDL
MODEL 6
REMARK VINA RESULT:      -1.6      2.538      3.136
REMARK  2 active torsions:
REMARK  status: ('A' for Active; 'I' for Inactive)
REMARK    1  A    between atoms: C1_1  and  C4_4 
REMARK    2  A    between atoms: C1_1  and  C5_5 
ROOT
HETATM    1  C2  UNL     1     -31.952   5.456   1.244  1.00 20.00     0.055 A 
HETATM    2  C3  UNL     1     -33.389   5.558   0.825  1.00 20.00     0.055 A 
HETATM    3  C4  UNL     1     -33.002   5.839   2.252  1.00 20.00     0.164 A 
HETATM    4  F7  UNL     1     -33.338   4.849   3.170  1.00 20.00    -0.235 F 
ENDROOT
BRANCH   3   5
HETATM    5  C1  UNL     1     -33.054   7.211   2.763  1.00 20.00     0.179 C 
HETATM    6  O6  UNL     1     -32.377   8.099   2.248  1.00 20.00    -0.293 OA
BRANCH   5   7
HETATM    7  C5  UNL     1     -33.976   7.438   3.939  1.00 20.00     0.196 C 
HETATM    8 CL8  UNL     1     -35.427   6.434   3.798  1.00 20.00    -0.122 Cl
ENDBRANCH   5   7
ENDBRANCH   3   5
TORSDOF 2
ENDMDL
MODEL 7
REMARK VINA RESULT:      -1.5      2.546      3.418
REMARK  2 active torsions:
REMARK  status: ('A' for Active; 'I' for Inactive)
REMARK    1  A    between atoms: C1_1  and  C4_4 
REMARK    2  A    between atoms: C1_1  and  C5_5 
ROOT
HETATM    1  C2  UNL     1     -31.619   8.458   2.469  1.00 20.00     0.055 A 
HETATM    2  C3  UNL     1     -32.442   8.534   1.217  1.00 20.00     0.055 A 
HETATM    3  C4  UNL     1     -32.160   7.198   1.849  1.00 20.00     0.164 A 
HETATM    4  F7  UNL     1     -31.224   6.409   1.188  1.00 20.00    -0.235 F 
ENDROOT
BRANCH   3   5
HETATM    5  C1  UNL     1     -33.240   6.465   2.515  1.00 20.00     0.179 C 
HETATM    6  O6  UNL     1     -33.508   5.310   2.188  1.00 20.00    -0.293 OA
BRANCH   5   7
HETATM    7  C5  UNL     1     -33.975   7.220   3.598  1.00 20.00     0.196 C 
HETATM    8 CL8  UNL     1     -35.415   6.329   4.115  1.00 20.00    -0.122 Cl
ENDBRANCH   5   7
ENDBRANCH   3   5
TORSDOF 2
ENDMDL
MODEL 8
REMARK VINA RESULT:      -1.5      2.033      2.501
REMARK  2 active torsions:
REMARK  status: ('A' for Active; 'I' for Inactive)
REMARK    1  A    between atoms: C1_1  and  C4_4 
REMARK    2  A    between atoms: C1_1  and  C5_5 
ROOT
HETATM    1  C2  UNL     1     -31.954   5.284   1.129  1.00 20.00     0.055 A 
HETATM    2  C3  UNL     1     -33.355   5.544   0.659  1.00 20.00     0.055 A 
HETATM    3  C4  UNL     1     -32.968   5.862   2.078  1.00 20.00     0.164 A 
HETATM    4  F7  UNL     1     -33.454   4.983   3.041  1.00 20.00    -0.235 F 
ENDROOT
BRANCH   3   5
HETATM    5  C1  UNL     1     -32.853   7.259   2.506  1.00 20.00     0.179 C 
HETATM    6  O6  UNL     1     -33.617   7.721   3.351  1.00 20.00    -0.293 OA
BRANCH   5   7
HETATM    7  C5  UNL     1     -31.755   8.059   1.843  1.00 20.00     0.196 C 
HETATM    8 CL8  UNL     1     -32.437   9.258   0.735  1.00 20.00    -0.122 Cl
ENDBRANCH   5   7
ENDBRANCH   3   5
TORSDOF 2
ENDMDL
MODEL 9
REMARK VINA RESULT:      -1.4      3.011      3.955
REMARK  2 active torsions:
REMARK  status: ('A' for Active; 'I' for Inactive)
REMARK    1  A    between atoms: C1_1  and  C4_4 
REMARK    2  A    between atoms: C1_1  and  C5_5 
ROOT
HETATM    1  C2  UNL     1     -32.432  10.309   0.763  1.00 20.00     0.055 A 
HETATM    2  C3  UNL     1     -32.927   9.410  -0.332  1.00 20.00     0.055 A 
HETATM    3  C4  UNL     1     -31.879   8.916   0.628  1.00 20.00     0.164 A 
HETATM    4  F7  UNL     1     -30.588   8.833   0.115  1.00 20.00    -0.235 F 
ENDROOT
BRANCH   3   5
HETATM    5  C1  UNL     1     -32.225   7.896   1.622  1.00 20.00     0.179 C 
HETATM    6  O6  UNL     1     -32.248   6.705   1.315  1.00 20.00    -0.293 OA
BRANCH   5   7
HETATM    7  C5  UNL     1     -32.541   8.410   3.007  1.00 20.00     0.196 C 
HETATM    8 CL8  UNL     1     -33.867   7.486   3.730  1.00 20.00    -0.122 Cl
ENDBRANCH   5   7
ENDBRANCH   3   5
TORSDOF 2
ENDMDL
