MODEL 1
REMARK VINA RESULT:      -0.8      0.000      0.000
REMARK  0 active torsions:
REMARK  status: ('A' for Active; 'I' for Inactive)
ROOT
HETATM    1  C1  UNL     1     -32.724   5.894   1.492  1.00 20.00     0.064 C 
HETATM    2  C2  UNL     1     -33.490   5.560   2.768  1.00 20.00     0.170 C 
HETATM    3  C3  UNL     1     -33.359   7.725   3.726  1.00 20.00     0.205 C 
HETATM    4  C4  UNL     1     -31.905   7.133   1.670  1.00 20.00     0.258 A 
HETATM    5  C5  UNL     1     -32.250   8.078   2.790  1.00 20.00     0.277 A 
HETATM    6  N6  UNL     1     -32.545   8.425   1.409  1.00 20.00     0.099 N 
HETATM    7  O7  UNL     1     -34.224   6.709   3.198  1.00 20.00    -0.389 OA
HETATM    8  H16 UNL     1     -31.855   9.088   1.059  1.00 20.00     0.317 HD
ENDROOT
TORSDOF 0
ENDMDL
MODEL 2
REMARK VINA RESULT:      -0.7      1.849      2.431
REMARK  0 active torsions:
REMARK  status: ('A' for Active; 'I' for Inactive)
ROOT
HETATM    1  C1  UNL     1     -32.352   6.426   1.657  1.00 20.00     0.064 C 
HETATM    2  C2  UNL     1     -32.357   7.885   2.102  1.00 20.00     0.170 C 
HETATM    3  C3  UNL     1     -33.899   7.611   3.882  1.00 20.00     0.205 C 
HETATM    4  C4  UNL     1     -33.568   5.712   2.158  1.00 20.00     0.258 A 
HETATM    5  C5  UNL     1     -34.336   6.302   3.310  1.00 20.00     0.277 A 
HETATM    6  N6  UNL     1     -33.515   5.117   3.496  1.00 20.00     0.099 N 
HETATM    7  O7  UNL     1     -32.554   7.952   3.515  1.00 20.00    -0.389 OA
HETATM    8  H16 UNL     1     -34.102   4.285   3.528  1.00 20.00     0.317 HD
ENDROOT
TORSDOF 0
ENDMDL
MODEL 3
REMARK VINA RESULT:      -0.7      1.091      2.078
REMARK  0 active torsions:
REMARK  status: ('A' for Active; 'I' for Inactive)
ROOT
HETATM    1  C1  UNL     1     -33.845   7.585   3.841  1.00 20.00     0.064 C 
HETATM    2  C2  UNL     1     -34.385   6.200   3.499  1.00 20.00     0.170 C 
HETATM    3  C3  UNL     1     -32.925   5.793   1.677  1.00 20.00     0.205 C 
HETATM    4  C4  UNL     1     -33.102   8.169   2.682  1.00 20.00     0.258 A 
HETATM    5  C5  UNL     1     -32.609   7.250   1.596  1.00 20.00     0.277 A 
HETATM    6  N6  UNL     1     -31.679   7.846   2.542  1.00 20.00     0.099 N 
HETATM    7  O7  UNL     1     -33.325   5.387   2.994  1.00 20.00    -0.389 OA
HETATM    8  H16 UNL     1     -31.189   8.627   2.107  1.00 20.00     0.317 HD
ENDROOT
TORSDOF 0
ENDMDL
MODEL 4
REMARK VINA RESULT:      -0.4      1.635      2.224
REMARK  0 active torsions:
REMARK  status: ('A' for Active; 'I' for Inactive)
ROOT
HETATM    1  C1  UNL     1     -33.797   5.810   2.999  1.00 20.00     0.064 C 
HETATM    2  C2  UNL     1     -33.056   5.754   1.668  1.00 20.00     0.170 C 
HETATM    3  C3  UNL     1     -32.073   7.905   1.824  1.00 20.00     0.205 C 
HETATM    4  C4  UNL     1     -33.955   7.224   3.463  1.00 20.00     0.258 A 
HETATM    5  C5  UNL     1     -33.055   8.283   2.885  1.00 20.00     0.277 A 
HETATM    6  N6  UNL     1     -32.868   7.815   4.249  1.00 20.00     0.099 N 
HETATM    7  O7  UNL     1     -31.836   6.491   1.770  1.00 20.00    -0.389 OA
HETATM    8  H16 UNL     1     -33.248   8.494   4.907  1.00 20.00     0.317 HD
ENDROOT
TORSDOF 0
ENDMDL
MODEL 5
REMARK VINA RESULT:      -0.4      1.458      2.350
REMARK  0 active torsions:
REMARK  status: ('A' for Active; 'I' for Inactive)
ROOT
HETATM    1  C1  UNL     1     -34.108   6.323   3.347  1.00 20.00     0.064 C 
HETATM    2  C2  UNL     1     -33.453   7.657   3.689  1.00 20.00     0.170 C 
HETATM    3  C3  UNL     1     -31.898   7.650   1.899  1.00 20.00     0.205 C 
HETATM    4  C4  UNL     1     -33.220   5.501   2.469  1.00 20.00     0.258 A 
HETATM    5  C5  UNL     1     -32.114   6.185   1.710  1.00 20.00     0.277 A 
HETATM    6  N6  UNL     1     -33.302   5.708   1.020  1.00 20.00     0.099 N 
HETATM    7  O7  UNL     1     -33.033   8.304   2.486  1.00 20.00    -0.389 OA
HETATM    8  H16 UNL     1     -33.099   4.835   0.535  1.00 20.00     0.317 HD
ENDROOT
TORSDOF 0
ENDMDL
MODEL 6
REMARK VINA RESULT:      -0.4      1.843      2.934
REMARK  0 active torsions:
REMARK  status: ('A' for Active; 'I' for Inactive)
ROOT
HETATM    1  C1  UNL     1     -33.371   8.181   3.110  1.00 20.00     0.064 C 
HETATM    2  C2  UNL     1     -32.396   7.403   2.232  1.00 20.00     0.170 C 
HETATM    3  C3  UNL     1     -33.383   5.274   2.568  1.00 20.00     0.205 C 
HETATM    4  C4  UNL     1     -34.077   7.269   4.062  1.00 20.00     0.258 A 
HETATM    5  C5  UNL     1     -34.107   5.793   3.767  1.00 20.00     0.277 A 
HETATM    6  N6  UNL     1     -35.300   6.606   3.602  1.00 20.00     0.099 N 
HETATM    7  O7  UNL     1     -33.077   6.307   1.619  1.00 20.00    -0.389 OA
HETATM    8  H16 UNL     1     -35.933   6.464   4.388  1.00 20.00     0.317 HD
ENDROOT
TORSDOF 0
ENDMDL
MODEL 7
REMARK VINA RESULT:       0.0      1.701      2.202
REMARK  0 active torsions:
REMARK  status: ('A' for Active; 'I' for Inactive)
ROOT
HETATM    1  C1  UNL     1     -34.089   4.398   3.599  1.00 20.00     0.064 C 
HETATM    2  C2  UNL     1     -35.059   5.098   4.545  1.00 20.00     0.170 C 
HETATM    3  C3  UNL     1     -34.559   7.307   3.846  1.00 20.00     0.205 C 
HETATM    4  C4  UNL     1     -33.038   5.346   3.114  1.00 20.00     0.258 A 
HETATM    5  C5  UNL     1     -33.293   6.826   3.215  1.00 20.00     0.277 A 
HETATM    6  N6  UNL     1     -33.333   6.153   1.927  1.00 20.00     0.099 N 
HETATM    7  O7  UNL     1     -35.560   6.282   3.923  1.00 20.00    -0.389 OA
HETATM    8  H16 UNL     1     -32.473   6.333   1.410  1.00 20.00     0.317 HD
ENDROOT
TORSDOF 0
ENDMDL
MODEL 8
REMARK VINA RESULT:       0.1      2.156      2.958
REMARK  0 active torsions:
REMARK  status: ('A' for Active; 'I' for Inactive)
ROOT
HETATM    1  C1  UNL     1     -35.071   5.185   4.584  1.00 20.00     0.064 C 
HETATM    2  C2  UNL     1     -34.245   4.207   3.755  1.00 20.00     0.170 C 
HETATM    3  C3  UNL     1     -33.119   5.844   2.462  1.00 20.00     0.205 C 
HETATM    4  C4  UNL     1     -35.155   6.518   3.909  1.00 20.00     0.258 A 
HETATM    5  C5  UNL     1     -34.142   6.862   2.850  1.00 20.00     0.277 A 
HETATM    6  N6  UNL     1     -34.085   7.486   4.162  1.00 20.00     0.099 N 
HETATM    7  O7  UNL     1     -32.985   4.799   3.436  1.00 20.00    -0.389 OA
HETATM    8  H16 UNL     1     -34.458   8.434   4.116  1.00 20.00     0.317 HD
ENDROOT
TORSDOF 0
ENDMDL
MODEL 9
REMARK VINA RESULT:       1.9      2.491      3.502
REMARK  0 active torsions:
REMARK  status: ('A' for Active; 'I' for Inactive)
ROOT
HETATM    1  C1  UNL     1     -35.161   5.934   4.252  1.00 20.00     0.064 C 
HETATM    2  C2  UNL     1     -34.419   7.031   3.496  1.00 20.00     0.170 C 
HETATM    3  C3  UNL     1     -32.754   5.625   2.562  1.00 20.00     0.205 C 
HETATM    4  C4  UNL     1     -34.288   4.734   4.446  1.00 20.00     0.258 A 
HETATM    5  C5  UNL     1     -33.080   4.565   3.564  1.00 20.00     0.277 A 
HETATM    6  N6  UNL     1     -34.254   3.728   3.380  1.00 20.00     0.099 N 
HETATM    7  O7  UNL     1     -33.866   6.490   2.294  1.00 20.00    -0.389 OA
HETATM    8  H16 UNL     1     -34.094   2.805   3.782  1.00 20.00     0.317 HD
ENDROOT
TORSDOF 0
ENDMDL
