MODEL 1
REMARK VINA RESULT:      -2.6      0.000      0.000
REMARK  3 active torsions:
REMARK  status: ('A' for Active; 'I' for Inactive)
REMARK    1  A    between atoms: C2_2  and  C6_6 
REMARK    2  A    between atoms: C3_3  and  C6_6 
REMARK    3  A    between atoms: C3_3  and  C7_7 
ROOT
HETATM    1  C3  UNL     1     -32.173   8.025   1.872  1.00 20.00     0.240 C 
HETATM    2  O8  UNL     1     -31.428   8.249   2.826  1.00 20.00    -0.287 OA
ENDROOT
BRANCH   1   3
HETATM    3  C6  UNL     1     -33.130   6.837   1.844  1.00 20.00     0.088 C 
HETATM    4  C5  UNL     1     -32.337   5.613   1.383  1.00 20.00     0.023 C 
BRANCH   3   5
HETATM    5  C2  UNL     1     -33.817   6.743   3.194  1.00 20.00    -0.082 C 
HETATM    6  C1  UNL     1     -34.063   7.791   3.996  1.00 20.00     0.014 C 
HETATM    7  C4  UNL     1     -34.253   5.360   3.605  1.00 20.00     0.043 C 
ENDBRANCH   3   5
ENDBRANCH   1   3
BRANCH   1   8
HETATM    8  C7  UNL     1     -32.195   8.939   0.678  1.00 20.00     0.451 C 
HETATM    9  F9  UNL     1     -32.512  10.212   1.025  1.00 20.00    -0.163 F 
HETATM   10  F10 UNL     1     -33.103   8.547  -0.249  1.00 20.00    -0.163 F 
HETATM   11  F11 UNL     1     -30.990   8.986   0.056  1.00 20.00    -0.163 F 
ENDBRANCH   1   8
TORSDOF 3
ENDMDL
MODEL 2
REMARK VINA RESULT:      -2.6      0.066      1.151
REMARK  3 active torsions:
REMARK  status: ('A' for Active; 'I' for Inactive)
REMARK    1  A    between atoms: C2_2  and  C6_6 
REMARK    2  A    between atoms: C3_3  and  C6_6 
REMARK    3  A    between atoms: C3_3  and  C7_7 
ROOT
HETATM    1  C3  UNL     1     -32.161   8.071   1.861  1.00 20.00     0.240 C 
HETATM    2  O8  UNL     1     -31.399   8.282   2.804  1.00 20.00    -0.287 OA
ENDROOT
BRANCH   1   3
HETATM    3  C6  UNL     1     -33.135   6.896   1.845  1.00 20.00     0.088 C 
HETATM    4  C5  UNL     1     -32.365   5.661   1.376  1.00 20.00     0.023 C 
BRANCH   3   5
HETATM    5  C2  UNL     1     -33.808   6.812   3.202  1.00 20.00    -0.082 C 
HETATM    6  C1  UNL     1     -34.002   7.860   4.020  1.00 20.00     0.014 C 
HETATM    7  C4  UNL     1     -34.292   5.442   3.604  1.00 20.00     0.043 C 
ENDBRANCH   3   5
ENDBRANCH   1   3
BRANCH   1   8
HETATM    8  C7  UNL     1     -32.189   8.988   0.669  1.00 20.00     0.451 C 
HETATM    9  F9  UNL     1     -30.997   9.005   0.022  1.00 20.00    -0.163 F 
HETATM   10  F10 UNL     1     -32.466  10.269   1.017  1.00 20.00    -0.163 F 
HETATM   11  F11 UNL     1     -33.127   8.612  -0.235  1.00 20.00    -0.163 F 
ENDBRANCH   1   8
TORSDOF 3
ENDMDL
MODEL 3
REMARK VINA RESULT:      -2.0      1.599      2.439
REMARK  3 active torsions:
REMARK  status: ('A' for Active; 'I' for Inactive)
REMARK    1  A    between atoms: C2_2  and  C6_6 
REMARK    2  A    between atoms: C3_3  and  C6_6 
REMARK    3  A    between atoms: C3_3  and  C7_7 
ROOT
HETATM    1  C3  UNL     1     -32.898   6.828   2.243  1.00 20.00     0.240 C 
HETATM    2  O8  UNL     1     -33.238   5.996   1.401  1.00 20.00    -0.287 OA
ENDROOT
BRANCH   1   3
HETATM    3  C6  UNL     1     -33.363   6.758   3.695  1.00 20.00     0.088 C 
HETATM    4  C5  UNL     1     -33.916   8.134   4.072  1.00 20.00     0.023 C 
BRANCH   3   5
HETATM    5  C2  UNL     1     -34.303   5.576   3.841  1.00 20.00    -0.082 C 
HETATM    6  C1  UNL     1     -33.907   4.295   3.919  1.00 20.00     0.014 C 
HETATM    7  C4  UNL     1     -35.769   5.918   3.919  1.00 20.00     0.043 C 
ENDBRANCH   3   5
ENDBRANCH   1   3
BRANCH   1   8
HETATM    8  C7  UNL     1     -31.976   7.960   1.882  1.00 20.00     0.451 C 
HETATM    9  F9  UNL     1     -31.349   8.464   2.974  1.00 20.00    -0.163 F 
HETATM   10  F10 UNL     1     -32.636   8.990   1.296  1.00 20.00    -0.163 F 
HETATM   11  F11 UNL     1     -31.010   7.566   1.016  1.00 20.00    -0.163 F 
ENDBRANCH   1   8
TORSDOF 3
ENDMDL
MODEL 4
REMARK VINA RESULT:      -1.8      1.562      1.903
REMARK  3 active torsions:
REMARK  status: ('A' for Active; 'I' for Inactive)
REMARK    1  A    between atoms: C2_2  and  C6_6 
REMARK    2  A    between atoms: C3_3  and  C6_6 
REMARK    3  A    between atoms: C3_3  and  C7_7 
ROOT
HETATM    1  C3  UNL     1     -33.021   7.429   3.057  1.00 20.00     0.240 C 
HETATM    2  O8  UNL     1     -33.272   7.874   4.177  1.00 20.00    -0.287 OA
ENDROOT
BRANCH   1   3
HETATM    3  C6  UNL     1     -33.758   6.228   2.470  1.00 20.00     0.088 C 
HETATM    4  C5  UNL     1     -32.754   5.425   1.643  1.00 20.00     0.023 C 
BRANCH   3   5
HETATM    5  C2  UNL     1     -34.459   5.497   3.601  1.00 20.00    -0.082 C 
HETATM    6  C1  UNL     1     -35.552   5.949   4.236  1.00 20.00     0.014 C 
HETATM    7  C4  UNL     1     -33.859   4.169   3.984  1.00 20.00     0.043 C 
ENDBRANCH   3   5
ENDBRANCH   1   3
BRANCH   1   8
HETATM    8  C7  UNL     1     -31.974   8.069   2.188  1.00 20.00     0.451 C 
HETATM    9  F9  UNL     1     -32.517   8.963   1.324  1.00 20.00    -0.163 F 
HETATM   10  F10 UNL     1     -31.302   7.158   1.441  1.00 20.00    -0.163 F 
HETATM   11  F11 UNL     1     -31.049   8.737   2.921  1.00 20.00    -0.163 F 
ENDBRANCH   1   8
TORSDOF 3
ENDMDL
MODEL 5
REMARK VINA RESULT:      -1.7      3.262      4.356
REMARK  3 active torsions:
REMARK  status: ('A' for Active; 'I' for Inactive)
REMARK    1  A    between atoms: C2_2  and  C6_6 
REMARK    2  A    between atoms: C3_3  and  C6_6 
REMARK    3  A    between atoms: C3_3  and  C7_7 
ROOT
HETATM    1  C3  UNL     1     -33.937   5.773   3.252  1.00 20.00     0.240 C 
HETATM    2  O8  UNL     1     -33.471   4.691   3.611  1.00 20.00    -0.287 OA
ENDROOT
BRANCH   1   3
HETATM    3  C6  UNL     1     -33.382   6.547   2.060  1.00 20.00     0.088 C 
HETATM    4  C5  UNL     1     -32.438   7.621   2.601  1.00 20.00     0.023 C 
BRANCH   3   5
HETATM    5  C2  UNL     1     -32.799   5.552   1.073  1.00 20.00    -0.082 C 
HETATM    6  C1  UNL     1     -31.513   5.165   1.054  1.00 20.00     0.014 C 
HETATM    7  C4  UNL     1     -33.775   4.973   0.082  1.00 20.00     0.043 C 
ENDBRANCH   3   5
ENDBRANCH   1   3
BRANCH   1   8
HETATM    8  C7  UNL     1     -35.109   6.385   3.968  1.00 20.00     0.451 C 
HETATM    9  F9  UNL     1     -35.684   5.509   4.831  1.00 20.00    -0.163 F 
HETATM   10  F10 UNL     1     -36.080   6.785   3.110  1.00 20.00    -0.163 F 
HETATM   11  F11 UNL     1     -34.747   7.474   4.691  1.00 20.00    -0.163 F 
ENDBRANCH   1   8
TORSDOF 3
ENDMDL
MODEL 6
REMARK VINA RESULT:      -1.7      2.281      3.041
REMARK  3 active torsions:
REMARK  status: ('A' for Active; 'I' for Inactive)
REMARK    1  A    between atoms: C2_2  and  C6_6 
REMARK    2  A    between atoms: C3_3  and  C6_6 
REMARK    3  A    between atoms: C3_3  and  C7_7 
ROOT
HETATM    1  C3  UNL     1     -32.934   7.107   2.535  1.00 20.00     0.240 C 
HETATM    2  O8  UNL     1     -32.624   8.203   2.067  1.00 20.00    -0.287 OA
ENDROOT
BRANCH   1   3
HETATM    3  C6  UNL     1     -33.531   6.954   3.932  1.00 20.00     0.088 C 
HETATM    4  C5  UNL     1     -33.359   8.288   4.659  1.00 20.00     0.023 C 
BRANCH   3   5
HETATM    5  C2  UNL     1     -34.947   6.425   3.792  1.00 20.00    -0.082 C 
HETATM    6  C1  UNL     1     -35.916   7.024   3.081  1.00 20.00     0.014 C 
HETATM    7  C4  UNL     1     -35.225   5.123   4.499  1.00 20.00     0.043 C 
ENDBRANCH   3   5
ENDBRANCH   1   3
BRANCH   1   8
HETATM    8  C7  UNL     1     -32.759   5.847   1.733  1.00 20.00     0.451 C 
HETATM    9  F9  UNL     1     -33.626   5.790   0.692  1.00 20.00    -0.163 F 
HETATM   10  F10 UNL     1     -32.966   4.733   2.479  1.00 20.00    -0.163 F 
HETATM   11  F11 UNL     1     -31.509   5.748   1.216  1.00 20.00    -0.163 F 
ENDBRANCH   1   8
TORSDOF 3
ENDMDL
MODEL 7
REMARK VINA RESULT:      -1.6      2.870      3.882
REMARK  3 active torsions:
REMARK  status: ('A' for Active; 'I' for Inactive)
REMARK    1  A    between atoms: C2_2  and  C6_6 
REMARK    2  A    between atoms: C3_3  and  C6_6 
REMARK    3  A    between atoms: C3_3  and  C7_7 
ROOT
HETATM    1  C3  UNL     1     -33.355   7.298   3.310  1.00 20.00     0.240 C 
HETATM    2  O8  UNL     1     -32.638   7.869   4.132  1.00 20.00    -0.287 OA
ENDROOT
BRANCH   1   3
HETATM    3  C6  UNL     1     -33.053   7.311   1.814  1.00 20.00     0.088 C 
HETATM    4  C5  UNL     1     -32.007   8.397   1.560  1.00 20.00     0.023 C 
BRANCH   3   5
HETATM    5  C2  UNL     1     -32.696   5.899   1.385  1.00 20.00    -0.082 C 
HETATM    6  C1  UNL     1     -31.609   5.230   1.801  1.00 20.00     0.014 C 
HETATM    7  C4  UNL     1     -33.673   5.240   0.445  1.00 20.00     0.043 C 
ENDBRANCH   3   5
ENDBRANCH   1   3
BRANCH   1   8
HETATM    8  C7  UNL     1     -34.571   6.529   3.747  1.00 20.00     0.451 C 
HETATM    9  F9  UNL     1     -35.037   6.965   4.944  1.00 20.00    -0.163 F 
HETATM   10  F10 UNL     1     -34.315   5.204   3.884  1.00 20.00    -0.163 F 
HETATM   11  F11 UNL     1     -35.588   6.645   2.858  1.00 20.00    -0.163 F 
ENDBRANCH   1   8
TORSDOF 3
ENDMDL
MODEL 8
REMARK VINA RESULT:      -1.6      3.416      4.646
REMARK  3 active torsions:
REMARK  status: ('A' for Active; 'I' for Inactive)
REMARK    1  A    between atoms: C2_2  and  C6_6 
REMARK    2  A    between atoms: C3_3  and  C6_6 
REMARK    3  A    between atoms: C3_3  and  C7_7 
ROOT
HETATM    1  C3  UNL     1     -33.993   6.005   3.452  1.00 20.00     0.240 C 
HETATM    2  O8  UNL     1     -33.396   4.938   3.304  1.00 20.00    -0.287 OA
ENDROOT
BRANCH   1   3
HETATM    3  C6  UNL     1     -33.435   7.331   2.942  1.00 20.00     0.088 C 
HETATM    4  C5  UNL     1     -32.829   8.070   4.136  1.00 20.00     0.023 C 
BRANCH   3   5
HETATM    5  C2  UNL     1     -32.513   7.044   1.771  1.00 20.00    -0.082 C 
HETATM    6  C1  UNL     1     -32.412   5.854   1.157  1.00 20.00     0.014 C 
HETATM    7  C4  UNL     1     -31.694   8.214   1.289  1.00 20.00     0.043 C 
ENDBRANCH   3   5
ENDBRANCH   1   3
BRANCH   1   8
HETATM    8  C7  UNL     1     -35.333   6.052   4.133  1.00 20.00     0.451 C 
HETATM    9  F9  UNL     1     -35.690   4.840   4.624  1.00 20.00    -0.163 F 
HETATM   10  F10 UNL     1     -36.321   6.441   3.289  1.00 20.00    -0.163 F 
HETATM   11  F11 UNL     1     -35.339   6.921   5.174  1.00 20.00    -0.163 F 
ENDBRANCH   1   8
TORSDOF 3
ENDMDL
MODEL 9
REMARK VINA RESULT:      -1.6      3.408      4.663
REMARK  3 active torsions:
REMARK  status: ('A' for Active; 'I' for Inactive)
REMARK    1  A    between atoms: C2_2  and  C6_6 
REMARK    2  A    between atoms: C3_3  and  C6_6 
REMARK    3  A    between atoms: C3_3  and  C7_7 
ROOT
HETATM    1  C3  UNL     1     -33.986   6.015   3.430  1.00 20.00     0.240 C 
HETATM    2  O8  UNL     1     -33.399   4.946   3.261  1.00 20.00    -0.287 OA
ENDROOT
BRANCH   1   3
HETATM    3  C6  UNL     1     -33.422   7.344   2.934  1.00 20.00     0.088 C 
HETATM    4  C5  UNL     1     -32.828   8.074   4.139  1.00 20.00     0.023 C 
BRANCH   3   5
HETATM    5  C2  UNL     1     -32.489   7.064   1.771  1.00 20.00    -0.082 C 
HETATM    6  C1  UNL     1     -32.342   5.864   1.185  1.00 20.00     0.014 C 
HETATM    7  C4  UNL     1     -31.712   8.251   1.262  1.00 20.00     0.043 C 
ENDBRANCH   3   5
ENDBRANCH   1   3
BRANCH   1   8
HETATM    8  C7  UNL     1     -35.320   6.062   4.123  1.00 20.00     0.451 C 
HETATM    9  F9  UNL     1     -36.309   6.454   3.281  1.00 20.00    -0.163 F 
HETATM   10  F10 UNL     1     -35.323   6.931   5.165  1.00 20.00    -0.163 F 
HETATM   11  F11 UNL     1     -35.675   4.851   4.618  1.00 20.00    -0.163 F 
ENDBRANCH   1   8
TORSDOF 3
ENDMDL
