MODEL 1
REMARK VINA RESULT:      -0.9      0.000      0.000
REMARK  1 active torsions:
REMARK  status: ('A' for Active; 'I' for Inactive)
REMARK    1  A    between atoms: C6_6  and  O8_8 
ROOT
HETATM    1  C1  UNL     1     -32.626   9.672   0.161  1.00 20.00     0.015 C 
HETATM    2  C2  UNL     1     -32.341   8.917   1.050  1.00 20.00    -0.077 C 
HETATM    3  C3  UNL     1     -31.613   6.622   1.612  1.00 20.00     0.080 C 
HETATM    4  C4  UNL     1     -32.956   5.940   1.445  1.00 20.00     0.171 C 
HETATM    5  C5  UNL     1     -33.198   7.657   3.007  1.00 20.00     0.219 C 
HETATM    6  C6  UNL     1     -31.995   7.990   2.138  1.00 20.00     0.143 C 
HETATM    7  O7  UNL     1     -33.833   6.506   2.429  1.00 20.00    -0.387 OA
ENDROOT
BRANCH   6   8
HETATM    8  O8  UNL     1     -30.939   8.537   2.912  1.00 20.00    -0.375 OA
HETATM    9  H16 UNL     1     -30.110   8.326   2.450  1.00 20.00     0.211 HD
ENDBRANCH   6   8
TORSDOF 1
ENDMDL
MODEL 2
REMARK VINA RESULT:      -0.3      2.361      4.227
REMARK  1 active torsions:
REMARK  status: ('A' for Active; 'I' for Inactive)
REMARK    1  A    between atoms: C6_6  and  O8_8 
ROOT
HETATM    1  C1  UNL     1     -33.770   3.839   4.422  1.00 20.00     0.015 C 
HETATM    2  C2  UNL     1     -34.163   4.911   4.050  1.00 20.00    -0.077 C 
HETATM    3  C3  UNL     1     -34.103   6.576   2.225  1.00 20.00     0.080 C 
HETATM    4  C4  UNL     1     -32.745   7.170   2.540  1.00 20.00     0.171 C 
HETATM    5  C5  UNL     1     -34.084   7.358   4.442  1.00 20.00     0.219 C 
HETATM    6  C6  UNL     1     -34.642   6.225   3.596  1.00 20.00     0.143 C 
HETATM    7  O7  UNL     1     -32.846   7.768   3.840  1.00 20.00    -0.387 OA
ENDROOT
BRANCH   6   8
HETATM    8  O8  UNL     1     -36.061   6.239   3.591  1.00 20.00    -0.375 OA
HETATM    9  H16 UNL     1     -36.349   5.565   2.952  1.00 20.00     0.211 HD
ENDBRANCH   6   8
TORSDOF 1
ENDMDL
MODEL 3
REMARK VINA RESULT:       0.3      3.328      4.054
REMARK  1 active torsions:
REMARK  status: ('A' for Active; 'I' for Inactive)
REMARK    1  A    between atoms: C6_6  and  O8_8 
ROOT
HETATM    1  C1  UNL     1     -33.484   8.147   5.040  1.00 20.00     0.015 C 
HETATM    2  C2  UNL     1     -34.097   7.323   4.418  1.00 20.00    -0.077 C 
HETATM    3  C3  UNL     1     -35.212   5.119   4.514  1.00 20.00     0.080 C 
HETATM    4  C4  UNL     1     -33.965   4.261   4.446  1.00 20.00     0.171 C 
HETATM    5  C5  UNL     1     -33.991   5.662   2.580  1.00 20.00     0.219 C 
HETATM    6  C6  UNL     1     -34.846   6.312   3.656  1.00 20.00     0.143 C 
HETATM    7  O7  UNL     1     -33.351   4.522   3.176  1.00 20.00    -0.387 OA
ENDROOT
BRANCH   6   8
HETATM    8  O8  UNL     1     -36.010   6.901   3.099  1.00 20.00    -0.375 OA
HETATM    9  H16 UNL     1     -35.712   7.549   2.438  1.00 20.00     0.211 HD
ENDBRANCH   6   8
TORSDOF 1
ENDMDL
MODEL 4
REMARK VINA RESULT:       0.9      1.696      2.536
REMARK  1 active torsions:
REMARK  status: ('A' for Active; 'I' for Inactive)
REMARK    1  A    between atoms: C6_6  and  O8_8 
ROOT
HETATM    1  C1  UNL     1     -33.908   7.679   4.193  1.00 20.00     0.015 C 
HETATM    2  C2  UNL     1     -33.367   7.662   3.121  1.00 20.00    -0.077 C 
HETATM    3  C3  UNL     1     -33.427   6.743   0.828  1.00 20.00     0.080 C 
HETATM    4  C4  UNL     1     -32.866   5.372   1.147  1.00 20.00     0.171 C 
HETATM    5  C5  UNL     1     -31.336   6.976   1.875  1.00 20.00     0.219 C 
HETATM    6  C6  UNL     1     -32.702   7.639   1.809  1.00 20.00     0.143 C 
HETATM    7  O7  UNL     1     -31.532   5.573   1.634  1.00 20.00    -0.387 OA
ENDROOT
BRANCH   6   8
HETATM    8  O8  UNL     1     -32.607   8.960   1.300  1.00 20.00    -0.375 OA
HETATM    9  H16 UNL     1     -31.833   9.371   1.722  1.00 20.00     0.211 HD
ENDBRANCH   6   8
TORSDOF 1
ENDMDL
MODEL 5
REMARK VINA RESULT:       0.9      2.709      4.104
REMARK  1 active torsions:
REMARK  status: ('A' for Active; 'I' for Inactive)
REMARK    1  A    between atoms: C6_6  and  O8_8 
ROOT
HETATM    1  C1  UNL     1     -33.572   3.665   4.333  1.00 20.00     0.015 C 
HETATM    2  C2  UNL     1     -33.658   4.682   3.701  1.00 20.00    -0.077 C 
HETATM    3  C3  UNL     1     -32.929   7.038   3.531  1.00 20.00     0.080 C 
HETATM    4  C4  UNL     1     -33.842   7.608   4.597  1.00 20.00     0.171 C 
HETATM    5  C5  UNL     1     -35.162   6.527   3.004  1.00 20.00     0.219 C 
HETATM    6  C6  UNL     1     -33.766   5.929   2.928  1.00 20.00     0.143 C 
HETATM    7  O7  UNL     1     -35.187   7.405   4.141  1.00 20.00    -0.387 OA
ENDROOT
BRANCH   6   8
HETATM    8  O8  UNL     1     -33.383   5.691   1.584  1.00 20.00    -0.375 OA
HETATM    9  H16 UNL     1     -33.903   4.930   1.271  1.00 20.00     0.211 HD
ENDBRANCH   6   8
TORSDOF 1
ENDMDL
MODEL 6
REMARK VINA RESULT:       0.9      1.554      3.085
REMARK  1 active torsions:
REMARK  status: ('A' for Active; 'I' for Inactive)
REMARK    1  A    between atoms: C6_6  and  O8_8 
ROOT
HETATM    1  C1  UNL     1     -34.211   7.271   4.007  1.00 20.00     0.015 C 
HETATM    2  C2  UNL     1     -33.546   7.092   3.023  1.00 20.00    -0.077 C 
HETATM    3  C3  UNL     1     -31.314   7.377   1.998  1.00 20.00     0.080 C 
HETATM    4  C4  UNL     1     -31.435   8.850   1.664  1.00 20.00     0.171 C 
HETATM    5  C5  UNL     1     -33.208   7.723   0.649  1.00 20.00     0.219 C 
HETATM    6  C6  UNL     1     -32.731   6.875   1.817  1.00 20.00     0.143 C 
HETATM    7  O7  UNL     1     -32.505   8.974   0.717  1.00 20.00    -0.387 OA
ENDROOT
BRANCH   6   8
HETATM    8  O8  UNL     1     -32.732   5.497   1.484  1.00 20.00    -0.375 OA
HETATM    9  H16 UNL     1     -33.396   5.374   0.784  1.00 20.00     0.211 HD
ENDBRANCH   6   8
TORSDOF 1
ENDMDL
MODEL 7
REMARK VINA RESULT:       1.2      1.771      2.956
REMARK  1 active torsions:
REMARK  status: ('A' for Active; 'I' for Inactive)
REMARK    1  A    between atoms: C6_6  and  O8_8 
ROOT
HETATM    1  C1  UNL     1     -34.338   5.385  -0.355  1.00 20.00     0.015 C 
HETATM    2  C2  UNL     1     -33.584   5.565   0.563  1.00 20.00    -0.077 C 
HETATM    3  C3  UNL     1     -33.270   5.358   3.006  1.00 20.00     0.080 C 
HETATM    4  C4  UNL     1     -34.077   6.574   3.414  1.00 20.00     0.171 C 
HETATM    5  C5  UNL     1     -32.412   7.266   1.933  1.00 20.00     0.219 C 
HETATM    6  C6  UNL     1     -32.662   5.787   1.687  1.00 20.00     0.143 C 
HETATM    7  O7  UNL     1     -33.413   7.718   2.860  1.00 20.00    -0.387 OA
ENDROOT
BRANCH   6   8
HETATM    8  O8  UNL     1     -31.447   5.094   1.451  1.00 20.00    -0.375 OA
HETATM    9  H16 UNL     1     -30.725   5.729   1.600  1.00 20.00     0.211 HD
ENDBRANCH   6   8
TORSDOF 1
ENDMDL
MODEL 8
REMARK VINA RESULT:       1.2      1.834      2.373
REMARK  1 active torsions:
REMARK  status: ('A' for Active; 'I' for Inactive)
REMARK    1  A    between atoms: C6_6  and  O8_8 
ROOT
HETATM    1  C1  UNL     1     -32.196   7.891   1.481  1.00 20.00     0.015 C 
HETATM    2  C2  UNL     1     -32.684   7.685   2.559  1.00 20.00    -0.077 C 
HETATM    3  C3  UNL     1     -33.296   5.955   4.215  1.00 20.00     0.080 C 
HETATM    4  C4  UNL     1     -34.558   5.464   3.534  1.00 20.00     0.171 C 
HETATM    5  C5  UNL     1     -34.770   7.759   3.898  1.00 20.00     0.219 C 
HETATM    6  C6  UNL     1     -33.285   7.431   3.877  1.00 20.00     0.143 C 
HETATM    7  O7  UNL     1     -35.474   6.568   3.514  1.00 20.00    -0.387 OA
ENDROOT
BRANCH   6   8
HETATM    8  O8  UNL     1     -32.584   8.163   4.869  1.00 20.00    -0.375 OA
HETATM    9  H16 UNL     1     -31.658   8.220   4.577  1.00 20.00     0.211 HD
ENDBRANCH   6   8
TORSDOF 1
ENDMDL
MODEL 9
REMARK VINA RESULT:       1.2      1.265      3.051
REMARK  1 active torsions:
REMARK  status: ('A' for Active; 'I' for Inactive)
REMARK    1  A    between atoms: C6_6  and  O8_8 
ROOT
HETATM    1  C1  UNL     1     -33.019   5.502   1.216  1.00 20.00     0.015 C 
HETATM    2  C2  UNL     1     -32.701   6.592   1.607  1.00 20.00    -0.077 C 
HETATM    3  C3  UNL     1     -33.087   9.024   1.386  1.00 20.00     0.080 C 
HETATM    4  C4  UNL     1     -32.297   9.237   0.111  1.00 20.00     0.171 C 
HETATM    5  C5  UNL     1     -30.881   8.274   1.696  1.00 20.00     0.219 C 
HETATM    6  C6  UNL     1     -32.309   7.928   2.084  1.00 20.00     0.143 C 
HETATM    7  O7  UNL     1     -30.932   8.912   0.410  1.00 20.00    -0.387 OA
ENDROOT
BRANCH   6   8
HETATM    8  O8  UNL     1     -32.492   8.005   3.488  1.00 20.00    -0.375 OA
HETATM    9  H16 UNL     1     -31.870   7.374   3.890  1.00 20.00     0.211 HD
ENDBRANCH   6   8
TORSDOF 1
ENDMDL
