MODEL 1
REMARK VINA RESULT:      -2.6      0.000      0.000
REMARK  4 active torsions:
REMARK  status: ('A' for Active; 'I' for Inactive)
REMARK    1  A    between atoms: C1_1  and  C8_8 
REMARK    2  A    between atoms: C1_1  and  C9_9 
REMARK    3  A    between atoms: C6_6  and  C8_8 
REMARK    4  A    between atoms: C7_7  and  C9_9 
ROOT
HETATM    1  C1  UNL     1     -32.231   6.535   1.588  1.00 20.00     0.127 C 
HETATM    2  O10 UNL     1     -31.469   5.610   1.307  1.00 20.00    -0.298 OA
ENDROOT
BRANCH   1   3
HETATM    3  C8  UNL     1     -31.779   7.986   1.587  1.00 20.00     0.082 C 
BRANCH   3   4
HETATM    4  C6  UNL     1     -32.759   8.904   0.879  1.00 20.00    -0.008 A 
HETATM    5  C2  UNL     1     -32.529  10.390   0.861  1.00 20.00     0.005 A 
HETATM    6  C3  UNL     1     -32.365   9.588  -0.400  1.00 20.00     0.005 A 
ENDBRANCH   3   4
ENDBRANCH   1   3
BRANCH   1   7
HETATM    7  C9  UNL     1     -33.686   6.303   1.961  1.00 20.00     0.082 C 
BRANCH   7   8
HETATM    8  C7  UNL     1     -33.910   6.277   3.463  1.00 20.00    -0.008 A 
HETATM    9  C4  UNL     1     -34.375   7.513   4.180  1.00 20.00     0.005 A 
HETATM   10  C5  UNL     1     -35.305   6.343   4.021  1.00 20.00     0.005 A 
ENDBRANCH   7   8
ENDBRANCH   1   7
TORSDOF 4
ENDMDL
MODEL 2
REMARK VINA RESULT:      -2.6      0.032      4.079
REMARK  4 active torsions:
REMARK  status: ('A' for Active; 'I' for Inactive)
REMARK    1  A    between atoms: C1_1  and  C8_8 
REMARK    2  A    between atoms: C1_1  and  C9_9 
REMARK    3  A    between atoms: C6_6  and  C8_8 
REMARK    4  A    between atoms: C7_7  and  C9_9 
ROOT
HETATM    1  C1  UNL     1     -32.233   6.529   1.594  1.00 20.00     0.127 C 
HETATM    2  O10 UNL     1     -31.477   5.600   1.310  1.00 20.00    -0.298 OA
ENDROOT
BRANCH   1   3
HETATM    3  C8  UNL     1     -33.687   6.303   1.975  1.00 20.00     0.082 C 
BRANCH   3   4
HETATM    4  C6  UNL     1     -33.903   6.294   3.478  1.00 20.00    -0.008 A 
HETATM    5  C2  UNL     1     -34.432   7.517   4.175  1.00 20.00     0.005 A 
HETATM    6  C3  UNL     1     -35.297   6.295   4.041  1.00 20.00     0.005 A 
ENDBRANCH   3   4
ENDBRANCH   1   3
BRANCH   1   7
HETATM    7  C9  UNL     1     -31.777   7.978   1.584  1.00 20.00     0.082 C 
BRANCH   7   8
HETATM    8  C7  UNL     1     -32.752   8.897   0.870  1.00 20.00    -0.008 A 
HETATM    9  C4  UNL     1     -32.544  10.385   0.890  1.00 20.00     0.005 A 
HETATM   10  C5  UNL     1     -32.335   9.615  -0.384  1.00 20.00     0.005 A 
ENDBRANCH   7   8
ENDBRANCH   1   7
TORSDOF 4
ENDMDL
MODEL 3
REMARK VINA RESULT:      -2.4      0.796      1.044
REMARK  4 active torsions:
REMARK  status: ('A' for Active; 'I' for Inactive)
REMARK    1  A    between atoms: C1_1  and  C8_8 
REMARK    2  A    between atoms: C1_1  and  C9_9 
REMARK    3  A    between atoms: C6_6  and  C8_8 
REMARK    4  A    between atoms: C7_7  and  C9_9 
ROOT
HETATM    1  C1  UNL     1     -32.371   7.046   1.983  1.00 20.00     0.127 C 
HETATM    2  O10 UNL     1     -32.127   5.960   1.457  1.00 20.00    -0.298 OA
ENDROOT
BRANCH   1   3
HETATM    3  C8  UNL     1     -31.764   8.345   1.479  1.00 20.00     0.082 C 
BRANCH   3   4
HETATM    4  C6  UNL     1     -32.761   9.199   0.715  1.00 20.00    -0.008 A 
HETATM    5  C2  UNL     1     -32.640  10.698   0.726  1.00 20.00     0.005 A 
HETATM    6  C3  UNL     1     -32.335   9.928  -0.529  1.00 20.00     0.005 A 
ENDBRANCH   3   4
ENDBRANCH   1   3
BRANCH   1   7
HETATM    7  C9  UNL     1     -33.298   7.177   3.179  1.00 20.00     0.082 C 
BRANCH   7   8
HETATM    8  C7  UNL     1     -34.432   6.168   3.157  1.00 20.00    -0.008 A 
HETATM    9  C4  UNL     1     -34.403   4.977   4.074  1.00 20.00     0.005 A 
HETATM   10  C5  UNL     1     -35.392   6.083   4.311  1.00 20.00     0.005 A 
ENDBRANCH   7   8
ENDBRANCH   1   7
TORSDOF 4
ENDMDL
MODEL 4
REMARK VINA RESULT:      -2.4      0.797      4.491
REMARK  4 active torsions:
REMARK  status: ('A' for Active; 'I' for Inactive)
REMARK    1  A    between atoms: C1_1  and  C8_8 
REMARK    2  A    between atoms: C1_1  and  C9_9 
REMARK    3  A    between atoms: C6_6  and  C8_8 
REMARK    4  A    between atoms: C7_7  and  C9_9 
ROOT
HETATM    1  C1  UNL     1     -32.351   7.067   1.980  1.00 20.00     0.127 C 
HETATM    2  O10 UNL     1     -32.105   5.988   1.440  1.00 20.00    -0.298 OA
ENDROOT
BRANCH   1   3
HETATM    3  C8  UNL     1     -33.271   7.178   3.185  1.00 20.00     0.082 C 
BRANCH   3   4
HETATM    4  C6  UNL     1     -34.409   6.174   3.147  1.00 20.00    -0.008 A 
HETATM    5  C2  UNL     1     -34.423   5.008   4.096  1.00 20.00     0.005 A 
HETATM    6  C3  UNL     1     -35.413   6.127   4.265  1.00 20.00     0.005 A 
ENDBRANCH   3   4
ENDBRANCH   1   3
BRANCH   1   7
HETATM    7  C9  UNL     1     -31.757   8.375   1.486  1.00 20.00     0.082 C 
BRANCH   7   8
HETATM    8  C7  UNL     1     -32.748   9.206   0.691  1.00 20.00    -0.008 A 
HETATM    9  C4  UNL     1     -32.667  10.707   0.712  1.00 20.00     0.005 A 
HETATM   10  C5  UNL     1     -32.297   9.953  -0.534  1.00 20.00     0.005 A 
ENDBRANCH   7   8
ENDBRANCH   1   7
TORSDOF 4
ENDMDL
MODEL 5
REMARK VINA RESULT:      -2.1      2.584      5.300
REMARK  4 active torsions:
REMARK  status: ('A' for Active; 'I' for Inactive)
REMARK    1  A    between atoms: C1_1  and  C8_8 
REMARK    2  A    between atoms: C1_1  and  C9_9 
REMARK    3  A    between atoms: C6_6  and  C8_8 
REMARK    4  A    between atoms: C7_7  and  C9_9 
ROOT
HETATM    1  C1  UNL     1     -34.366   6.154   3.676  1.00 20.00     0.127 C 
HETATM    2  O10 UNL     1     -35.507   6.227   4.131  1.00 20.00    -0.298 OA
ENDROOT
BRANCH   1   3
HETATM    3  C8  UNL     1     -33.701   4.823   3.366  1.00 20.00     0.082 C 
BRANCH   3   4
HETATM    4  C6  UNL     1     -33.929   3.787   4.453  1.00 20.00    -0.008 A 
HETATM    5  C2  UNL     1     -33.298   2.426   4.348  1.00 20.00     0.005 A 
HETATM    6  C3  UNL     1     -32.809   3.404   5.379  1.00 20.00     0.005 A 
ENDBRANCH   3   4
ENDBRANCH   1   3
BRANCH   1   7
HETATM    7  C9  UNL     1     -33.527   7.388   3.388  1.00 20.00     0.082 C 
BRANCH   7   8
HETATM    8  C7  UNL     1     -32.890   7.357   2.011  1.00 20.00    -0.008 A 
HETATM    9  C4  UNL     1     -32.448   8.634   1.352  1.00 20.00     0.005 A 
HETATM   10  C5  UNL     1     -31.424   7.651   1.848  1.00 20.00     0.005 A 
ENDBRANCH   7   8
ENDBRANCH   1   7
TORSDOF 4
ENDMDL
MODEL 6
REMARK VINA RESULT:      -2.1      1.480      1.926
REMARK  4 active torsions:
REMARK  status: ('A' for Active; 'I' for Inactive)
REMARK    1  A    between atoms: C1_1  and  C8_8 
REMARK    2  A    between atoms: C1_1  and  C9_9 
REMARK    3  A    between atoms: C6_6  and  C8_8 
REMARK    4  A    between atoms: C7_7  and  C9_9 
ROOT
HETATM    1  C1  UNL     1     -32.294   8.237   3.026  1.00 20.00     0.127 C 
HETATM    2  O10 UNL     1     -31.265   8.714   3.505  1.00 20.00    -0.298 OA
ENDROOT
BRANCH   1   3
HETATM    3  C8  UNL     1     -32.461   8.007   1.533  1.00 20.00     0.082 C 
BRANCH   3   4
HETATM    4  C6  UNL     1     -31.945   9.167   0.700  1.00 20.00    -0.008 A 
HETATM    5  C2  UNL     1     -32.690   9.609  -0.529  1.00 20.00     0.005 A 
HETATM    6  C3  UNL     1     -32.678  10.480   0.697  1.00 20.00     0.005 A 
ENDBRANCH   3   4
ENDBRANCH   1   3
BRANCH   1   7
HETATM    7  C9  UNL     1     -33.482   7.841   3.887  1.00 20.00     0.082 C 
BRANCH   7   8
HETATM    8  C7  UNL     1     -34.313   6.733   3.266  1.00 20.00    -0.008 A 
HETATM    9  C4  UNL     1     -34.144   5.312   3.724  1.00 20.00     0.005 A 
HETATM   10  C5  UNL     1     -35.400   6.066   4.062  1.00 20.00     0.005 A 
ENDBRANCH   7   8
ENDBRANCH   1   7
TORSDOF 4
ENDMDL
MODEL 7
REMARK VINA RESULT:      -1.9      2.575      3.676
REMARK  4 active torsions:
REMARK  status: ('A' for Active; 'I' for Inactive)
REMARK    1  A    between atoms: C1_1  and  C8_8 
REMARK    2  A    between atoms: C1_1  and  C9_9 
REMARK    3  A    between atoms: C6_6  and  C8_8 
REMARK    4  A    between atoms: C7_7  and  C9_9 
ROOT
HETATM    1  C1  UNL     1     -34.970   6.030   3.865  1.00 20.00     0.127 C 
HETATM    2  O10 UNL     1     -36.051   6.482   3.488  1.00 20.00    -0.298 OA
ENDROOT
BRANCH   1   3
HETATM    3  C8  UNL     1     -33.666   6.787   3.680  1.00 20.00     0.082 C 
BRANCH   3   4
HETATM    4  C6  UNL     1     -33.343   7.047   2.219  1.00 20.00    -0.008 A 
HETATM    5  C2  UNL     1     -31.998   7.593   1.826  1.00 20.00     0.005 A 
HETATM    6  C3  UNL     1     -32.358   6.171   1.495  1.00 20.00     0.005 A 
ENDBRANCH   3   4
ENDBRANCH   1   3
BRANCH   1   7
HETATM    7  C9  UNL     1     -34.851   4.677   4.546  1.00 20.00     0.082 C 
BRANCH   7   8
HETATM    8  C7  UNL     1     -33.574   3.944   4.177  1.00 20.00    -0.008 A 
HETATM    9  C4  UNL     1     -32.687   3.379   5.252  1.00 20.00     0.005 A 
HETATM   10  C5  UNL     1     -33.474   2.456   4.364  1.00 20.00     0.005 A 
ENDBRANCH   7   8
ENDBRANCH   1   7
TORSDOF 4
ENDMDL
MODEL 8
REMARK VINA RESULT:      -1.8      1.334      4.596
REMARK  4 active torsions:
REMARK  status: ('A' for Active; 'I' for Inactive)
REMARK    1  A    between atoms: C1_1  and  C8_8 
REMARK    2  A    between atoms: C1_1  and  C9_9 
REMARK    3  A    between atoms: C6_6  and  C8_8 
REMARK    4  A    between atoms: C7_7  and  C9_9 
ROOT
HETATM    1  C1  UNL     1     -32.263   7.850   2.353  1.00 20.00     0.127 C 
HETATM    2  O10 UNL     1     -31.889   8.406   3.385  1.00 20.00    -0.298 OA
ENDROOT
BRANCH   1   3
HETATM    3  C8  UNL     1     -33.263   6.705   2.366  1.00 20.00     0.082 C 
BRANCH   3   4
HETATM    4  C6  UNL     1     -33.960   6.552   3.707  1.00 20.00    -0.008 A 
HETATM    5  C2  UNL     1     -35.458   6.442   3.773  1.00 20.00     0.005 A 
HETATM    6  C3  UNL     1     -34.601   5.245   4.080  1.00 20.00     0.005 A 
ENDBRANCH   3   4
ENDBRANCH   1   3
BRANCH   1   7
HETATM    7  C9  UNL     1     -31.757   8.261   0.980  1.00 20.00     0.082 C 
BRANCH   7   8
HETATM    8  C7  UNL     1     -32.681   9.244   0.284  1.00 20.00    -0.008 A 
HETATM    9  C4  UNL     1     -32.757  10.671   0.749  1.00 20.00     0.005 A 
HETATM   10  C5  UNL     1     -32.112  10.344  -0.569  1.00 20.00     0.005 A 
ENDBRANCH   7   8
ENDBRANCH   1   7
TORSDOF 4
ENDMDL
MODEL 9
REMARK VINA RESULT:      -1.7      2.541      5.276
REMARK  4 active torsions:
REMARK  status: ('A' for Active; 'I' for Inactive)
REMARK    1  A    between atoms: C1_1  and  C8_8 
REMARK    2  A    between atoms: C1_1  and  C9_9 
REMARK    3  A    between atoms: C6_6  and  C8_8 
REMARK    4  A    between atoms: C7_7  and  C9_9 
ROOT
HETATM    1  C1  UNL     1     -34.331   6.154   3.653  1.00 20.00     0.127 C 
HETATM    2  O10 UNL     1     -34.833   7.132   4.208  1.00 20.00    -0.298 OA
ENDROOT
BRANCH   1   3
HETATM    3  C8  UNL     1     -34.588   4.733   4.127  1.00 20.00     0.082 C 
BRANCH   3   4
HETATM    4  C6  UNL     1     -33.334   3.877   4.118  1.00 20.00    -0.008 A 
HETATM    5  C2  UNL     1     -32.811   3.285   5.398  1.00 20.00     0.005 A 
HETATM    6  C3  UNL     1     -33.428   2.396   4.355  1.00 20.00     0.005 A 
ENDBRANCH   3   4
ENDBRANCH   1   3
BRANCH   1   7
HETATM    7  C9  UNL     1     -33.413   6.287   2.449  1.00 20.00     0.082 C 
BRANCH   7   8
HETATM    8  C7  UNL     1     -32.581   7.556   2.483  1.00 20.00    -0.008 A 
HETATM    9  C4  UNL     1     -31.334   7.666   1.651  1.00 20.00     0.005 A 
HETATM   10  C5  UNL     1     -32.550   8.473   1.292  1.00 20.00     0.005 A 
ENDBRANCH   7   8
ENDBRANCH   1   7
TORSDOF 4
ENDMDL
