MODEL 1
REMARK VINA RESULT:      -2.4      0.000      0.000
REMARK  3 active torsions:
REMARK  status: ('A' for Active; 'I' for Inactive)
REMARK    1  A    between atoms: C1_1  and  O7_7 
REMARK    2  A    between atoms: C4_4  and  C5_5 
REMARK    3  A    between atoms: C5_5  and  O7_7 
ROOT
HETATM    1  C5  UNL     1     -31.828   8.304   1.450  1.00 20.00     0.184 C 
ENDROOT
BRANCH   1   2
HETATM    2  C4  UNL     1     -32.805   9.173   0.736  1.00 20.00     0.010 A 
HETATM    3  C2  UNL     1     -32.555  10.650   0.612  1.00 20.00     0.007 A 
HETATM    4  C3  UNL     1     -32.454   9.767  -0.600  1.00 20.00     0.007 A 
ENDBRANCH   1   2
BRANCH   1   5
HETATM    5  O7  UNL     1     -32.423   7.774   2.635  1.00 20.00    -0.308 OA
BRANCH   5   6
HETATM    6  C1  UNL     1     -33.172   6.634   2.480  1.00 20.00     0.357 C 
HETATM    7  O6  UNL     1     -32.928   5.782   1.631  1.00 20.00    -0.246 OA
HETATM    8 CL8  UNL     1     -34.492   6.541   3.617  1.00 20.00    -0.012 Cl
ENDBRANCH   5   6
ENDBRANCH   1   5
TORSDOF 3
ENDMDL
MODEL 2
REMARK VINA RESULT:      -2.4      2.353      4.031
REMARK  3 active torsions:
REMARK  status: ('A' for Active; 'I' for Inactive)
REMARK    1  A    between atoms: C1_1  and  O7_7 
REMARK    2  A    between atoms: C4_4  and  C5_5 
REMARK    3  A    between atoms: C5_5  and  O7_7 
ROOT
HETATM    1  C5  UNL     1     -33.069   6.147   2.469  1.00 20.00     0.184 C 
ENDROOT
BRANCH   1   2
HETATM    2  C4  UNL     1     -34.271   6.870   2.970  1.00 20.00     0.010 A 
HETATM    3  C2  UNL     1     -35.160   6.235   4.004  1.00 20.00     0.007 A 
HETATM    4  C3  UNL     1     -34.298   7.411   4.373  1.00 20.00     0.007 A 
ENDBRANCH   1   2
BRANCH   1   5
HETATM    5  O7  UNL     1     -32.480   6.872   1.389  1.00 20.00    -0.308 OA
BRANCH   5   6
HETATM    6  C1  UNL     1     -31.971   8.110   1.696  1.00 20.00     0.357 C 
HETATM    7  O6  UNL     1     -31.314   8.333   2.709  1.00 20.00    -0.246 OA
HETATM    8 CL8  UNL     1     -32.364   9.311   0.493  1.00 20.00    -0.012 Cl
ENDBRANCH   5   6
ENDBRANCH   1   5
TORSDOF 3
ENDMDL
MODEL 3
REMARK VINA RESULT:      -2.3      1.300      1.629
REMARK  3 active torsions:
REMARK  status: ('A' for Active; 'I' for Inactive)
REMARK    1  A    between atoms: C1_1  and  O7_7 
REMARK    2  A    between atoms: C4_4  and  C5_5 
REMARK    3  A    between atoms: C5_5  and  O7_7 
ROOT
HETATM    1  C5  UNL     1     -32.009   8.019   1.373  1.00 20.00     0.184 C 
ENDROOT
BRANCH   1   2
HETATM    2  C4  UNL     1     -31.797   9.333   0.705  1.00 20.00     0.010 A 
HETATM    3  C2  UNL     1     -32.656   9.737  -0.462  1.00 20.00     0.007 A 
HETATM    4  C3  UNL     1     -32.810  10.433   0.862  1.00 20.00     0.007 A 
ENDBRANCH   1   2
BRANCH   1   5
HETATM    5  O7  UNL     1     -32.538   8.218   2.684  1.00 20.00    -0.308 OA
BRANCH   5   6
HETATM    6  C1  UNL     1     -33.445   7.284   3.122  1.00 20.00     0.357 C 
HETATM    7  O6  UNL     1     -34.240   7.497   4.032  1.00 20.00    -0.246 OA
HETATM    8 CL8  UNL     1     -33.335   5.782   2.242  1.00 20.00    -0.012 Cl
ENDBRANCH   5   6
ENDBRANCH   1   5
TORSDOF 3
ENDMDL
MODEL 4
REMARK VINA RESULT:      -2.3      2.615      3.423
REMARK  3 active torsions:
REMARK  status: ('A' for Active; 'I' for Inactive)
REMARK    1  A    between atoms: C1_1  and  O7_7 
REMARK    2  A    between atoms: C4_4  and  C5_5 
REMARK    3  A    between atoms: C5_5  and  O7_7 
ROOT
HETATM    1  C5  UNL     1     -33.770   6.387   3.276  1.00 20.00     0.184 C 
ENDROOT
BRANCH   1   2
HETATM    2  C4  UNL     1     -33.267   7.001   2.015  1.00 20.00     0.010 A 
HETATM    3  C2  UNL     1     -32.059   7.896   2.039  1.00 20.00     0.007 A 
HETATM    4  C3  UNL     1     -31.973   6.533   1.410  1.00 20.00     0.007 A 
ENDBRANCH   1   2
BRANCH   1   5
HETATM    5  O7  UNL     1     -33.516   4.981   3.268  1.00 20.00    -0.308 OA
BRANCH   5   6
HETATM    6  C1  UNL     1     -34.139   4.247   4.247  1.00 20.00     0.357 C 
HETATM    7  O6  UNL     1     -35.259   4.513   4.674  1.00 20.00    -0.246 OA
HETATM    8 CL8  UNL     1     -33.165   2.911   4.802  1.00 20.00    -0.012 Cl
ENDBRANCH   5   6
ENDBRANCH   1   5
TORSDOF 3
ENDMDL
MODEL 5
REMARK VINA RESULT:      -2.1      1.942      2.619
REMARK  3 active torsions:
REMARK  status: ('A' for Active; 'I' for Inactive)
REMARK    1  A    between atoms: C1_1  and  O7_7 
REMARK    2  A    between atoms: C4_4  and  C5_5 
REMARK    3  A    between atoms: C5_5  and  O7_7 
ROOT
HETATM    1  C5  UNL     1     -33.111   6.263   1.933  1.00 20.00     0.184 C 
ENDROOT
BRANCH   1   2
HETATM    2  C4  UNL     1     -31.974   7.146   1.552  1.00 20.00     0.010 A 
HETATM    3  C2  UNL     1     -32.235   8.523   1.006  1.00 20.00     0.007 A 
HETATM    4  C3  UNL     1     -31.646   8.357   2.380  1.00 20.00     0.007 A 
ENDBRANCH   1   2
BRANCH   1   5
HETATM    5  O7  UNL     1     -33.605   6.634   3.221  1.00 20.00    -0.308 OA
BRANCH   5   6
HETATM    6  C1  UNL     1     -34.545   5.799   3.773  1.00 20.00     0.357 C 
HETATM    7  O6  UNL     1     -35.672   6.171   4.086  1.00 20.00    -0.246 OA
HETATM    8 CL8  UNL     1     -33.956   4.169   3.975  1.00 20.00    -0.012 Cl
ENDBRANCH   5   6
ENDBRANCH   1   5
TORSDOF 3
ENDMDL
MODEL 6
REMARK VINA RESULT:      -1.9      2.485      4.051
REMARK  3 active torsions:
REMARK  status: ('A' for Active; 'I' for Inactive)
REMARK    1  A    between atoms: C1_1  and  O7_7 
REMARK    2  A    between atoms: C4_4  and  C5_5 
REMARK    3  A    between atoms: C5_5  and  O7_7 
ROOT
HETATM    1  C5  UNL     1     -33.848   8.099   3.291  1.00 20.00     0.184 C 
ENDROOT
BRANCH   1   2
HETATM    2  C4  UNL     1     -34.215   6.951   4.166  1.00 20.00     0.010 A 
HETATM    3  C2  UNL     1     -35.510   6.219   3.951  1.00 20.00     0.007 A 
HETATM    4  C3  UNL     1     -34.205   5.550   3.620  1.00 20.00     0.007 A 
ENDBRANCH   1   2
BRANCH   1   5
HETATM    5  O7  UNL     1     -32.445   8.080   3.024  1.00 20.00    -0.308 OA
BRANCH   5   6
HETATM    6  C1  UNL     1     -32.078   7.821   1.726  1.00 20.00     0.357 C 
HETATM    7  O6  UNL     1     -31.719   6.713   1.339  1.00 20.00    -0.246 OA
HETATM    8 CL8  UNL     1     -32.182   9.233   0.708  1.00 20.00    -0.012 Cl
ENDBRANCH   5   6
ENDBRANCH   1   5
TORSDOF 3
ENDMDL
MODEL 7
REMARK VINA RESULT:      -1.9      2.390      4.097
REMARK  3 active torsions:
REMARK  status: ('A' for Active; 'I' for Inactive)
REMARK    1  A    between atoms: C1_1  and  O7_7 
REMARK    2  A    between atoms: C4_4  and  C5_5 
REMARK    3  A    between atoms: C5_5  and  O7_7 
ROOT
HETATM    1  C5  UNL     1     -33.869   7.969   3.297  1.00 20.00     0.184 C 
ENDROOT
BRANCH   1   2
HETATM    2  C4  UNL     1     -34.294   6.877   4.217  1.00 20.00     0.010 A 
HETATM    3  C2  UNL     1     -35.595   6.159   3.989  1.00 20.00     0.007 A 
HETATM    4  C3  UNL     1     -34.292   5.449   3.747  1.00 20.00     0.007 A 
ENDBRANCH   1   2
BRANCH   1   5
HETATM    5  O7  UNL     1     -32.470   7.865   3.031  1.00 20.00    -0.308 OA
BRANCH   5   6
HETATM    6  C1  UNL     1     -32.112   7.719   1.713  1.00 20.00     0.357 C 
HETATM    7  O6  UNL     1     -31.946   8.668   0.953  1.00 20.00    -0.246 OA
HETATM    8 CL8  UNL     1     -31.924   6.046   1.253  1.00 20.00    -0.012 Cl
ENDBRANCH   5   6
ENDBRANCH   1   5
TORSDOF 3
ENDMDL
MODEL 8
REMARK VINA RESULT:      -1.9      2.190      3.906
REMARK  3 active torsions:
REMARK  status: ('A' for Active; 'I' for Inactive)
REMARK    1  A    between atoms: C1_1  and  O7_7 
REMARK    2  A    between atoms: C4_4  and  C5_5 
REMARK    3  A    between atoms: C5_5  and  O7_7 
ROOT
HETATM    1  C5  UNL     1     -33.495   6.344   1.945  1.00 20.00     0.184 C 
ENDROOT
BRANCH   1   2
HETATM    2  C4  UNL     1     -33.788   6.278   3.404  1.00 20.00     0.010 A 
HETATM    3  C2  UNL     1     -34.433   7.444   4.101  1.00 20.00     0.007 A 
HETATM    4  C3  UNL     1     -35.208   6.173   3.887  1.00 20.00     0.007 A 
ENDBRANCH   1   2
BRANCH   1   5
HETATM    5  O7  UNL     1     -32.150   6.776   1.738  1.00 20.00    -0.308 OA
BRANCH   5   6
HETATM    6  C1  UNL     1     -31.944   8.134   1.725  1.00 20.00     0.357 C 
HETATM    7  O6  UNL     1     -32.203   8.843   0.757  1.00 20.00    -0.246 OA
HETATM    8 CL8  UNL     1     -31.281   8.724   3.227  1.00 20.00    -0.012 Cl
ENDBRANCH   5   6
ENDBRANCH   1   5
TORSDOF 3
ENDMDL
MODEL 9
REMARK VINA RESULT:      -1.8      2.359      2.924
REMARK  3 active torsions:
REMARK  status: ('A' for Active; 'I' for Inactive)
REMARK    1  A    between atoms: C1_1  and  O7_7 
REMARK    2  A    between atoms: C4_4  and  C5_5 
REMARK    3  A    between atoms: C5_5  and  O7_7 
ROOT
HETATM    1  C5  UNL     1     -33.084   7.499   3.844  1.00 20.00     0.184 C 
ENDROOT
BRANCH   1   2
HETATM    2  C4  UNL     1     -33.094   7.543   2.356  1.00 20.00     0.010 A 
HETATM    3  C2  UNL     1     -31.847   7.913   1.601  1.00 20.00     0.007 A 
HETATM    4  C3  UNL     1     -32.358   6.500   1.562  1.00 20.00     0.007 A 
ENDBRANCH   1   2
BRANCH   1   5
HETATM    5  O7  UNL     1     -34.421   7.411   4.339  1.00 20.00    -0.308 OA
BRANCH   5   6
HETATM    6  C1  UNL     1     -35.162   6.344   3.896  1.00 20.00     0.357 C 
HETATM    7  O6  UNL     1     -36.240   6.468   3.322  1.00 20.00    -0.246 OA
HETATM    8 CL8  UNL     1     -34.402   4.812   4.241  1.00 20.00    -0.012 Cl
ENDBRANCH   5   6
ENDBRANCH   1   5
TORSDOF 3
ENDMDL
