MODEL 1
REMARK VINA RESULT:      -0.1      0.000      0.000
REMARK  2 active torsions:
REMARK  status: ('A' for Active; 'I' for Inactive)
REMARK    1  A    between atoms: C1_1  and  C7_7 
REMARK    2  A    between atoms: C7_7  and  N8_8 
ROOT
HETATM    1  C1  UNL     1     -33.865   5.271   3.843  1.00 20.00    -0.053 C 
HETATM    2  C2  UNL     1     -33.621   4.144   4.176  1.00 20.00    -0.021 C 
HETATM    3 BR9  UNL     1     -33.234   2.361   4.707  1.00 20.00     0.010 Br
ENDROOT
BRANCH   1   4
HETATM    4  C7  UNL     1     -34.165   6.657   3.430  1.00 20.00     0.214 C 
HETATM    5  C3  UNL     1     -33.703   7.635   4.517  1.00 20.00     0.063 C 
HETATM    6  C4  UNL     1     -35.672   6.813   3.190  1.00 20.00     0.063 C 
BRANCH   4   7
HETATM    7  N8  UNL     1     -33.462   6.979   2.185  1.00 20.00     0.100 N 
HETATM    8  C5  UNL     1     -32.922   5.763   1.578  1.00 20.00     0.311 C 
HETATM    9  C6  UNL     1     -32.393   7.943   2.440  1.00 20.00     0.311 C 
ENDBRANCH   4   7
ENDBRANCH   1   4
TORSDOF 2
ENDMDL
MODEL 2
REMARK VINA RESULT:       0.8      3.073      4.061
REMARK  2 active torsions:
REMARK  status: ('A' for Active; 'I' for Inactive)
REMARK    1  A    between atoms: C1_1  and  C7_7 
REMARK    2  A    between atoms: C7_7  and  N8_8 
ROOT
HETATM    1  C1  UNL     1     -33.232   7.988   2.357  1.00 20.00    -0.053 C 
HETATM    2  C2  UNL     1     -32.844   8.706   1.476  1.00 20.00    -0.021 C 
HETATM    3 BR9  UNL     1     -32.232   9.843   0.082  1.00 20.00     0.010 Br
ENDROOT
BRANCH   1   4
HETATM    4  C7  UNL     1     -33.708   7.104   3.440  1.00 20.00     0.214 C 
HETATM    5  C3  UNL     1     -35.240   7.046   3.429  1.00 20.00     0.063 C 
HETATM    6  C4  UNL     1     -33.211   7.626   4.793  1.00 20.00     0.063 C 
BRANCH   4   7
HETATM    7  N8  UNL     1     -33.190   5.746   3.249  1.00 20.00     0.100 N 
HETATM    8  C5  UNL     1     -32.941   5.491   1.831  1.00 20.00     0.311 C 
HETATM    9  C6  UNL     1     -34.128   4.764   3.790  1.00 20.00     0.311 C 
ENDBRANCH   4   7
ENDBRANCH   1   4
TORSDOF 2
ENDMDL
MODEL 3
REMARK VINA RESULT:       0.9      0.703      1.835
REMARK  2 active torsions:
REMARK  status: ('A' for Active; 'I' for Inactive)
REMARK    1  A    between atoms: C1_1  and  C7_7 
REMARK    2  A    between atoms: C7_7  and  N8_8 
ROOT
HETATM    1  C1  UNL     1     -33.701   4.953   3.640  1.00 20.00    -0.053 C 
HETATM    2  C2  UNL     1     -33.511   3.860   4.098  1.00 20.00    -0.021 C 
HETATM    3 BR9  UNL     1     -33.212   2.130   4.824  1.00 20.00     0.010 Br
ENDROOT
BRANCH   1   4
HETATM    4  C7  UNL     1     -33.933   6.299   3.076  1.00 20.00     0.214 C 
HETATM    5  C3  UNL     1     -35.365   6.751   3.381  1.00 20.00     0.063 C 
HETATM    6  C4  UNL     1     -33.701   6.273   1.560  1.00 20.00     0.063 C 
BRANCH   4   7
HETATM    7  N8  UNL     1     -33.004   7.264   3.670  1.00 20.00     0.100 N 
HETATM    8  C5  UNL     1     -33.707   8.132   4.613  1.00 20.00     0.311 C 
HETATM    9  C6  UNL     1     -32.358   8.057   2.626  1.00 20.00     0.311 C 
ENDBRANCH   4   7
ENDBRANCH   1   4
TORSDOF 2
ENDMDL
MODEL 4
REMARK VINA RESULT:       1.0      3.226      4.383
REMARK  2 active torsions:
REMARK  status: ('A' for Active; 'I' for Inactive)
REMARK    1  A    between atoms: C1_1  and  C7_7 
REMARK    2  A    between atoms: C7_7  and  N8_8 
ROOT
HETATM    1  C1  UNL     1     -32.669   7.452   1.389  1.00 20.00    -0.053 C 
HETATM    2  C2  UNL     1     -32.545   8.595   1.040  1.00 20.00    -0.021 C 
HETATM    3 BR9  UNL     1     -32.349  10.402   0.490  1.00 20.00     0.010 Br
ENDROOT
BRANCH   1   4
HETATM    4  C7  UNL     1     -32.822   6.047   1.816  1.00 20.00     0.214 C 
HETATM    5  C3  UNL     1     -31.473   5.325   1.723  1.00 20.00     0.063 C 
HETATM    6  C4  UNL     1     -33.857   5.344   0.929  1.00 20.00     0.063 C 
BRANCH   4   7
HETATM    7  N8  UNL     1     -33.286   5.988   3.205  1.00 20.00     0.100 N 
HETATM    8  C5  UNL     1     -33.853   4.672   3.496  1.00 20.00     0.311 C 
HETATM    9  C6  UNL     1     -34.271   7.038   3.456  1.00 20.00     0.311 C 
ENDBRANCH   4   7
ENDBRANCH   1   4
TORSDOF 2
ENDMDL
MODEL 5
REMARK VINA RESULT:       1.5      2.307      3.522
REMARK  2 active torsions:
REMARK  status: ('A' for Active; 'I' for Inactive)
REMARK    1  A    between atoms: C1_1  and  C7_7 
REMARK    2  A    between atoms: C7_7  and  N8_8 
ROOT
HETATM    1  C1  UNL     1     -33.194   7.400   2.623  1.00 20.00    -0.053 C 
HETATM    2  C2  UNL     1     -34.047   6.832   3.248  1.00 20.00    -0.021 C 
HETATM    3 BR9  UNL     1     -35.398   5.934   4.237  1.00 20.00     0.010 Br
ENDROOT
BRANCH   1   4
HETATM    4  C7  UNL     1     -32.143   8.099   1.855  1.00 20.00     0.214 C 
HETATM    5  C3  UNL     1     -31.306   7.081   1.072  1.00 20.00     0.063 C 
HETATM    6  C4  UNL     1     -31.244   8.895   2.809  1.00 20.00     0.063 C 
BRANCH   4   7
HETATM    7  N8  UNL     1     -32.749   9.034   0.902  1.00 20.00     0.100 N 
HETATM    8  C5  UNL     1     -32.018   9.014  -0.363  1.00 20.00     0.311 C 
HETATM    9  C6  UNL     1     -32.772  10.384   1.461  1.00 20.00     0.311 C 
ENDBRANCH   4   7
ENDBRANCH   1   4
TORSDOF 2
ENDMDL
MODEL 6
REMARK VINA RESULT:       1.6      3.570      4.847
REMARK  2 active torsions:
REMARK  status: ('A' for Active; 'I' for Inactive)
REMARK    1  A    between atoms: C1_1  and  C7_7 
REMARK    2  A    between atoms: C7_7  and  N8_8 
ROOT
HETATM    1  C1  UNL     1     -32.529   8.578   1.330  1.00 20.00    -0.053 C 
HETATM    2  C2  UNL     1     -32.603   9.412   0.469  1.00 20.00    -0.021 C 
HETATM    3 BR9  UNL     1     -32.721  10.731  -0.893  1.00 20.00     0.010 Br
ENDROOT
BRANCH   1   4
HETATM    4  C7  UNL     1     -32.437   7.552   2.388  1.00 20.00     0.214 C 
HETATM    5  C3  UNL     1     -31.535   8.052   3.521  1.00 20.00     0.063 C 
HETATM    6  C4  UNL     1     -31.873   6.251   1.803  1.00 20.00     0.063 C 
BRANCH   4   7
HETATM    7  N8  UNL     1     -33.766   7.273   2.940  1.00 20.00     0.100 N 
HETATM    8  C5  UNL     1     -33.921   7.918   4.243  1.00 20.00     0.311 C 
HETATM    9  C6  UNL     1     -33.977   5.831   3.053  1.00 20.00     0.311 C 
ENDBRANCH   4   7
ENDBRANCH   1   4
TORSDOF 2
ENDMDL
MODEL 7
REMARK VINA RESULT:       1.7      0.959      2.579
REMARK  2 active torsions:
REMARK  status: ('A' for Active; 'I' for Inactive)
REMARK    1  A    between atoms: C1_1  and  C7_7 
REMARK    2  A    between atoms: C7_7  and  N8_8 
ROOT
HETATM    1  C1  UNL     1     -33.096   4.973   2.759  1.00 20.00    -0.053 C 
HETATM    2  C2  UNL     1     -33.197   4.148   3.626  1.00 20.00    -0.021 C 
HETATM    3 BR9  UNL     1     -33.356   2.846   5.000  1.00 20.00     0.010 Br
ENDROOT
BRANCH   1   4
HETATM    4  C7  UNL     1     -32.972   5.985   1.691  1.00 20.00     0.214 C 
HETATM    5  C3  UNL     1     -33.961   5.676   0.562  1.00 20.00     0.063 C 
HETATM    6  C4  UNL     1     -31.538   5.991   1.146  1.00 20.00     0.063 C 
BRANCH   4   7
HETATM    7  N8  UNL     1     -33.272   7.319   2.220  1.00 20.00     0.100 N 
HETATM    8  C5  UNL     1     -32.070   8.150   2.212  1.00 20.00     0.311 C 
HETATM    9  C6  UNL     1     -33.817   7.218   3.573  1.00 20.00     0.311 C 
ENDBRANCH   4   7
ENDBRANCH   1   4
TORSDOF 2
ENDMDL
MODEL 8
REMARK VINA RESULT:       1.9      1.190      2.459
REMARK  2 active torsions:
REMARK  status: ('A' for Active; 'I' for Inactive)
REMARK    1  A    between atoms: C1_1  and  C7_7 
REMARK    2  A    between atoms: C7_7  and  N8_8 
ROOT
HETATM    1  C1  UNL     1     -32.996   4.982   2.837  1.00 20.00    -0.053 C 
HETATM    2  C2  UNL     1     -33.147   4.120   3.659  1.00 20.00    -0.021 C 
HETATM    3 BR9  UNL     1     -33.387   2.758   4.961  1.00 20.00     0.010 Br
ENDROOT
BRANCH   1   4
HETATM    4  C7  UNL     1     -32.809   6.042   1.825  1.00 20.00     0.214 C 
HETATM    5  C3  UNL     1     -34.087   6.201   0.995  1.00 20.00     0.063 C 
HETATM    6  C4  UNL     1     -31.630   5.684   0.911  1.00 20.00     0.063 C 
BRANCH   4   7
HETATM    7  N8  UNL     1     -32.516   7.321   2.479  1.00 20.00     0.100 N 
HETATM    8  C5  UNL     1     -33.618   7.705   3.359  1.00 20.00     0.311 C 
HETATM    9  C6  UNL     1     -32.273   8.358   1.479  1.00 20.00     0.311 C 
ENDBRANCH   4   7
ENDBRANCH   1   4
TORSDOF 2
ENDMDL
MODEL 9
REMARK VINA RESULT:       2.0      3.162      4.104
REMARK  2 active torsions:
REMARK  status: ('A' for Active; 'I' for Inactive)
REMARK    1  A    between atoms: C1_1  and  C7_7 
REMARK    2  A    between atoms: C7_7  and  N8_8 
ROOT
HETATM    1  C1  UNL     1     -33.246   8.021   2.078  1.00 20.00    -0.053 C 
HETATM    2  C2  UNL     1     -32.844   8.795   1.253  1.00 20.00    -0.021 C 
HETATM    3 BR9  UNL     1     -32.209  10.022  -0.051  1.00 20.00     0.010 Br
ENDROOT
BRANCH   1   4
HETATM    4  C7  UNL     1     -33.740   7.068   3.092  1.00 20.00     0.214 C 
HETATM    5  C3  UNL     1     -35.222   7.335   3.380  1.00 20.00     0.063 C 
HETATM    6  C4  UNL     1     -32.921   7.209   4.381  1.00 20.00     0.063 C 
BRANCH   4   7
HETATM    7  N8  UNL     1     -33.601   5.692   2.604  1.00 20.00     0.100 N 
HETATM    8  C5  UNL     1     -33.639   4.751   3.721  1.00 20.00     0.311 C 
HETATM    9  C6  UNL     1     -32.358   5.544   1.850  1.00 20.00     0.311 C 
ENDBRANCH   4   7
ENDBRANCH   1   4
TORSDOF 2
ENDMDL
