MODEL 1
REMARK VINA RESULT:       0.4      0.000      0.000
REMARK  2 active torsions:
REMARK  status: ('A' for Active; 'I' for Inactive)
REMARK    1  A    between atoms: C1_1  and  C9_9 
REMARK    2  A    between atoms: C9_9  and  N10_10 
ROOT
HETATM    1  C2  UNL     1     -35.427   5.088   4.483  1.00 20.00     0.003 C 
HETATM    2  C3  UNL     1     -34.144   4.279   4.323  1.00 20.00     0.030 C 
HETATM    3  C4  UNL     1     -35.136   6.578   4.343  1.00 20.00     0.030 C 
HETATM    4  C5  UNL     1     -33.410   4.650   3.035  1.00 20.00     0.273 C 
HETATM    5  C6  UNL     1     -34.371   6.877   3.055  1.00 20.00     0.273 C 
HETATM    6  N10 UNL     1     -33.130   6.093   2.981  1.00 20.00     0.099 N 
ENDROOT
BRANCH   6   7
HETATM    7  C9  UNL     1     -32.386   6.425   1.766  1.00 20.00     0.287 C 
HETATM    8  C8  UNL     1     -33.201   6.165   0.513  1.00 20.00     0.051 C 
BRANCH   7   9
HETATM    9  C1  UNL     1     -31.998   7.893   1.859  1.00 20.00     0.155 C 
HETATM   10  C7  UNL     1     -32.252   8.736   0.636  1.00 20.00     0.093 C 
HETATM   11  O11 UNL     1     -31.539   8.391   2.887  1.00 20.00    -0.296 OA
ENDBRANCH   7   9
ENDBRANCH   6   7
TORSDOF 2
ENDMDL
MODEL 2
REMARK VINA RESULT:       0.5      1.683      2.597
REMARK  2 active torsions:
REMARK  status: ('A' for Active; 'I' for Inactive)
REMARK    1  A    between atoms: C1_1  and  C9_9 
REMARK    2  A    between atoms: C9_9  and  N10_10 
ROOT
HETATM    1  C2  UNL     1     -34.285   5.566   3.708  1.00 20.00     0.003 C 
HETATM    2  C3  UNL     1     -34.606   7.030   3.992  1.00 20.00     0.030 C 
HETATM    3  C4  UNL     1     -33.853   5.388   2.257  1.00 20.00     0.030 C 
HETATM    4  C5  UNL     1     -33.454   7.943   3.569  1.00 20.00     0.273 C 
HETATM    5  C6  UNL     1     -32.726   6.352   1.889  1.00 20.00     0.273 C 
HETATM    6  N10 UNL     1     -33.113   7.745   2.153  1.00 20.00     0.099 N 
ENDROOT
BRANCH   6   7
HETATM    7  C9  UNL     1     -32.044   8.658   1.751  1.00 20.00     0.287 C 
HETATM    8  C8  UNL     1     -30.757   7.919   1.433  1.00 20.00     0.051 C 
BRANCH   7   9
HETATM    9  C1  UNL     1     -32.536   9.427   0.535  1.00 20.00     0.155 C 
HETATM   10  C7  UNL     1     -32.730  10.911   0.708  1.00 20.00     0.093 C 
HETATM   11  O11 UNL     1     -32.729   8.886  -0.554  1.00 20.00    -0.296 OA
ENDBRANCH   7   9
ENDBRANCH   6   7
TORSDOF 2
ENDMDL
MODEL 3
REMARK VINA RESULT:       0.8      2.072      4.365
REMARK  2 active torsions:
REMARK  status: ('A' for Active; 'I' for Inactive)
REMARK    1  A    between atoms: C1_1  and  C9_9 
REMARK    2  A    between atoms: C9_9  and  N10_10 
ROOT
HETATM    1  C2  UNL     1     -31.707   7.539   1.112  1.00 20.00     0.003 C 
HETATM    2  C3  UNL     1     -31.696   8.173   2.499  1.00 20.00     0.030 C 
HETATM    3  C4  UNL     1     -32.197   6.098   1.189  1.00 20.00     0.030 C 
HETATM    4  C5  UNL     1     -33.048   8.013   3.194  1.00 20.00     0.273 C 
HETATM    5  C6  UNL     1     -33.533   6.003   1.925  1.00 20.00     0.273 C 
HETATM    6  N10 UNL     1     -33.443   6.598   3.266  1.00 20.00     0.099 N 
ENDROOT
BRANCH   6   7
HETATM    7  C9  UNL     1     -34.715   6.457   3.975  1.00 20.00     0.287 C 
HETATM    8  C8  UNL     1     -35.894   6.855   3.107  1.00 20.00     0.051 C 
BRANCH   7   9
HETATM    9  C1  UNL     1     -34.834   5.005   4.409  1.00 20.00     0.155 C 
HETATM   10  C7  UNL     1     -33.656   4.114   4.112  1.00 20.00     0.093 C 
HETATM   11  O11 UNL     1     -35.818   4.574   5.011  1.00 20.00    -0.296 OA
ENDBRANCH   7   9
ENDBRANCH   6   7
TORSDOF 2
ENDMDL
MODEL 4
REMARK VINA RESULT:       1.1      1.828      4.320
REMARK  2 active torsions:
REMARK  status: ('A' for Active; 'I' for Inactive)
REMARK    1  A    between atoms: C1_1  and  C9_9 
REMARK    2  A    between atoms: C9_9  and  N10_10 
ROOT
HETATM    1  C2  UNL     1     -31.378   7.501   0.574  1.00 20.00     0.003 C 
HETATM    2  C3  UNL     1     -32.315   6.301   0.659  1.00 20.00     0.030 C 
HETATM    3  C4  UNL     1     -31.990   8.704   1.283  1.00 20.00     0.030 C 
HETATM    4  C5  UNL     1     -32.734   6.024   2.103  1.00 20.00     0.273 C 
HETATM    5  C6  UNL     1     -32.419   8.352   2.707  1.00 20.00     0.273 C 
HETATM    6  N10 UNL     1     -33.347   7.212   2.714  1.00 20.00     0.099 N 
ENDROOT
BRANCH   6   7
HETATM    7  C9  UNL     1     -33.786   6.918   4.078  1.00 20.00     0.287 C 
HETATM    8  C8  UNL     1     -33.959   8.180   4.902  1.00 20.00     0.051 C 
BRANCH   7   9
HETATM    9  C1  UNL     1     -35.099   6.157   3.978  1.00 20.00     0.155 C 
HETATM   10  C7  UNL     1     -35.133   4.787   4.605  1.00 20.00     0.093 C 
HETATM   11  O11 UNL     1     -36.103   6.638   3.453  1.00 20.00    -0.296 OA
ENDBRANCH   7   9
ENDBRANCH   6   7
TORSDOF 2
ENDMDL
MODEL 5
REMARK VINA RESULT:       1.2      0.582      1.592
REMARK  2 active torsions:
REMARK  status: ('A' for Active; 'I' for Inactive)
REMARK    1  A    between atoms: C1_1  and  C9_9 
REMARK    2  A    between atoms: C9_9  and  N10_10 
ROOT
HETATM    1  C2  UNL     1     -35.265   5.419   4.749  1.00 20.00     0.003 C 
HETATM    2  C3  UNL     1     -35.349   6.660   3.866  1.00 20.00     0.030 C 
HETATM    3  C4  UNL     1     -34.558   4.288   4.010  1.00 20.00     0.030 C 
HETATM    4  C5  UNL     1     -33.977   7.042   3.311  1.00 20.00     0.273 C 
HETATM    5  C6  UNL     1     -33.211   4.744   3.451  1.00 20.00     0.273 C 
HETATM    6  N10 UNL     1     -33.368   5.919   2.582  1.00 20.00     0.099 N 
ENDROOT
BRANCH   6   7
HETATM    7  C9  UNL     1     -32.078   6.314   2.018  1.00 20.00     0.287 C 
HETATM    8  C8  UNL     1     -31.885   5.775   0.613  1.00 20.00     0.051 C 
BRANCH   7   9
HETATM    9  C1  UNL     1     -32.028   7.834   2.021  1.00 20.00     0.155 C 
HETATM   10  C7  UNL     1     -32.333   8.521   0.715  1.00 20.00     0.093 C 
HETATM   11  O11 UNL     1     -31.793   8.486   3.039  1.00 20.00    -0.296 OA
ENDBRANCH   7   9
ENDBRANCH   6   7
TORSDOF 2
ENDMDL
MODEL 6
REMARK VINA RESULT:       1.5      1.976      4.160
REMARK  2 active torsions:
REMARK  status: ('A' for Active; 'I' for Inactive)
REMARK    1  A    between atoms: C1_1  and  C9_9 
REMARK    2  A    between atoms: C9_9  and  N10_10 
ROOT
HETATM    1  C2  UNL     1     -32.223   8.134   1.760  1.00 20.00     0.003 C 
HETATM    2  C3  UNL     1     -32.550   8.085   3.249  1.00 20.00     0.030 C 
HETATM    3  C4  UNL     1     -31.836   6.749   1.255  1.00 20.00     0.030 C 
HETATM    4  C5  UNL     1     -33.583   7.000   3.556  1.00 20.00     0.273 C 
HETATM    5  C6  UNL     1     -32.891   5.707   1.624  1.00 20.00     0.273 C 
HETATM    6  N10 UNL     1     -33.132   5.687   3.074  1.00 20.00     0.099 N 
ENDROOT
BRANCH   6   7
HETATM    7  C9  UNL     1     -34.108   4.653   3.416  1.00 20.00     0.287 C 
HETATM    8  C8  UNL     1     -33.490   3.545   4.249  1.00 20.00     0.051 C 
BRANCH   7   9
HETATM    9  C1  UNL     1     -35.238   5.329   4.175  1.00 20.00     0.155 C 
HETATM   10  C7  UNL     1     -35.825   6.567   3.548  1.00 20.00     0.093 C 
HETATM   11  O11 UNL     1     -35.690   4.877   5.228  1.00 20.00    -0.296 OA
ENDBRANCH   7   9
ENDBRANCH   6   7
TORSDOF 2
ENDMDL
MODEL 7
REMARK VINA RESULT:       1.6      1.889      4.552
REMARK  2 active torsions:
REMARK  status: ('A' for Active; 'I' for Inactive)
REMARK    1  A    between atoms: C1_1  and  C9_9 
REMARK    2  A    between atoms: C9_9  and  N10_10 
ROOT
HETATM    1  C2  UNL     1     -31.749   9.837   0.103  1.00 20.00     0.003 C 
HETATM    2  C3  UNL     1     -31.439   8.344   0.101  1.00 20.00     0.030 C 
HETATM    3  C4  UNL     1     -33.091  10.100   0.777  1.00 20.00     0.030 C 
HETATM    4  C5  UNL     1     -31.557   7.749   1.504  1.00 20.00     0.273 C 
HETATM    5  C6  UNL     1     -33.156   9.451   2.159  1.00 20.00     0.273 C 
HETATM    6  N10 UNL     1     -32.884   8.009   2.081  1.00 20.00     0.099 N 
ENDROOT
BRANCH   6   7
HETATM    7  C9  UNL     1     -32.998   7.394   3.403  1.00 20.00     0.287 C 
HETATM    8  C8  UNL     1     -33.579   8.352   4.425  1.00 20.00     0.051 C 
BRANCH   7   9
HETATM    9  C1  UNL     1     -33.881   6.164   3.257  1.00 20.00     0.155 C 
HETATM   10  C7  UNL     1     -35.246   6.236   3.890  1.00 20.00     0.093 C 
HETATM   11  O11 UNL     1     -33.529   5.170   2.622  1.00 20.00    -0.296 OA
ENDBRANCH   7   9
ENDBRANCH   6   7
TORSDOF 2
ENDMDL
MODEL 8
REMARK VINA RESULT:       1.8      1.883      4.670
REMARK  2 active torsions:
REMARK  status: ('A' for Active; 'I' for Inactive)
REMARK    1  A    between atoms: C1_1  and  C9_9 
REMARK    2  A    between atoms: C9_9  and  N10_10 
ROOT
HETATM    1  C2  UNL     1     -32.338   9.537  -0.158  1.00 20.00     0.003 C 
HETATM    2  C3  UNL     1     -32.911  10.289   1.038  1.00 20.00     0.030 C 
HETATM    3  C4  UNL     1     -31.265   8.554   0.295  1.00 20.00     0.030 C 
HETATM    4  C5  UNL     1     -33.373   9.325   2.132  1.00 20.00     0.273 C 
HETATM    5  C6  UNL     1     -31.779   7.645   1.411  1.00 20.00     0.273 C 
HETATM    6  N10 UNL     1     -32.282   8.431   2.546  1.00 20.00     0.099 N 
ENDROOT
BRANCH   6   7
HETATM    7  C9  UNL     1     -32.725   7.548   3.624  1.00 20.00     0.287 C 
HETATM    8  C8  UNL     1     -33.383   8.318   4.754  1.00 20.00     0.051 C 
BRANCH   7   9
HETATM    9  C1  UNL     1     -33.697   6.547   3.020  1.00 20.00     0.155 C 
HETATM   10  C7  UNL     1     -35.064   6.469   3.650  1.00 20.00     0.093 C 
HETATM   11  O11 UNL     1     -33.412   5.858   2.039  1.00 20.00    -0.296 OA
ENDBRANCH   7   9
ENDBRANCH   6   7
TORSDOF 2
ENDMDL
MODEL 9
REMARK VINA RESULT:       1.8      1.997      4.290
REMARK  2 active torsions:
REMARK  status: ('A' for Active; 'I' for Inactive)
REMARK    1  A    between atoms: C1_1  and  C9_9 
REMARK    2  A    between atoms: C9_9  and  N10_10 
ROOT
HETATM    1  C2  UNL     1     -31.683   7.499   1.459  1.00 20.00     0.003 C 
HETATM    2  C3  UNL     1     -32.154   6.084   1.141  1.00 20.00     0.030 C 
HETATM    3  C4  UNL     1     -32.757   8.256   2.232  1.00 20.00     0.030 C 
HETATM    4  C5  UNL     1     -32.639   5.364   2.400  1.00 20.00     0.273 C 
HETATM    5  C6  UNL     1     -33.222   7.468   3.456  1.00 20.00     0.273 C 
HETATM    6  N10 UNL     1     -33.696   6.129   3.075  1.00 20.00     0.099 N 
ENDROOT
BRANCH   6   7
HETATM    7  C9  UNL     1     -34.182   5.406   4.250  1.00 20.00     0.287 C 
HETATM    8  C8  UNL     1     -35.681   5.558   4.429  1.00 20.00     0.051 C 
BRANCH   7   9
HETATM    9  C1  UNL     1     -33.809   3.943   4.068  1.00 20.00     0.155 C 
HETATM   10  C7  UNL     1     -32.969   3.321   5.154  1.00 20.00     0.093 C 
HETATM   11  O11 UNL     1     -34.199   3.276   3.110  1.00 20.00    -0.296 OA
ENDBRANCH   7   9
ENDBRANCH   6   7
TORSDOF 2
ENDMDL
