MODEL 1
REMARK VINA RESULT:      -0.2      0.000      0.000
REMARK  1 active torsions:
REMARK  status: ('A' for Active; 'I' for Inactive)
REMARK    1  A    between atoms: C11_11  and  N13_13 
ROOT
HETATM    1  C1  UNL     1     -32.309   9.514   0.084  1.00 20.00     0.089 C 
HETATM    2  C11 UNL     1     -31.327   9.073   1.075  1.00 20.00     0.395 C 
HETATM    3  N12 UNL     1     -33.086   9.866  -0.702  1.00 20.00    -0.195 NA
ENDROOT
BRANCH   2   4
HETATM    4  N13 UNL     1     -31.776   7.858   1.747  1.00 20.00     0.101 N 
HETATM    5  C7  UNL     1     -32.044   6.779   0.801  1.00 20.00     0.274 C 
HETATM    6  C6  UNL     1     -32.250   5.451   1.544  1.00 20.00     0.035 C 
HETATM    7  C9  UNL     1     -32.994   5.612   2.882  1.00 20.00    -0.007 C 
HETATM    8  C4  UNL     1     -33.854   4.380   3.195  1.00 20.00     0.005 C 
HETATM    9  C10 UNL     1     -33.828   6.902   2.874  1.00 20.00     0.018 C 
HETATM   10  C2  UNL     1     -34.642   4.560   4.489  1.00 20.00     0.000 C 
HETATM   11  C3  UNL     1     -35.486   5.831   4.461  1.00 20.00     0.000 C 
HETATM   12  C5  UNL     1     -34.635   7.063   4.171  1.00 20.00     0.007 C 
HETATM   13  C8  UNL     1     -32.925   8.130   2.627  1.00 20.00     0.278 C 
ENDBRANCH   2   4
TORSDOF 1
ENDMDL
MODEL 2
REMARK VINA RESULT:       1.4      0.823      2.116
REMARK  1 active torsions:
REMARK  status: ('A' for Active; 'I' for Inactive)
REMARK    1  A    between atoms: C11_11  and  N13_13 
ROOT
HETATM    1  C1  UNL     1     -32.088   9.664   0.162  1.00 20.00     0.089 C 
HETATM    2  C11 UNL     1     -31.646   8.394   0.738  1.00 20.00     0.395 C 
HETATM    3  N12 UNL     1     -32.435  10.672  -0.297  1.00 20.00    -0.195 NA
ENDROOT
BRANCH   2   4
HETATM    4  N13 UNL     1     -32.673   7.834   1.610  1.00 20.00     0.101 N 
HETATM    5  C7  UNL     1     -32.748   8.540   2.886  1.00 20.00     0.274 C 
HETATM    6  C6  UNL     1     -34.001   8.112   3.664  1.00 20.00     0.035 C 
HETATM    7  C9  UNL     1     -34.341   6.619   3.497  1.00 20.00    -0.007 C 
HETATM    8  C4  UNL     1     -34.991   6.049   4.764  1.00 20.00     0.005 C 
HETATM    9  C10 UNL     1     -33.085   5.830   3.097  1.00 20.00     0.018 C 
HETATM   10  C2  UNL     1     -35.273   4.555   4.627  1.00 20.00     0.000 C 
HETATM   11  C3  UNL     1     -34.014   3.778   4.254  1.00 20.00     0.000 C 
HETATM   12  C5  UNL     1     -33.372   4.326   2.983  1.00 20.00     0.007 C 
HETATM   13  C8  UNL     1     -32.493   6.383   1.781  1.00 20.00     0.278 C 
ENDBRANCH   2   4
TORSDOF 1
ENDMDL
MODEL 3
REMARK VINA RESULT:       2.0      2.270      5.396
REMARK  1 active torsions:
REMARK  status: ('A' for Active; 'I' for Inactive)
REMARK    1  A    between atoms: C11_11  and  N13_13 
ROOT
HETATM    1  C1  UNL     1     -33.555   3.175   4.654  1.00 20.00     0.089 C 
HETATM    2  C11 UNL     1     -34.579   4.191   4.418  1.00 20.00     0.395 C 
HETATM    3  N12 UNL     1     -32.744   2.366   4.843  1.00 20.00    -0.195 NA
ENDROOT
BRANCH   2   4
HETATM    4  N13 UNL     1     -33.973   5.458   4.024  1.00 20.00     0.101 N 
HETATM    5  C7  UNL     1     -34.952   6.540   3.976  1.00 20.00     0.274 C 
HETATM    6  C6  UNL     1     -34.248   7.896   3.826  1.00 20.00     0.035 C 
HETATM    7  C9  UNL     1     -33.002   7.839   2.924  1.00 20.00    -0.007 C 
HETATM    8  C4  UNL     1     -32.799   9.157   2.166  1.00 20.00     0.005 C 
HETATM    9  C10 UNL     1     -33.093   6.640   1.967  1.00 20.00     0.018 C 
HETATM   10  C2  UNL     1     -31.602   9.084   1.223  1.00 20.00     0.000 C 
HETATM   11  C3  UNL     1     -31.714   7.905   0.261  1.00 20.00     0.000 C 
HETATM   12  C5  UNL     1     -31.896   6.587   1.008  1.00 20.00     0.007 C 
HETATM   13  C8  UNL     1     -33.226   5.322   2.761  1.00 20.00     0.278 C 
ENDBRANCH   2   4
TORSDOF 1
ENDMDL
