MODEL 1
REMARK VINA RESULT:      -2.4      0.000      0.000
REMARK  2 active torsions:
REMARK  status: ('A' for Active; 'I' for Inactive)
REMARK    1  A    between atoms: C2_2  and  C4_4 
REMARK       I    between atoms: C2_2  and  N6_6 
REMARK    2  A    between atoms: C4_4  and  C5_5 
ROOT
HETATM    1  C1  UNL     1     -32.090   8.794   0.988  1.00 20.00     0.166 C 
HETATM    2  C2  UNL     1     -32.770   6.966   1.993  1.00 20.00     0.244 C 
HETATM    3  N6  UNL     1     -31.782   7.864   1.635  1.00 20.00    -0.199 NA
HETATM    4  O7  UNL     1     -32.791   5.763   1.736  1.00 20.00    -0.271 OA
HETATM    5  S8  UNL     1     -32.471  10.068   0.111  1.00 20.00    -0.055 SA
ENDROOT
BRANCH   2   6
HETATM    6  C4  UNL     1     -33.866   7.629   2.815  1.00 20.00     0.105 C 
BRANCH   6   7
HETATM    7  C5  UNL     1     -34.149   6.924   4.140  1.00 20.00     0.005 C 
HETATM    8  C3  UNL     1     -35.391   6.047   4.080  1.00 20.00     0.005 C 
ENDBRANCH   6   7
ENDBRANCH   2   6
TORSDOF 2
ENDMDL
MODEL 2
REMARK VINA RESULT:      -1.5      2.457      2.812
REMARK  2 active torsions:
REMARK  status: ('A' for Active; 'I' for Inactive)
REMARK    1  A    between atoms: C2_2  and  C4_4 
REMARK       I    between atoms: C2_2  and  N6_6 
REMARK    2  A    between atoms: C4_4  and  C5_5 
ROOT
HETATM    1  C1  UNL     1     -32.789   6.733   2.058  1.00 20.00     0.166 C 
HETATM    2  C2  UNL     1     -33.895   7.385   3.836  1.00 20.00     0.244 C 
HETATM    3  N6  UNL     1     -33.217   7.645   2.660  1.00 20.00    -0.199 NA
HETATM    4  O7  UNL     1     -33.611   7.817   4.953  1.00 20.00    -0.271 OA
HETATM    5  S8  UNL     1     -32.195   5.521   1.212  1.00 20.00    -0.055 SA
ENDROOT
BRANCH   2   6
HETATM    6  C4  UNL     1     -35.114   6.504   3.604  1.00 20.00     0.105 C 
BRANCH   6   7
HETATM    7  C5  UNL     1     -35.183   5.295   4.534  1.00 20.00     0.005 C 
HETATM    8  C3  UNL     1     -34.145   4.235   4.190  1.00 20.00     0.005 C 
ENDBRANCH   6   7
ENDBRANCH   2   6
TORSDOF 2
ENDMDL
MODEL 3
REMARK VINA RESULT:      -1.2      3.789      4.628
REMARK  2 active torsions:
REMARK  status: ('A' for Active; 'I' for Inactive)
REMARK    1  A    between atoms: C2_2  and  C4_4 
REMARK       I    between atoms: C2_2  and  N6_6 
REMARK    2  A    between atoms: C4_4  and  C5_5 
ROOT
HETATM    1  C1  UNL     1     -34.429   4.325   4.466  1.00 20.00     0.166 C 
HETATM    2  C2  UNL     1     -35.234   6.266   3.837  1.00 20.00     0.244 C 
HETATM    3  N6  UNL     1     -35.259   5.138   4.635  1.00 20.00    -0.199 NA
HETATM    4  O7  UNL     1     -36.138   6.659   3.101  1.00 20.00    -0.271 OA
HETATM    5  S8  UNL     1     -33.319   3.200   4.266  1.00 20.00    -0.055 SA
ENDROOT
BRANCH   2   6
HETATM    6  C4  UNL     1     -33.934   7.042   3.994  1.00 20.00     0.105 C 
BRANCH   6   7
HETATM    7  C5  UNL     1     -33.290   7.433   2.666  1.00 20.00     0.005 C 
HETATM    8  C3  UNL     1     -32.860   6.223   1.848  1.00 20.00     0.005 C 
ENDBRANCH   6   7
ENDBRANCH   2   6
TORSDOF 2
ENDMDL
MODEL 4
REMARK VINA RESULT:      -1.2      2.321      3.801
REMARK  2 active torsions:
REMARK  status: ('A' for Active; 'I' for Inactive)
REMARK    1  A    between atoms: C2_2  and  C4_4 
REMARK       I    between atoms: C2_2  and  N6_6 
REMARK    2  A    between atoms: C4_4  and  C5_5 
ROOT
HETATM    1  C1  UNL     1     -33.790   7.053   3.277  1.00 20.00     0.166 C 
HETATM    2  C2  UNL     1     -32.314   6.647   1.706  1.00 20.00     0.244 C 
HETATM    3  N6  UNL     1     -33.604   6.617   2.202  1.00 20.00    -0.199 NA
HETATM    4  O7  UNL     1     -31.653   5.678   1.334  1.00 20.00    -0.271 OA
HETATM    5  S8  UNL     1     -34.083   7.637   4.729  1.00 20.00    -0.055 SA
ENDROOT
BRANCH   2   6
HETATM    6  C4  UNL     1     -31.775   8.067   1.615  1.00 20.00     0.105 C 
BRANCH   6   7
HETATM    7  C5  UNL     1     -32.010   8.726   0.258  1.00 20.00     0.005 C 
HETATM    8  C3  UNL     1     -32.539  10.147   0.384  1.00 20.00     0.005 C 
ENDBRANCH   6   7
ENDBRANCH   2   6
TORSDOF 2
ENDMDL
MODEL 5
REMARK VINA RESULT:      -1.0      2.566      4.032
REMARK  2 active torsions:
REMARK  status: ('A' for Active; 'I' for Inactive)
REMARK    1  A    between atoms: C2_2  and  C4_4 
REMARK       I    between atoms: C2_2  and  N6_6 
REMARK    2  A    between atoms: C4_4  and  C5_5 
ROOT
HETATM    1  C1  UNL     1     -33.766   6.417   2.808  1.00 20.00     0.166 C 
HETATM    2  C2  UNL     1     -32.126   7.368   1.705  1.00 20.00     0.244 C 
HETATM    3  N6  UNL     1     -32.999   6.319   1.924  1.00 20.00    -0.199 NA
HETATM    4  O7  UNL     1     -30.897   7.307   1.709  1.00 20.00    -0.271 OA
HETATM    5  S8  UNL     1     -34.822   6.513   3.997  1.00 20.00    -0.055 SA
ENDROOT
BRANCH   2   6
HETATM    6  C4  UNL     1     -32.863   8.664   1.400  1.00 20.00     0.105 C 
BRANCH   6   7
HETATM    7  C5  UNL     1     -32.054   9.643   0.553  1.00 20.00     0.005 C 
HETATM    8  C3  UNL     1     -32.878  10.261  -0.569  1.00 20.00     0.005 C 
ENDBRANCH   6   7
ENDBRANCH   2   6
TORSDOF 2
ENDMDL
MODEL 6
REMARK VINA RESULT:      -0.8      3.430      4.015
REMARK  2 active torsions:
REMARK  status: ('A' for Active; 'I' for Inactive)
REMARK    1  A    between atoms: C2_2  and  C4_4 
REMARK       I    between atoms: C2_2  and  N6_6 
REMARK    2  A    between atoms: C4_4  and  C5_5 
ROOT
HETATM    1  C1  UNL     1     -34.112   7.331   4.081  1.00 20.00     0.166 C 
HETATM    2  C2  UNL     1     -34.952   5.307   4.177  1.00 20.00     0.244 C 
HETATM    3  N6  UNL     1     -34.998   6.627   3.768  1.00 20.00    -0.199 NA
HETATM    4  O7  UNL     1     -35.796   4.724   4.856  1.00 20.00    -0.271 OA
HETATM    5  S8  UNL     1     -32.929   8.318   4.485  1.00 20.00    -0.055 SA
ENDROOT
BRANCH   2   6
HETATM    6  C4  UNL     1     -33.718   4.592   3.644  1.00 20.00     0.105 C 
BRANCH   6   7
HETATM    7  C5  UNL     1     -33.577   3.158   4.147  1.00 20.00     0.005 C 
HETATM    8  C3  UNL     1     -32.723   3.063   5.404  1.00 20.00     0.005 C 
ENDBRANCH   6   7
ENDBRANCH   2   6
TORSDOF 2
ENDMDL
MODEL 7
REMARK VINA RESULT:      -0.7      2.842      3.717
REMARK  2 active torsions:
REMARK  status: ('A' for Active; 'I' for Inactive)
REMARK    1  A    between atoms: C2_2  and  C4_4 
REMARK       I    between atoms: C2_2  and  N6_6 
REMARK    2  A    between atoms: C4_4  and  C5_5 
ROOT
HETATM    1  C1  UNL     1     -33.854   7.310   3.583  1.00 20.00     0.166 C 
HETATM    2  C2  UNL     1     -32.394   7.923   2.065  1.00 20.00     0.244 C 
HETATM    3  N6  UNL     1     -32.972   8.038   3.315  1.00 20.00    -0.199 NA
HETATM    4  O7  UNL     1     -32.311   8.810   1.216  1.00 20.00    -0.271 OA
HETATM    5  S8  UNL     1     -35.052   6.339   3.983  1.00 20.00    -0.055 SA
ENDROOT
BRANCH   2   6
HETATM    6  C4  UNL     1     -31.799   6.540   1.840  1.00 20.00     0.105 C 
BRANCH   6   7
HETATM    7  C5  UNL     1     -32.710   5.603   1.052  1.00 20.00     0.005 C 
HETATM    8  C3  UNL     1     -31.943   4.468   0.387  1.00 20.00     0.005 C 
ENDBRANCH   6   7
ENDBRANCH   2   6
TORSDOF 2
ENDMDL
MODEL 8
REMARK VINA RESULT:      -0.4      2.385      2.456
REMARK  2 active torsions:
REMARK  status: ('A' for Active; 'I' for Inactive)
REMARK    1  A    between atoms: C2_2  and  C4_4 
REMARK       I    between atoms: C2_2  and  N6_6 
REMARK    2  A    between atoms: C4_4  and  C5_5 
ROOT
HETATM    1  C1  UNL     1     -32.084   6.596   1.399  1.00 20.00     0.166 C 
HETATM    2  C2  UNL     1     -32.303   8.224   2.853  1.00 20.00     0.244 C 
HETATM    3  N6  UNL     1     -31.880   7.728   1.635  1.00 20.00    -0.199 NA
HETATM    4  O7  UNL     1     -31.597   8.753   3.710  1.00 20.00    -0.271 OA
HETATM    5  S8  UNL     1     -32.345   5.065   1.043  1.00 20.00    -0.055 SA
ENDROOT
BRANCH   2   6
HETATM    6  C4  UNL     1     -33.809   8.087   3.028  1.00 20.00     0.105 C 
BRANCH   6   7
HETATM    7  C5  UNL     1     -34.212   7.316   4.283  1.00 20.00     0.005 C 
HETATM    8  C3  UNL     1     -35.225   6.218   3.992  1.00 20.00     0.005 C 
ENDBRANCH   6   7
ENDBRANCH   2   6
TORSDOF 2
ENDMDL
MODEL 9
REMARK VINA RESULT:      -0.1      3.837      4.330
REMARK  2 active torsions:
REMARK  status: ('A' for Active; 'I' for Inactive)
REMARK    1  A    between atoms: C2_2  and  C4_4 
REMARK       I    between atoms: C2_2  and  N6_6 
REMARK    2  A    between atoms: C4_4  and  C5_5 
ROOT
HETATM    1  C1  UNL     1     -33.505   3.756   3.938  1.00 20.00     0.166 C 
HETATM    2  C2  UNL     1     -33.756   5.648   2.857  1.00 20.00     0.244 C 
HETATM    3  N6  UNL     1     -33.850   4.272   2.941  1.00 20.00    -0.199 NA
HETATM    4  O7  UNL     1     -33.121   6.286   2.019  1.00 20.00    -0.271 OA
HETATM    5  S8  UNL     1     -33.047   3.020   5.274  1.00 20.00    -0.055 SA
ENDROOT
BRANCH   2   6
HETATM    6  C4  UNL     1     -34.590   6.339   3.927  1.00 20.00     0.105 C 
BRANCH   6   7
HETATM    7  C5  UNL     1     -34.307   7.833   4.054  1.00 20.00     0.005 C 
HETATM    8  C3  UNL     1     -33.153   8.129   5.003  1.00 20.00     0.005 C 
ENDBRANCH   6   7
ENDBRANCH   2   6
TORSDOF 2
ENDMDL
