MODEL 1
REMARK VINA RESULT:       0.3      0.000      0.000
REMARK  0 active torsions:
REMARK  status: ('A' for Active; 'I' for Inactive)
ROOT
HETATM    1  C1  UNL     1     -32.202   8.756   3.431  1.00 20.00     0.028 C 
HETATM    2  C2  UNL     1     -34.104   7.218   3.917  1.00 20.00     0.033 C 
HETATM    3  C3  UNL     1     -33.740   5.125   2.700  1.00 20.00     0.046 C 
HETATM    4  C4  UNL     1     -31.215   8.599   2.360  1.00 20.00     0.112 C 
HETATM    5  C5  UNL     1     -33.079   7.811   3.099  1.00 20.00    -0.025 C 
HETATM    6  C6  UNL     1     -34.430   5.929   3.704  1.00 20.00     0.036 C 
HETATM    7  C7  UNL     1     -32.937   5.708   1.789  1.00 20.00     0.042 C 
HETATM    8  C8  UNL     1     -32.779   7.203   1.758  1.00 20.00     0.185 C 
HETATM    9  N9  UNL     1     -31.420   7.700   1.441  1.00 20.00    -0.286 NA
HETATM   10 CL10 UNL     1     -35.609   5.147   4.692  1.00 20.00    -0.084 Cl
HETATM   11 CL11 UNL     1     -32.140   4.785   0.575  1.00 20.00    -0.086 Cl
ENDROOT
TORSDOF 0
ENDMDL
MODEL 2
REMARK VINA RESULT:       0.4      2.161      3.500
REMARK  0 active torsions:
REMARK  status: ('A' for Active; 'I' for Inactive)
ROOT
HETATM    1  C1  UNL     1     -34.712   7.171   4.197  1.00 20.00     0.028 C 
HETATM    2  C2  UNL     1     -33.097   8.460   2.799  1.00 20.00     0.033 C 
HETATM    3  C3  UNL     1     -32.412   7.058   0.913  1.00 20.00     0.046 C 
HETATM    4  C4  UNL     1     -34.962   5.730   4.122  1.00 20.00     0.112 C 
HETATM    5  C5  UNL     1     -33.640   7.277   3.414  1.00 20.00    -0.025 C 
HETATM    6  C6  UNL     1     -32.490   8.341   1.604  1.00 20.00     0.036 C 
HETATM    7  C7  UNL     1     -32.719   5.915   1.556  1.00 20.00     0.042 C 
HETATM    8  C8  UNL     1     -33.096   5.936   3.011  1.00 20.00     0.185 C 
HETATM    9  N9  UNL     1     -34.161   4.988   3.414  1.00 20.00    -0.286 NA
HETATM   10 CL10 UNL     1     -31.872   9.733   0.791  1.00 20.00    -0.084 Cl
HETATM   11 CL11 UNL     1     -32.603   4.387   0.772  1.00 20.00    -0.086 Cl
ENDROOT
TORSDOF 0
ENDMDL
MODEL 3
REMARK VINA RESULT:       0.7      2.274      4.377
REMARK  0 active torsions:
REMARK  status: ('A' for Active; 'I' for Inactive)
ROOT
HETATM    1  C1  UNL     1     -33.377   4.242   2.629  1.00 20.00     0.028 C 
HETATM    2  C2  UNL     1     -32.611   6.282   1.415  1.00 20.00     0.033 C 
HETATM    3  C3  UNL     1     -32.650   8.171   2.970  1.00 20.00     0.046 C 
HETATM    4  C4  UNL     1     -34.052   4.212   3.929  1.00 20.00     0.112 C 
HETATM    5  C5  UNL     1     -33.401   5.547   2.369  1.00 20.00    -0.025 C 
HETATM    6  C6  UNL     1     -32.272   7.551   1.704  1.00 20.00     0.036 C 
HETATM    7  C7  UNL     1     -33.556   7.585   3.776  1.00 20.00     0.042 C 
HETATM    8  C8  UNL     1     -34.234   6.309   3.360  1.00 20.00     0.185 C 
HETATM    9  N9  UNL     1     -34.480   5.328   4.442  1.00 20.00    -0.286 NA
HETATM   10 CL10 UNL     1     -31.277   8.462   0.626  1.00 20.00    -0.084 Cl
HETATM   11 CL11 UNL     1     -34.042   8.313   5.257  1.00 20.00    -0.086 Cl
ENDROOT
TORSDOF 0
ENDMDL
MODEL 4
REMARK VINA RESULT:       1.5      2.346      3.652
REMARK  0 active torsions:
REMARK  status: ('A' for Active; 'I' for Inactive)
ROOT
HETATM    1  C1  UNL     1     -34.568   5.756   3.948  1.00 20.00     0.028 C 
HETATM    2  C2  UNL     1     -33.335   5.037   1.902  1.00 20.00     0.033 C 
HETATM    3  C3  UNL     1     -31.607   6.701   1.412  1.00 20.00     0.046 C 
HETATM    4  C4  UNL     1     -34.519   7.084   4.565  1.00 20.00     0.112 C 
HETATM    5  C5  UNL     1     -33.923   5.990   2.807  1.00 20.00    -0.025 C 
HETATM    6  C6  UNL     1     -32.231   5.396   1.220  1.00 20.00     0.036 C 
HETATM    7  C7  UNL     1     -32.251   7.675   2.084  1.00 20.00     0.042 C 
HETATM    8  C8  UNL     1     -33.645   7.452   2.601  1.00 20.00     0.185 C 
HETATM    9  N9  UNL     1     -33.947   8.058   3.918  1.00 20.00    -0.286 NA
HETATM   10 CL10 UNL     1     -31.448   4.275   0.166  1.00 20.00    -0.084 Cl
HETATM   11 CL11 UNL     1     -31.549   9.232   2.294  1.00 20.00    -0.086 Cl
ENDROOT
TORSDOF 0
ENDMDL
MODEL 5
REMARK VINA RESULT:       2.2      1.849      2.343
REMARK  0 active torsions:
REMARK  status: ('A' for Active; 'I' for Inactive)
ROOT
HETATM    1  C1  UNL     1     -34.589   7.199   4.459  1.00 20.00     0.028 C 
HETATM    2  C2  UNL     1     -34.414   4.711   4.428  1.00 20.00     0.033 C 
HETATM    3  C3  UNL     1     -32.586   4.079   2.928  1.00 20.00     0.046 C 
HETATM    4  C4  UNL     1     -33.959   8.122   3.511  1.00 20.00     0.112 C 
HETATM    5  C5  UNL     1     -34.354   6.033   3.861  1.00 20.00    -0.025 C 
HETATM    6  C6  UNL     1     -33.573   3.772   3.958  1.00 20.00     0.036 C 
HETATM    7  C7  UNL     1     -32.653   5.236   2.240  1.00 20.00     0.042 C 
HETATM    8  C8  UNL     1     -33.775   6.206   2.485  1.00 20.00     0.185 C 
HETATM    9  N9  UNL     1     -33.410   7.640   2.434  1.00 20.00    -0.286 NA
HETATM   10 CL10 UNL     1     -33.559   2.186   4.640  1.00 20.00    -0.084 Cl
HETATM   11 CL11 UNL     1     -31.521   5.606   0.998  1.00 20.00    -0.086 Cl
ENDROOT
TORSDOF 0
ENDMDL
MODEL 6
REMARK VINA RESULT:       2.6      1.716      2.806
REMARK  0 active torsions:
REMARK  status: ('A' for Active; 'I' for Inactive)
ROOT
HETATM    1  C1  UNL     1     -31.958   7.145   0.618  1.00 20.00     0.028 C 
HETATM    2  C2  UNL     1     -32.585   5.332   2.213  1.00 20.00     0.033 C 
HETATM    3  C3  UNL     1     -34.116   6.262   3.882  1.00 20.00     0.046 C 
HETATM    4  C4  UNL     1     -32.176   8.580   0.812  1.00 20.00     0.112 C 
HETATM    5  C5  UNL     1     -32.268   6.683   1.827  1.00 20.00    -0.025 C 
HETATM    6  C6  UNL     1     -33.461   5.140   3.217  1.00 20.00     0.036 C 
HETATM    7  C7  UNL     1     -33.682   7.521   3.686  1.00 20.00     0.042 C 
HETATM    8  C8  UNL     1     -32.482   7.789   2.821  1.00 20.00     0.185 C 
HETATM    9  N9  UNL     1     -32.551   9.008   1.982  1.00 20.00    -0.286 NA
HETATM   10 CL10 UNL     1     -33.925   3.544   3.683  1.00 20.00    -0.084 Cl
HETATM   11 CL11 UNL     1     -34.417   8.857   4.485  1.00 20.00    -0.086 Cl
ENDROOT
TORSDOF 0
ENDMDL
MODEL 7
REMARK VINA RESULT:       2.7      1.913      3.411
REMARK  0 active torsions:
REMARK  status: ('A' for Active; 'I' for Inactive)
ROOT
HETATM    1  C1  UNL     1     -32.005   9.337   0.069  1.00 20.00     0.028 C 
HETATM    2  C2  UNL     1     -31.509   6.940   0.549  1.00 20.00     0.033 C 
HETATM    3  C3  UNL     1     -33.018   6.174   2.318  1.00 20.00     0.046 C 
HETATM    4  C4  UNL     1     -32.805  10.238   0.901  1.00 20.00     0.112 C 
HETATM    5  C5  UNL     1     -31.888   8.289   0.881  1.00 20.00    -0.025 C 
HETATM    6  C6  UNL     1     -32.043   5.930   1.260  1.00 20.00     0.036 C 
HETATM    7  C7  UNL     1     -33.225   7.421   2.783  1.00 20.00     0.042 C 
HETATM    8  C8  UNL     1     -32.416   8.575   2.258  1.00 20.00     0.185 C 
HETATM    9  N9  UNL     1     -33.147   9.853   2.096  1.00 20.00    -0.286 NA
HETATM   10 CL10 UNL     1     -31.672   4.289   0.870  1.00 20.00    -0.084 Cl
HETATM   11 CL11 UNL     1     -34.345   7.730   4.052  1.00 20.00    -0.086 Cl
ENDROOT
TORSDOF 0
ENDMDL
MODEL 8
REMARK VINA RESULT:       3.0      1.824      2.611
REMARK  0 active torsions:
REMARK  status: ('A' for Active; 'I' for Inactive)
ROOT
HETATM    1  C1  UNL     1     -31.733   7.247   1.284  1.00 20.00     0.028 C 
HETATM    2  C2  UNL     1     -33.172   8.158   3.106  1.00 20.00     0.033 C 
HETATM    3  C3  UNL     1     -33.956   6.291   4.482  1.00 20.00     0.046 C 
HETATM    4  C4  UNL     1     -31.632   5.842   0.882  1.00 20.00     0.112 C 
HETATM    5  C5  UNL     1     -32.769   7.192   2.117  1.00 20.00    -0.025 C 
HETATM    6  C6  UNL     1     -33.761   7.716   4.232  1.00 20.00     0.036 C 
HETATM    7  C7  UNL     1     -33.784   5.394   3.493  1.00 20.00     0.042 C 
HETATM    8  C8  UNL     1     -33.440   5.847   2.102  1.00 20.00     0.185 C 
HETATM    9  N9  UNL     1     -32.489   4.987   1.360  1.00 20.00    -0.286 NA
HETATM   10 CL10 UNL     1     -34.212   8.822   5.479  1.00 20.00    -0.084 Cl
HETATM   11 CL11 UNL     1     -34.040   3.712   3.756  1.00 20.00    -0.086 Cl
ENDROOT
TORSDOF 0
ENDMDL
