MODEL 1
REMARK VINA RESULT:      -2.5      0.000      0.000
REMARK  3 active torsions:
REMARK  status: ('A' for Active; 'I' for Inactive)
REMARK    1  A    between atoms: C1_1  and  C6_6 
REMARK    2  A    between atoms: C5_5  and  C7_7 
REMARK    3  A    between atoms: C6_6  and  C7_7 
ROOT
HETATM    1  C2  UNL     1     -33.926   7.679   3.908  1.00 20.00     0.033 C 
HETATM    2  C3  UNL     1     -34.853   6.492   4.058  1.00 20.00     0.168 C 
HETATM    3  C4  UNL     1     -33.162   5.916   2.562  1.00 20.00     0.172 C 
HETATM    4  C5  UNL     1     -33.322   7.426   2.543  1.00 20.00     0.012 C 
HETATM    5  O9  UNL     1     -34.250   5.402   3.345  1.00 20.00    -0.391 OA
ENDROOT
BRANCH   4   6
HETATM    6  C7  UNL     1     -32.029   8.176   2.287  1.00 20.00     0.013 C 
BRANCH   6   7
HETATM    7  C6  UNL     1     -31.812   8.432   0.799  1.00 20.00     0.070 C 
BRANCH   7   8
HETATM    8  C1  UNL     1     -32.408   9.741   0.340  1.00 20.00     0.231 C 
HETATM    9  O8  UNL     1     -32.966   9.914  -0.738  1.00 20.00    -0.307 OA
ENDBRANCH   7   8
ENDBRANCH   6   7
ENDBRANCH   4   6
TORSDOF 3
ENDMDL
MODEL 2
REMARK VINA RESULT:      -2.0      1.965      4.806
REMARK  3 active torsions:
REMARK  status: ('A' for Active; 'I' for Inactive)
REMARK    1  A    between atoms: C1_1  and  C6_6 
REMARK    2  A    between atoms: C5_5  and  C7_7 
REMARK    3  A    between atoms: C6_6  and  C7_7 
ROOT
HETATM    1  C2  UNL     1     -33.265   7.948   3.274  1.00 20.00     0.033 C 
HETATM    2  C3  UNL     1     -32.067   8.035   2.352  1.00 20.00     0.168 C 
HETATM    3  C4  UNL     1     -33.263   6.107   1.820  1.00 20.00     0.172 C 
HETATM    4  C5  UNL     1     -33.549   6.461   3.268  1.00 20.00     0.012 C 
HETATM    5  O9  UNL     1     -32.208   6.980   1.388  1.00 20.00    -0.391 OA
ENDROOT
BRANCH   4   6
HETATM    6  C7  UNL     1     -34.949   6.094   3.723  1.00 20.00     0.013 C 
BRANCH   6   7
HETATM    7  C6  UNL     1     -34.957   4.798   4.527  1.00 20.00     0.070 C 
BRANCH   7   8
HETATM    8  C1  UNL     1     -33.841   3.860   4.134  1.00 20.00     0.231 C 
HETATM    9  O8  UNL     1     -33.265   3.099   4.904  1.00 20.00    -0.307 OA
ENDBRANCH   7   8
ENDBRANCH   6   7
ENDBRANCH   4   6
TORSDOF 3
ENDMDL
MODEL 3
REMARK VINA RESULT:      -1.9      1.755      4.649
REMARK  3 active torsions:
REMARK  status: ('A' for Active; 'I' for Inactive)
REMARK    1  A    between atoms: C1_1  and  C6_6 
REMARK    2  A    between atoms: C5_5  and  C7_7 
REMARK    3  A    between atoms: C6_6  and  C7_7 
ROOT
HETATM    1  C2  UNL     1     -32.955   6.092   2.085  1.00 20.00     0.033 C 
HETATM    2  C3  UNL     1     -31.948   6.624   1.088  1.00 20.00     0.168 C 
HETATM    3  C4  UNL     1     -32.263   8.234   2.743  1.00 20.00     0.172 C 
HETATM    4  C5  UNL     1     -33.510   7.371   2.674  1.00 20.00     0.012 C 
HETATM    5  O9  UNL     1     -31.444   7.856   1.625  1.00 20.00    -0.391 OA
ENDROOT
BRANCH   4   6
HETATM    6  C7  UNL     1     -34.204   7.190   4.010  1.00 20.00     0.013 C 
BRANCH   6   7
HETATM    7  C6  UNL     1     -35.379   6.223   3.907  1.00 20.00     0.070 C 
BRANCH   7   8
HETATM    8  C1  UNL     1     -35.147   4.941   4.671  1.00 20.00     0.231 C 
HETATM    9  O8  UNL     1     -34.412   4.031   4.302  1.00 20.00    -0.307 OA
ENDBRANCH   7   8
ENDBRANCH   6   7
ENDBRANCH   4   6
TORSDOF 3
ENDMDL
MODEL 4
REMARK VINA RESULT:      -1.8      1.753      4.468
REMARK  3 active torsions:
REMARK  status: ('A' for Active; 'I' for Inactive)
REMARK    1  A    between atoms: C1_1  and  C6_6 
REMARK    2  A    between atoms: C5_5  and  C7_7 
REMARK    3  A    between atoms: C6_6  and  C7_7 
ROOT
HETATM    1  C2  UNL     1     -32.554   8.405   2.557  1.00 20.00     0.033 C 
HETATM    2  C3  UNL     1     -31.617   7.811   1.526  1.00 20.00     0.168 C 
HETATM    3  C4  UNL     1     -33.153   6.173   2.153  1.00 20.00     0.172 C 
HETATM    4  C5  UNL     1     -33.026   7.169   3.291  1.00 20.00     0.012 C 
HETATM    5  O9  UNL     1     -32.128   6.509   1.203  1.00 20.00    -0.391 OA
ENDROOT
BRANCH   4   6
HETATM    6  C7  UNL     1     -34.308   7.365   4.078  1.00 20.00     0.013 C 
BRANCH   6   7
HETATM    7  C6  UNL     1     -35.345   6.299   3.740  1.00 20.00     0.070 C 
BRANCH   7   8
HETATM    8  C1  UNL     1     -35.248   5.087   4.635  1.00 20.00     0.231 C 
HETATM    9  O8  UNL     1     -34.532   4.115   4.420  1.00 20.00    -0.307 OA
ENDBRANCH   7   8
ENDBRANCH   6   7
ENDBRANCH   4   6
TORSDOF 3
ENDMDL
MODEL 5
REMARK VINA RESULT:      -1.8      2.224      5.070
REMARK  3 active torsions:
REMARK  status: ('A' for Active; 'I' for Inactive)
REMARK    1  A    between atoms: C1_1  and  C6_6 
REMARK    2  A    between atoms: C5_5  and  C7_7 
REMARK    3  A    between atoms: C6_6  and  C7_7 
ROOT
HETATM    1  C2  UNL     1     -32.988   6.167   2.038  1.00 20.00     0.033 C 
HETATM    2  C3  UNL     1     -32.210   7.402   1.638  1.00 20.00     0.168 C 
HETATM    3  C4  UNL     1     -33.109   7.756   3.758  1.00 20.00     0.172 C 
HETATM    4  C5  UNL     1     -33.971   6.734   3.040  1.00 20.00     0.012 C 
HETATM    5  O9  UNL     1     -32.185   8.265   2.785  1.00 20.00    -0.391 OA
ENDROOT
BRANCH   4   6
HETATM    6  C7  UNL     1     -34.587   5.697   3.960  1.00 20.00     0.013 C 
BRANCH   6   7
HETATM    7  C6  UNL     1     -34.102   4.290   3.628  1.00 20.00     0.070 C 
BRANCH   7   8
HETATM    8  C1  UNL     1     -33.526   3.574   4.825  1.00 20.00     0.231 C 
HETATM    9  O8  UNL     1     -33.105   2.422   4.815  1.00 20.00    -0.307 OA
ENDBRANCH   7   8
ENDBRANCH   6   7
ENDBRANCH   4   6
TORSDOF 3
ENDMDL
MODEL 6
REMARK VINA RESULT:      -1.8      1.278      1.988
REMARK  3 active torsions:
REMARK  status: ('A' for Active; 'I' for Inactive)
REMARK    1  A    between atoms: C1_1  and  C6_6 
REMARK    2  A    between atoms: C5_5  and  C7_7 
REMARK    3  A    between atoms: C6_6  and  C7_7 
ROOT
HETATM    1  C2  UNL     1     -33.409   5.125   3.210  1.00 20.00     0.033 C 
HETATM    2  C3  UNL     1     -34.165   4.195   4.136  1.00 20.00     0.168 C 
HETATM    3  C4  UNL     1     -35.290   6.235   4.065  1.00 20.00     0.172 C 
HETATM    4  C5  UNL     1     -33.831   6.483   3.727  1.00 20.00     0.012 C 
HETATM    5  O9  UNL     1     -35.381   4.868   4.496  1.00 20.00    -0.391 OA
ENDROOT
BRANCH   4   6
HETATM    6  C7  UNL     1     -33.615   7.617   2.743  1.00 20.00     0.013 C 
BRANCH   6   7
HETATM    7  C6  UNL     1     -32.394   7.372   1.862  1.00 20.00     0.070 C 
BRANCH   7   8
HETATM    8  C1  UNL     1     -31.822   8.647   1.291  1.00 20.00     0.231 C 
HETATM    9  O8  UNL     1     -32.406   9.383   0.502  1.00 20.00    -0.307 OA
ENDBRANCH   7   8
ENDBRANCH   6   7
ENDBRANCH   4   6
TORSDOF 3
ENDMDL
MODEL 7
REMARK VINA RESULT:      -1.5      1.425      1.887
REMARK  3 active torsions:
REMARK  status: ('A' for Active; 'I' for Inactive)
REMARK    1  A    between atoms: C1_1  and  C6_6 
REMARK    2  A    between atoms: C5_5  and  C7_7 
REMARK    3  A    between atoms: C6_6  and  C7_7 
ROOT
HETATM    1  C2  UNL     1     -34.343   6.680   3.605  1.00 20.00     0.033 C 
HETATM    2  C3  UNL     1     -35.505   6.049   4.341  1.00 20.00     0.168 C 
HETATM    3  C4  UNL     1     -34.009   4.362   3.752  1.00 20.00     0.172 C 
HETATM    4  C5  UNL     1     -33.834   5.516   2.781  1.00 20.00     0.012 C 
HETATM    5  O9  UNL     1     -35.170   4.668   4.541  1.00 20.00    -0.391 OA
ENDROOT
BRANCH   4   6
HETATM    6  C7  UNL     1     -32.412   5.685   2.280  1.00 20.00     0.013 C 
BRANCH   6   7
HETATM    7  C6  UNL     1     -32.332   6.698   1.144  1.00 20.00     0.070 C 
BRANCH   7   8
HETATM    8  C1  UNL     1     -31.929   8.074   1.616  1.00 20.00     0.231 C 
HETATM    9  O8  UNL     1     -32.242   9.123   1.062  1.00 20.00    -0.307 OA
ENDBRANCH   7   8
ENDBRANCH   6   7
ENDBRANCH   4   6
TORSDOF 3
ENDMDL
MODEL 8
REMARK VINA RESULT:      -1.0      1.801      2.548
REMARK  3 active torsions:
REMARK  status: ('A' for Active; 'I' for Inactive)
REMARK    1  A    between atoms: C1_1  and  C6_6 
REMARK    2  A    between atoms: C5_5  and  C7_7 
REMARK    3  A    between atoms: C6_6  and  C7_7 
ROOT
HETATM    1  C2  UNL     1     -33.500   5.105   3.305  1.00 20.00     0.033 C 
HETATM    2  C3  UNL     1     -34.139   4.092   4.232  1.00 20.00     0.168 C 
HETATM    3  C4  UNL     1     -35.453   6.016   4.230  1.00 20.00     0.172 C 
HETATM    4  C5  UNL     1     -34.035   6.408   3.859  1.00 20.00     0.012 C 
HETATM    5  O9  UNL     1     -35.402   4.640   4.637  1.00 20.00    -0.391 OA
ENDROOT
BRANCH   4   6
HETATM    6  C7  UNL     1     -33.954   7.574   2.892  1.00 20.00     0.013 C 
BRANCH   6   7
HETATM    7  C6  UNL     1     -32.580   8.235   2.920  1.00 20.00     0.070 C 
BRANCH   7   8
HETATM    8  C1  UNL     1     -31.754   7.916   1.697  1.00 20.00     0.231 C 
HETATM    9  O8  UNL     1     -31.682   6.810   1.171  1.00 20.00    -0.307 OA
ENDBRANCH   7   8
ENDBRANCH   6   7
ENDBRANCH   4   6
TORSDOF 3
ENDMDL
MODEL 9
REMARK VINA RESULT:      -0.7      1.032      4.444
REMARK  3 active torsions:
REMARK  status: ('A' for Active; 'I' for Inactive)
REMARK    1  A    between atoms: C1_1  and  C6_6 
REMARK    2  A    between atoms: C5_5  and  C7_7 
REMARK    3  A    between atoms: C6_6  and  C7_7 
ROOT
HETATM    1  C2  UNL     1     -32.714   9.925   1.543  1.00 20.00     0.033 C 
HETATM    2  C3  UNL     1     -32.769  10.798   0.307  1.00 20.00     0.168 C 
HETATM    3  C4  UNL     1     -32.554   8.580  -0.372  1.00 20.00     0.172 C 
HETATM    4  C5  UNL     1     -31.977   8.709   1.026  1.00 20.00     0.012 C 
HETATM    5  O9  UNL     1     -32.831   9.915  -0.822  1.00 20.00    -0.391 OA
ENDROOT
BRANCH   4   6
HETATM    6  C7  UNL     1     -32.154   7.466   1.879  1.00 20.00     0.013 C 
BRANCH   6   7
HETATM    7  C6  UNL     1     -33.118   7.710   3.035  1.00 20.00     0.070 C 
BRANCH   7   8
HETATM    8  C1  UNL     1     -34.006   6.522   3.314  1.00 20.00     0.231 C 
HETATM    9  O8  UNL     1     -35.063   6.570   3.934  1.00 20.00    -0.307 OA
ENDBRANCH   7   8
ENDBRANCH   6   7
ENDBRANCH   4   6
TORSDOF 3
ENDMDL
