MODEL 1
REMARK VINA RESULT:      -2.5      0.000      0.000
REMARK  1 active torsions:
REMARK  status: ('A' for Active; 'I' for Inactive)
REMARK    1  A    between atoms: C4_4  and  C5_5 
ROOT
HETATM    1  C1  UNL     1     -31.739   7.026   1.382  1.00 20.00     0.135 A 
HETATM    2  C2  UNL     1     -32.195   8.010   2.231  1.00 20.00     0.136 A 
HETATM    3  C3  UNL     1     -33.359   5.609   2.158  1.00 20.00     0.152 A 
HETATM    4  C4  UNL     1     -33.813   6.594   3.008  1.00 20.00     0.157 A 
HETATM    5  N6  UNL     1     -32.314   5.808   1.331  1.00 20.00    -0.269 NA
HETATM    6  N7  UNL     1     -33.239   7.812   3.059  1.00 20.00    -0.254 NA
ENDROOT
BRANCH   4   7
HETATM    7  C5  UNL     1     -34.970   6.338   3.910  1.00 20.00     0.435 C 
HETATM    8  F8  UNL     1     -36.184   6.571   3.327  1.00 20.00    -0.165 F 
HETATM    9  F9  UNL     1     -35.037   5.051   4.365  1.00 20.00    -0.165 F 
HETATM   10  F10 UNL     1     -34.949   7.120   5.030  1.00 20.00    -0.165 F 
ENDBRANCH   4   7
TORSDOF 1
ENDMDL
MODEL 2
REMARK VINA RESULT:      -2.5      0.854      1.506
REMARK  1 active torsions:
REMARK  status: ('A' for Active; 'I' for Inactive)
REMARK    1  A    between atoms: C4_4  and  C5_5 
ROOT
HETATM    1  C1  UNL     1     -31.761   7.053   1.381  1.00 20.00     0.135 A 
HETATM    2  C2  UNL     1     -32.404   5.835   1.377  1.00 20.00     0.136 A 
HETATM    3  C3  UNL     1     -33.184   7.798   3.008  1.00 20.00     0.152 A 
HETATM    4  C4  UNL     1     -33.828   6.580   3.003  1.00 20.00     0.157 A 
HETATM    5  N6  UNL     1     -32.140   8.056   2.197  1.00 20.00    -0.269 NA
HETATM    6  N7  UNL     1     -33.449   5.577   2.187  1.00 20.00    -0.254 NA
ENDROOT
BRANCH   4   7
HETATM    7  C5  UNL     1     -34.980   6.331   3.913  1.00 20.00     0.435 C 
HETATM    8  F8  UNL     1     -36.197   6.574   3.341  1.00 20.00    -0.165 F 
HETATM    9  F9  UNL     1     -35.052   5.043   4.366  1.00 20.00    -0.165 F 
HETATM   10  F10 UNL     1     -34.944   7.109   5.036  1.00 20.00    -0.165 F 
ENDBRANCH   4   7
TORSDOF 1
ENDMDL
MODEL 3
REMARK VINA RESULT:      -2.5      0.019      1.184
REMARK  1 active torsions:
REMARK  status: ('A' for Active; 'I' for Inactive)
REMARK    1  A    between atoms: C4_4  and  C5_5 
ROOT
HETATM    1  C1  UNL     1     -31.734   7.015   1.389  1.00 20.00     0.135 A 
HETATM    2  C2  UNL     1     -32.192   8.003   2.233  1.00 20.00     0.136 A 
HETATM    3  C3  UNL     1     -33.358   5.603   2.165  1.00 20.00     0.152 A 
HETATM    4  C4  UNL     1     -33.814   6.591   3.010  1.00 20.00     0.157 A 
HETATM    5  N6  UNL     1     -32.310   5.797   1.341  1.00 20.00    -0.269 NA
HETATM    6  N7  UNL     1     -33.239   7.809   3.058  1.00 20.00    -0.254 NA
ENDROOT
BRANCH   4   7
HETATM    7  C5  UNL     1     -34.975   6.340   3.908  1.00 20.00     0.435 C 
HETATM    8  F8  UNL     1     -35.062   5.050   4.348  1.00 20.00    -0.165 F 
HETATM    9  F9  UNL     1     -34.964   7.102   5.043  1.00 20.00    -0.165 F 
HETATM   10  F10 UNL     1     -36.174   6.601   3.306  1.00 20.00    -0.165 F 
ENDBRANCH   4   7
TORSDOF 1
ENDMDL
MODEL 4
REMARK VINA RESULT:      -1.6      2.866      3.934
REMARK  1 active torsions:
REMARK  status: ('A' for Active; 'I' for Inactive)
REMARK    1  A    between atoms: C4_4  and  C5_5 
ROOT
HETATM    1  C1  UNL     1     -34.937   5.632   4.090  1.00 20.00     0.135 A 
HETATM    2  C2  UNL     1     -34.066   5.056   3.192  1.00 20.00     0.136 A 
HETATM    3  C3  UNL     1     -33.974   7.672   3.712  1.00 20.00     0.152 A 
HETATM    4  C4  UNL     1     -33.103   7.095   2.815  1.00 20.00     0.157 A 
HETATM    5  N6  UNL     1     -34.906   6.951   4.366  1.00 20.00    -0.269 NA
HETATM    6  N7  UNL     1     -33.133   5.777   2.539  1.00 20.00    -0.254 NA
ENDROOT
BRANCH   4   7
HETATM    7  C5  UNL     1     -32.085   7.924   2.111  1.00 20.00     0.435 C 
HETATM    8  F8  UNL     1     -32.621   8.908   1.329  1.00 20.00    -0.165 F 
HETATM    9  F9  UNL     1     -31.226   8.571   2.955  1.00 20.00    -0.165 F 
HETATM   10  F10 UNL     1     -31.291   7.188   1.277  1.00 20.00    -0.165 F 
ENDBRANCH   4   7
TORSDOF 1
ENDMDL
MODEL 5
REMARK VINA RESULT:      -1.6      2.860      3.932
REMARK  1 active torsions:
REMARK  status: ('A' for Active; 'I' for Inactive)
REMARK    1  A    between atoms: C4_4  and  C5_5 
ROOT
HETATM    1  C1  UNL     1     -34.936   5.612   4.089  1.00 20.00     0.135 A 
HETATM    2  C2  UNL     1     -34.067   5.043   3.185  1.00 20.00     0.136 A 
HETATM    3  C3  UNL     1     -33.979   7.657   3.720  1.00 20.00     0.152 A 
HETATM    4  C4  UNL     1     -33.109   7.087   2.817  1.00 20.00     0.157 A 
HETATM    5  N6  UNL     1     -34.907   6.930   4.373  1.00 20.00    -0.269 NA
HETATM    6  N7  UNL     1     -33.138   5.769   2.534  1.00 20.00    -0.254 NA
ENDROOT
BRANCH   4   7
HETATM    7  C5  UNL     1     -32.095   7.921   2.115  1.00 20.00     0.435 C 
HETATM    8  F8  UNL     1     -31.287   7.212   1.272  1.00 20.00    -0.165 F 
HETATM    9  F9  UNL     1     -32.639   8.907   1.339  1.00 20.00    -0.165 F 
HETATM   10  F10 UNL     1     -31.250   8.561   2.977  1.00 20.00    -0.165 F 
ENDBRANCH   4   7
TORSDOF 1
ENDMDL
MODEL 6
REMARK VINA RESULT:      -1.6      2.870      3.945
REMARK  1 active torsions:
REMARK  status: ('A' for Active; 'I' for Inactive)
REMARK    1  A    between atoms: C4_4  and  C5_5 
ROOT
HETATM    1  C1  UNL     1     -34.932   5.644   4.086  1.00 20.00     0.135 A 
HETATM    2  C2  UNL     1     -34.062   5.066   3.188  1.00 20.00     0.136 A 
HETATM    3  C3  UNL     1     -33.965   7.682   3.709  1.00 20.00     0.152 A 
HETATM    4  C4  UNL     1     -33.094   7.103   2.812  1.00 20.00     0.157 A 
HETATM    5  N6  UNL     1     -34.898   6.963   4.363  1.00 20.00    -0.269 NA
HETATM    6  N7  UNL     1     -33.128   5.784   2.536  1.00 20.00    -0.254 NA
ENDROOT
BRANCH   4   7
HETATM    7  C5  UNL     1     -32.074   7.929   2.109  1.00 20.00     0.435 C 
HETATM    8  F8  UNL     1     -31.211   8.572   2.950  1.00 20.00    -0.165 F 
HETATM    9  F9  UNL     1     -31.275   7.211   1.263  1.00 20.00    -0.165 F 
HETATM   10  F10 UNL     1     -32.630   8.910   1.338  1.00 20.00    -0.165 F 
ENDBRANCH   4   7
TORSDOF 1
ENDMDL
MODEL 7
REMARK VINA RESULT:      -1.5      2.857      3.653
REMARK  1 active torsions:
REMARK  status: ('A' for Active; 'I' for Inactive)
REMARK    1  A    between atoms: C4_4  and  C5_5 
ROOT
HETATM    1  C1  UNL     1     -34.891   5.547   4.069  1.00 20.00     0.135 A 
HETATM    2  C2  UNL     1     -34.853   6.911   4.261  1.00 20.00     0.136 A 
HETATM    3  C3  UNL     1     -33.134   5.705   2.614  1.00 20.00     0.152 A 
HETATM    4  C4  UNL     1     -33.097   7.069   2.805  1.00 20.00     0.157 A 
HETATM    5  N6  UNL     1     -34.032   4.921   3.241  1.00 20.00    -0.269 NA
HETATM    6  N7  UNL     1     -33.956   7.696   3.633  1.00 20.00    -0.254 NA
ENDROOT
BRANCH   4   7
HETATM    7  C5  UNL     1     -32.091   7.904   2.094  1.00 20.00     0.435 C 
HETATM    8  F8  UNL     1     -32.640   8.882   1.312  1.00 20.00    -0.165 F 
HETATM    9  F9  UNL     1     -31.233   8.562   2.931  1.00 20.00    -0.165 F 
HETATM   10  F10 UNL     1     -31.295   7.174   1.257  1.00 20.00    -0.165 F 
ENDBRANCH   4   7
TORSDOF 1
ENDMDL
MODEL 8
REMARK VINA RESULT:      -1.5      2.823      3.639
REMARK  1 active torsions:
REMARK  status: ('A' for Active; 'I' for Inactive)
REMARK    1  A    between atoms: C4_4  and  C5_5 
ROOT
HETATM    1  C1  UNL     1     -34.934   5.473   4.082  1.00 20.00     0.135 A 
HETATM    2  C2  UNL     1     -34.931   6.839   4.255  1.00 20.00     0.136 A 
HETATM    3  C3  UNL     1     -33.141   5.649   2.672  1.00 20.00     0.152 A 
HETATM    4  C4  UNL     1     -33.139   7.016   2.845  1.00 20.00     0.157 A 
HETATM    5  N6  UNL     1     -34.039   4.854   3.286  1.00 20.00    -0.269 NA
HETATM    6  N7  UNL     1     -34.034   7.635   3.640  1.00 20.00    -0.254 NA
ENDROOT
BRANCH   4   7
HETATM    7  C5  UNL     1     -32.133   7.864   2.149  1.00 20.00     0.435 C 
HETATM    8  F8  UNL     1     -31.291   7.162   1.332  1.00 20.00    -0.165 F 
HETATM    9  F9  UNL     1     -32.685   8.824   1.347  1.00 20.00    -0.165 F 
HETATM   10  F10 UNL     1     -31.320   8.537   3.016  1.00 20.00    -0.165 F 
ENDBRANCH   4   7
TORSDOF 1
ENDMDL
MODEL 9
REMARK VINA RESULT:      -1.4      1.345      2.061
REMARK  1 active torsions:
REMARK  status: ('A' for Active; 'I' for Inactive)
REMARK    1  A    between atoms: C4_4  and  C5_5 
ROOT
HETATM    1  C1  UNL     1     -31.742   6.363   1.041  1.00 20.00     0.135 A 
HETATM    2  C2  UNL     1     -32.693   5.511   1.559  1.00 20.00     0.136 A 
HETATM    3  C3  UNL     1     -32.424   8.000   2.485  1.00 20.00     0.152 A 
HETATM    4  C4  UNL     1     -33.375   7.149   3.003  1.00 20.00     0.157 A 
HETATM    5  N6  UNL     1     -31.591   7.623   1.495  1.00 20.00    -0.269 NA
HETATM    6  N7  UNL     1     -33.526   5.889   2.548  1.00 20.00    -0.254 NA
ENDROOT
BRANCH   4   7
HETATM    7  C5  UNL     1     -34.279   7.601   4.096  1.00 20.00     0.435 C 
HETATM    8  F8  UNL     1     -35.174   6.650   4.499  1.00 20.00    -0.165 F 
HETATM    9  F9  UNL     1     -33.620   7.972   5.235  1.00 20.00    -0.165 F 
HETATM   10  F10 UNL     1     -35.033   8.684   3.743  1.00 20.00    -0.165 F 
ENDBRANCH   4   7
TORSDOF 1
ENDMDL
