MODEL 1
REMARK VINA RESULT:      -1.4      0.000      0.000
REMARK  1 active torsions:
REMARK  status: ('A' for Active; 'I' for Inactive)
REMARK    1  A    between atoms: C2_2  and  C6_6 
REMARK       I    between atoms: C2_2  and  N7_7 
ROOT
HETATM    1  C1  UNL     1     -31.997   8.820   1.057  1.00 20.00     0.167 C 
HETATM    2  C2  UNL     1     -32.159   6.762   1.786  1.00 20.00     0.273 C 
HETATM    3  N7  UNL     1     -31.531   7.989   1.743  1.00 20.00    -0.197 NA
HETATM    4  O8  UNL     1     -31.689   5.671   1.477  1.00 20.00    -0.268 OA
HETATM    5  S10 UNL     1     -32.601   9.973   0.138  1.00 20.00    -0.055 SA
ENDROOT
BRANCH   2   6
HETATM    6  C6  UNL     1     -33.569   6.828   2.268  1.00 20.00     0.215 C 
HETATM    7  C4  UNL     1     -33.711   7.594   3.569  1.00 20.00     0.044 C 
HETATM    8  C3  UNL     1     -34.767   6.800   4.297  1.00 20.00     0.029 C 
HETATM    9  C5  UNL     1     -34.443   5.388   3.871  1.00 20.00     0.168 C 
HETATM   10  O9  UNL     1     -33.968   5.475   2.522  1.00 20.00    -0.376 OA
ENDBRANCH   2   6
TORSDOF 1
ENDMDL
MODEL 2
REMARK VINA RESULT:       0.3      3.324      4.429
REMARK  1 active torsions:
REMARK  status: ('A' for Active; 'I' for Inactive)
REMARK    1  A    between atoms: C2_2  and  C6_6 
REMARK       I    between atoms: C2_2  and  N7_7 
ROOT
HETATM    1  C1  UNL     1     -34.180   4.107   4.543  1.00 20.00     0.167 C 
HETATM    2  C2  UNL     1     -34.741   6.050   3.706  1.00 20.00     0.273 C 
HETATM    3  N7  UNL     1     -34.802   5.091   4.695  1.00 20.00    -0.197 NA
HETATM    4  O8  UNL     1     -35.670   6.495   3.038  1.00 20.00    -0.268 OA
HETATM    5  S10 UNL     1     -33.349   2.758   4.371  1.00 20.00    -0.055 SA
ENDROOT
BRANCH   2   6
HETATM    6  C6  UNL     1     -33.365   6.570   3.459  1.00 20.00     0.215 C 
HETATM    7  C4  UNL     1     -33.328   8.076   3.278  1.00 20.00     0.044 C 
HETATM    8  C3  UNL     1     -32.286   8.246   2.200  1.00 20.00     0.029 C 
HETATM    9  C5  UNL     1     -32.530   7.030   1.337  1.00 20.00     0.168 C 
HETATM   10  O9  UNL     1     -32.929   5.981   2.228  1.00 20.00    -0.376 OA
ENDBRANCH   2   6
TORSDOF 1
ENDMDL
MODEL 3
REMARK VINA RESULT:       0.6      1.387      1.673
REMARK  1 active torsions:
REMARK  status: ('A' for Active; 'I' for Inactive)
REMARK    1  A    between atoms: C2_2  and  C6_6 
REMARK       I    between atoms: C2_2  and  N7_7 
ROOT
HETATM    1  C1  UNL     1     -32.054   7.911   1.524  1.00 20.00     0.167 C 
HETATM    2  C2  UNL     1     -32.810   5.865   1.707  1.00 20.00     0.273 C 
HETATM    3  N7  UNL     1     -31.817   6.769   1.393  1.00 20.00    -0.197 NA
HETATM    4  O8  UNL     1     -33.335   5.042   0.963  1.00 20.00    -0.268 OA
HETATM    5  S10 UNL     1     -32.339   9.470   1.690  1.00 20.00    -0.055 SA
ENDROOT
BRANCH   2   6
HETATM    6  C6  UNL     1     -33.262   5.942   3.127  1.00 20.00     0.215 C 
HETATM    7  C4  UNL     1     -33.852   4.637   3.628  1.00 20.00     0.044 C 
HETATM    8  C3  UNL     1     -34.988   5.111   4.501  1.00 20.00     0.029 C 
HETATM    9  C5  UNL     1     -35.469   6.330   3.749  1.00 20.00     0.168 C 
HETATM   10  O9  UNL     1     -34.305   6.924   3.162  1.00 20.00    -0.376 OA
ENDBRANCH   2   6
TORSDOF 1
ENDMDL
MODEL 4
REMARK VINA RESULT:       0.9      2.689      4.255
REMARK  1 active torsions:
REMARK  status: ('A' for Active; 'I' for Inactive)
REMARK    1  A    between atoms: C2_2  and  C6_6 
REMARK       I    between atoms: C2_2  and  N7_7 
ROOT
HETATM    1  C1  UNL     1     -33.541   6.544   2.772  1.00 20.00     0.167 C 
HETATM    2  C2  UNL     1     -32.003   7.634   1.659  1.00 20.00     0.273 C 
HETATM    3  N7  UNL     1     -32.638   6.466   2.026  1.00 20.00    -0.197 NA
HETATM    4  O8  UNL     1     -30.825   7.931   1.832  1.00 20.00    -0.268 OA
HETATM    5  S10 UNL     1     -34.773   6.610   3.781  1.00 20.00    -0.055 SA
ENDROOT
BRANCH   2   6
HETATM    6  C6  UNL     1     -32.900   8.615   0.982  1.00 20.00     0.215 C 
HETATM    7  C4  UNL     1     -32.517   8.860  -0.466  1.00 20.00     0.044 C 
HETATM    8  C3  UNL     1     -32.777  10.338  -0.622  1.00 20.00     0.029 C 
HETATM    9  C5  UNL     1     -32.379  10.869   0.735  1.00 20.00     0.168 C 
HETATM   10  O9  UNL     1     -32.739   9.855   1.682  1.00 20.00    -0.376 OA
ENDBRANCH   2   6
TORSDOF 1
ENDMDL
MODEL 5
REMARK VINA RESULT:       1.2      2.156      2.475
REMARK  1 active torsions:
REMARK  status: ('A' for Active; 'I' for Inactive)
REMARK    1  A    between atoms: C2_2  and  C6_6 
REMARK       I    between atoms: C2_2  and  N7_7 
ROOT
HETATM    1  C1  UNL     1     -32.085   6.324   1.348  1.00 20.00     0.167 C 
HETATM    2  C2  UNL     1     -33.156   7.202   3.043  1.00 20.00     0.273 C 
HETATM    3  N7  UNL     1     -32.563   7.295   1.801  1.00 20.00    -0.197 NA
HETATM    4  O8  UNL     1     -32.854   7.815   4.063  1.00 20.00    -0.268 OA
HETATM    5  S10 UNL     1     -31.426   5.026   0.700  1.00 20.00    -0.055 SA
ENDROOT
BRANCH   2   6
HETATM    6  C6  UNL     1     -34.285   6.229   3.096  1.00 20.00     0.215 C 
HETATM    7  C4  UNL     1     -35.216   6.472   4.269  1.00 20.00     0.044 C 
HETATM    8  C3  UNL     1     -35.571   5.069   4.695  1.00 20.00     0.029 C 
HETATM    9  C5  UNL     1     -34.278   4.331   4.440  1.00 20.00     0.168 C 
HETATM   10  O9  UNL     1     -33.692   4.938   3.282  1.00 20.00    -0.376 OA
ENDBRANCH   2   6
TORSDOF 1
ENDMDL
MODEL 6
REMARK VINA RESULT:       1.3      2.293      3.948
REMARK  1 active torsions:
REMARK  status: ('A' for Active; 'I' for Inactive)
REMARK    1  A    between atoms: C2_2  and  C6_6 
REMARK       I    between atoms: C2_2  and  N7_7 
ROOT
HETATM    1  C1  UNL     1     -33.589   7.436   3.621  1.00 20.00     0.167 C 
HETATM    2  C2  UNL     1     -32.428   7.023   1.812  1.00 20.00     0.273 C 
HETATM    3  N7  UNL     1     -33.597   6.974   2.543  1.00 20.00    -0.197 NA
HETATM    4  O8  UNL     1     -31.785   6.078   1.365  1.00 20.00    -0.268 OA
HETATM    5  S10 UNL     1     -33.616   8.053   5.090  1.00 20.00    -0.055 SA
ENDROOT
BRANCH   2   6
HETATM    6  C6  UNL     1     -31.933   8.409   1.568  1.00 20.00     0.215 C 
HETATM    7  C4  UNL     1     -33.053   9.428   1.479  1.00 20.00     0.044 C 
HETATM    8  C3  UNL     1     -32.564  10.352   0.392  1.00 20.00     0.029 C 
HETATM    9  C5  UNL     1     -31.860   9.392  -0.538  1.00 20.00     0.168 C 
HETATM   10  O9  UNL     1     -31.278   8.382   0.294  1.00 20.00    -0.376 OA
ENDBRANCH   2   6
TORSDOF 1
ENDMDL
MODEL 7
REMARK VINA RESULT:       1.4      1.818      2.354
REMARK  1 active torsions:
REMARK  status: ('A' for Active; 'I' for Inactive)
REMARK    1  A    between atoms: C2_2  and  C6_6 
REMARK       I    between atoms: C2_2  and  N7_7 
ROOT
HETATM    1  C1  UNL     1     -32.253   7.917   1.984  1.00 20.00     0.167 C 
HETATM    2  C2  UNL     1     -33.420   7.749   3.828  1.00 20.00     0.273 C 
HETATM    3  N7  UNL     1     -32.923   8.478   2.768  1.00 20.00    -0.197 NA
HETATM    4  O8  UNL     1     -33.223   7.940   5.025  1.00 20.00    -0.268 OA
HETATM    5  S10 UNL     1     -31.340   7.191   0.899  1.00 20.00    -0.055 SA
ENDROOT
BRANCH   2   6
HETATM    6  C6  UNL     1     -34.288   6.608   3.416  1.00 20.00     0.215 C 
HETATM    7  C4  UNL     1     -35.373   6.298   4.429  1.00 20.00     0.044 C 
HETATM    8  C3  UNL     1     -35.433   4.791   4.387  1.00 20.00     0.029 C 
HETATM    9  C5  UNL     1     -33.983   4.428   4.168  1.00 20.00     0.168 C 
HETATM   10  O9  UNL     1     -33.433   5.461   3.341  1.00 20.00    -0.376 OA
ENDBRANCH   2   6
TORSDOF 1
ENDMDL
