MODEL 1
REMARK VINA RESULT:      -2.3      0.000      0.000
REMARK  3 active torsions:
REMARK  status: ('A' for Active; 'I' for Inactive)
REMARK    1  A    between atoms: C4_4  and  C7_7 
REMARK    2  A    between atoms: C6_6  and  N9_9 
REMARK    3  A    between atoms: C7_7  and  N9_9 
ROOT
HETATM    1  C1  UNL     1     -32.296   9.599   0.450  1.00 20.00     0.089 C 
HETATM    2  C6  UNL     1     -31.918   8.226   0.781  1.00 20.00     0.393 C 
HETATM    3  N8  UNL     1     -32.595  10.688   0.183  1.00 20.00    -0.195 NA
ENDROOT
BRANCH   2   4
HETATM    4  N9  UNL     1     -31.864   8.038   2.215  1.00 20.00     0.100 N 
HETATM    5  H21 UNL     1     -30.911   7.875   2.514  1.00 20.00     0.317 HD
BRANCH   4   6
HETATM    6  C7  UNL     1     -32.668   6.852   2.600  1.00 20.00     0.221 C 
HETATM    7  C5  UNL     1     -32.791   5.929   1.396  1.00 20.00     0.043 C 
BRANCH   6   8
HETATM    8  C4  UNL     1     -34.029   7.312   3.099  1.00 20.00     0.018 A 
HETATM    9  C2  UNL     1     -34.910   6.373   3.876  1.00 20.00     0.007 A 
HETATM   10  C3  UNL     1     -34.261   7.540   4.567  1.00 20.00     0.007 A 
ENDBRANCH   6   8
ENDBRANCH   4   6
ENDBRANCH   2   4
TORSDOF 3
ENDMDL
MODEL 2
REMARK VINA RESULT:      -1.9      2.680      4.889
REMARK  3 active torsions:
REMARK  status: ('A' for Active; 'I' for Inactive)
REMARK    1  A    between atoms: C4_4  and  C7_7 
REMARK    2  A    between atoms: C6_6  and  N9_9 
REMARK    3  A    between atoms: C7_7  and  N9_9 
ROOT
HETATM    1  C1  UNL     1     -34.363   4.280   4.366  1.00 20.00     0.089 C 
HETATM    2  C6  UNL     1     -35.390   5.302   4.565  1.00 20.00     0.393 C 
HETATM    3  N8  UNL     1     -33.551   3.467   4.211  1.00 20.00    -0.195 NA
ENDROOT
BRANCH   2   4
HETATM    4  N9  UNL     1     -35.221   6.392   3.629  1.00 20.00     0.100 N 
HETATM    5  H21 UNL     1     -35.483   6.101   2.697  1.00 20.00     0.317 HD
BRANCH   4   6
HETATM    6  C7  UNL     1     -33.797   6.809   3.589  1.00 20.00     0.221 C 
HETATM    7  C5  UNL     1     -33.640   8.098   4.382  1.00 20.00     0.043 C 
BRANCH   6   8
HETATM    8  C4  UNL     1     -33.369   6.983   2.140  1.00 20.00     0.018 A 
HETATM    9  C2  UNL     1     -32.017   7.554   1.812  1.00 20.00     0.007 A 
HETATM   10  C3  UNL     1     -32.301   6.101   1.554  1.00 20.00     0.007 A 
ENDBRANCH   6   8
ENDBRANCH   4   6
ENDBRANCH   2   4
TORSDOF 3
ENDMDL
MODEL 3
REMARK VINA RESULT:      -1.8      1.923      4.382
REMARK  3 active torsions:
REMARK  status: ('A' for Active; 'I' for Inactive)
REMARK    1  A    between atoms: C4_4  and  C7_7 
REMARK    2  A    between atoms: C6_6  and  N9_9 
REMARK    3  A    between atoms: C7_7  and  N9_9 
ROOT
HETATM    1  C1  UNL     1     -34.982   6.042   4.146  1.00 20.00     0.089 C 
HETATM    2  C6  UNL     1     -34.500   7.369   3.763  1.00 20.00     0.393 C 
HETATM    3  N8  UNL     1     -35.367   4.992   4.451  1.00 20.00    -0.195 NA
ENDROOT
BRANCH   2   4
HETATM    4  N9  UNL     1     -33.092   7.330   3.432  1.00 20.00     0.100 N 
HETATM    5  H21 UNL     1     -32.621   8.148   3.798  1.00 20.00     0.317 HD
BRANCH   4   6
HETATM    6  C7  UNL     1     -32.918   7.329   1.959  1.00 20.00     0.221 C 
HETATM    7  C5  UNL     1     -32.383   5.970   1.529  1.00 20.00     0.043 C 
BRANCH   6   8
HETATM    8  C4  UNL     1     -31.974   8.456   1.567  1.00 20.00     0.018 A 
HETATM    9  C2  UNL     1     -31.539   8.618   0.137  1.00 20.00     0.007 A 
HETATM   10  C3  UNL     1     -32.478   9.616   0.753  1.00 20.00     0.007 A 
ENDBRANCH   6   8
ENDBRANCH   4   6
ENDBRANCH   2   4
TORSDOF 3
ENDMDL
MODEL 4
REMARK VINA RESULT:      -1.3      1.876      4.411
REMARK  3 active torsions:
REMARK  status: ('A' for Active; 'I' for Inactive)
REMARK    1  A    between atoms: C4_4  and  C7_7 
REMARK    2  A    between atoms: C6_6  and  N9_9 
REMARK    3  A    between atoms: C7_7  and  N9_9 
ROOT
HETATM    1  C1  UNL     1     -34.559   6.523   3.825  1.00 20.00     0.089 C 
HETATM    2  C6  UNL     1     -33.454   7.373   3.382  1.00 20.00     0.393 C 
HETATM    3  N8  UNL     1     -35.435   5.852   4.180  1.00 20.00    -0.195 NA
ENDROOT
BRANCH   2   4
HETATM    4  N9  UNL     1     -32.944   6.930   2.103  1.00 20.00     0.100 N 
HETATM    5  H21 UNL     1     -32.405   6.081   2.212  1.00 20.00     0.317 HD
BRANCH   4   6
HETATM    6  C7  UNL     1     -32.048   7.964   1.529  1.00 20.00     0.221 C 
HETATM    7  C5  UNL     1     -31.218   8.572   2.651  1.00 20.00     0.043 C 
BRANCH   6   8
HETATM    8  C4  UNL     1     -32.889   9.014   0.818  1.00 20.00     0.018 A 
HETATM    9  C2  UNL     1     -32.376  10.419   0.663  1.00 20.00     0.007 A 
HETATM   10  C3  UNL     1     -32.480   9.520  -0.538  1.00 20.00     0.007 A 
ENDBRANCH   6   8
ENDBRANCH   4   6
ENDBRANCH   2   4
TORSDOF 3
ENDMDL
MODEL 5
REMARK VINA RESULT:      -1.2      1.087      1.773
REMARK  3 active torsions:
REMARK  status: ('A' for Active; 'I' for Inactive)
REMARK    1  A    between atoms: C4_4  and  C7_7 
REMARK    2  A    between atoms: C6_6  and  N9_9 
REMARK    3  A    between atoms: C7_7  and  N9_9 
ROOT
HETATM    1  C1  UNL     1     -32.363   9.164   0.810  1.00 20.00     0.089 C 
HETATM    2  C6  UNL     1     -32.247   7.867   1.475  1.00 20.00     0.393 C 
HETATM    3  N8  UNL     1     -32.456  10.191   0.279  1.00 20.00    -0.195 NA
ENDROOT
BRANCH   2   4
HETATM    4  N9  UNL     1     -32.124   8.031   2.907  1.00 20.00     0.100 N 
HETATM    5  H21 UNL     1     -31.558   7.290   3.300  1.00 20.00     0.317 HD
BRANCH   4   6
HETATM    6  C7  UNL     1     -33.463   7.962   3.542  1.00 20.00     0.221 C 
HETATM    7  C5  UNL     1     -33.299   8.083   5.050  1.00 20.00     0.043 C 
BRANCH   6   8
HETATM    8  C4  UNL     1     -34.134   6.653   3.152  1.00 20.00     0.018 A 
HETATM    9  C2  UNL     1     -34.238   5.529   4.144  1.00 20.00     0.007 A 
HETATM   10  C3  UNL     1     -35.470   6.284   3.734  1.00 20.00     0.007 A 
ENDBRANCH   6   8
ENDBRANCH   4   6
ENDBRANCH   2   4
TORSDOF 3
ENDMDL
MODEL 6
REMARK VINA RESULT:      -1.0      1.629      2.221
REMARK  3 active torsions:
REMARK  status: ('A' for Active; 'I' for Inactive)
REMARK    1  A    between atoms: C4_4  and  C7_7 
REMARK    2  A    between atoms: C6_6  and  N9_9 
REMARK    3  A    between atoms: C7_7  and  N9_9 
ROOT
HETATM    1  C1  UNL     1     -31.931   7.292   1.487  1.00 20.00     0.089 C 
HETATM    2  C6  UNL     1     -31.792   5.841   1.368  1.00 20.00     0.393 C 
HETATM    3  N8  UNL     1     -32.036   8.443   1.581  1.00 20.00    -0.195 NA
ENDROOT
BRANCH   2   4
HETATM    4  N9  UNL     1     -33.039   5.177   1.682  1.00 20.00     0.100 N 
HETATM    5  H21 UNL     1     -33.795   5.569   1.136  1.00 20.00     0.317 HD
BRANCH   4   6
HETATM    6  C7  UNL     1     -33.368   5.369   3.116  1.00 20.00     0.221 C 
HETATM    7  C5  UNL     1     -33.758   4.026   3.715  1.00 20.00     0.043 C 
BRANCH   6   8
HETATM    8  C4  UNL     1     -34.493   6.387   3.237  1.00 20.00     0.018 A 
HETATM    9  C2  UNL     1     -35.447   6.328   4.398  1.00 20.00     0.007 A 
HETATM   10  C3  UNL     1     -34.444   7.445   4.306  1.00 20.00     0.007 A 
ENDBRANCH   6   8
ENDBRANCH   4   6
ENDBRANCH   2   4
TORSDOF 3
ENDMDL
MODEL 7
REMARK VINA RESULT:      -0.7      1.647      2.242
REMARK  3 active torsions:
REMARK  status: ('A' for Active; 'I' for Inactive)
REMARK    1  A    between atoms: C4_4  and  C7_7 
REMARK    2  A    between atoms: C6_6  and  N9_9 
REMARK    3  A    between atoms: C7_7  and  N9_9 
ROOT
HETATM    1  C1  UNL     1     -32.238   8.846   1.062  1.00 20.00     0.089 C 
HETATM    2  C6  UNL     1     -32.149   7.928   2.197  1.00 20.00     0.393 C 
HETATM    3  N8  UNL     1     -32.306   9.577   0.165  1.00 20.00    -0.195 NA
ENDROOT
BRANCH   2   4
HETATM    4  N9  UNL     1     -32.838   6.688   1.912  1.00 20.00     0.100 N 
HETATM    5  H21 UNL     1     -33.333   6.754   1.032  1.00 20.00     0.317 HD
BRANCH   4   6
HETATM    6  C7  UNL     1     -33.836   6.408   2.973  1.00 20.00     0.221 C 
HETATM    7  C5  UNL     1     -33.960   7.633   3.867  1.00 20.00     0.043 C 
BRANCH   6   8
HETATM    8  C4  UNL     1     -33.398   5.180   3.758  1.00 20.00     0.018 A 
HETATM    9  C2  UNL     1     -34.406   4.374   4.529  1.00 20.00     0.007 A 
HETATM   10  C3  UNL     1     -33.781   3.804   3.287  1.00 20.00     0.007 A 
ENDBRANCH   6   8
ENDBRANCH   4   6
ENDBRANCH   2   4
TORSDOF 3
ENDMDL
MODEL 8
REMARK VINA RESULT:      -0.6      0.863      2.208
REMARK  3 active torsions:
REMARK  status: ('A' for Active; 'I' for Inactive)
REMARK    1  A    between atoms: C4_4  and  C7_7 
REMARK    2  A    between atoms: C6_6  and  N9_9 
REMARK    3  A    between atoms: C7_7  and  N9_9 
ROOT
HETATM    1  C1  UNL     1     -32.370   9.502   0.159  1.00 20.00     0.089 C 
HETATM    2  C6  UNL     1     -31.602   8.676   1.090  1.00 20.00     0.393 C 
HETATM    3  N8  UNL     1     -32.977  10.156  -0.581  1.00 20.00    -0.195 NA
ENDROOT
BRANCH   2   4
HETATM    4  N9  UNL     1     -32.259   8.602   2.377  1.00 20.00     0.100 N 
HETATM    5  H21 UNL     1     -31.585   8.408   3.106  1.00 20.00     0.317 HD
BRANCH   4   6
HETATM    6  C7  UNL     1     -33.253   7.500   2.375  1.00 20.00     0.221 C 
HETATM    7  C5  UNL     1     -33.880   7.402   3.758  1.00 20.00     0.043 C 
BRANCH   6   8
HETATM    8  C4  UNL     1     -32.562   6.204   1.977  1.00 20.00     0.018 A 
HETATM    9  C2  UNL     1     -33.203   4.879   2.279  1.00 20.00     0.007 A 
HETATM   10  C3  UNL     1     -33.115   5.364   0.859  1.00 20.00     0.007 A 
ENDBRANCH   6   8
ENDBRANCH   4   6
ENDBRANCH   2   4
TORSDOF 3
ENDMDL
MODEL 9
REMARK VINA RESULT:      -0.4      1.869      4.045
REMARK  3 active torsions:
REMARK  status: ('A' for Active; 'I' for Inactive)
REMARK    1  A    between atoms: C4_4  and  C7_7 
REMARK    2  A    between atoms: C6_6  and  N9_9 
REMARK    3  A    between atoms: C7_7  and  N9_9 
ROOT
HETATM    1  C1  UNL     1     -34.804   6.604   4.177  1.00 20.00     0.089 C 
HETATM    2  C6  UNL     1     -33.809   7.675   4.121  1.00 20.00     0.393 C 
HETATM    3  N8  UNL     1     -35.591   5.754   4.226  1.00 20.00    -0.195 NA
ENDROOT
BRANCH   2   4
HETATM    4  N9  UNL     1     -33.625   8.136   2.762  1.00 20.00     0.100 N 
HETATM    5  H21 UNL     1     -34.418   7.875   2.190  1.00 20.00     0.317 HD
BRANCH   4   6
HETATM    6  C7  UNL     1     -32.416   7.509   2.174  1.00 20.00     0.221 C 
HETATM    7  C5  UNL     1     -31.725   8.523   1.274  1.00 20.00     0.043 C 
BRANCH   6   8
HETATM    8  C4  UNL     1     -32.825   6.261   1.405  1.00 20.00     0.018 A 
HETATM    9  C2  UNL     1     -31.779   5.324   0.868  1.00 20.00     0.007 A 
HETATM   10  C3  UNL     1     -32.646   4.900   2.020  1.00 20.00     0.007 A 
ENDBRANCH   6   8
ENDBRANCH   4   6
ENDBRANCH   2   4
TORSDOF 3
ENDMDL
