MODEL 1
REMARK VINA RESULT:      -2.7      0.000      0.000
REMARK  3 active torsions:
REMARK  status: ('A' for Active; 'I' for Inactive)
REMARK    1  A    between atoms: C4_4  and  C7_7 
REMARK    2  A    between atoms: C6_6  and  N9_9 
REMARK    3  A    between atoms: C7_7  and  N9_9 
ROOT
HETATM    1  C1  UNL     1     -32.277   9.368   0.373  1.00 20.00     0.089 C 
HETATM    2  C6  UNL     1     -31.677   8.230   1.067  1.00 20.00     0.393 C 
HETATM    3  N8  UNL     1     -32.752  10.270  -0.179  1.00 20.00    -0.195 NA
ENDROOT
BRANCH   2   4
HETATM    4  N9  UNL     1     -32.389   7.938   2.293  1.00 20.00     0.100 N 
HETATM    5  H21 UNL     1     -32.975   8.720   2.556  1.00 20.00     0.317 HD
BRANCH   4   6
HETATM    6  C7  UNL     1     -33.266   6.758   2.102  1.00 20.00     0.221 C 
HETATM    7  C5  UNL     1     -32.460   5.647   1.445  1.00 20.00     0.043 C 
BRANCH   6   8
HETATM    8  C4  UNL     1     -33.822   6.328   3.452  1.00 20.00     0.018 A 
HETATM    9  C2  UNL     1     -34.331   7.357   4.424  1.00 20.00     0.007 A 
HETATM   10  C3  UNL     1     -35.295   6.436   3.732  1.00 20.00     0.007 A 
ENDBRANCH   6   8
ENDBRANCH   4   6
ENDBRANCH   2   4
TORSDOF 3
ENDMDL
MODEL 2
REMARK VINA RESULT:      -1.8      2.409      4.899
REMARK  3 active torsions:
REMARK  status: ('A' for Active; 'I' for Inactive)
REMARK    1  A    between atoms: C4_4  and  C7_7 
REMARK    2  A    between atoms: C6_6  and  N9_9 
REMARK    3  A    between atoms: C7_7  and  N9_9 
ROOT
HETATM    1  C1  UNL     1     -33.802   3.898   4.348  1.00 20.00     0.089 C 
HETATM    2  C6  UNL     1     -34.440   5.142   3.924  1.00 20.00     0.393 C 
HETATM    3  N8  UNL     1     -33.297   2.910   4.686  1.00 20.00    -0.195 NA
ENDROOT
BRANCH   2   4
HETATM    4  N9  UNL     1     -33.713   5.749   2.830  1.00 20.00     0.100 N 
HETATM    5  H21 UNL     1     -34.127   5.491   1.943  1.00 20.00     0.317 HD
BRANCH   4   6
HETATM    6  C7  UNL     1     -33.766   7.227   2.942  1.00 20.00     0.221 C 
HETATM    7  C5  UNL     1     -34.181   7.599   4.358  1.00 20.00     0.043 C 
BRANCH   6   8
HETATM    8  C4  UNL     1     -32.403   7.802   2.585  1.00 20.00     0.018 A 
HETATM    9  C2  UNL     1     -31.634   7.255   1.414  1.00 20.00     0.007 A 
HETATM   10  C3  UNL     1     -32.235   8.631   1.341  1.00 20.00     0.007 A 
ENDBRANCH   6   8
ENDBRANCH   4   6
ENDBRANCH   2   4
TORSDOF 3
ENDMDL
MODEL 3
REMARK VINA RESULT:      -1.5      1.173      1.836
REMARK  3 active torsions:
REMARK  status: ('A' for Active; 'I' for Inactive)
REMARK    1  A    between atoms: C4_4  and  C7_7 
REMARK    2  A    between atoms: C6_6  and  N9_9 
REMARK    3  A    between atoms: C7_7  and  N9_9 
ROOT
HETATM    1  C1  UNL     1     -32.229   9.057   0.854  1.00 20.00     0.089 C 
HETATM    2  C6  UNL     1     -31.955   8.081   1.906  1.00 20.00     0.393 C 
HETATM    3  N8  UNL     1     -32.445   9.833   0.019  1.00 20.00    -0.195 NA
ENDROOT
BRANCH   2   4
HETATM    4  N9  UNL     1     -32.937   7.017   1.894  1.00 20.00     0.100 N 
HETATM    5  H21 UNL     1     -32.557   6.190   1.453  1.00 20.00     0.317 HD
BRANCH   4   6
HETATM    6  C7  UNL     1     -33.314   6.658   3.282  1.00 20.00     0.221 C 
HETATM    7  C5  UNL     1     -33.928   7.876   3.957  1.00 20.00     0.043 C 
BRANCH   6   8
HETATM    8  C4  UNL     1     -34.283   5.485   3.246  1.00 20.00     0.018 A 
HETATM    9  C2  UNL     1     -34.032   4.269   4.094  1.00 20.00     0.007 A 
HETATM   10  C3  UNL     1     -35.165   5.197   4.430  1.00 20.00     0.007 A 
ENDBRANCH   6   8
ENDBRANCH   4   6
ENDBRANCH   2   4
TORSDOF 3
ENDMDL
MODEL 4
REMARK VINA RESULT:      -1.2      1.637      4.260
REMARK  3 active torsions:
REMARK  status: ('A' for Active; 'I' for Inactive)
REMARK    1  A    between atoms: C4_4  and  C7_7 
REMARK    2  A    between atoms: C6_6  and  N9_9 
REMARK    3  A    between atoms: C7_7  and  N9_9 
ROOT
HETATM    1  C1  UNL     1     -34.573   6.350   3.666  1.00 20.00     0.089 C 
HETATM    2  C6  UNL     1     -33.283   6.508   2.997  1.00 20.00     0.393 C 
HETATM    3  N8  UNL     1     -35.597   6.223   4.196  1.00 20.00    -0.195 NA
ENDROOT
BRANCH   2   4
HETATM    4  N9  UNL     1     -32.913   7.904   2.912  1.00 20.00     0.100 N 
HETATM    5  H21 UNL     1     -32.394   8.183   3.734  1.00 20.00     0.317 HD
BRANCH   4   6
HETATM    6  C7  UNL     1     -32.044   8.128   1.731  1.00 20.00     0.221 C 
HETATM    7  C5  UNL     1     -31.674   6.781   1.129  1.00 20.00     0.043 C 
BRANCH   6   8
HETATM    8  C4  UNL     1     -32.781   9.009   0.732  1.00 20.00     0.018 A 
HETATM    9  C2  UNL     1     -32.740  10.506   0.867  1.00 20.00     0.007 A 
HETATM   10  C3  UNL     1     -32.010   9.834  -0.262  1.00 20.00     0.007 A 
ENDBRANCH   6   8
ENDBRANCH   4   6
ENDBRANCH   2   4
TORSDOF 3
ENDMDL
MODEL 5
REMARK VINA RESULT:      -1.1      2.045      2.969
REMARK  3 active torsions:
REMARK  status: ('A' for Active; 'I' for Inactive)
REMARK    1  A    between atoms: C4_4  and  C7_7 
REMARK    2  A    between atoms: C6_6  and  N9_9 
REMARK    3  A    between atoms: C7_7  and  N9_9 
ROOT
HETATM    1  C1  UNL     1     -32.094   7.391   1.581  1.00 20.00     0.089 C 
HETATM    2  C6  UNL     1     -32.169   5.945   1.779  1.00 20.00     0.393 C 
HETATM    3  N8  UNL     1     -32.032   8.538   1.424  1.00 20.00    -0.195 NA
ENDROOT
BRANCH   2   4
HETATM    4  N9  UNL     1     -33.523   5.535   2.088  1.00 20.00     0.100 N 
HETATM    5  H21 UNL     1     -33.681   4.582   1.788  1.00 20.00     0.317 HD
BRANCH   4   6
HETATM    6  C7  UNL     1     -33.750   5.594   3.552  1.00 20.00     0.221 C 
HETATM    7  C5  UNL     1     -34.812   6.643   3.844  1.00 20.00     0.043 C 
BRANCH   6   8
HETATM    8  C4  UNL     1     -34.165   4.216   4.047  1.00 20.00     0.018 A 
HETATM    9  C2  UNL     1     -33.263   3.032   3.837  1.00 20.00     0.007 A 
HETATM   10  C3  UNL     1     -33.461   3.589   5.218  1.00 20.00     0.007 A 
ENDBRANCH   6   8
ENDBRANCH   4   6
ENDBRANCH   2   4
TORSDOF 3
ENDMDL
MODEL 6
REMARK VINA RESULT:      -1.0      1.766      4.238
REMARK  3 active torsions:
REMARK  status: ('A' for Active; 'I' for Inactive)
REMARK    1  A    between atoms: C4_4  and  C7_7 
REMARK    2  A    between atoms: C6_6  and  N9_9 
REMARK    3  A    between atoms: C7_7  and  N9_9 
ROOT
HETATM    1  C1  UNL     1     -33.822   6.216   2.781  1.00 20.00     0.089 C 
HETATM    2  C6  UNL     1     -33.042   6.019   1.561  1.00 20.00     0.393 C 
HETATM    3  N8  UNL     1     -34.443   6.371   3.749  1.00 20.00    -0.195 NA
ENDROOT
BRANCH   2   4
HETATM    4  N9  UNL     1     -31.861   6.855   1.562  1.00 20.00     0.100 N 
HETATM    5  H21 UNL     1     -31.420   6.845   0.652  1.00 20.00     0.317 HD
BRANCH   4   6
HETATM    6  C7  UNL     1     -32.231   8.257   1.872  1.00 20.00     0.221 C 
HETATM    7  C5  UNL     1     -31.572   8.664   3.181  1.00 20.00     0.043 C 
BRANCH   6   8
HETATM    8  C4  UNL     1     -31.797   9.152   0.719  1.00 20.00     0.018 A 
HETATM    9  C2  UNL     1     -32.617   9.216  -0.540  1.00 20.00     0.007 A 
HETATM   10  C3  UNL     1     -32.578  10.395   0.392  1.00 20.00     0.007 A 
ENDBRANCH   6   8
ENDBRANCH   4   6
ENDBRANCH   2   4
TORSDOF 3
ENDMDL
MODEL 7
REMARK VINA RESULT:      -0.8      1.605      2.420
REMARK  3 active torsions:
REMARK  status: ('A' for Active; 'I' for Inactive)
REMARK    1  A    between atoms: C4_4  and  C7_7 
REMARK    2  A    between atoms: C6_6  and  N9_9 
REMARK    3  A    between atoms: C7_7  and  N9_9 
ROOT
HETATM    1  C1  UNL     1     -32.314   7.128   1.533  1.00 20.00     0.089 C 
HETATM    2  C6  UNL     1     -32.820   5.765   1.681  1.00 20.00     0.393 C 
HETATM    3  N8  UNL     1     -31.914   8.210   1.414  1.00 20.00    -0.195 NA
ENDROOT
BRANCH   2   4
HETATM    4  N9  UNL     1     -32.740   5.330   3.059  1.00 20.00     0.100 N 
HETATM    5  H21 UNL     1     -32.571   6.119   3.670  1.00 20.00     0.317 HD
BRANCH   4   6
HETATM    6  C7  UNL     1     -34.020   4.704   3.470  1.00 20.00     0.221 C 
HETATM    7  C5  UNL     1     -33.720   3.457   4.288  1.00 20.00     0.043 C 
BRANCH   6   8
HETATM    8  C4  UNL     1     -34.837   5.716   4.262  1.00 20.00     0.018 A 
HETATM    9  C2  UNL     1     -34.491   7.178   4.205  1.00 20.00     0.007 A 
HETATM   10  C3  UNL     1     -35.747   6.677   3.548  1.00 20.00     0.007 A 
ENDBRANCH   6   8
ENDBRANCH   4   6
ENDBRANCH   2   4
TORSDOF 3
ENDMDL
MODEL 8
REMARK VINA RESULT:      -0.8      1.693      3.858
REMARK  3 active torsions:
REMARK  status: ('A' for Active; 'I' for Inactive)
REMARK    1  A    between atoms: C4_4  and  C7_7 
REMARK    2  A    between atoms: C6_6  and  N9_9 
REMARK    3  A    between atoms: C7_7  and  N9_9 
ROOT
HETATM    1  C1  UNL     1     -34.686   6.828   4.007  1.00 20.00     0.089 C 
HETATM    2  C6  UNL     1     -33.813   7.998   3.950  1.00 20.00     0.393 C 
HETATM    3  N8  UNL     1     -35.381   5.900   4.053  1.00 20.00    -0.195 NA
ENDROOT
BRANCH   2   4
HETATM    4  N9  UNL     1     -32.565   7.680   3.290  1.00 20.00     0.100 N 
HETATM    5  H21 UNL     1     -32.249   6.757   3.556  1.00 20.00     0.317 HD
BRANCH   4   6
HETATM    6  C7  UNL     1     -32.751   7.691   1.819  1.00 20.00     0.221 C 
HETATM    7  C5  UNL     1     -32.082   8.931   1.245  1.00 20.00     0.043 C 
BRANCH   6   8
HETATM    8  C4  UNL     1     -32.167   6.413   1.235  1.00 20.00     0.018 A 
HETATM    9  C2  UNL     1     -32.354   5.101   1.946  1.00 20.00     0.007 A 
HETATM   10  C3  UNL     1     -33.074   5.363   0.653  1.00 20.00     0.007 A 
ENDBRANCH   6   8
ENDBRANCH   4   6
ENDBRANCH   2   4
TORSDOF 3
ENDMDL
MODEL 9
REMARK VINA RESULT:      -0.5      0.792      2.258
REMARK  3 active torsions:
REMARK  status: ('A' for Active; 'I' for Inactive)
REMARK    1  A    between atoms: C4_4  and  C7_7 
REMARK    2  A    between atoms: C6_6  and  N9_9 
REMARK    3  A    between atoms: C7_7  and  N9_9 
ROOT
HETATM    1  C1  UNL     1     -32.343   9.630   0.481  1.00 20.00     0.089 C 
HETATM    2  C6  UNL     1     -31.934   8.414   1.180  1.00 20.00     0.393 C 
HETATM    3  N8  UNL     1     -32.667  10.595  -0.076  1.00 20.00    -0.195 NA
ENDROOT
BRANCH   2   4
HETATM    4  N9  UNL     1     -32.278   8.484   2.584  1.00 20.00     0.100 N 
HETATM    5  H21 UNL     1     -32.973   9.202   2.742  1.00 20.00     0.317 HD
BRANCH   4   6
HETATM    6  C7  UNL     1     -32.850   7.191   3.032  1.00 20.00     0.221 C 
HETATM    7  C5  UNL     1     -34.124   7.461   3.818  1.00 20.00     0.043 C 
BRANCH   6   8
HETATM    8  C4  UNL     1     -33.113   6.316   1.815  1.00 20.00     0.018 A 
HETATM    9  C2  UNL     1     -32.025   5.435   1.267  1.00 20.00     0.007 A 
HETATM   10  C3  UNL     1     -33.207   4.822   1.964  1.00 20.00     0.007 A 
ENDBRANCH   6   8
ENDBRANCH   4   6
ENDBRANCH   2   4
TORSDOF 3
ENDMDL
