MODEL 1
REMARK VINA RESULT:      -1.2      0.000      0.000
REMARK  1 active torsions:
REMARK  status: ('A' for Active; 'I' for Inactive)
REMARK    1  A    between atoms: C7_7  and  O9_9 
ROOT
HETATM    1  C1  UNL     1     -34.808   5.572   4.022  1.00 20.00     0.097 C 
HETATM    2  C2  UNL     1     -33.217   5.651   2.244  1.00 20.00    -0.006 C 
HETATM    3  C3  UNL     1     -33.862   6.293   3.234  1.00 20.00     0.047 C 
HETATM    4  C4  UNL     1     -32.207   6.305   1.346  1.00 20.00     0.028 C 
HETATM    5  C5  UNL     1     -31.760   7.684   1.830  1.00 20.00     0.007 C 
HETATM    6  C6  UNL     1     -32.946   8.494   2.350  1.00 20.00     0.037 C 
HETATM    7  C7  UNL     1     -33.652   7.765   3.500  1.00 20.00     0.161 C 
HETATM    8  N8  UNL     1     -35.577   4.983   4.662  1.00 20.00    -0.192 NA
ENDROOT
BRANCH   7   9
HETATM    9  O9  UNL     1     -32.862   7.919   4.680  1.00 20.00    -0.390 OA
HETATM   10  H18 UNL     1     -32.930   7.083   5.167  1.00 20.00     0.210 HD
ENDBRANCH   7   9
TORSDOF 1
ENDMDL
MODEL 2
REMARK VINA RESULT:      -0.9      1.568      2.286
REMARK  1 active torsions:
REMARK  status: ('A' for Active; 'I' for Inactive)
REMARK    1  A    between atoms: C7_7  and  O9_9 
ROOT
HETATM    1  C1  UNL     1     -34.637   5.572   3.879  1.00 20.00     0.097 C 
HETATM    2  C2  UNL     1     -33.444   7.612   3.544  1.00 20.00    -0.006 C 
HETATM    3  C3  UNL     1     -33.688   6.350   3.150  1.00 20.00     0.047 C 
HETATM    4  C4  UNL     1     -32.464   8.523   2.863  1.00 20.00     0.028 C 
HETATM    5  C5  UNL     1     -31.980   7.998   1.511  1.00 20.00     0.007 C 
HETATM    6  C6  UNL     1     -31.699   6.498   1.573  1.00 20.00     0.037 C 
HETATM    7  C7  UNL     1     -32.952   5.718   1.993  1.00 20.00     0.161 C 
HETATM    8  N8  UNL     1     -35.408   4.940   4.473  1.00 20.00    -0.192 NA
ENDROOT
BRANCH   7   9
HETATM    9  O9  UNL     1     -33.828   5.639   0.867  1.00 20.00    -0.390 OA
HETATM   10  H18 UNL     1     -33.854   6.527   0.477  1.00 20.00     0.210 HD
ENDBRANCH   7   9
TORSDOF 1
ENDMDL
MODEL 3
REMARK VINA RESULT:      -0.7      2.316      3.149
REMARK  1 active torsions:
REMARK  status: ('A' for Active; 'I' for Inactive)
REMARK    1  A    between atoms: C7_7  and  O9_9 
ROOT
HETATM    1  C1  UNL     1     -32.351   5.384   1.188  1.00 20.00     0.097 C 
HETATM    2  C2  UNL     1     -34.001   5.780   2.866  1.00 20.00    -0.006 C 
HETATM    3  C3  UNL     1     -32.921   6.218   2.196  1.00 20.00     0.047 C 
HETATM    4  C4  UNL     1     -34.684   6.563   3.950  1.00 20.00     0.028 C 
HETATM    5  C5  UNL     1     -34.227   8.019   4.032  1.00 20.00     0.007 C 
HETATM    6  C6  UNL     1     -32.713   8.130   3.858  1.00 20.00     0.037 C 
HETATM    7  C7  UNL     1     -32.267   7.541   2.514  1.00 20.00     0.161 C 
HETATM    8  N8  UNL     1     -31.888   4.704   0.369  1.00 20.00    -0.192 NA
ENDROOT
BRANCH   7   9
HETATM    9  O9  UNL     1     -32.585   8.480   1.485  1.00 20.00    -0.390 OA
HETATM   10  H18 UNL     1     -32.106   8.191   0.693  1.00 20.00     0.210 HD
ENDBRANCH   7   9
TORSDOF 1
ENDMDL
MODEL 4
REMARK VINA RESULT:      -0.7      2.366      3.350
REMARK  1 active torsions:
REMARK  status: ('A' for Active; 'I' for Inactive)
REMARK    1  A    between atoms: C7_7  and  O9_9 
ROOT
HETATM    1  C1  UNL     1     -32.434   5.323   1.241  1.00 20.00     0.097 C 
HETATM    2  C2  UNL     1     -32.625   7.344   2.498  1.00 20.00    -0.006 C 
HETATM    3  C3  UNL     1     -33.056   6.091   2.271  1.00 20.00     0.047 C 
HETATM    4  C4  UNL     1     -33.205   8.249   3.546  1.00 20.00     0.028 C 
HETATM    5  C5  UNL     1     -34.132   7.531   4.527  1.00 20.00     0.007 C 
HETATM    6  C6  UNL     1     -35.037   6.538   3.801  1.00 20.00     0.037 C 
HETATM    7  C7  UNL     1     -34.212   5.494   3.038  1.00 20.00     0.161 C 
HETATM    8  N8  UNL     1     -31.926   4.700   0.404  1.00 20.00    -0.192 NA
ENDROOT
BRANCH   7   9
HETATM    9  O9  UNL     1     -33.709   4.545   3.980  1.00 20.00    -0.390 OA
HETATM   10  H18 UNL     1     -34.123   4.757   4.831  1.00 20.00     0.210 HD
ENDBRANCH   7   9
TORSDOF 1
ENDMDL
MODEL 5
REMARK VINA RESULT:      -0.3      2.853      4.008
REMARK  1 active torsions:
REMARK  status: ('A' for Active; 'I' for Inactive)
REMARK    1  A    between atoms: C7_7  and  O9_9 
ROOT
HETATM    1  C1  UNL     1     -32.239   8.626   1.175  1.00 20.00     0.097 C 
HETATM    2  C2  UNL     1     -33.476   7.963   3.106  1.00 20.00    -0.006 C 
HETATM    3  C3  UNL     1     -32.854   7.610   1.967  1.00 20.00     0.047 C 
HETATM    4  C4  UNL     1     -34.164   6.988   4.017  1.00 20.00     0.028 C 
HETATM    5  C5  UNL     1     -33.853   5.527   3.694  1.00 20.00     0.007 C 
HETATM    6  C6  UNL     1     -33.857   5.284   2.186  1.00 20.00     0.037 C 
HETATM    7  C7  UNL     1     -32.832   6.181   1.480  1.00 20.00     0.161 C 
HETATM    8  N8  UNL     1     -31.739   9.452   0.532  1.00 20.00    -0.192 NA
ENDROOT
BRANCH   7   9
HETATM    9  O9  UNL     1     -31.531   5.632   1.695  1.00 20.00    -0.390 OA
HETATM   10  H18 UNL     1     -31.220   5.990   2.541  1.00 20.00     0.210 HD
ENDBRANCH   7   9
TORSDOF 1
ENDMDL
MODEL 6
REMARK VINA RESULT:       0.1      2.229      3.109
REMARK  1 active torsions:
REMARK  status: ('A' for Active; 'I' for Inactive)
REMARK    1  A    between atoms: C7_7  and  O9_9 
ROOT
HETATM    1  C1  UNL     1     -33.493   3.312   4.214  1.00 20.00     0.097 C 
HETATM    2  C2  UNL     1     -35.074   5.093   4.373  1.00 20.00    -0.006 C 
HETATM    3  C3  UNL     1     -33.893   4.647   3.909  1.00 20.00     0.047 C 
HETATM    4  C4  UNL     1     -35.598   6.478   4.124  1.00 20.00     0.028 C 
HETATM    5  C5  UNL     1     -34.815   7.245   3.060  1.00 20.00     0.007 C 
HETATM    6  C6  UNL     1     -33.312   7.023   3.217  1.00 20.00     0.037 C 
HETATM    7  C7  UNL     1     -32.960   5.534   3.120  1.00 20.00     0.161 C 
HETATM    8  N8  UNL     1     -33.169   2.226   4.463  1.00 20.00    -0.192 NA
ENDROOT
BRANCH   7   9
HETATM    9  O9  UNL     1     -33.003   5.152   1.744  1.00 20.00    -0.390 OA
HETATM   10  H18 UNL     1     -33.482   4.310   1.708  1.00 20.00     0.210 HD
ENDBRANCH   7   9
TORSDOF 1
ENDMDL
MODEL 7
REMARK VINA RESULT:       0.7      2.509      3.471
REMARK  1 active torsions:
REMARK  status: ('A' for Active; 'I' for Inactive)
REMARK    1  A    between atoms: C7_7  and  O9_9 
ROOT
HETATM    1  C1  UNL     1     -32.062   7.932   1.629  1.00 20.00     0.097 C 
HETATM    2  C2  UNL     1     -33.207   5.969   2.360  1.00 20.00    -0.006 C 
HETATM    3  C3  UNL     1     -32.976   7.284   2.514  1.00 20.00     0.047 C 
HETATM    4  C4  UNL     1     -34.139   5.178   3.232  1.00 20.00     0.028 C 
HETATM    5  C5  UNL     1     -35.024   6.047   4.125  1.00 20.00     0.007 C 
HETATM    6  C6  UNL     1     -34.230   7.207   4.724  1.00 20.00     0.037 C 
HETATM    7  C7  UNL     1     -33.616   8.082   3.625  1.00 20.00     0.161 C 
HETATM    8  N8  UNL     1     -31.319   8.457   0.909  1.00 20.00    -0.192 NA
ENDROOT
BRANCH   7   9
HETATM    9  O9  UNL     1     -34.649   8.903   3.077  1.00 20.00    -0.390 OA
HETATM   10  H18 UNL     1     -35.342   8.300   2.765  1.00 20.00     0.210 HD
ENDBRANCH   7   9
TORSDOF 1
ENDMDL
MODEL 8
REMARK VINA RESULT:       1.1      1.691      2.051
REMARK  1 active torsions:
REMARK  status: ('A' for Active; 'I' for Inactive)
REMARK    1  A    between atoms: C7_7  and  O9_9 
ROOT
HETATM    1  C1  UNL     1     -33.803   7.822   4.353  1.00 20.00     0.097 C 
HETATM    2  C2  UNL     1     -33.480   6.087   2.746  1.00 20.00    -0.006 C 
HETATM    3  C3  UNL     1     -33.202   7.338   3.153  1.00 20.00     0.047 C 
HETATM    4  C4  UNL     1     -32.915   5.471   1.499  1.00 20.00     0.028 C 
HETATM    5  C5  UNL     1     -31.773   6.279   0.883  1.00 20.00     0.007 C 
HETATM    6  C6  UNL     1     -32.078   7.775   0.915  1.00 20.00     0.037 C 
HETATM    7  C7  UNL     1     -32.314   8.260   2.351  1.00 20.00     0.161 C 
HETATM    8  N8  UNL     1     -34.293   8.214   5.330  1.00 20.00    -0.192 NA
ENDROOT
BRANCH   7   9
HETATM    9  O9  UNL     1     -31.047   8.372   3.000  1.00 20.00    -0.390 OA
HETATM   10  H18 UNL     1     -30.380   8.110   2.347  1.00 20.00     0.210 HD
ENDBRANCH   7   9
TORSDOF 1
ENDMDL
MODEL 9
REMARK VINA RESULT:       1.2      1.993      2.738
REMARK  1 active torsions:
REMARK  status: ('A' for Active; 'I' for Inactive)
REMARK    1  A    between atoms: C7_7  and  O9_9 
ROOT
HETATM    1  C1  UNL     1     -33.378   8.188   4.884  1.00 20.00     0.097 C 
HETATM    2  C2  UNL     1     -32.383   7.916   2.732  1.00 20.00    -0.006 C 
HETATM    3  C3  UNL     1     -33.217   7.446   3.676  1.00 20.00     0.047 C 
HETATM    4  C4  UNL     1     -32.127   7.222   1.425  1.00 20.00     0.028 C 
HETATM    5  C5  UNL     1     -33.109   6.087   1.134  1.00 20.00     0.007 C 
HETATM    6  C6  UNL     1     -33.381   5.260   2.388  1.00 20.00     0.037 C 
HETATM    7  C7  UNL     1     -33.947   6.134   3.515  1.00 20.00     0.161 C 
HETATM    8  N8  UNL     1     -33.507   8.792   5.866  1.00 20.00    -0.192 NA
ENDROOT
BRANCH   7   9
HETATM    9  O9  UNL     1     -35.322   6.395   3.231  1.00 20.00    -0.390 OA
HETATM   10  H18 UNL     1     -35.699   6.784   4.035  1.00 20.00     0.210 HD
ENDBRANCH   7   9
TORSDOF 1
ENDMDL
