MODEL 1
REMARK VINA RESULT:      -2.3      0.000      0.000
REMARK  1 active torsions:
REMARK  status: ('A' for Active; 'I' for Inactive)
REMARK    1  A    between atoms: C7_7  and  N8_8 
ROOT
HETATM    1  C1  UNL     1     -32.397   9.797   0.326  1.00 20.00     0.013 C 
HETATM    2  C2  UNL     1     -32.199   8.813   0.985  1.00 20.00    -0.087 C 
HETATM    3  C7  UNL     1     -31.951   7.614   1.788  1.00 20.00     0.365 C 
ENDROOT
BRANCH   3   4
HETATM    4  N8  UNL     1     -33.198   7.082   2.316  1.00 20.00     0.106 N 
HETATM    5  C5  UNL     1     -33.113   5.652   2.618  1.00 20.00     0.351 C 
HETATM    6  C3  UNL     1     -34.211   5.499   3.638  1.00 20.00     0.156 C 
HETATM    7  C4  UNL     1     -34.702   6.837   4.110  1.00 20.00     0.110 C 
HETATM    8  O9  UNL     1     -34.647   4.426   4.029  1.00 20.00    -0.296 OA
HETATM    9  C6  UNL     1     -33.609   7.743   3.560  1.00 20.00     0.281 C 
ENDBRANCH   3   4
TORSDOF 1
ENDMDL
MODEL 2
REMARK VINA RESULT:      -1.6      2.301      4.395
REMARK  1 active torsions:
REMARK  status: ('A' for Active; 'I' for Inactive)
REMARK    1  A    between atoms: C7_7  and  N8_8 
ROOT
HETATM    1  C1  UNL     1     -33.142   2.724   4.827  1.00 20.00     0.013 C 
HETATM    2  C2  UNL     1     -33.714   3.643   4.307  1.00 20.00    -0.087 C 
HETATM    3  C7  UNL     1     -34.416   4.761   3.674  1.00 20.00     0.365 C 
ENDROOT
BRANCH   3   4
HETATM    4  N8  UNL     1     -33.544   5.920   3.564  1.00 20.00     0.106 N 
HETATM    5  C5  UNL     1     -33.015   6.096   2.211  1.00 20.00     0.351 C 
HETATM    6  C3  UNL     1     -32.690   7.567   2.209  1.00 20.00     0.156 C 
HETATM    7  C4  UNL     1     -33.278   8.253   3.407  1.00 20.00     0.110 C 
HETATM    8  O9  UNL     1     -32.029   8.128   1.346  1.00 20.00    -0.296 OA
HETATM    9  C6  UNL     1     -34.227   7.173   3.906  1.00 20.00     0.281 C 
ENDBRANCH   3   4
TORSDOF 1
ENDMDL
MODEL 3
REMARK VINA RESULT:      -1.4      2.268      4.496
REMARK  1 active torsions:
REMARK  status: ('A' for Active; 'I' for Inactive)
REMARK    1  A    between atoms: C7_7  and  N8_8 
ROOT
HETATM    1  C1  UNL     1     -33.484   3.114   4.484  1.00 20.00     0.013 C 
HETATM    2  C2  UNL     1     -34.026   4.173   4.323  1.00 20.00    -0.087 C 
HETATM    3  C7  UNL     1     -34.690   5.465   4.130  1.00 20.00     0.365 C 
ENDROOT
BRANCH   3   4
HETATM    4  N8  UNL     1     -34.133   6.163   2.981  1.00 20.00     0.106 N 
HETATM    5  C5  UNL     1     -33.426   7.387   3.360  1.00 20.00     0.351 C 
HETATM    6  C3  UNL     1     -32.496   7.566   2.188  1.00 20.00     0.156 C 
HETATM    7  C4  UNL     1     -32.473   6.340   1.323  1.00 20.00     0.110 C 
HETATM    8  O9  UNL     1     -31.849   8.580   1.968  1.00 20.00    -0.296 OA
HETATM    9  C6  UNL     1     -33.170   5.343   2.238  1.00 20.00     0.281 C 
ENDBRANCH   3   4
TORSDOF 1
ENDMDL
MODEL 4
REMARK VINA RESULT:      -1.4      1.397      1.966
REMARK  1 active torsions:
REMARK  status: ('A' for Active; 'I' for Inactive)
REMARK    1  A    between atoms: C7_7  and  N8_8 
ROOT
HETATM    1  C1  UNL     1     -32.727  10.308   0.288  1.00 20.00     0.013 C 
HETATM    2  C2  UNL     1     -32.121   9.302   0.536  1.00 20.00    -0.087 C 
HETATM    3  C7  UNL     1     -31.379   8.075   0.837  1.00 20.00     0.365 C 
ENDROOT
BRANCH   3   4
HETATM    4  N8  UNL     1     -31.976   7.376   1.964  1.00 20.00     0.106 N 
HETATM    5  C5  UNL     1     -32.749   8.268   2.829  1.00 20.00     0.351 C 
HETATM    6  C3  UNL     1     -33.690   7.295   3.492  1.00 20.00     0.156 C 
HETATM    7  C4  UNL     1     -33.646   5.955   2.817  1.00 20.00     0.110 C 
HETATM    8  O9  UNL     1     -34.393   7.561   4.456  1.00 20.00    -0.296 OA
HETATM    9  C6  UNL     1     -32.892   6.311   1.543  1.00 20.00     0.281 C 
ENDBRANCH   3   4
TORSDOF 1
ENDMDL
MODEL 5
REMARK VINA RESULT:      -0.8      1.218      1.657
REMARK  1 active torsions:
REMARK  status: ('A' for Active; 'I' for Inactive)
REMARK    1  A    between atoms: C7_7  and  N8_8 
ROOT
HETATM    1  C1  UNL     1     -31.555   7.756   1.134  1.00 20.00     0.013 C 
HETATM    2  C2  UNL     1     -32.358   7.790   2.027  1.00 20.00    -0.087 C 
HETATM    3  C7  UNL     1     -33.336   7.836   3.117  1.00 20.00     0.365 C 
ENDROOT
BRANCH   3   4
HETATM    4  N8  UNL     1     -34.072   6.584   3.199  1.00 20.00     0.106 N 
HETATM    5  C5  UNL     1     -33.195   5.433   3.421  1.00 20.00     0.351 C 
HETATM    6  C3  UNL     1     -34.151   4.447   4.041  1.00 20.00     0.156 C 
HETATM    7  C4  UNL     1     -35.442   5.112   4.422  1.00 20.00     0.110 C 
HETATM    8  O9  UNL     1     -33.908   3.261   4.209  1.00 20.00    -0.296 OA
HETATM    9  C6  UNL     1     -35.047   6.576   4.295  1.00 20.00     0.281 C 
ENDBRANCH   3   4
TORSDOF 1
ENDMDL
MODEL 6
REMARK VINA RESULT:      -0.8      1.008      1.608
REMARK  1 active torsions:
REMARK  status: ('A' for Active; 'I' for Inactive)
REMARK    1  A    between atoms: C7_7  and  N8_8 
ROOT
HETATM    1  C1  UNL     1     -32.500   9.265  -0.056  1.00 20.00     0.013 C 
HETATM    2  C2  UNL     1     -32.156   8.975   1.057  1.00 20.00    -0.087 C 
HETATM    3  C7  UNL     1     -31.734   8.626   2.416  1.00 20.00     0.365 C 
ENDROOT
BRANCH   3   4
HETATM    4  N8  UNL     1     -32.394   7.408   2.862  1.00 20.00     0.106 N 
HETATM    5  C5  UNL     1     -33.585   7.681   3.668  1.00 20.00     0.351 C 
HETATM    6  C3  UNL     1     -34.363   6.404   3.490  1.00 20.00     0.156 C 
HETATM    7  C4  UNL     1     -33.775   5.560   2.396  1.00 20.00     0.110 C 
HETATM    8  O9  UNL     1     -35.343   6.093   4.151  1.00 20.00    -0.296 OA
HETATM    9  C6  UNL     1     -32.836   6.567   1.745  1.00 20.00     0.281 C 
ENDBRANCH   3   4
TORSDOF 1
ENDMDL
MODEL 7
REMARK VINA RESULT:      -0.6      1.893      3.849
REMARK  1 active torsions:
REMARK  status: ('A' for Active; 'I' for Inactive)
REMARK    1  A    between atoms: C7_7  and  N8_8 
ROOT
HETATM    1  C1  UNL     1     -35.636   5.388   4.445  1.00 20.00     0.013 C 
HETATM    2  C2  UNL     1     -34.988   6.366   4.188  1.00 20.00    -0.087 C 
HETATM    3  C7  UNL     1     -34.201   7.561   3.877  1.00 20.00     0.365 C 
ENDROOT
BRANCH   3   4
HETATM    4  N8  UNL     1     -32.989   7.205   3.156  1.00 20.00     0.106 N 
HETATM    5  C5  UNL     1     -33.113   5.930   2.450  1.00 20.00     0.351 C 
HETATM    6  C3  UNL     1     -32.066   6.082   1.378  1.00 20.00     0.156 C 
HETATM    7  C4  UNL     1     -31.572   7.497   1.300  1.00 20.00     0.110 C 
HETATM    8  O9  UNL     1     -31.667   5.170   0.666  1.00 20.00    -0.296 OA
HETATM    9  C6  UNL     1     -32.623   8.203   2.146  1.00 20.00     0.281 C 
ENDBRANCH   3   4
TORSDOF 1
ENDMDL
MODEL 8
REMARK VINA RESULT:      -0.5      2.731      4.620
REMARK  1 active torsions:
REMARK  status: ('A' for Active; 'I' for Inactive)
REMARK    1  A    between atoms: C7_7  and  N8_8 
ROOT
HETATM    1  C1  UNL     1     -35.343   6.180   3.980  1.00 20.00     0.013 C 
HETATM    2  C2  UNL     1     -34.356   6.845   3.821  1.00 20.00    -0.087 C 
HETATM    3  C7  UNL     1     -33.151   7.656   3.632  1.00 20.00     0.365 C 
ENDROOT
BRANCH   3   4
HETATM    4  N8  UNL     1     -32.933   7.931   2.220  1.00 20.00     0.106 N 
HETATM    5  C5  UNL     1     -33.105   9.348   1.893  1.00 20.00     0.351 C 
HETATM    6  C3  UNL     1     -32.287   9.463   0.633  1.00 20.00     0.156 C 
HETATM    7  C4  UNL     1     -31.452   8.234   0.416  1.00 20.00     0.110 C 
HETATM    8  O9  UNL     1     -32.305  10.428  -0.117  1.00 20.00    -0.296 OA
HETATM    9  C6  UNL     1     -31.582   7.567   1.778  1.00 20.00     0.281 C 
ENDBRANCH   3   4
TORSDOF 1
ENDMDL
MODEL 9
REMARK VINA RESULT:      -0.4      1.429      2.192
REMARK  1 active torsions:
REMARK  status: ('A' for Active; 'I' for Inactive)
REMARK    1  A    between atoms: C7_7  and  N8_8 
ROOT
HETATM    1  C1  UNL     1     -31.849   4.654   0.689  1.00 20.00     0.013 C 
HETATM    2  C2  UNL     1     -31.892   5.769   1.131  1.00 20.00    -0.087 C 
HETATM    3  C7  UNL     1     -31.941   7.131   1.668  1.00 20.00     0.365 C 
ENDROOT
BRANCH   3   4
HETATM    4  N8  UNL     1     -33.159   7.339   2.435  1.00 20.00     0.106 N 
HETATM    5  C5  UNL     1     -33.876   6.089   2.693  1.00 20.00     0.351 C 
HETATM    6  C3  UNL     1     -34.677   6.455   3.916  1.00 20.00     0.156 C 
HETATM    7  C4  UNL     1     -34.214   7.760   4.496  1.00 20.00     0.110 C 
HETATM    8  O9  UNL     1     -35.587   5.779   4.374  1.00 20.00    -0.296 OA
HETATM    9  C6  UNL     1     -32.903   7.947   3.744  1.00 20.00     0.281 C 
ENDBRANCH   3   4
TORSDOF 1
ENDMDL
