MODEL 1
REMARK VINA RESULT:      -2.1      0.000      0.000
REMARK  3 active torsions:
REMARK  status: ('A' for Active; 'I' for Inactive)
REMARK    1  A    between atoms: C6_6  and  C7_7 
REMARK    2  A    between atoms: C7_7  and  C8_8 
REMARK    3  A    between atoms: C7_7  and  O9_9 
ROOT
HETATM    1  C1  UNL     1     -32.416   9.742   0.212  1.00 20.00     0.012 C 
HETATM    2  C2  UNL     1     -32.303   8.900   1.060  1.00 20.00    -0.115 C 
HETATM    3  C6  UNL     1     -32.160   7.868   2.104  1.00 20.00     0.125 C 
ENDROOT
BRANCH   3   4
HETATM    4  C7  UNL     1     -33.312   6.851   2.040  1.00 20.00     0.136 C 
BRANCH   4   5
HETATM    5  C8  UNL     1     -34.064   6.610   3.388  1.00 20.00    -0.025 C 
HETATM    6  C3  UNL     1     -33.544   7.607   4.446  1.00 20.00     0.017 C 
HETATM    7  C4  UNL     1     -35.584   6.811   3.250  1.00 20.00     0.017 C 
HETATM    8  C5  UNL     1     -33.800   5.184   3.908  1.00 20.00     0.017 C 
ENDBRANCH   4   5
BRANCH   4   9
HETATM    9  O9  UNL     1     -32.791   5.611   1.544  1.00 20.00    -0.394 OA
HETATM   10  H23 UNL     1     -31.939   5.823   1.136  1.00 20.00     0.210 HD
ENDBRANCH   4   9
ENDBRANCH   3   4
TORSDOF 3
ENDMDL
MODEL 2
REMARK VINA RESULT:      -2.1      0.031      1.442
REMARK  3 active torsions:
REMARK  status: ('A' for Active; 'I' for Inactive)
REMARK    1  A    between atoms: C6_6  and  C7_7 
REMARK    2  A    between atoms: C7_7  and  C8_8 
REMARK    3  A    between atoms: C7_7  and  O9_9 
ROOT
HETATM    1  C1  UNL     1     -32.429   9.771   0.229  1.00 20.00     0.012 C 
HETATM    2  C2  UNL     1     -32.305   8.916   1.063  1.00 20.00    -0.115 C 
HETATM    3  C6  UNL     1     -32.149   7.869   2.090  1.00 20.00     0.125 C 
ENDROOT
BRANCH   3   4
HETATM    4  C7  UNL     1     -33.317   6.869   2.043  1.00 20.00     0.136 C 
BRANCH   4   5
HETATM    5  C8  UNL     1     -34.055   6.643   3.401  1.00 20.00    -0.025 C 
HETATM    6  C3  UNL     1     -33.795   5.201   3.889  1.00 20.00     0.017 C 
HETATM    7  C4  UNL     1     -33.569   7.612   4.495  1.00 20.00     0.017 C 
HETATM    8  C5  UNL     1     -35.576   6.818   3.227  1.00 20.00     0.017 C 
ENDBRANCH   4   5
BRANCH   4   9
HETATM    9  O9  UNL     1     -32.821   5.620   1.544  1.00 20.00    -0.394 OA
HETATM   10  H23 UNL     1     -33.311   4.930   2.014  1.00 20.00     0.210 HD
ENDBRANCH   4   9
ENDBRANCH   3   4
TORSDOF 3
ENDMDL
MODEL 3
REMARK VINA RESULT:      -0.8      1.328      4.241
REMARK  3 active torsions:
REMARK  status: ('A' for Active; 'I' for Inactive)
REMARK    1  A    between atoms: C6_6  and  C7_7 
REMARK    2  A    between atoms: C7_7  and  C8_8 
REMARK    3  A    between atoms: C7_7  and  O9_9 
ROOT
HETATM    1  C1  UNL     1     -33.055   2.512   4.826  1.00 20.00     0.012 C 
HETATM    2  C2  UNL     1     -33.624   3.478   4.395  1.00 20.00    -0.115 C 
HETATM    3  C6  UNL     1     -34.328   4.662   3.869  1.00 20.00     0.125 C 
ENDROOT
BRANCH   3   4
HETATM    4  C7  UNL     1     -33.331   5.712   3.348  1.00 20.00     0.136 C 
BRANCH   4   5
HETATM    5  C8  UNL     1     -33.793   7.197   3.496  1.00 20.00    -0.025 C 
HETATM    6  C3  UNL     1     -35.329   7.270   3.361  1.00 20.00     0.017 C 
HETATM    7  C4  UNL     1     -33.406   7.793   4.863  1.00 20.00     0.017 C 
HETATM    8  C5  UNL     1     -33.176   8.070   2.386  1.00 20.00     0.017 C 
ENDBRANCH   4   5
BRANCH   4   9
HETATM    9  O9  UNL     1     -33.051   5.424   1.973  1.00 20.00    -0.394 OA
HETATM   10  H23 UNL     1     -33.386   6.178   1.468  1.00 20.00     0.210 HD
ENDBRANCH   4   9
ENDBRANCH   3   4
TORSDOF 3
ENDMDL
MODEL 4
REMARK VINA RESULT:      -0.7      1.333      4.091
REMARK  3 active torsions:
REMARK  status: ('A' for Active; 'I' for Inactive)
REMARK    1  A    between atoms: C6_6  and  C7_7 
REMARK    2  A    between atoms: C7_7  and  C8_8 
REMARK    3  A    between atoms: C7_7  and  O9_9 
ROOT
HETATM    1  C1  UNL     1     -32.973   2.643   5.080  1.00 20.00     0.012 C 
HETATM    2  C2  UNL     1     -33.554   3.514   4.494  1.00 20.00    -0.115 C 
HETATM    3  C6  UNL     1     -34.273   4.582   3.775  1.00 20.00     0.125 C 
ENDROOT
BRANCH   3   4
HETATM    4  C7  UNL     1     -33.307   5.689   3.317  1.00 20.00     0.136 C 
BRANCH   4   5
HETATM    5  C8  UNL     1     -33.842   7.148   3.482  1.00 20.00    -0.025 C 
HETATM    6  C3  UNL     1     -33.236   8.041   2.378  1.00 20.00     0.017 C 
HETATM    7  C4  UNL     1     -35.376   7.222   3.367  1.00 20.00     0.017 C 
HETATM    8  C5  UNL     1     -33.421   7.728   4.847  1.00 20.00     0.017 C 
ENDBRANCH   4   5
BRANCH   4   9
HETATM    9  O9  UNL     1     -32.962   5.448   1.948  1.00 20.00    -0.394 OA
HETATM   10  H23 UNL     1     -32.158   4.910   1.965  1.00 20.00     0.210 HD
ENDBRANCH   4   9
ENDBRANCH   3   4
TORSDOF 3
ENDMDL
MODEL 5
REMARK VINA RESULT:      -0.7      1.331      4.133
REMARK  3 active torsions:
REMARK  status: ('A' for Active; 'I' for Inactive)
REMARK    1  A    between atoms: C6_6  and  C7_7 
REMARK    2  A    between atoms: C7_7  and  C8_8 
REMARK    3  A    between atoms: C7_7  and  O9_9 
ROOT
HETATM    1  C1  UNL     1     -33.060   2.525   4.856  1.00 20.00     0.012 C 
HETATM    2  C2  UNL     1     -33.632   3.482   4.412  1.00 20.00    -0.115 C 
HETATM    3  C6  UNL     1     -34.340   4.656   3.868  1.00 20.00     0.125 C 
ENDROOT
BRANCH   3   4
HETATM    4  C7  UNL     1     -33.347   5.710   3.347  1.00 20.00     0.136 C 
BRANCH   4   5
HETATM    5  C8  UNL     1     -33.824   7.192   3.470  1.00 20.00    -0.025 C 
HETATM    6  C3  UNL     1     -33.423   7.744   4.855  1.00 20.00     0.017 C 
HETATM    7  C4  UNL     1     -33.194   8.097   2.396  1.00 20.00     0.017 C 
HETATM    8  C5  UNL     1     -35.359   7.279   3.350  1.00 20.00     0.017 C 
ENDBRANCH   4   5
BRANCH   4   9
HETATM    9  O9  UNL     1     -33.046   5.407   1.979  1.00 20.00    -0.394 OA
HETATM   10  H23 UNL     1     -33.630   4.675   1.732  1.00 20.00     0.210 HD
ENDBRANCH   4   9
ENDBRANCH   3   4
TORSDOF 3
ENDMDL
MODEL 6
REMARK VINA RESULT:      -0.4      1.615      2.309
REMARK  3 active torsions:
REMARK  status: ('A' for Active; 'I' for Inactive)
REMARK    1  A    between atoms: C6_6  and  C7_7 
REMARK    2  A    between atoms: C7_7  and  C8_8 
REMARK    3  A    between atoms: C7_7  and  O9_9 
ROOT
HETATM    1  C1  UNL     1     -32.750  10.643   0.344  1.00 20.00     0.012 C 
HETATM    2  C2  UNL     1     -32.226   9.566   0.416  1.00 20.00    -0.115 C 
HETATM    3  C6  UNL     1     -31.579   8.243   0.499  1.00 20.00     0.125 C 
ENDROOT
BRANCH   3   4
HETATM    4  C7  UNL     1     -31.938   7.533   1.816  1.00 20.00     0.136 C 
BRANCH   4   5
HETATM    5  C8  UNL     1     -32.751   6.209   1.659  1.00 20.00    -0.025 C 
HETATM    6  C3  UNL     1     -33.621   5.992   2.915  1.00 20.00     0.017 C 
HETATM    7  C4  UNL     1     -33.683   6.242   0.433  1.00 20.00     0.017 C 
HETATM    8  C5  UNL     1     -31.802   5.003   1.523  1.00 20.00     0.017 C 
ENDBRANCH   4   5
BRANCH   4   9
HETATM    9  O9  UNL     1     -32.661   8.454   2.642  1.00 20.00    -0.394 OA
HETATM   10  H23 UNL     1     -32.131   8.568   3.444  1.00 20.00     0.210 HD
ENDBRANCH   4   9
ENDBRANCH   3   4
TORSDOF 3
ENDMDL
MODEL 7
REMARK VINA RESULT:      -0.4      1.626      2.532
REMARK  3 active torsions:
REMARK  status: ('A' for Active; 'I' for Inactive)
REMARK    1  A    between atoms: C6_6  and  C7_7 
REMARK    2  A    between atoms: C7_7  and  C8_8 
REMARK    3  A    between atoms: C7_7  and  O9_9 
ROOT
HETATM    1  C1  UNL     1     -32.733  10.648   0.334  1.00 20.00     0.012 C 
HETATM    2  C2  UNL     1     -32.220   9.566   0.413  1.00 20.00    -0.115 C 
HETATM    3  C6  UNL     1     -31.588   8.237   0.506  1.00 20.00     0.125 C 
ENDROOT
BRANCH   3   4
HETATM    4  C7  UNL     1     -31.952   7.541   1.829  1.00 20.00     0.136 C 
BRANCH   4   5
HETATM    5  C8  UNL     1     -32.753   6.208   1.680  1.00 20.00    -0.025 C 
HETATM    6  C3  UNL     1     -31.764   5.034   1.513  1.00 20.00     0.017 C 
HETATM    7  C4  UNL     1     -33.634   5.918   2.910  1.00 20.00     0.017 C 
HETATM    8  C5  UNL     1     -33.653   6.252   0.430  1.00 20.00     0.017 C 
ENDBRANCH   4   5
BRANCH   4   9
HETATM    9  O9  UNL     1     -32.691   8.466   2.636  1.00 20.00    -0.394 OA
HETATM   10  H23 UNL     1     -32.042   9.091   2.988  1.00 20.00     0.210 HD
ENDBRANCH   4   9
ENDBRANCH   3   4
TORSDOF 3
ENDMDL
MODEL 8
REMARK VINA RESULT:      -0.2      1.615      4.131
REMARK  3 active torsions:
REMARK  status: ('A' for Active; 'I' for Inactive)
REMARK    1  A    between atoms: C6_6  and  C7_7 
REMARK    2  A    between atoms: C7_7  and  C8_8 
REMARK    3  A    between atoms: C7_7  and  O9_9 
ROOT
HETATM    1  C1  UNL     1     -35.462   5.322   4.655  1.00 20.00     0.012 C 
HETATM    2  C2  UNL     1     -34.710   5.658   3.781  1.00 20.00    -0.115 C 
HETATM    3  C6  UNL     1     -33.786   6.065   2.706  1.00 20.00     0.125 C 
ENDROOT
BRANCH   3   4
HETATM    4  C7  UNL     1     -33.476   7.570   2.783  1.00 20.00     0.136 C 
BRANCH   4   5
HETATM    5  C8  UNL     1     -32.207   8.029   1.995  1.00 20.00    -0.025 C 
HETATM    6  C3  UNL     1     -31.589   6.813   1.271  1.00 20.00     0.017 C 
HETATM    7  C4  UNL     1     -32.535   9.098   0.936  1.00 20.00     0.017 C 
HETATM    8  C5  UNL     1     -31.148   8.598   2.959  1.00 20.00     0.017 C 
ENDBRANCH   4   5
BRANCH   4   9
HETATM    9  O9  UNL     1     -33.351   7.934   4.163  1.00 20.00    -0.394 OA
HETATM   10  H23 UNL     1     -32.475   7.631   4.442  1.00 20.00     0.210 HD
ENDBRANCH   4   9
ENDBRANCH   3   4
TORSDOF 3
ENDMDL
MODEL 9
REMARK VINA RESULT:      -0.1      1.597      4.144
REMARK  3 active torsions:
REMARK  status: ('A' for Active; 'I' for Inactive)
REMARK    1  A    between atoms: C6_6  and  C7_7 
REMARK    2  A    between atoms: C7_7  and  C8_8 
REMARK    3  A    between atoms: C7_7  and  O9_9 
ROOT
HETATM    1  C1  UNL     1     -35.413   5.248   4.603  1.00 20.00     0.012 C 
HETATM    2  C2  UNL     1     -34.634   5.587   3.754  1.00 20.00    -0.115 C 
HETATM    3  C6  UNL     1     -33.678   5.998   2.709  1.00 20.00     0.125 C 
ENDROOT
BRANCH   3   4
HETATM    4  C7  UNL     1     -33.461   7.521   2.725  1.00 20.00     0.136 C 
BRANCH   4   5
HETATM    5  C8  UNL     1     -32.185   8.019   1.973  1.00 20.00    -0.025 C 
HETATM    6  C3  UNL     1     -31.207   8.645   2.990  1.00 20.00     0.017 C 
HETATM    7  C4  UNL     1     -31.452   6.873   1.250  1.00 20.00     0.017 C 
HETATM    8  C5  UNL     1     -32.553   9.100   0.939  1.00 20.00     0.017 C 
ENDBRANCH   4   5
BRANCH   4   9
HETATM    9  O9  UNL     1     -33.425   7.956   4.089  1.00 20.00    -0.394 OA
HETATM   10  H23 UNL     1     -32.488   8.035   4.320  1.00 20.00     0.210 HD
ENDBRANCH   4   9
ENDBRANCH   3   4
TORSDOF 3
ENDMDL
