MODEL 1
REMARK VINA RESULT:      -2.0      0.000      0.000
REMARK  0 active torsions:
REMARK  status: ('A' for Active; 'I' for Inactive)
ROOT
HETATM    1  C1  UNL     1     -32.875   7.308   2.598  1.00 20.00    -0.064 C 
HETATM    2  C2  UNL     1     -32.131   8.095   1.817  1.00 20.00     0.016 C 
HETATM    3  C3  UNL     1     -33.620   7.735   3.813  1.00 20.00     0.061 C 
HETATM    4  C4  UNL     1     -33.166   5.866   2.349  1.00 20.00     0.201 C 
HETATM    5  C5  UNL     1     -34.719   6.693   3.843  1.00 20.00     0.172 C 
HETATM    6  O6  UNL     1     -34.111   5.484   3.366  1.00 20.00    -0.387 OA
ENDROOT
TORSDOF 0
ENDMDL
MODEL 2
REMARK VINA RESULT:      -2.0      1.408      2.925
REMARK  0 active torsions:
REMARK  status: ('A' for Active; 'I' for Inactive)
ROOT
HETATM    1  C1  UNL     1     -34.194   6.537   3.491  1.00 20.00    -0.064 C 
HETATM    2  C2  UNL     1     -35.335   6.107   4.035  1.00 20.00     0.016 C 
HETATM    3  C3  UNL     1     -33.393   5.820   2.460  1.00 20.00     0.061 C 
HETATM    4  C4  UNL     1     -33.551   7.856   3.754  1.00 20.00     0.201 C 
HETATM    5  C5  UNL     1     -32.694   6.988   1.795  1.00 20.00     0.172 C 
HETATM    6  O6  UNL     1     -32.435   7.928   2.848  1.00 20.00    -0.387 OA
ENDROOT
TORSDOF 0
ENDMDL
MODEL 3
REMARK VINA RESULT:      -1.8      0.771      1.692
REMARK  0 active torsions:
REMARK  status: ('A' for Active; 'I' for Inactive)
ROOT
HETATM    1  C1  UNL     1     -32.770   7.258   2.243  1.00 20.00    -0.064 C 
HETATM    2  C2  UNL     1     -31.862   8.104   1.750  1.00 20.00     0.016 C 
HETATM    3  C3  UNL     1     -33.008   5.864   1.778  1.00 20.00     0.061 C 
HETATM    4  C4  UNL     1     -33.660   7.524   3.410  1.00 20.00     0.201 C 
HETATM    5  C5  UNL     1     -33.581   5.248   3.038  1.00 20.00     0.172 C 
HETATM    6  O6  UNL     1     -34.355   6.287   3.653  1.00 20.00    -0.387 OA
ENDROOT
TORSDOF 0
ENDMDL
MODEL 4
REMARK VINA RESULT:      -1.7      1.257      2.500
REMARK  0 active torsions:
REMARK  status: ('A' for Active; 'I' for Inactive)
ROOT
HETATM    1  C1  UNL     1     -34.285   6.430   3.469  1.00 20.00    -0.064 C 
HETATM    2  C2  UNL     1     -35.131   5.719   4.219  1.00 20.00     0.016 C 
HETATM    3  C3  UNL     1     -33.893   7.848   3.700  1.00 20.00     0.061 C 
HETATM    4  C4  UNL     1     -33.510   5.910   2.306  1.00 20.00     0.201 C 
HETATM    5  C5  UNL     1     -32.530   7.866   3.039  1.00 20.00     0.172 C 
HETATM    6  O6  UNL     1     -32.641   6.987   1.911  1.00 20.00    -0.387 OA
ENDROOT
TORSDOF 0
ENDMDL
MODEL 5
REMARK VINA RESULT:      -1.6      1.214      2.350
REMARK  0 active torsions:
REMARK  status: ('A' for Active; 'I' for Inactive)
ROOT
HETATM    1  C1  UNL     1     -33.515   7.233   3.170  1.00 20.00    -0.064 C 
HETATM    2  C2  UNL     1     -34.056   7.697   4.300  1.00 20.00     0.016 C 
HETATM    3  C3  UNL     1     -32.623   7.995   2.253  1.00 20.00     0.061 C 
HETATM    4  C4  UNL     1     -33.636   5.838   2.659  1.00 20.00     0.201 C 
HETATM    5  C5  UNL     1     -31.847   6.858   1.619  1.00 20.00     0.172 C 
HETATM    6  O6  UNL     1     -32.781   5.776   1.503  1.00 20.00    -0.387 OA
ENDROOT
TORSDOF 0
ENDMDL
MODEL 6
REMARK VINA RESULT:      -1.5      1.491      2.392
REMARK  0 active torsions:
REMARK  status: ('A' for Active; 'I' for Inactive)
ROOT
HETATM    1  C1  UNL     1     -34.132   6.404   3.524  1.00 20.00    -0.064 C 
HETATM    2  C2  UNL     1     -33.659   7.627   3.272  1.00 20.00     0.016 C 
HETATM    3  C3  UNL     1     -33.508   5.121   3.099  1.00 20.00     0.061 C 
HETATM    4  C4  UNL     1     -35.332   6.093   4.353  1.00 20.00     0.201 C 
HETATM    5  C5  UNL     1     -34.041   4.189   4.167  1.00 20.00     0.172 C 
HETATM    6  O6  UNL     1     -35.366   4.657   4.457  1.00 20.00    -0.387 OA
ENDROOT
TORSDOF 0
ENDMDL
MODEL 7
REMARK VINA RESULT:      -1.5      1.579      2.652
REMARK  0 active torsions:
REMARK  status: ('A' for Active; 'I' for Inactive)
ROOT
HETATM    1  C1  UNL     1     -34.060   5.198   3.662  1.00 20.00    -0.064 C 
HETATM    2  C2  UNL     1     -34.023   3.932   4.086  1.00 20.00     0.016 C 
HETATM    3  C3  UNL     1     -34.991   6.254   4.146  1.00 20.00     0.061 C 
HETATM    4  C4  UNL     1     -33.120   5.812   2.681  1.00 20.00     0.201 C 
HETATM    5  C5  UNL     1     -34.171   7.495   3.858  1.00 20.00     0.172 C 
HETATM    6  O6  UNL     1     -33.460   7.210   2.645  1.00 20.00    -0.387 OA
ENDROOT
TORSDOF 0
ENDMDL
MODEL 8
REMARK VINA RESULT:      -1.4      1.591      2.286
REMARK  0 active torsions:
REMARK  status: ('A' for Active; 'I' for Inactive)
ROOT
HETATM    1  C1  UNL     1     -32.730   6.262   1.822  1.00 20.00    -0.064 C 
HETATM    2  C2  UNL     1     -32.353   5.183   1.130  1.00 20.00     0.016 C 
HETATM    3  C3  UNL     1     -33.852   6.325   2.799  1.00 20.00     0.061 C 
HETATM    4  C4  UNL     1     -32.044   7.586   1.805  1.00 20.00     0.201 C 
HETATM    5  C5  UNL     1     -33.383   7.464   3.681  1.00 20.00     0.172 C 
HETATM    6  O6  UNL     1     -32.717   8.380   2.800  1.00 20.00    -0.387 OA
ENDROOT
TORSDOF 0
ENDMDL
MODEL 9
REMARK VINA RESULT:      -0.1      3.138      4.250
REMARK  0 active torsions:
REMARK  status: ('A' for Active; 'I' for Inactive)
ROOT
HETATM    1  C1  UNL     1     -32.095   8.437   1.234  1.00 20.00    -0.064 C 
HETATM    2  C2  UNL     1     -31.990   7.235   1.806  1.00 20.00     0.016 C 
HETATM    3  C3  UNL     1     -31.581   8.811  -0.112  1.00 20.00     0.061 C 
HETATM    4  C4  UNL     1     -32.823   9.608   1.803  1.00 20.00     0.201 C 
HETATM    5  C5  UNL     1     -32.523   9.945  -0.460  1.00 20.00     0.172 C 
HETATM    6  O6  UNL     1     -32.784  10.619   0.780  1.00 20.00    -0.387 OA
ENDROOT
TORSDOF 0
ENDMDL
