MODEL 1
REMARK VINA RESULT:      -1.0      0.000      0.000
REMARK  0 active torsions:
REMARK  status: ('A' for Active; 'I' for Inactive)
ROOT
HETATM    1  C1  UNL     1     -33.251   8.013   3.274  1.00 20.00     0.047 C 
HETATM    2  C2  UNL     1     -34.233   7.384   3.928  1.00 20.00    -0.023 C 
HETATM    3  C3  UNL     1     -32.480   7.312   2.214  1.00 20.00     0.157 C 
HETATM    4  C4  UNL     1     -34.609   5.952   3.716  1.00 20.00     0.028 C 
HETATM    5  C5  UNL     1     -33.510   5.165   3.004  1.00 20.00     0.021 C 
HETATM    6  C6  UNL     1     -32.925   5.907   1.788  1.00 20.00     0.017 C 
HETATM    7  C7  UNL     1     -33.958   6.048   0.659  1.00 20.00     0.023 C 
HETATM    8  C8  UNL     1     -31.714   5.120   1.263  1.00 20.00     0.023 C 
HETATM    9  O9  UNL     1     -31.547   7.904   1.670  1.00 20.00    -0.292 OA
ENDROOT
TORSDOF 0
ENDMDL
MODEL 2
REMARK VINA RESULT:      -0.2      1.541      2.980
REMARK  0 active torsions:
REMARK  status: ('A' for Active; 'I' for Inactive)
ROOT
HETATM    1  C1  UNL     1     -32.309   7.973   2.925  1.00 20.00     0.047 C 
HETATM    2  C2  UNL     1     -31.943   7.354   1.798  1.00 20.00    -0.023 C 
HETATM    3  C3  UNL     1     -33.453   7.468   3.728  1.00 20.00     0.157 C 
HETATM    4  C4  UNL     1     -32.651   6.172   1.214  1.00 20.00     0.028 C 
HETATM    5  C5  UNL     1     -34.058   6.002   1.783  1.00 20.00     0.021 C 
HETATM    6  C6  UNL     1     -34.114   6.146   3.315  1.00 20.00     0.017 C 
HETATM    7  C7  UNL     1     -33.376   4.996   4.018  1.00 20.00     0.023 C 
HETATM    8  C8  UNL     1     -35.585   6.143   3.759  1.00 20.00     0.023 C 
HETATM    9  O9  UNL     1     -33.796   8.094   4.730  1.00 20.00    -0.292 OA
ENDROOT
TORSDOF 0
ENDMDL
MODEL 3
REMARK VINA RESULT:       0.2      1.204      2.610
REMARK  0 active torsions:
REMARK  status: ('A' for Active; 'I' for Inactive)
ROOT
HETATM    1  C1  UNL     1     -33.512   5.516   2.820  1.00 20.00     0.047 C 
HETATM    2  C2  UNL     1     -34.281   6.069   3.764  1.00 20.00    -0.023 C 
HETATM    3  C3  UNL     1     -32.671   6.365   1.937  1.00 20.00     0.157 C 
HETATM    4  C4  UNL     1     -34.421   7.542   3.984  1.00 20.00     0.028 C 
HETATM    5  C5  UNL     1     -33.945   8.355   2.782  1.00 20.00     0.021 C 
HETATM    6  C6  UNL     1     -32.595   7.871   2.220  1.00 20.00     0.017 C 
HETATM    7  C7  UNL     1     -31.447   8.120   3.210  1.00 20.00     0.023 C 
HETATM    8  C8  UNL     1     -32.303   8.628   0.914  1.00 20.00     0.023 C 
HETATM    9  O9  UNL     1     -32.017   5.826   1.044  1.00 20.00    -0.292 OA
ENDROOT
TORSDOF 0
ENDMDL
MODEL 4
REMARK VINA RESULT:       0.3      1.800      3.550
REMARK  0 active torsions:
REMARK  status: ('A' for Active; 'I' for Inactive)
ROOT
HETATM    1  C1  UNL     1     -33.247   5.661   2.083  1.00 20.00     0.047 C 
HETATM    2  C2  UNL     1     -32.473   6.412   1.293  1.00 20.00    -0.023 C 
HETATM    3  C3  UNL     1     -33.784   6.209   3.356  1.00 20.00     0.157 C 
HETATM    4  C4  UNL     1     -32.031   7.804   1.619  1.00 20.00     0.028 C 
HETATM    5  C5  UNL     1     -32.190   8.130   3.103  1.00 20.00     0.021 C 
HETATM    6  C6  UNL     1     -33.550   7.691   3.676  1.00 20.00     0.017 C 
HETATM    7  C7  UNL     1     -34.707   8.504   3.075  1.00 20.00     0.023 C 
HETATM    8  C8  UNL     1     -33.533   7.894   5.200  1.00 20.00     0.023 C 
HETATM    9  O9  UNL     1     -34.449   5.472   4.084  1.00 20.00    -0.292 OA
ENDROOT
TORSDOF 0
ENDMDL
MODEL 5
REMARK VINA RESULT:       0.5      1.542      2.635
REMARK  0 active torsions:
REMARK  status: ('A' for Active; 'I' for Inactive)
ROOT
HETATM    1  C1  UNL     1     -32.363   7.382   1.850  1.00 20.00     0.047 C 
HETATM    2  C2  UNL     1     -32.311   8.421   2.690  1.00 20.00    -0.023 C 
HETATM    3  C3  UNL     1     -33.176   6.183   2.181  1.00 20.00     0.157 C 
HETATM    4  C4  UNL     1     -32.986   8.465   4.024  1.00 20.00     0.028 C 
HETATM    5  C5  UNL     1     -33.383   7.075   4.518  1.00 20.00     0.021 C 
HETATM    6  C6  UNL     1     -34.063   6.219   3.433  1.00 20.00     0.017 C 
HETATM    7  C7  UNL     1     -35.434   6.789   3.038  1.00 20.00     0.023 C 
HETATM    8  C8  UNL     1     -34.250   4.792   3.973  1.00 20.00     0.023 C 
HETATM    9  O9  UNL     1     -33.158   5.224   1.410  1.00 20.00    -0.292 OA
ENDROOT
TORSDOF 0
ENDMDL
MODEL 6
REMARK VINA RESULT:       0.5      1.290      2.996
REMARK  0 active torsions:
REMARK  status: ('A' for Active; 'I' for Inactive)
ROOT
HETATM    1  C1  UNL     1     -33.058   5.320   2.675  1.00 20.00     0.047 C 
HETATM    2  C2  UNL     1     -33.829   4.564   3.464  1.00 20.00    -0.023 C 
HETATM    3  C3  UNL     1     -33.182   6.801   2.693  1.00 20.00     0.157 C 
HETATM    4  C4  UNL     1     -34.895   5.098   4.368  1.00 20.00     0.028 C 
HETATM    5  C5  UNL     1     -35.307   6.522   3.998  1.00 20.00     0.021 C 
HETATM    6  C6  UNL     1     -34.107   7.450   3.731  1.00 20.00     0.017 C 
HETATM    7  C7  UNL     1     -33.294   7.706   5.010  1.00 20.00     0.023 C 
HETATM    8  C8  UNL     1     -34.628   8.791   3.192  1.00 20.00     0.023 C 
HETATM    9  O9  UNL     1     -32.495   7.462   1.915  1.00 20.00    -0.292 OA
ENDROOT
TORSDOF 0
ENDMDL
MODEL 7
REMARK VINA RESULT:       0.7      1.582      2.781
REMARK  0 active torsions:
REMARK  status: ('A' for Active; 'I' for Inactive)
ROOT
HETATM    1  C1  UNL     1     -34.058   6.270   3.267  1.00 20.00     0.047 C 
HETATM    2  C2  UNL     1     -33.833   5.434   2.248  1.00 20.00    -0.023 C 
HETATM    3  C3  UNL     1     -33.237   7.498   3.432  1.00 20.00     0.157 C 
HETATM    4  C4  UNL     1     -32.739   5.604   1.240  1.00 20.00     0.028 C 
HETATM    5  C5  UNL     1     -31.656   6.569   1.719  1.00 20.00     0.021 C 
HETATM    6  C6  UNL     1     -32.226   7.860   2.336  1.00 20.00     0.017 C 
HETATM    7  C7  UNL     1     -32.939   8.724   1.285  1.00 20.00     0.023 C 
HETATM    8  C8  UNL     1     -31.070   8.668   2.947  1.00 20.00     0.023 C 
HETATM    9  O9  UNL     1     -33.436   8.216   4.412  1.00 20.00    -0.292 OA
ENDROOT
TORSDOF 0
ENDMDL
MODEL 8
REMARK VINA RESULT:       0.9      1.640      2.695
REMARK  0 active torsions:
REMARK  status: ('A' for Active; 'I' for Inactive)
ROOT
HETATM    1  C1  UNL     1     -33.206   7.489   3.670  1.00 20.00     0.047 C 
HETATM    2  C2  UNL     1     -32.334   8.391   3.207  1.00 20.00    -0.023 C 
HETATM    3  C3  UNL     1     -33.570   6.302   2.855  1.00 20.00     0.157 C 
HETATM    4  C4  UNL     1     -31.703   8.338   1.851  1.00 20.00     0.028 C 
HETATM    5  C5  UNL     1     -32.454   7.409   0.899  1.00 20.00     0.021 C 
HETATM    6  C6  UNL     1     -32.823   6.057   1.537  1.00 20.00     0.017 C 
HETATM    7  C7  UNL     1     -31.574   5.214   1.838  1.00 20.00     0.023 C 
HETATM    8  C8  UNL     1     -33.729   5.283   0.566  1.00 20.00     0.023 C 
HETATM    9  O9  UNL     1     -34.416   5.521   3.290  1.00 20.00    -0.292 OA
ENDROOT
TORSDOF 0
ENDMDL
MODEL 9
REMARK VINA RESULT:       1.1      1.481      2.079
REMARK  0 active torsions:
REMARK  status: ('A' for Active; 'I' for Inactive)
ROOT
HETATM    1  C1  UNL     1     -35.084   6.235   4.233  1.00 20.00     0.047 C 
HETATM    2  C2  UNL     1     -34.948   4.912   4.366  1.00 20.00    -0.023 C 
HETATM    3  C3  UNL     1     -34.202   6.997   3.311  1.00 20.00     0.157 C 
HETATM    4  C4  UNL     1     -33.899   4.096   3.678  1.00 20.00     0.028 C 
HETATM    5  C5  UNL     1     -32.751   4.955   3.151  1.00 20.00     0.021 C 
HETATM    6  C6  UNL     1     -33.230   6.220   2.413  1.00 20.00     0.017 C 
HETATM    7  C7  UNL     1     -33.954   5.870   1.104  1.00 20.00     0.023 C 
HETATM    8  C8  UNL     1     -32.010   7.097   2.092  1.00 20.00     0.023 C 
HETATM    9  O9  UNL     1     -34.319   8.221   3.254  1.00 20.00    -0.292 OA
ENDROOT
TORSDOF 0
ENDMDL
