MODEL 1
REMARK VINA RESULT:      -0.7      0.000      0.000
REMARK  0 active torsions:
REMARK  status: ('A' for Active; 'I' for Inactive)
ROOT
HETATM    1  C1  UNL     1     -32.277   8.475   1.492  1.00 20.00     0.071 C 
HETATM    2  C2  UNL     1     -33.348   6.476   2.480  1.00 20.00     0.152 C 
HETATM    3  C3  UNL     1     -33.196   8.430   3.799  1.00 20.00     0.028 C 
HETATM    4  C4  UNL     1     -33.858   7.333   4.626  1.00 20.00     0.018 C 
HETATM    5  C5  UNL     1     -32.449   7.674   2.702  1.00 20.00     0.163 C 
HETATM    6  C6  UNL     1     -34.372   6.313   3.596  1.00 20.00     0.015 C 
HETATM    7  C7  UNL     1     -35.759   6.679   3.068  1.00 20.00     0.023 C 
HETATM    8  C8  UNL     1     -34.357   4.894   4.158  1.00 20.00     0.023 C 
HETATM    9  N9  UNL     1     -32.142   9.112   0.531  1.00 20.00    -0.196 NA
HETATM   10  O10 UNL     1     -33.262   5.724   1.515  1.00 20.00    -0.296 OA
ENDROOT
TORSDOF 0
ENDMDL
MODEL 2
REMARK VINA RESULT:      -0.3      2.272      3.677
REMARK  0 active torsions:
REMARK  status: ('A' for Active; 'I' for Inactive)
ROOT
HETATM    1  C1  UNL     1     -34.026   4.755   3.756  1.00 20.00     0.071 C 
HETATM    2  C2  UNL     1     -33.102   6.409   2.166  1.00 20.00     0.152 C 
HETATM    3  C3  UNL     1     -34.234   7.209   4.077  1.00 20.00     0.028 C 
HETATM    4  C4  UNL     1     -33.788   8.403   3.239  1.00 20.00     0.018 C 
HETATM    5  C5  UNL     1     -34.240   6.041   3.094  1.00 20.00     0.163 C 
HETATM    6  C6  UNL     1     -32.668   7.859   2.337  1.00 20.00     0.015 C 
HETATM    7  C7  UNL     1     -31.304   7.900   3.027  1.00 20.00     0.023 C 
HETATM    8  C8  UNL     1     -32.625   8.587   0.997  1.00 20.00     0.023 C 
HETATM    9  N9  UNL     1     -33.856   3.734   4.282  1.00 20.00    -0.196 NA
HETATM   10  O10 UNL     1     -32.590   5.632   1.367  1.00 20.00    -0.296 OA
ENDROOT
TORSDOF 0
ENDMDL
MODEL 3
REMARK VINA RESULT:       0.9      2.419      3.950
REMARK  0 active torsions:
REMARK  status: ('A' for Active; 'I' for Inactive)
ROOT
HETATM    1  C1  UNL     1     -34.726   6.137   3.662  1.00 20.00     0.071 C 
HETATM    2  C2  UNL     1     -32.751   7.537   3.155  1.00 20.00     0.152 C 
HETATM    3  C3  UNL     1     -33.280   5.774   1.676  1.00 20.00     0.028 C 
HETATM    4  C4  UNL     1     -32.016   6.466   1.177  1.00 20.00     0.018 C 
HETATM    5  C5  UNL     1     -33.355   6.149   3.154  1.00 20.00     0.163 C 
HETATM    6  C6  UNL     1     -32.027   7.848   1.851  1.00 20.00     0.015 C 
HETATM    7  C7  UNL     1     -32.838   8.869   1.054  1.00 20.00     0.023 C 
HETATM    8  C8  UNL     1     -30.612   8.356   2.111  1.00 20.00     0.023 C 
HETATM    9  N9  UNL     1     -35.815   6.128   4.064  1.00 20.00    -0.196 NA
HETATM   10  O10 UNL     1     -32.832   8.320   4.096  1.00 20.00    -0.296 OA
ENDROOT
TORSDOF 0
ENDMDL
MODEL 4
REMARK VINA RESULT:       1.4      2.203      3.260
REMARK  0 active torsions:
REMARK  status: ('A' for Active; 'I' for Inactive)
ROOT
HETATM    1  C1  UNL     1     -33.202   8.025   4.437  1.00 20.00     0.071 C 
HETATM    2  C2  UNL     1     -33.531   6.334   2.661  1.00 20.00     0.152 C 
HETATM    3  C3  UNL     1     -32.107   8.163   2.212  1.00 20.00     0.028 C 
HETATM    4  C4  UNL     1     -32.177   7.283   0.969  1.00 20.00     0.018 C 
HETATM    5  C5  UNL     1     -33.363   7.800   3.001  1.00 20.00     0.163 C 
HETATM    6  C6  UNL     1     -32.671   5.918   1.475  1.00 20.00     0.015 C 
HETATM    7  C7  UNL     1     -31.521   5.039   1.968  1.00 20.00     0.023 C 
HETATM    8  C8  UNL     1     -33.498   5.194   0.417  1.00 20.00     0.023 C 
HETATM    9  N9  UNL     1     -33.074   8.203   5.577  1.00 20.00    -0.196 NA
HETATM   10  O10 UNL     1     -34.276   5.571   3.268  1.00 20.00    -0.296 OA
ENDROOT
TORSDOF 0
ENDMDL
MODEL 5
REMARK VINA RESULT:       1.7      1.958      2.957
REMARK  0 active torsions:
REMARK  status: ('A' for Active; 'I' for Inactive)
ROOT
HETATM    1  C1  UNL     1     -32.126   5.324   1.576  1.00 20.00     0.071 C 
HETATM    2  C2  UNL     1     -33.132   7.417   2.429  1.00 20.00     0.152 C 
HETATM    3  C3  UNL     1     -33.998   5.363   3.208  1.00 20.00     0.028 C 
HETATM    4  C4  UNL     1     -34.792   6.499   3.844  1.00 20.00     0.018 C 
HETATM    5  C5  UNL     1     -33.365   5.993   1.970  1.00 20.00     0.163 C 
HETATM    6  C6  UNL     1     -33.890   7.737   3.712  1.00 20.00     0.015 C 
HETATM    7  C7  UNL     1     -32.898   7.852   4.870  1.00 20.00     0.023 C 
HETATM    8  C8  UNL     1     -34.711   9.015   3.566  1.00 20.00     0.023 C 
HETATM    9  N9  UNL     1     -31.143   4.793   1.264  1.00 20.00    -0.196 NA
HETATM   10  O10 UNL     1     -32.418   8.220   1.838  1.00 20.00    -0.296 OA
ENDROOT
TORSDOF 0
ENDMDL
MODEL 6
REMARK VINA RESULT:       1.9      1.975      2.672
REMARK  0 active torsions:
REMARK  status: ('A' for Active; 'I' for Inactive)
ROOT
HETATM    1  C1  UNL     1     -33.017   5.281   0.893  1.00 20.00     0.071 C 
HETATM    2  C2  UNL     1     -33.427   6.253   3.131  1.00 20.00     0.152 C 
HETATM    3  C3  UNL     1     -32.265   7.558   1.542  1.00 20.00     0.028 C 
HETATM    4  C4  UNL     1     -32.367   8.348   2.842  1.00 20.00     0.018 C 
HETATM    5  C5  UNL     1     -32.468   6.105   1.969  1.00 20.00     0.163 C 
HETATM    6  C6  UNL     1     -33.522   7.694   3.617  1.00 20.00     0.015 C 
HETATM    7  C7  UNL     1     -34.881   8.272   3.221  1.00 20.00     0.023 C 
HETATM    8  C8  UNL     1     -33.307   7.785   5.125  1.00 20.00     0.023 C 
HETATM    9  N9  UNL     1     -33.453   4.627   0.040  1.00 20.00    -0.196 NA
HETATM   10  O10 UNL     1     -34.052   5.321   3.626  1.00 20.00    -0.296 OA
ENDROOT
TORSDOF 0
ENDMDL
