MODEL 1
REMARK VINA RESULT:       0.5      0.000      0.000
REMARK  1 active torsions:
REMARK  status: ('A' for Active; 'I' for Inactive)
REMARK    1  A    between atoms: C5_5  and  C10_10 
ROOT
HETATM    1  C1  UNL     1     -33.848   7.625   4.031  1.00 20.00     0.166 C 
HETATM    2  C2  UNL     1     -33.249   8.631   3.072  1.00 20.00     0.086 C 
HETATM    3  C3  UNL     1     -32.852   6.732   1.456  1.00 20.00     0.009 C 
HETATM    4  C4  UNL     1     -33.400   5.731   2.475  1.00 20.00     0.052 C 
HETATM    5  C5  UNL     1     -32.232   7.950   2.153  1.00 20.00    -0.004 C 
HETATM    6  C6  UNL     1     -34.440   6.372   3.397  1.00 20.00     0.159 C 
HETATM    7  C7  UNL     1     -34.927   5.380   4.445  1.00 20.00     0.060 C 
HETATM    8  O11 UNL     1     -33.904   7.854   5.239  1.00 20.00    -0.294 OA
HETATM    9  F12 UNL     1     -35.520   6.720   2.635  1.00 20.00    -0.235 F 
ENDROOT
BRANCH   5  10
HETATM   10  C10 UNL     1     -31.691   8.942   1.125  1.00 20.00    -0.018 C 
HETATM   11  C8  UNL     1     -31.175   8.207  -0.110  1.00 20.00     0.010 C 
HETATM   12  C9  UNL     1     -32.767   9.954   0.737  1.00 20.00     0.010 C 
ENDBRANCH   5  10
TORSDOF 1
ENDMDL
MODEL 2
REMARK VINA RESULT:       1.1      0.446      1.108
REMARK  1 active torsions:
REMARK  status: ('A' for Active; 'I' for Inactive)
REMARK    1  A    between atoms: C5_5  and  C10_10 
ROOT
HETATM    1  C1  UNL     1     -33.772   7.526   3.891  1.00 20.00     0.166 C 
HETATM    2  C2  UNL     1     -33.420   8.500   2.787  1.00 20.00     0.086 C 
HETATM    3  C3  UNL     1     -33.130   6.521   1.246  1.00 20.00     0.009 C 
HETATM    4  C4  UNL     1     -33.423   5.561   2.400  1.00 20.00     0.052 C 
HETATM    5  C5  UNL     1     -32.509   7.829   1.756  1.00 20.00    -0.004 C 
HETATM    6  C6  UNL     1     -34.353   6.192   3.440  1.00 20.00     0.159 C 
HETATM    7  C7  UNL     1     -34.583   5.247   4.612  1.00 20.00     0.060 C 
HETATM    8  O11 UNL     1     -33.654   7.839   5.075  1.00 20.00    -0.294 OA
HETATM    9  F12 UNL     1     -35.566   6.405   2.847  1.00 20.00    -0.235 F 
ENDROOT
BRANCH   5  10
HETATM   10  C10 UNL     1     -32.223   8.779   0.595  1.00 20.00    -0.018 C 
HETATM   11  C8  UNL     1     -32.686  10.195   0.933  1.00 20.00     0.010 C 
HETATM   12  C9  UNL     1     -30.736   8.769   0.247  1.00 20.00     0.010 C 
ENDBRANCH   5  10
TORSDOF 1
ENDMDL
MODEL 3
REMARK VINA RESULT:       1.2      1.955      4.425
REMARK  1 active torsions:
REMARK  status: ('A' for Active; 'I' for Inactive)
REMARK    1  A    between atoms: C5_5  and  C10_10 
ROOT
HETATM    1  C1  UNL     1     -33.003   8.392   2.323  1.00 20.00     0.166 C 
HETATM    2  C2  UNL     1     -33.455   7.548   3.496  1.00 20.00     0.086 C 
HETATM    3  C3  UNL     1     -32.664   5.512   2.229  1.00 20.00     0.009 C 
HETATM    4  C4  UNL     1     -32.280   6.387   1.034  1.00 20.00     0.052 C 
HETATM    5  C5  UNL     1     -33.816   6.137   3.027  1.00 20.00    -0.004 C 
HETATM    6  C6  UNL     1     -31.888   7.801   1.468  1.00 20.00     0.159 C 
HETATM    7  C7  UNL     1     -31.572   8.676   0.262  1.00 20.00     0.060 C 
HETATM    8  O11 UNL     1     -33.471   9.514   2.130  1.00 20.00    -0.294 OA
HETATM    9  F12 UNL     1     -30.747   7.711   2.215  1.00 20.00    -0.235 F 
ENDROOT
BRANCH   5  10
HETATM   10  C10 UNL     1     -34.187   5.256   4.218  1.00 20.00    -0.018 C 
HETATM   11  C8  UNL     1     -35.683   5.354   4.512  1.00 20.00     0.010 C 
HETATM   12  C9  UNL     1     -33.785   3.805   3.959  1.00 20.00     0.010 C 
ENDBRANCH   5  10
TORSDOF 1
ENDMDL
MODEL 4
REMARK VINA RESULT:       1.2      2.083      4.542
REMARK  1 active torsions:
REMARK  status: ('A' for Active; 'I' for Inactive)
REMARK    1  A    between atoms: C5_5  and  C10_10 
ROOT
HETATM    1  C1  UNL     1     -32.369   6.427   1.607  1.00 20.00     0.166 C 
HETATM    2  C2  UNL     1     -33.679   5.996   2.232  1.00 20.00     0.086 C 
HETATM    3  C3  UNL     1     -33.594   8.084   3.650  1.00 20.00     0.009 C 
HETATM    4  C4  UNL     1     -32.238   8.455   3.047  1.00 20.00     0.052 C 
HETATM    5  C5  UNL     1     -33.805   6.564   3.648  1.00 20.00    -0.004 C 
HETATM    6  C6  UNL     1     -32.087   7.924   1.620  1.00 20.00     0.159 C 
HETATM    7  C7  UNL     1     -30.707   8.247   1.059  1.00 20.00     0.060 C 
HETATM    8  O11 UNL     1     -31.625   5.610   1.066  1.00 20.00    -0.294 OA
HETATM    9  F12 UNL     1     -33.004   8.563   0.833  1.00 20.00    -0.235 F 
ENDROOT
BRANCH   5  10
HETATM   10  C10 UNL     1     -35.162   6.206   4.249  1.00 20.00    -0.018 C 
HETATM   11  C8  UNL     1     -36.288   6.551   3.276  1.00 20.00     0.010 C 
HETATM   12  C9  UNL     1     -35.211   4.727   4.624  1.00 20.00     0.010 C 
ENDBRANCH   5  10
TORSDOF 1
ENDMDL
MODEL 5
REMARK VINA RESULT:       1.6      1.826      4.249
REMARK  1 active torsions:
REMARK  status: ('A' for Active; 'I' for Inactive)
REMARK    1  A    between atoms: C5_5  and  C10_10 
ROOT
HETATM    1  C1  UNL     1     -33.457   8.057   2.727  1.00 20.00     0.166 C 
HETATM    2  C2  UNL     1     -33.842   6.895   3.617  1.00 20.00     0.086 C 
HETATM    3  C3  UNL     1     -32.673   5.364   1.985  1.00 20.00     0.009 C 
HETATM    4  C4  UNL     1     -32.359   6.551   1.073  1.00 20.00     0.052 C 
HETATM    5  C5  UNL     1     -33.953   5.609   2.795  1.00 20.00    -0.004 C 
HETATM    6  C6  UNL     1     -32.216   7.852   1.866  1.00 20.00     0.159 C 
HETATM    7  C7  UNL     1     -31.967   9.034   0.938  1.00 20.00     0.060 C 
HETATM    8  O11 UNL     1     -34.079   9.117   2.761  1.00 20.00    -0.294 OA
HETATM    9  F12 UNL     1     -31.120   7.735   2.675  1.00 20.00    -0.235 F 
ENDROOT
BRANCH   5  10
HETATM   10  C10 UNL     1     -34.255   4.418   3.701  1.00 20.00    -0.018 C 
HETATM   11  C8  UNL     1     -32.963   3.835   4.270  1.00 20.00     0.010 C 
HETATM   12  C9  UNL     1     -35.201   4.827   4.829  1.00 20.00     0.010 C 
ENDBRANCH   5  10
TORSDOF 1
ENDMDL
MODEL 6
REMARK VINA RESULT:       1.7      2.078      4.638
REMARK  1 active torsions:
REMARK  status: ('A' for Active; 'I' for Inactive)
REMARK    1  A    between atoms: C5_5  and  C10_10 
ROOT
HETATM    1  C1  UNL     1     -32.009   6.404   1.353  1.00 20.00     0.166 C 
HETATM    2  C2  UNL     1     -33.024   5.392   1.841  1.00 20.00     0.086 C 
HETATM    3  C3  UNL     1     -33.771   7.090   3.554  1.00 20.00     0.009 C 
HETATM    4  C4  UNL     1     -32.689   8.064   3.082  1.00 20.00     0.052 C 
HETATM    5  C5  UNL     1     -33.349   5.634   3.317  1.00 20.00    -0.004 C 
HETATM    6  C6  UNL     1     -32.356   7.867   1.602  1.00 20.00     0.159 C 
HETATM    7  C7  UNL     1     -31.233   8.800   1.165  1.00 20.00     0.060 C 
HETATM    8  O11 UNL     1     -31.005   6.050   0.736  1.00 20.00    -0.294 OA
HETATM    9  F12 UNL     1     -33.464   8.197   0.873  1.00 20.00    -0.235 F 
ENDROOT
BRANCH   5  10
HETATM   10  C10 UNL     1     -34.437   4.672   3.790  1.00 20.00    -0.018 C 
HETATM   11  C8  UNL     1     -33.826   3.518   4.582  1.00 20.00     0.010 C 
HETATM   12  C9  UNL     1     -35.477   5.409   4.631  1.00 20.00     0.010 C 
ENDBRANCH   5  10
TORSDOF 1
ENDMDL
MODEL 7
REMARK VINA RESULT:       2.3      1.782      2.934
REMARK  1 active torsions:
REMARK  status: ('A' for Active; 'I' for Inactive)
REMARK    1  A    between atoms: C5_5  and  C10_10 
ROOT
HETATM    1  C1  UNL     1     -32.441   7.967   3.104  1.00 20.00     0.166 C 
HETATM    2  C2  UNL     1     -32.280   7.355   1.729  1.00 20.00     0.086 C 
HETATM    3  C3  UNL     1     -33.869   5.529   2.445  1.00 20.00     0.009 C 
HETATM    4  C4  UNL     1     -33.957   6.135   3.847  1.00 20.00     0.052 C 
HETATM    5  C5  UNL     1     -32.520   5.845   1.787  1.00 20.00    -0.004 C 
HETATM    6  C6  UNL     1     -33.746   7.651   3.823  1.00 20.00     0.159 C 
HETATM    7  C7  UNL     1     -33.773   8.228   5.233  1.00 20.00     0.060 C 
HETATM    8  O11 UNL     1     -31.589   8.725   3.565  1.00 20.00    -0.294 OA
HETATM    9  F12 UNL     1     -34.787   8.210   3.136  1.00 20.00    -0.235 F 
ENDROOT
BRANCH   5  10
HETATM   10  C10 UNL     1     -32.445   5.236   0.388  1.00 20.00    -0.018 C 
HETATM   11  C8  UNL     1     -31.326   4.200   0.312  1.00 20.00     0.010 C 
HETATM   12  C9  UNL     1     -33.784   4.610   0.003  1.00 20.00     0.010 C 
ENDBRANCH   5  10
TORSDOF 1
ENDMDL
MODEL 8
REMARK VINA RESULT:       2.3      1.699      2.153
REMARK  1 active torsions:
REMARK  status: ('A' for Active; 'I' for Inactive)
REMARK    1  A    between atoms: C5_5  and  C10_10 
ROOT
HETATM    1  C1  UNL     1     -33.145   6.262   2.527  1.00 20.00     0.166 C 
HETATM    2  C2  UNL     1     -32.168   7.191   1.840  1.00 20.00     0.086 C 
HETATM    3  C3  UNL     1     -33.674   9.114   2.479  1.00 20.00     0.009 C 
HETATM    4  C4  UNL     1     -34.675   8.141   3.105  1.00 20.00     0.052 C 
HETATM    5  C5  UNL     1     -32.888   8.447   1.343  1.00 20.00    -0.004 C 
HETATM    6  C6  UNL     1     -33.986   6.882   3.636  1.00 20.00     0.159 C 
HETATM    7  C7  UNL     1     -35.003   5.897   4.197  1.00 20.00     0.060 C 
HETATM    8  O11 UNL     1     -33.194   5.067   2.240  1.00 20.00    -0.294 OA
HETATM    9  F12 UNL     1     -33.169   7.253   4.667  1.00 20.00    -0.235 F 
ENDROOT
BRANCH   5  10
HETATM   10  C10 UNL     1     -31.891   9.428   0.728  1.00 20.00    -0.018 C 
HETATM   11  C8  UNL     1     -31.064   8.742  -0.358  1.00 20.00     0.010 C 
HETATM   12  C9  UNL     1     -32.617  10.646   0.161  1.00 20.00     0.010 C 
ENDBRANCH   5  10
TORSDOF 1
ENDMDL
MODEL 9
REMARK VINA RESULT:       2.9      1.908      3.205
REMARK  1 active torsions:
REMARK  status: ('A' for Active; 'I' for Inactive)
REMARK    1  A    between atoms: C5_5  and  C10_10 
ROOT
HETATM    1  C1  UNL     1     -34.295   6.474   3.609  1.00 20.00     0.166 C 
HETATM    2  C2  UNL     1     -33.602   5.493   2.688  1.00 20.00     0.086 C 
HETATM    3  C3  UNL     1     -32.174   7.404   1.862  1.00 20.00     0.009 C 
HETATM    4  C4  UNL     1     -32.940   8.382   2.754  1.00 20.00     0.052 C 
HETATM    5  C5  UNL     1     -33.055   6.216   1.455  1.00 20.00    -0.004 C 
HETATM    6  C6  UNL     1     -33.481   7.698   4.011  1.00 20.00     0.159 C 
HETATM    7  C7  UNL     1     -34.295   8.670   4.856  1.00 20.00     0.060 C 
HETATM    8  O11 UNL     1     -35.421   6.246   4.048  1.00 20.00    -0.294 OA
HETATM    9  F12 UNL     1     -32.414   7.300   4.767  1.00 20.00    -0.235 F 
ENDROOT
BRANCH   5  10
HETATM   10  C10 UNL     1     -32.278   5.246   0.566  1.00 20.00    -0.018 C 
HETATM   11  C8  UNL     1     -31.203   4.522   1.374  1.00 20.00     0.010 C 
HETATM   12  C9  UNL     1     -33.224   4.243  -0.089  1.00 20.00     0.010 C 
ENDBRANCH   5  10
TORSDOF 1
ENDMDL
