MODEL 1
REMARK VINA RESULT:       0.2      0.000      0.000
REMARK  0 active torsions:
REMARK  status: ('A' for Active; 'I' for Inactive)
ROOT
HETATM    1  C1  UNL     1     -34.300   7.343   4.150  1.00 20.00     0.003 C 
HETATM    2  C2  UNL     1     -34.621   5.902   3.762  1.00 20.00     0.001 C 
HETATM    3  C3  UNL     1     -33.873   8.165   2.938  1.00 20.00     0.041 C 
HETATM    4  C4  UNL     1     -33.442   5.243   3.039  1.00 20.00     0.012 C 
HETATM    5  C5  UNL     1     -31.345   8.111   2.369  1.00 20.00     0.207 A 
HETATM    6  C6  UNL     1     -32.726   7.496   2.221  1.00 20.00     0.089 A 
HETATM    7  C7  UNL     1     -32.949   6.037   1.800  1.00 20.00    -0.014 C 
HETATM    8  C8  UNL     1     -31.670   5.348   1.283  1.00 20.00     0.018 C 
HETATM    9  C9  UNL     1     -33.995   5.967   0.666  1.00 20.00     0.018 C 
HETATM   10  O10 UNL     1     -32.141   8.321   1.198  1.00 20.00    -0.374 OA
ENDROOT
TORSDOF 0
ENDMDL
MODEL 2
REMARK VINA RESULT:       0.8      1.115      2.727
REMARK  0 active torsions:
REMARK  status: ('A' for Active; 'I' for Inactive)
ROOT
HETATM    1  C1  UNL     1     -34.585   6.103   3.785  1.00 20.00     0.003 C 
HETATM    2  C2  UNL     1     -34.372   7.583   4.094  1.00 20.00     0.001 C 
HETATM    3  C3  UNL     1     -33.330   5.471   3.193  1.00 20.00     0.041 C 
HETATM    4  C4  UNL     1     -33.904   8.350   2.854  1.00 20.00     0.012 C 
HETATM    5  C5  UNL     1     -33.093   5.627   0.616  1.00 20.00     0.207 A 
HETATM    6  C6  UNL     1     -32.865   6.247   1.985  1.00 20.00     0.089 A 
HETATM    7  C7  UNL     1     -32.634   7.749   2.193  1.00 20.00    -0.014 C 
HETATM    8  C8  UNL     1     -32.385   8.516   0.879  1.00 20.00     0.018 C 
HETATM    9  C9  UNL     1     -31.401   7.976   3.095  1.00 20.00     0.018 C 
HETATM   10  O10 UNL     1     -31.815   5.585   1.259  1.00 20.00    -0.374 OA
ENDROOT
TORSDOF 0
ENDMDL
MODEL 3
REMARK VINA RESULT:       1.5      1.430      2.667
REMARK  0 active torsions:
REMARK  status: ('A' for Active; 'I' for Inactive)
ROOT
HETATM    1  C1  UNL     1     -31.998   8.472   3.071  1.00 20.00     0.003 C 
HETATM    2  C2  UNL     1     -32.941   8.440   4.271  1.00 20.00     0.001 C 
HETATM    3  C3  UNL     1     -32.618   7.793   1.856  1.00 20.00     0.041 C 
HETATM    4  C4  UNL     1     -33.374   7.009   4.603  1.00 20.00     0.012 C 
HETATM    5  C5  UNL     1     -32.229   5.237   1.665  1.00 20.00     0.207 A 
HETATM    6  C6  UNL     1     -33.061   6.392   2.199  1.00 20.00     0.089 A 
HETATM    7  C7  UNL     1     -34.004   6.255   3.401  1.00 20.00    -0.014 C 
HETATM    8  C8  UNL     1     -34.232   4.793   3.835  1.00 20.00     0.018 C 
HETATM    9  C9  UNL     1     -35.388   6.851   3.059  1.00 20.00     0.018 C 
HETATM   10  O10 UNL     1     -33.460   5.628   1.047  1.00 20.00    -0.374 OA
ENDROOT
TORSDOF 0
ENDMDL
MODEL 4
REMARK VINA RESULT:       1.5      1.777      3.676
REMARK  0 active torsions:
REMARK  status: ('A' for Active; 'I' for Inactive)
ROOT
HETATM    1  C1  UNL     1     -32.339   6.210   1.363  1.00 20.00     0.003 C 
HETATM    2  C2  UNL     1     -31.947   7.656   1.657  1.00 20.00     0.001 C 
HETATM    3  C3  UNL     1     -33.763   5.914   1.820  1.00 20.00     0.041 C 
HETATM    4  C4  UNL     1     -32.128   7.993   3.140  1.00 20.00     0.012 C 
HETATM    5  C5  UNL     1     -34.023   5.130   4.277  1.00 20.00     0.207 A 
HETATM    6  C6  UNL     1     -33.937   6.270   3.276  1.00 20.00     0.089 A 
HETATM    7  C7  UNL     1     -33.557   7.702   3.673  1.00 20.00    -0.014 C 
HETATM    8  C8  UNL     1     -33.540   7.929   5.199  1.00 20.00     0.018 C 
HETATM    9  C9  UNL     1     -34.568   8.705   3.074  1.00 20.00     0.018 C 
HETATM   10  O10 UNL     1     -35.190   5.821   3.821  1.00 20.00    -0.374 OA
ENDROOT
TORSDOF 0
ENDMDL
MODEL 5
REMARK VINA RESULT:       1.7      1.441      2.236
REMARK  0 active torsions:
REMARK  status: ('A' for Active; 'I' for Inactive)
ROOT
HETATM    1  C1  UNL     1     -34.549   4.579   4.521  1.00 20.00     0.003 C 
HETATM    2  C2  UNL     1     -33.726   3.926   3.413  1.00 20.00     0.001 C 
HETATM    3  C3  UNL     1     -35.170   5.892   4.055  1.00 20.00     0.041 C 
HETATM    4  C4  UNL     1     -32.654   4.881   2.879  1.00 20.00     0.012 C 
HETATM    5  C5  UNL     1     -33.703   8.008   4.363  1.00 20.00     0.207 A 
HETATM    6  C6  UNL     1     -34.108   6.816   3.510  1.00 20.00     0.089 A 
HETATM    7  C7  UNL     1     -33.219   6.245   2.399  1.00 20.00    -0.014 C 
HETATM    8  C8  UNL     1     -32.019   7.149   2.050  1.00 20.00     0.018 C 
HETATM    9  C9  UNL     1     -34.041   6.060   1.104  1.00 20.00     0.018 C 
HETATM   10  O10 UNL     1     -34.595   8.144   3.251  1.00 20.00    -0.374 OA
ENDROOT
TORSDOF 0
ENDMDL
MODEL 6
REMARK VINA RESULT:       1.9      1.380      2.981
REMARK  0 active torsions:
REMARK  status: ('A' for Active; 'I' for Inactive)
ROOT
HETATM    1  C1  UNL     1     -34.223   4.250   3.706  1.00 20.00     0.003 C 
HETATM    2  C2  UNL     1     -35.091   5.090   4.639  1.00 20.00     0.001 C 
HETATM    3  C3  UNL     1     -32.930   4.973   3.345  1.00 20.00     0.041 C 
HETATM    4  C4  UNL     1     -35.382   6.469   4.040  1.00 20.00     0.012 C 
HETATM    5  C5  UNL     1     -33.046   6.535   1.279  1.00 20.00     0.207 A 
HETATM    6  C6  UNL     1     -33.227   6.339   2.775  1.00 20.00     0.089 A 
HETATM    7  C7  UNL     1     -34.105   7.255   3.637  1.00 20.00    -0.014 C 
HETATM    8  C8  UNL     1     -34.557   8.534   2.904  1.00 20.00     0.018 C 
HETATM    9  C9  UNL     1     -33.330   7.701   4.896  1.00 20.00     0.018 C 
HETATM   10  O10 UNL     1     -32.067   6.984   2.222  1.00 20.00    -0.374 OA
ENDROOT
TORSDOF 0
ENDMDL
MODEL 7
REMARK VINA RESULT:       2.1      1.603      3.112
REMARK  0 active torsions:
REMARK  status: ('A' for Active; 'I' for Inactive)
ROOT
HETATM    1  C1  UNL     1     -32.063   7.451   1.532  1.00 20.00     0.003 C 
HETATM    2  C2  UNL     1     -32.592   6.062   1.185  1.00 20.00     0.001 C 
HETATM    3  C3  UNL     1     -32.059   7.687   3.038  1.00 20.00     0.041 C 
HETATM    4  C4  UNL     1     -33.984   5.831   1.780  1.00 20.00     0.012 C 
HETATM    5  C5  UNL     1     -34.251   8.642   4.040  1.00 20.00     0.207 A 
HETATM    6  C6  UNL     1     -33.430   7.435   3.618  1.00 20.00     0.089 A 
HETATM    7  C7  UNL     1     -34.052   6.067   3.313  1.00 20.00    -0.014 C 
HETATM    8  C8  UNL     1     -35.532   5.961   3.736  1.00 20.00     0.018 C 
HETATM    9  C9  UNL     1     -33.284   4.956   4.062  1.00 20.00     0.018 C 
HETATM   10  O10 UNL     1     -33.544   7.841   4.993  1.00 20.00    -0.374 OA
ENDROOT
TORSDOF 0
ENDMDL
MODEL 8
REMARK VINA RESULT:       2.2      1.476      2.793
REMARK  0 active torsions:
REMARK  status: ('A' for Active; 'I' for Inactive)
ROOT
HETATM    1  C1  UNL     1     -33.628   5.188   2.468  1.00 20.00     0.003 C 
HETATM    2  C2  UNL     1     -32.637   5.523   1.356  1.00 20.00     0.001 C 
HETATM    3  C3  UNL     1     -34.354   6.434   2.962  1.00 20.00     0.041 C 
HETATM    4  C4  UNL     1     -31.641   6.598   1.801  1.00 20.00     0.012 C 
HETATM    5  C5  UNL     1     -33.181   7.747   4.865  1.00 20.00     0.207 A 
HETATM    6  C6  UNL     1     -33.364   7.495   3.378  1.00 20.00     0.089 A 
HETATM    7  C7  UNL     1     -32.318   7.892   2.329  1.00 20.00    -0.014 C 
HETATM    8  C8  UNL     1     -31.206   8.803   2.888  1.00 20.00     0.018 C 
HETATM    9  C9  UNL     1     -32.993   8.656   1.169  1.00 20.00     0.018 C 
HETATM   10  O10 UNL     1     -33.979   8.610   4.047  1.00 20.00    -0.374 OA
ENDROOT
TORSDOF 0
ENDMDL
MODEL 9
REMARK VINA RESULT:       2.4      1.704      2.988
REMARK  0 active torsions:
REMARK  status: ('A' for Active; 'I' for Inactive)
ROOT
HETATM    1  C1  UNL     1     -32.368   8.693   3.140  1.00 20.00     0.003 C 
HETATM    2  C2  UNL     1     -31.641   8.351   1.841  1.00 20.00     0.001 C 
HETATM    3  C3  UNL     1     -32.777   7.435   3.898  1.00 20.00     0.041 C 
HETATM    4  C4  UNL     1     -32.484   7.427   0.957  1.00 20.00     0.012 C 
HETATM    5  C5  UNL     1     -35.084   6.434   3.267  1.00 20.00     0.207 A 
HETATM    6  C6  UNL     1     -33.588   6.522   3.011  1.00 20.00     0.089 A 
HETATM    7  C7  UNL     1     -32.945   6.130   1.675  1.00 20.00    -0.014 C 
HETATM    8  C8  UNL     1     -33.910   5.391   0.726  1.00 20.00     0.018 C 
HETATM    9  C9  UNL     1     -31.741   5.195   1.920  1.00 20.00     0.018 C 
HETATM   10  O10 UNL     1     -34.180   5.422   3.724  1.00 20.00    -0.374 OA
ENDROOT
TORSDOF 0
ENDMDL
