MODEL 1
REMARK VINA RESULT:      -2.3      0.000      0.000
REMARK  3 active torsions:
REMARK  status: ('A' for Active; 'I' for Inactive)
REMARK    1  A    between atoms: C3_3  and  C6_6 
REMARK    2  A    between atoms: C3_3  and  O11_11 
REMARK    3  A    between atoms: C8_8  and  O11_11 
ROOT
HETATM    1  C1  UNL     1     -32.372   8.282   2.788  1.00 20.00    -0.025 C 
HETATM    2  C2  UNL     1     -31.850   7.593   1.765  1.00 20.00    -0.005 C 
HETATM    3  C4  UNL     1     -33.479   7.714   3.623  1.00 20.00     0.069 C 
HETATM    4  C5  UNL     1     -32.364   6.237   1.382  1.00 20.00     0.196 C 
HETATM    5  C6  UNL     1     -33.621   6.211   3.390  1.00 20.00     0.224 C 
HETATM    6  O10 UNL     1     -33.626   5.935   1.991  1.00 20.00    -0.372 OA
ENDROOT
BRANCH   5   7
HETATM    7  C3  UNL     1     -34.938   5.713   3.884  1.00 20.00     0.288 C 
HETATM    8  O9  UNL     1     -35.995   6.314   3.742  1.00 20.00    -0.262 OA
BRANCH   7   9
HETATM    9  O11 UNL     1     -34.768   4.509   4.501  1.00 20.00    -0.320 OA
BRANCH   9  10
HETATM   10  C8  UNL     1     -33.729   3.685   3.964  1.00 20.00     0.174 C 
HETATM   11  C7  UNL     1     -33.053   2.943   5.098  1.00 20.00     0.034 C 
ENDBRANCH   9  10
ENDBRANCH   7   9
ENDBRANCH   5   7
TORSDOF 3
ENDMDL
MODEL 2
REMARK VINA RESULT:      -1.9      1.666      4.551
REMARK  3 active torsions:
REMARK  status: ('A' for Active; 'I' for Inactive)
REMARK    1  A    between atoms: C3_3  and  C6_6 
REMARK    2  A    between atoms: C3_3  and  O11_11 
REMARK    3  A    between atoms: C8_8  and  O11_11 
ROOT
HETATM    1  C1  UNL     1     -35.211   6.489   4.330  1.00 20.00    -0.025 C 
HETATM    2  C2  UNL     1     -35.202   5.167   4.540  1.00 20.00    -0.005 C 
HETATM    3  C4  UNL     1     -34.259   7.130   3.367  1.00 20.00     0.069 C 
HETATM    4  C5  UNL     1     -34.220   4.264   3.853  1.00 20.00     0.196 C 
HETATM    5  C6  UNL     1     -33.614   6.082   2.460  1.00 20.00     0.224 C 
HETATM    6  O10 UNL     1     -33.144   4.986   3.242  1.00 20.00    -0.372 OA
ENDROOT
BRANCH   5   7
HETATM    7  C3  UNL     1     -32.397   6.628   1.791  1.00 20.00     0.288 C 
HETATM    8  O9  UNL     1     -31.548   5.936   1.243  1.00 20.00    -0.262 OA
BRANCH   7   9
HETATM    9  O11 UNL     1     -32.393   7.988   1.890  1.00 20.00    -0.320 OA
BRANCH   9  10
HETATM   10  C8  UNL     1     -31.721   8.679   0.832  1.00 20.00     0.174 C 
HETATM   11  C7  UNL     1     -32.559   9.868   0.411  1.00 20.00     0.034 C 
ENDBRANCH   9  10
ENDBRANCH   7   9
ENDBRANCH   5   7
TORSDOF 3
ENDMDL
MODEL 3
REMARK VINA RESULT:      -1.9      1.031      1.623
REMARK  3 active torsions:
REMARK  status: ('A' for Active; 'I' for Inactive)
REMARK    1  A    between atoms: C3_3  and  C6_6 
REMARK    2  A    between atoms: C3_3  and  O11_11 
REMARK    3  A    between atoms: C8_8  and  O11_11 
ROOT
HETATM    1  C1  UNL     1     -31.890   6.790   1.184  1.00 20.00    -0.025 C 
HETATM    2  C2  UNL     1     -31.705   8.036   1.638  1.00 20.00    -0.005 C 
HETATM    3  C4  UNL     1     -32.895   5.875   1.816  1.00 20.00     0.069 C 
HETATM    4  C5  UNL     1     -32.464   8.569   2.818  1.00 20.00     0.196 C 
HETATM    5  C6  UNL     1     -33.856   6.655   2.712  1.00 20.00     0.224 C 
HETATM    6  O10 UNL     1     -33.122   7.535   3.560  1.00 20.00    -0.372 OA
ENDROOT
BRANCH   5   7
HETATM    7  C3  UNL     1     -34.584   5.742   3.642  1.00 20.00     0.288 C 
HETATM    8  O9  UNL     1     -35.540   6.082   4.326  1.00 20.00    -0.262 OA
BRANCH   7   9
HETATM    9  O11 UNL     1     -34.019   4.502   3.598  1.00 20.00    -0.320 OA
BRANCH   9  10
HETATM   10  C8  UNL     1     -33.971   3.805   4.847  1.00 20.00     0.174 C 
HETATM   11  C7  UNL     1     -32.935   2.703   4.757  1.00 20.00     0.034 C 
ENDBRANCH   9  10
ENDBRANCH   7   9
ENDBRANCH   5   7
TORSDOF 3
ENDMDL
MODEL 4
REMARK VINA RESULT:      -1.1      1.616      4.739
REMARK  3 active torsions:
REMARK  status: ('A' for Active; 'I' for Inactive)
REMARK    1  A    between atoms: C3_3  and  C6_6 
REMARK    2  A    between atoms: C3_3  and  O11_11 
REMARK    3  A    between atoms: C8_8  and  O11_11 
ROOT
HETATM    1  C1  UNL     1     -34.256   4.309   4.103  1.00 20.00    -0.025 C 
HETATM    2  C2  UNL     1     -35.240   5.116   4.521  1.00 20.00    -0.005 C 
HETATM    3  C4  UNL     1     -33.193   4.801   3.169  1.00 20.00     0.069 C 
HETATM    4  C5  UNL     1     -35.349   6.538   4.053  1.00 20.00     0.196 C 
HETATM    5  C6  UNL     1     -33.190   6.327   3.100  1.00 20.00     0.224 C 
HETATM    6  O10 UNL     1     -34.520   6.807   2.915  1.00 20.00    -0.372 OA
ENDROOT
BRANCH   5   7
HETATM    7  C3  UNL     1     -32.438   6.809   1.904  1.00 20.00     0.288 C 
HETATM    8  O9  UNL     1     -31.931   6.071   1.070  1.00 20.00    -0.262 OA
BRANCH   7   9
HETATM    9  O11 UNL     1     -32.415   8.173   1.900  1.00 20.00    -0.320 OA
BRANCH   9  10
HETATM   10  C8  UNL     1     -31.762   8.772   0.777  1.00 20.00     0.174 C 
HETATM   11  C7  UNL     1     -32.569   9.969   0.319  1.00 20.00     0.034 C 
ENDBRANCH   9  10
ENDBRANCH   7   9
ENDBRANCH   5   7
TORSDOF 3
ENDMDL
MODEL 5
REMARK VINA RESULT:      -1.0      2.239      5.080
REMARK  3 active torsions:
REMARK  status: ('A' for Active; 'I' for Inactive)
REMARK    1  A    between atoms: C3_3  and  C6_6 
REMARK    2  A    between atoms: C3_3  and  O11_11 
REMARK    3  A    between atoms: C8_8  and  O11_11 
ROOT
HETATM    1  C1  UNL     1     -34.117   5.191   3.129  1.00 20.00    -0.025 C 
HETATM    2  C2  UNL     1     -34.745   5.879   4.091  1.00 20.00    -0.005 C 
HETATM    3  C4  UNL     1     -33.135   5.856   2.213  1.00 20.00     0.069 C 
HETATM    4  C5  UNL     1     -34.526   7.351   4.282  1.00 20.00     0.196 C 
HETATM    5  C6  UNL     1     -32.713   7.218   2.763  1.00 20.00     0.224 C 
HETATM    6  O10 UNL     1     -33.864   7.958   3.165  1.00 20.00    -0.372 OA
ENDROOT
BRANCH   5   7
HETATM    7  C3  UNL     1     -32.072   8.050   1.702  1.00 20.00     0.288 C 
HETATM    8  O9  UNL     1     -30.988   7.796   1.195  1.00 20.00    -0.262 OA
BRANCH   7   9
HETATM    9  O11 UNL     1     -32.878   9.109   1.405  1.00 20.00    -0.320 OA
BRANCH   9  10
HETATM   10  C8  UNL     1     -32.276  10.134   0.608  1.00 20.00     0.174 C 
HETATM   11  C7  UNL     1     -32.816  10.042  -0.804  1.00 20.00     0.034 C 
ENDBRANCH   9  10
ENDBRANCH   7   9
ENDBRANCH   5   7
TORSDOF 3
ENDMDL
MODEL 6
REMARK VINA RESULT:      -0.6      1.395      2.061
REMARK  3 active torsions:
REMARK  status: ('A' for Active; 'I' for Inactive)
REMARK    1  A    between atoms: C3_3  and  C6_6 
REMARK    2  A    between atoms: C3_3  and  O11_11 
REMARK    3  A    between atoms: C8_8  and  O11_11 
ROOT
HETATM    1  C1  UNL     1     -31.989   6.135   1.071  1.00 20.00    -0.025 C 
HETATM    2  C2  UNL     1     -31.466   7.355   0.895  1.00 20.00    -0.005 C 
HETATM    3  C4  UNL     1     -33.042   5.882   2.106  1.00 20.00     0.069 C 
HETATM    4  C5  UNL     1     -31.879   8.522   1.743  1.00 20.00     0.196 C 
HETATM    5  C6  UNL     1     -33.645   7.196   2.601  1.00 20.00     0.224 C 
HETATM    6  O10 UNL     1     -32.606   8.121   2.912  1.00 20.00    -0.372 OA
ENDROOT
BRANCH   5   7
HETATM    7  C3  UNL     1     -34.381   6.999   3.885  1.00 20.00     0.288 C 
HETATM    8  O9  UNL     1     -34.196   7.671   4.890  1.00 20.00    -0.262 OA
BRANCH   7   9
HETATM    9  O11 UNL     1     -35.269   5.973   3.749  1.00 20.00    -0.320 OA
BRANCH   9  10
HETATM   10  C8  UNL     1     -35.186   4.952   4.749  1.00 20.00     0.174 C 
HETATM   11  C7  UNL     1     -34.097   3.973   4.363  1.00 20.00     0.034 C 
ENDBRANCH   9  10
ENDBRANCH   7   9
ENDBRANCH   5   7
TORSDOF 3
ENDMDL
MODEL 7
REMARK VINA RESULT:       0.2      2.119      3.426
REMARK  3 active torsions:
REMARK  status: ('A' for Active; 'I' for Inactive)
REMARK    1  A    between atoms: C3_3  and  C6_6 
REMARK    2  A    between atoms: C3_3  and  O11_11 
REMARK    3  A    between atoms: C8_8  and  O11_11 
ROOT
HETATM    1  C1  UNL     1     -32.728  10.603   1.283  1.00 20.00    -0.025 C 
HETATM    2  C2  UNL     1     -32.561  10.589  -0.045  1.00 20.00    -0.005 C 
HETATM    3  C4  UNL     1     -32.690   9.337   2.084  1.00 20.00     0.069 C 
HETATM    4  C5  UNL     1     -32.364   9.310  -0.804  1.00 20.00     0.196 C 
HETATM    5  C6  UNL     1     -32.092   8.193   1.268  1.00 20.00     0.224 C 
HETATM    6  O10 UNL     1     -32.693   8.152  -0.025  1.00 20.00    -0.372 OA
ENDROOT
BRANCH   5   7
HETATM    7  C3  UNL     1     -32.412   6.871   1.882  1.00 20.00     0.288 C 
HETATM    8  O9  UNL     1     -31.977   5.802   1.473  1.00 20.00    -0.262 OA
BRANCH   7   9
HETATM    9  O11 UNL     1     -33.245   7.052   2.946  1.00 20.00    -0.320 OA
BRANCH   9  10
HETATM   10  C8  UNL     1     -34.031   5.913   3.312  1.00 20.00     0.174 C 
HETATM   11  C7  UNL     1     -35.300   6.387   3.989  1.00 20.00     0.034 C 
ENDBRANCH   9  10
ENDBRANCH   7   9
ENDBRANCH   5   7
TORSDOF 3
ENDMDL
MODEL 8
REMARK VINA RESULT:       0.2      1.651      3.795
REMARK  3 active torsions:
REMARK  status: ('A' for Active; 'I' for Inactive)
REMARK    1  A    between atoms: C3_3  and  C6_6 
REMARK    2  A    between atoms: C3_3  and  O11_11 
REMARK    3  A    between atoms: C8_8  and  O11_11 
ROOT
HETATM    1  C1  UNL     1     -35.323   6.382   4.308  1.00 20.00    -0.025 C 
HETATM    2  C2  UNL     1     -35.233   5.064   4.525  1.00 20.00    -0.005 C 
HETATM    3  C4  UNL     1     -34.361   7.087   3.400  1.00 20.00     0.069 C 
HETATM    4  C5  UNL     1     -34.152   4.231   3.902  1.00 20.00     0.196 C 
HETATM    5  C6  UNL     1     -33.592   6.086   2.538  1.00 20.00     0.224 C 
HETATM    6  O10 UNL     1     -33.094   5.027   3.352  1.00 20.00    -0.372 OA
ENDROOT
BRANCH   5   7
HETATM    7  C3  UNL     1     -32.378   6.715   1.940  1.00 20.00     0.288 C 
HETATM    8  O9  UNL     1     -32.163   7.920   1.934  1.00 20.00    -0.262 OA
BRANCH   7   9
HETATM    9  O11 UNL     1     -31.573   5.746   1.418  1.00 20.00    -0.320 OA
BRANCH   9  10
HETATM   10  C8  UNL     1     -32.211   4.840   0.511  1.00 20.00     0.174 C 
HETATM   11  C7  UNL     1     -31.168   3.907  -0.067  1.00 20.00     0.034 C 
ENDBRANCH   9  10
ENDBRANCH   7   9
ENDBRANCH   5   7
TORSDOF 3
ENDMDL
