MODEL 1
REMARK VINA RESULT:      -0.7      0.000      0.000
REMARK  2 active torsions:
REMARK  status: ('A' for Active; 'I' for Inactive)
REMARK    1  A    between atoms: C3_3  and  C8_8 
REMARK    2  A    between atoms: C8_8  and  N10_10 
ROOT
HETATM    1  C1  UNL     1     -32.858   5.628   1.588  1.00 20.00     0.100 C 
HETATM    2  C8  UNL     1     -33.672   6.216   2.666  1.00 20.00     0.356 C 
HETATM    3  N9  UNL     1     -32.220   5.166   0.734  1.00 20.00    -0.195 NA
ENDROOT
BRANCH   2   4
HETATM    4  C3  UNL     1     -34.057   5.133   3.668  1.00 20.00    -0.041 C 
HETATM    5  C2  UNL     1     -33.229   4.084   3.860  1.00 20.00    -0.025 C 
HETATM    6  C4  UNL     1     -33.426   2.903   4.755  1.00 20.00     0.036 C 
HETATM    7  C5  UNL     1     -35.369   5.309   4.392  1.00 20.00     0.046 C 
ENDBRANCH   2   4
BRANCH   2   8
HETATM    8  N10 UNL     1     -32.953   7.326   3.296  1.00 20.00     0.102 N 
HETATM    9  C6  UNL     1     -33.855   8.101   4.144  1.00 20.00     0.311 C 
HETATM   10  C7  UNL     1     -32.345   8.181   2.278  1.00 20.00     0.311 C 
ENDBRANCH   2   8
TORSDOF 2
ENDMDL
MODEL 2
REMARK VINA RESULT:      -0.5      1.464      2.213
REMARK  2 active torsions:
REMARK  status: ('A' for Active; 'I' for Inactive)
REMARK    1  A    between atoms: C3_3  and  C8_8 
REMARK    2  A    between atoms: C8_8  and  N10_10 
ROOT
HETATM    1  C1  UNL     1     -32.486   6.018   1.487  1.00 20.00     0.100 C 
HETATM    2  C8  UNL     1     -33.224   7.212   1.932  1.00 20.00     0.356 C 
HETATM    3  N9  UNL     1     -31.906   5.077   1.131  1.00 20.00    -0.195 NA
ENDROOT
BRANCH   2   4
HETATM    4  C3  UNL     1     -33.902   6.927   3.268  1.00 20.00    -0.041 C 
HETATM    5  C2  UNL     1     -34.564   5.764   3.441  1.00 20.00    -0.025 C 
HETATM    6  C4  UNL     1     -35.324   5.302   4.643  1.00 20.00     0.036 C 
HETATM    7  C5  UNL     1     -33.785   7.991   4.333  1.00 20.00     0.046 C 
ENDBRANCH   2   4
BRANCH   2   8
HETATM    8  N10 UNL     1     -32.327   8.368   2.000  1.00 20.00     0.102 N 
HETATM    9  C6  UNL     1     -32.482   9.203   0.811  1.00 20.00     0.311 C 
HETATM   10  C7  UNL     1     -30.940   7.927   2.139  1.00 20.00     0.311 C 
ENDBRANCH   2   8
TORSDOF 2
ENDMDL
MODEL 3
REMARK VINA RESULT:      -0.4      1.338      4.033
REMARK  2 active torsions:
REMARK  status: ('A' for Active; 'I' for Inactive)
REMARK    1  A    between atoms: C3_3  and  C8_8 
REMARK    2  A    between atoms: C8_8  and  N10_10 
ROOT
HETATM    1  C1  UNL     1     -32.767   5.731   1.422  1.00 20.00     0.100 C 
HETATM    2  C8  UNL     1     -32.714   6.696   2.534  1.00 20.00     0.356 C 
HETATM    3  N9  UNL     1     -32.807   4.968   0.548  1.00 20.00    -0.195 NA
ENDROOT
BRANCH   2   4
HETATM    4  C3  UNL     1     -32.181   8.033   2.029  1.00 20.00    -0.041 C 
HETATM    5  C2  UNL     1     -32.717   8.583   0.919  1.00 20.00    -0.025 C 
HETATM    6  C4  UNL     1     -32.325   9.853   0.236  1.00 20.00     0.036 C 
HETATM    7  C5  UNL     1     -31.063   8.664   2.822  1.00 20.00     0.046 C 
ENDBRANCH   2   4
BRANCH   2   8
HETATM    8  N10 UNL     1     -34.032   6.823   3.159  1.00 20.00     0.102 N 
HETATM    9  C6  UNL     1     -33.991   7.806   4.240  1.00 20.00     0.311 C 
HETATM   10  C7  UNL     1     -34.484   5.527   3.661  1.00 20.00     0.311 C 
ENDBRANCH   2   8
TORSDOF 2
ENDMDL
MODEL 4
REMARK VINA RESULT:      -0.3      1.592      3.691
REMARK  2 active torsions:
REMARK  status: ('A' for Active; 'I' for Inactive)
REMARK    1  A    between atoms: C3_3  and  C8_8 
REMARK    2  A    between atoms: C8_8  and  N10_10 
ROOT
HETATM    1  C1  UNL     1     -33.513   4.991   3.526  1.00 20.00     0.100 C 
HETATM    2  C8  UNL     1     -33.153   6.417   3.433  1.00 20.00     0.356 C 
HETATM    3  N9  UNL     1     -33.793   3.867   3.604  1.00 20.00    -0.195 NA
ENDROOT
BRANCH   2   4
HETATM    4  C3  UNL     1     -32.626   6.722   2.035  1.00 20.00    -0.041 C 
HETATM    5  C2  UNL     1     -32.199   7.970   1.745  1.00 20.00    -0.025 C 
HETATM    6  C4  UNL     1     -31.685   8.491   0.442  1.00 20.00     0.036 C 
HETATM    7  C5  UNL     1     -32.617   5.583   1.045  1.00 20.00     0.046 C 
ENDBRANCH   2   4
BRANCH   2   8
HETATM    8  N10 UNL     1     -34.301   7.254   3.788  1.00 20.00     0.102 N 
HETATM    9  C6  UNL     1     -33.992   8.073   4.958  1.00 20.00     0.311 C 
HETATM   10  C7  UNL     1     -35.477   6.423   4.041  1.00 20.00     0.311 C 
ENDBRANCH   2   8
TORSDOF 2
ENDMDL
MODEL 5
REMARK VINA RESULT:       0.3      1.533      4.793
REMARK  2 active torsions:
REMARK  status: ('A' for Active; 'I' for Inactive)
REMARK    1  A    between atoms: C3_3  and  C8_8 
REMARK    2  A    between atoms: C8_8  and  N10_10 
ROOT
HETATM    1  C1  UNL     1     -33.731   7.577   3.737  1.00 20.00     0.100 C 
HETATM    2  C8  UNL     1     -33.385   7.189   2.359  1.00 20.00     0.356 C 
HETATM    3  N9  UNL     1     -34.009   7.883   4.823  1.00 20.00    -0.195 NA
ENDROOT
BRANCH   2   4
HETATM    4  C3  UNL     1     -32.441   8.224   1.756  1.00 20.00    -0.041 C 
HETATM    5  C2  UNL     1     -32.872   9.003   0.741  1.00 20.00    -0.025 C 
HETATM    6  C4  UNL     1     -32.110  10.043  -0.014  1.00 20.00     0.036 C 
HETATM    7  C5  UNL     1     -31.055   8.309   2.347  1.00 20.00     0.046 C 
ENDBRANCH   2   4
BRANCH   2   8
HETATM    8  N10 UNL     1     -32.815   5.840   2.340  1.00 20.00     0.102 N 
HETATM    9  C6  UNL     1     -32.723   5.344   0.969  1.00 20.00     0.311 C 
HETATM   10  C7  UNL     1     -33.622   4.936   3.158  1.00 20.00     0.311 C 
ENDBRANCH   2   8
TORSDOF 2
ENDMDL
MODEL 6
REMARK VINA RESULT:       0.3      1.598      3.055
REMARK  2 active torsions:
REMARK  status: ('A' for Active; 'I' for Inactive)
REMARK    1  A    between atoms: C3_3  and  C8_8 
REMARK    2  A    between atoms: C8_8  and  N10_10 
ROOT
HETATM    1  C1  UNL     1     -32.351   7.895   1.640  1.00 20.00     0.100 C 
HETATM    2  C8  UNL     1     -32.517   6.615   2.351  1.00 20.00     0.356 C 
HETATM    3  N9  UNL     1     -32.216   8.904   1.081  1.00 20.00    -0.195 NA
ENDROOT
BRANCH   2   4
HETATM    4  C3  UNL     1     -33.638   6.740   3.377  1.00 20.00    -0.041 C 
HETATM    5  C2  UNL     1     -34.448   5.685   3.606  1.00 20.00    -0.025 C 
HETATM    6  C4  UNL     1     -35.620   5.602   4.530  1.00 20.00     0.036 C 
HETATM    7  C5  UNL     1     -33.770   8.067   4.084  1.00 20.00     0.046 C 
ENDBRANCH   2   4
BRANCH   2   8
HETATM    8  N10 UNL     1     -32.756   5.532   1.395  1.00 20.00     0.102 N 
HETATM    9  C6  UNL     1     -31.488   5.012   0.887  1.00 20.00     0.311 C 
HETATM   10  C7  UNL     1     -33.596   6.001   0.295  1.00 20.00     0.311 C 
ENDBRANCH   2   8
TORSDOF 2
ENDMDL
MODEL 7
REMARK VINA RESULT:       0.4      1.925      2.802
REMARK  2 active torsions:
REMARK  status: ('A' for Active; 'I' for Inactive)
REMARK    1  A    between atoms: C3_3  and  C8_8 
REMARK    2  A    between atoms: C8_8  and  N10_10 
ROOT
HETATM    1  C1  UNL     1     -32.782   6.055   1.624  1.00 20.00     0.100 C 
HETATM    2  C8  UNL     1     -33.264   7.394   2.005  1.00 20.00     0.356 C 
HETATM    3  N9  UNL     1     -32.405   5.000   1.318  1.00 20.00    -0.195 NA
ENDROOT
BRANCH   2   4
HETATM    4  C3  UNL     1     -33.729   7.377   3.457  1.00 20.00    -0.041 C 
HETATM    5  C2  UNL     1     -33.109   8.163   4.362  1.00 20.00    -0.025 C 
HETATM    6  C4  UNL     1     -33.374   8.273   5.828  1.00 20.00     0.036 C 
HETATM    7  C5  UNL     1     -34.879   6.459   3.794  1.00 20.00     0.046 C 
ENDBRANCH   2   4
BRANCH   2   8
HETATM    8  N10 UNL     1     -32.223   8.395   1.767  1.00 20.00     0.102 N 
HETATM    9  C6  UNL     1     -32.595   9.262   0.651  1.00 20.00     0.311 C 
HETATM   10  C7  UNL     1     -30.941   7.742   1.503  1.00 20.00     0.311 C 
ENDBRANCH   2   8
TORSDOF 2
ENDMDL
MODEL 8
REMARK VINA RESULT:       0.5      1.544      3.680
REMARK  2 active torsions:
REMARK  status: ('A' for Active; 'I' for Inactive)
REMARK    1  A    between atoms: C3_3  and  C8_8 
REMARK    2  A    between atoms: C8_8  and  N10_10 
ROOT
HETATM    1  C1  UNL     1     -33.446   7.656   4.076  1.00 20.00     0.100 C 
HETATM    2  C8  UNL     1     -33.930   6.873   2.925  1.00 20.00     0.356 C 
HETATM    3  N9  UNL     1     -33.069   8.276   4.982  1.00 20.00    -0.195 NA
ENDROOT
BRANCH   2   4
HETATM    4  C3  UNL     1     -32.777   6.610   1.962  1.00 20.00    -0.041 C 
HETATM    5  C2  UNL     1     -32.639   5.386   1.411  1.00 20.00    -0.025 C 
HETATM    6  C4  UNL     1     -31.571   4.906   0.481  1.00 20.00     0.036 C 
HETATM    7  C5  UNL     1     -31.845   7.765   1.685  1.00 20.00     0.046 C 
ENDBRANCH   2   4
BRANCH   2   8
HETATM    8  N10 UNL     1     -34.563   5.634   3.385  1.00 20.00     0.102 N 
HETATM    9  C6  UNL     1     -35.622   5.930   4.348  1.00 20.00     0.311 C 
HETATM   10  C7  UNL     1     -33.567   4.743   3.976  1.00 20.00     0.311 C 
ENDBRANCH   2   8
TORSDOF 2
ENDMDL
MODEL 9
REMARK VINA RESULT:       0.5      1.661      3.254
REMARK  2 active torsions:
REMARK  status: ('A' for Active; 'I' for Inactive)
REMARK    1  A    between atoms: C3_3  and  C8_8 
REMARK    2  A    between atoms: C8_8  and  N10_10 
ROOT
HETATM    1  C1  UNL     1     -33.671   4.662   3.832  1.00 20.00     0.100 C 
HETATM    2  C8  UNL     1     -33.233   6.018   3.457  1.00 20.00     0.356 C 
HETATM    3  N9  UNL     1     -34.015   3.594   4.133  1.00 20.00    -0.195 NA
ENDROOT
BRANCH   2   4
HETATM    4  C3  UNL     1     -32.600   5.986   2.070  1.00 20.00    -0.041 C 
HETATM    5  C2  UNL     1     -32.447   4.804   1.437  1.00 20.00    -0.025 C 
HETATM    6  C4  UNL     1     -31.824   4.542   0.104  1.00 20.00     0.036 C 
HETATM    7  C5  UNL     1     -32.175   7.311   1.484  1.00 20.00     0.046 C 
ENDBRANCH   2   4
BRANCH   2   8
HETATM    8  N10 UNL     1     -34.357   6.953   3.534  1.00 20.00     0.102 N 
HETATM    9  C6  UNL     1     -34.045   8.051   4.446  1.00 20.00     0.311 C 
HETATM   10  C7  UNL     1     -35.569   6.258   3.964  1.00 20.00     0.311 C 
ENDBRANCH   2   8
TORSDOF 2
ENDMDL
