MODEL 1
REMARK VINA RESULT:      -0.7      0.000      0.000
REMARK  2 active torsions:
REMARK  status: ('A' for Active; 'I' for Inactive)
REMARK    1  A    between atoms: C4_4  and  C6_6 
REMARK    2  A    between atoms: C5_5  and  C7_7 
ROOT
HETATM    1  C1  UNL     1     -31.761   6.834   1.116  1.00 20.00     0.007 C 
HETATM    2  C2  UNL     1     -32.984   6.297   1.901  1.00 20.00     0.007 C 
HETATM    3  C3  UNL     1     -32.141   8.220   3.001  1.00 20.00     0.014 C 
HETATM    4  C4  UNL     1     -31.719   8.324   1.524  1.00 20.00     0.017 C 
HETATM    5  C5  UNL     1     -33.484   7.551   2.656  1.00 20.00     0.017 C 
ENDROOT
BRANCH   4   6
HETATM    6  C6  UNL     1     -32.909   9.003   0.863  1.00 20.00     0.155 A 
HETATM    7  C7  UNL     1     -32.355  10.295   0.359  1.00 20.00     0.155 A 
HETATM    8  O8  UNL     1     -32.827   9.285  -0.537  1.00 20.00    -0.375 OA
ENDBRANCH   4   6
TORSDOF 2
ENDMDL
MODEL 2
REMARK VINA RESULT:      -0.5      2.380      3.328
REMARK  2 active torsions:
REMARK  status: ('A' for Active; 'I' for Inactive)
REMARK    1  A    between atoms: C4_4  and  C6_6 
REMARK    2  A    between atoms: C5_5  and  C7_7 
ROOT
HETATM    1  C1  UNL     1     -33.971   5.137   4.168  1.00 20.00     0.007 C 
HETATM    2  C2  UNL     1     -35.470   5.516   4.060  1.00 20.00     0.007 C 
HETATM    3  C3  UNL     1     -34.180   7.498   4.218  1.00 20.00     0.014 C 
HETATM    4  C4  UNL     1     -33.259   6.405   3.645  1.00 20.00     0.017 C 
HETATM    5  C5  UNL     1     -35.421   6.952   3.488  1.00 20.00     0.017 C 
ENDROOT
BRANCH   4   6
HETATM    6  C6  UNL     1     -33.515   6.476   2.148  1.00 20.00     0.155 A 
HETATM    7  C7  UNL     1     -32.196   6.879   1.574  1.00 20.00     0.155 A 
HETATM    8  O8  UNL     1     -32.771   5.599   1.298  1.00 20.00    -0.375 OA
ENDBRANCH   4   6
TORSDOF 2
ENDMDL
MODEL 3
REMARK VINA RESULT:       0.3      3.059      4.414
REMARK  2 active torsions:
REMARK  status: ('A' for Active; 'I' for Inactive)
REMARK    1  A    between atoms: C4_4  and  C6_6 
REMARK    2  A    between atoms: C5_5  and  C7_7 
ROOT
HETATM    1  C1  UNL     1     -33.312   6.595   1.902  1.00 20.00     0.007 C 
HETATM    2  C2  UNL     1     -32.393   7.594   2.651  1.00 20.00     0.007 C 
HETATM    3  C3  UNL     1     -34.552   7.646   3.628  1.00 20.00     0.014 C 
HETATM    4  C4  UNL     1     -34.394   6.269   2.956  1.00 20.00     0.017 C 
HETATM    5  C5  UNL     1     -33.069   7.709   4.036  1.00 20.00     0.017 C 
ENDROOT
BRANCH   4   6
HETATM    6  C6  UNL     1     -33.730   5.425   4.033  1.00 20.00     0.155 A 
HETATM    7  C7  UNL     1     -34.835   4.565   4.552  1.00 20.00     0.155 A 
HETATM    8  O8  UNL     1     -33.717   4.005   3.860  1.00 20.00    -0.375 OA
ENDBRANCH   4   6
TORSDOF 2
ENDMDL
MODEL 4
REMARK VINA RESULT:       0.3      2.514      3.524
REMARK  2 active torsions:
REMARK  status: ('A' for Active; 'I' for Inactive)
REMARK    1  A    between atoms: C4_4  and  C6_6 
REMARK    2  A    between atoms: C5_5  and  C7_7 
ROOT
HETATM    1  C1  UNL     1     -33.067   5.668   1.169  1.00 20.00     0.007 C 
HETATM    2  C2  UNL     1     -31.567   5.967   1.420  1.00 20.00     0.007 C 
HETATM    3  C3  UNL     1     -32.788   7.996   1.520  1.00 20.00     0.014 C 
HETATM    4  C4  UNL     1     -33.772   6.860   1.853  1.00 20.00     0.017 C 
HETATM    5  C5  UNL     1     -31.610   7.291   2.216  1.00 20.00     0.017 C 
ENDROOT
BRANCH   4   6
HETATM    6  C6  UNL     1     -33.606   6.678   3.354  1.00 20.00     0.155 A 
HETATM    7  C7  UNL     1     -35.006   6.642   3.873  1.00 20.00     0.155 A 
HETATM    8  O8  UNL     1     -34.151   5.498   3.951  1.00 20.00    -0.375 OA
ENDBRANCH   4   6
TORSDOF 2
ENDMDL
MODEL 5
REMARK VINA RESULT:       0.3      2.198      3.525
REMARK  2 active torsions:
REMARK  status: ('A' for Active; 'I' for Inactive)
REMARK    1  A    between atoms: C4_4  and  C6_6 
REMARK    2  A    between atoms: C5_5  and  C7_7 
ROOT
HETATM    1  C1  UNL     1     -31.862   7.892   2.639  1.00 20.00     0.007 C 
HETATM    2  C2  UNL     1     -32.209   8.256   1.173  1.00 20.00     0.007 C 
HETATM    3  C3  UNL     1     -32.602   5.943   1.509  1.00 20.00     0.014 C 
HETATM    4  C4  UNL     1     -32.710   6.624   2.886  1.00 20.00     0.017 C 
HETATM    5  C5  UNL     1     -33.211   7.149   0.772  1.00 20.00     0.017 C 
ENDROOT
BRANCH   4   6
HETATM    6  C6  UNL     1     -34.165   7.064   2.949  1.00 20.00     0.155 A 
HETATM    7  C7  UNL     1     -34.757   6.206   4.018  1.00 20.00     0.155 A 
HETATM    8  O8  UNL     1     -34.644   7.623   4.175  1.00 20.00    -0.375 OA
ENDBRANCH   4   6
TORSDOF 2
ENDMDL
MODEL 6
REMARK VINA RESULT:       0.5      1.678      2.696
REMARK  2 active torsions:
REMARK  status: ('A' for Active; 'I' for Inactive)
REMARK    1  A    between atoms: C4_4  and  C6_6 
REMARK    2  A    between atoms: C5_5  and  C7_7 
ROOT
HETATM    1  C1  UNL     1     -33.914   6.386   3.003  1.00 20.00     0.007 C 
HETATM    2  C2  UNL     1     -33.145   5.049   3.158  1.00 20.00     0.007 C 
HETATM    3  C3  UNL     1     -33.309   5.586   0.855  1.00 20.00     0.014 C 
HETATM    4  C4  UNL     1     -33.419   6.908   1.635  1.00 20.00     0.017 C 
HETATM    5  C5  UNL     1     -32.311   4.981   1.858  1.00 20.00     0.017 C 
ENDROOT
BRANCH   4   6
HETATM    6  C6  UNL     1     -31.970   7.334   1.816  1.00 20.00     0.155 A 
HETATM    7  C7  UNL     1     -31.928   8.721   1.263  1.00 20.00     0.155 A 
HETATM    8  O8  UNL     1     -31.702   8.463   2.651  1.00 20.00    -0.375 OA
ENDBRANCH   4   6
TORSDOF 2
ENDMDL
MODEL 7
REMARK VINA RESULT:       0.8      2.955      3.929
REMARK  2 active torsions:
REMARK  status: ('A' for Active; 'I' for Inactive)
REMARK    1  A    between atoms: C4_4  and  C6_6 
REMARK    2  A    between atoms: C5_5  and  C7_7 
ROOT
HETATM    1  C1  UNL     1     -35.441   6.288   3.945  1.00 20.00     0.007 C 
HETATM    2  C2  UNL     1     -34.950   4.877   4.359  1.00 20.00     0.007 C 
HETATM    3  C3  UNL     1     -33.764   5.575   2.429  1.00 20.00     0.014 C 
HETATM    4  C4  UNL     1     -34.240   6.849   3.151  1.00 20.00     0.017 C 
HETATM    5  C5  UNL     1     -33.531   4.815   3.747  1.00 20.00     0.017 C 
ENDROOT
BRANCH   4   6
HETATM    6  C6  UNL     1     -33.130   7.124   4.152  1.00 20.00     0.155 A 
HETATM    7  C7  UNL     1     -32.517   8.399   3.674  1.00 20.00     0.155 A 
HETATM    8  O8  UNL     1     -33.205   8.325   4.925  1.00 20.00    -0.375 OA
ENDBRANCH   4   6
TORSDOF 2
ENDMDL
MODEL 8
REMARK VINA RESULT:       1.0      2.532      3.481
REMARK  2 active torsions:
REMARK  status: ('A' for Active; 'I' for Inactive)
REMARK    1  A    between atoms: C4_4  and  C6_6 
REMARK    2  A    between atoms: C5_5  and  C7_7 
ROOT
HETATM    1  C1  UNL     1     -33.215   8.085   3.396  1.00 20.00     0.007 C 
HETATM    2  C2  UNL     1     -33.730   7.443   4.709  1.00 20.00     0.007 C 
HETATM    3  C3  UNL     1     -35.203   6.876   2.941  1.00 20.00     0.014 C 
HETATM    4  C4  UNL     1     -33.833   7.179   2.307  1.00 20.00     0.017 C 
HETATM    5  C5  UNL     1     -34.575   6.253   4.201  1.00 20.00     0.017 C 
ENDROOT
BRANCH   4   6
HETATM    6  C6  UNL     1     -33.110   5.842   2.374  1.00 20.00     0.155 A 
HETATM    7  C7  UNL     1     -32.975   5.431   0.944  1.00 20.00     0.155 A 
HETATM    8  O8  UNL     1     -31.830   5.740   1.743  1.00 20.00    -0.375 OA
ENDBRANCH   4   6
TORSDOF 2
ENDMDL
MODEL 9
REMARK VINA RESULT:       1.0      1.766      3.248
REMARK  2 active torsions:
REMARK  status: ('A' for Active; 'I' for Inactive)
REMARK    1  A    between atoms: C4_4  and  C6_6 
REMARK    2  A    between atoms: C5_5  and  C7_7 
ROOT
HETATM    1  C1  UNL     1     -32.094   9.281   2.265  1.00 20.00     0.007 C 
HETATM    2  C2  UNL     1     -32.753  10.053   1.093  1.00 20.00     0.007 C 
HETATM    3  C3  UNL     1     -31.183   8.507   0.218  1.00 20.00     0.014 C 
HETATM    4  C4  UNL     1     -31.626   7.972   1.593  1.00 20.00     0.017 C 
HETATM    5  C5  UNL     1     -32.575   9.083  -0.098  1.00 20.00     0.017 C 
ENDROOT
BRANCH   4   6
HETATM    6  C6  UNL     1     -32.873   7.162   1.272  1.00 20.00     0.155 A 
HETATM    7  C7  UNL     1     -32.475   5.753   1.566  1.00 20.00     0.155 A 
HETATM    8  O8  UNL     1     -33.482   6.420   2.332  1.00 20.00    -0.375 OA
ENDBRANCH   4   6
TORSDOF 2
ENDMDL
