MODEL 1
REMARK VINA RESULT:      -3.1      0.000      0.000
REMARK  4 active torsions:
REMARK  status: ('A' for Active; 'I' for Inactive)
REMARK    1  A    between atoms: C4_4  and  C5_5 
REMARK    2  A    between atoms: C5_5  and  C6_6 
REMARK    3  A    between atoms: C6_6  and  C7_7 
REMARK    4  A    between atoms: C7_7  and  O8_8 
ROOT
HETATM    1  C1  UNL     1     -32.516   9.928  -0.013  1.00 20.00     0.012 C 
HETATM    2  C2  UNL     1     -32.268   9.101   0.821  1.00 20.00    -0.117 C 
HETATM    3  C4  UNL     1     -31.961   8.093   1.845  1.00 20.00     0.093 C 
ENDROOT
BRANCH   3   4
HETATM    4  C5  UNL     1     -32.662   6.767   1.541  1.00 20.00     0.014 C 
BRANCH   4   5
HETATM    5  C6  UNL     1     -33.208   6.123   2.816  1.00 20.00     0.032 C 
BRANCH   5   6
HETATM    6  C7  UNL     1     -34.333   6.927   3.475  1.00 20.00     0.114 C 
HETATM    7  C3  UNL     1     -35.418   6.055   4.094  1.00 20.00     0.039 C 
BRANCH   6   8
HETATM    8  O8  UNL     1     -33.744   7.720   4.507  1.00 20.00    -0.396 OA
HETATM    9  H20 UNL     1     -34.442   7.882   5.158  1.00 20.00     0.210 HD
ENDBRANCH   6   8
ENDBRANCH   5   6
ENDBRANCH   4   5
ENDBRANCH   3   4
TORSDOF 4
ENDMDL
MODEL 2
REMARK VINA RESULT:      -3.0      1.292      1.330
REMARK  4 active torsions:
REMARK  status: ('A' for Active; 'I' for Inactive)
REMARK    1  A    between atoms: C4_4  and  C5_5 
REMARK    2  A    between atoms: C5_5  and  C6_6 
REMARK    3  A    between atoms: C6_6  and  C7_7 
REMARK    4  A    between atoms: C7_7  and  O8_8 
ROOT
HETATM    1  C1  UNL     1     -32.452   9.835   0.097  1.00 20.00     0.012 C 
HETATM    2  C2  UNL     1     -32.281   9.033   0.973  1.00 20.00    -0.117 C 
HETATM    3  C4  UNL     1     -32.072   8.054   2.049  1.00 20.00     0.093 C 
ENDROOT
BRANCH   3   4
HETATM    4  C5  UNL     1     -32.122   6.623   1.511  1.00 20.00     0.014 C 
BRANCH   4   5
HETATM    5  C6  UNL     1     -33.440   5.940   1.876  1.00 20.00     0.032 C 
BRANCH   5   6
HETATM    6  C7  UNL     1     -33.717   5.904   3.382  1.00 20.00     0.114 C 
HETATM    7  C3  UNL     1     -34.995   6.629   3.781  1.00 20.00     0.039 C 
BRANCH   6   8
HETATM    8  O8  UNL     1     -33.834   4.533   3.762  1.00 20.00    -0.396 OA
HETATM    9  H20 UNL     1     -34.773   4.308   3.686  1.00 20.00     0.210 HD
ENDBRANCH   6   8
ENDBRANCH   5   6
ENDBRANCH   4   5
ENDBRANCH   3   4
TORSDOF 4
ENDMDL
MODEL 3
REMARK VINA RESULT:      -2.9      1.937      4.690
REMARK  4 active torsions:
REMARK  status: ('A' for Active; 'I' for Inactive)
REMARK    1  A    between atoms: C4_4  and  C5_5 
REMARK    2  A    between atoms: C5_5  and  C6_6 
REMARK    3  A    between atoms: C6_6  and  C7_7 
REMARK    4  A    between atoms: C7_7  and  O8_8 
ROOT
HETATM    1  C1  UNL     1     -33.569   3.498   4.268  1.00 20.00     0.012 C 
HETATM    2  C2  UNL     1     -34.380   4.377   4.361  1.00 20.00    -0.117 C 
HETATM    3  C4  UNL     1     -35.375   5.453   4.480  1.00 20.00     0.093 C 
ENDROOT
BRANCH   3   4
HETATM    4  C5  UNL     1     -34.996   6.653   3.611  1.00 20.00     0.014 C 
BRANCH   4   5
HETATM    5  C6  UNL     1     -33.482   6.743   3.420  1.00 20.00     0.032 C 
BRANCH   5   6
HETATM    6  C7  UNL     1     -33.056   6.888   1.955  1.00 20.00     0.114 C 
HETATM    7  C3  UNL     1     -31.924   7.887   1.750  1.00 20.00     0.039 C 
BRANCH   6   8
HETATM    8  O8  UNL     1     -32.618   5.605   1.508  1.00 20.00    -0.396 OA
HETATM    9  H20 UNL     1     -31.784   5.426   1.969  1.00 20.00     0.210 HD
ENDBRANCH   6   8
ENDBRANCH   5   6
ENDBRANCH   4   5
ENDBRANCH   3   4
TORSDOF 4
ENDMDL
MODEL 4
REMARK VINA RESULT:      -2.8      2.037      2.727
REMARK  4 active torsions:
REMARK  status: ('A' for Active; 'I' for Inactive)
REMARK    1  A    between atoms: C4_4  and  C5_5 
REMARK    2  A    between atoms: C5_5  and  C6_6 
REMARK    3  A    between atoms: C6_6  and  C7_7 
REMARK    4  A    between atoms: C7_7  and  O8_8 
ROOT
HETATM    1  C1  UNL     1     -31.908   7.859   1.592  1.00 20.00     0.012 C 
HETATM    2  C2  UNL     1     -32.603   7.875   2.569  1.00 20.00    -0.117 C 
HETATM    3  C4  UNL     1     -33.454   7.898   3.768  1.00 20.00     0.093 C 
ENDROOT
BRANCH   3   4
HETATM    4  C5  UNL     1     -34.433   6.723   3.773  1.00 20.00     0.014 C 
BRANCH   4   5
HETATM    5  C6  UNL     1     -33.747   5.428   3.334  1.00 20.00     0.032 C 
BRANCH   5   6
HETATM    6  C7  UNL     1     -34.364   4.168   3.950  1.00 20.00     0.114 C 
HETATM    7  C3  UNL     1     -33.392   3.383   4.822  1.00 20.00     0.039 C 
BRANCH   6   8
HETATM    8  O8  UNL     1     -35.466   4.584   4.757  1.00 20.00    -0.396 OA
HETATM    9  H20 UNL     1     -35.299   4.237   5.646  1.00 20.00     0.210 HD
ENDBRANCH   6   8
ENDBRANCH   5   6
ENDBRANCH   4   5
ENDBRANCH   3   4
TORSDOF 4
ENDMDL
MODEL 5
REMARK VINA RESULT:      -2.8      1.358      1.414
REMARK  4 active torsions:
REMARK  status: ('A' for Active; 'I' for Inactive)
REMARK    1  A    between atoms: C4_4  and  C5_5 
REMARK    2  A    between atoms: C5_5  and  C6_6 
REMARK    3  A    between atoms: C6_6  and  C7_7 
REMARK    4  A    between atoms: C7_7  and  O8_8 
ROOT
HETATM    1  C1  UNL     1     -32.421   9.726   0.115  1.00 20.00     0.012 C 
HETATM    2  C2  UNL     1     -32.195   8.879   0.935  1.00 20.00    -0.117 C 
HETATM    3  C4  UNL     1     -31.914   7.844   1.940  1.00 20.00     0.093 C 
ENDROOT
BRANCH   3   4
HETATM    4  C5  UNL     1     -33.014   6.781   1.960  1.00 20.00     0.014 C 
BRANCH   4   5
HETATM    5  C6  UNL     1     -33.700   6.720   3.325  1.00 20.00     0.032 C 
BRANCH   5   6
HETATM    6  C7  UNL     1     -34.614   5.502   3.497  1.00 20.00     0.114 C 
HETATM    7  C3  UNL     1     -33.896   4.281   4.056  1.00 20.00     0.039 C 
BRANCH   6   8
HETATM    8  O8  UNL     1     -35.653   5.874   4.404  1.00 20.00    -0.396 OA
HETATM    9  H20 UNL     1     -35.673   5.190   5.090  1.00 20.00     0.210 HD
ENDBRANCH   6   8
ENDBRANCH   5   6
ENDBRANCH   4   5
ENDBRANCH   3   4
TORSDOF 4
ENDMDL
MODEL 6
REMARK VINA RESULT:      -2.8      2.132      4.477
REMARK  4 active torsions:
REMARK  status: ('A' for Active; 'I' for Inactive)
REMARK    1  A    between atoms: C4_4  and  C5_5 
REMARK    2  A    between atoms: C5_5  and  C6_6 
REMARK    3  A    between atoms: C6_6  and  C7_7 
REMARK    4  A    between atoms: C7_7  and  O8_8 
ROOT
HETATM    1  C1  UNL     1     -33.855   3.678   4.321  1.00 20.00     0.012 C 
HETATM    2  C2  UNL     1     -34.441   4.720   4.216  1.00 20.00    -0.117 C 
HETATM    3  C4  UNL     1     -35.164   5.994   4.088  1.00 20.00     0.093 C 
ENDROOT
BRANCH   3   4
HETATM    4  C5  UNL     1     -34.199   7.181   4.117  1.00 20.00     0.014 C 
BRANCH   4   5
HETATM    5  C6  UNL     1     -33.831   7.629   2.702  1.00 20.00     0.032 C 
BRANCH   5   6
HETATM    6  C7  UNL     1     -32.468   7.113   2.231  1.00 20.00     0.114 C 
HETATM    7  C3  UNL     1     -32.561   5.865   1.363  1.00 20.00     0.039 C 
BRANCH   6   8
HETATM    8  O8  UNL     1     -31.858   8.154   1.466  1.00 20.00    -0.396 OA
HETATM    9  H20 UNL     1     -30.947   8.229   1.787  1.00 20.00     0.210 HD
ENDBRANCH   6   8
ENDBRANCH   5   6
ENDBRANCH   4   5
ENDBRANCH   3   4
TORSDOF 4
ENDMDL
MODEL 7
REMARK VINA RESULT:      -2.8      1.491      4.429
REMARK  4 active torsions:
REMARK  status: ('A' for Active; 'I' for Inactive)
REMARK    1  A    between atoms: C4_4  and  C5_5 
REMARK    2  A    between atoms: C5_5  and  C6_6 
REMARK    3  A    between atoms: C6_6  and  C7_7 
REMARK    4  A    between atoms: C7_7  and  O8_8 
ROOT
HETATM    1  C1  UNL     1     -33.916   3.822   4.256  1.00 20.00     0.012 C 
HETATM    2  C2  UNL     1     -34.407   4.906   4.100  1.00 20.00    -0.117 C 
HETATM    3  C4  UNL     1     -35.011   6.232   3.910  1.00 20.00     0.093 C 
ENDROOT
BRANCH   3   4
HETATM    4  C5  UNL     1     -33.950   7.278   3.566  1.00 20.00     0.014 C 
BRANCH   4   5
HETATM    5  C6  UNL     1     -33.201   6.907   2.285  1.00 20.00     0.032 C 
BRANCH   5   6
HETATM    6  C7  UNL     1     -32.021   7.834   1.974  1.00 20.00     0.114 C 
HETATM    7  C3  UNL     1     -32.342   8.889   0.924  1.00 20.00     0.039 C 
BRANCH   6   8
HETATM    8  O8  UNL     1     -31.665   8.494   3.189  1.00 20.00    -0.396 OA
HETATM    9  H20 UNL     1     -32.494   8.668   3.658  1.00 20.00     0.210 HD
ENDBRANCH   6   8
ENDBRANCH   5   6
ENDBRANCH   4   5
ENDBRANCH   3   4
TORSDOF 4
ENDMDL
MODEL 8
REMARK VINA RESULT:      -2.4      2.124      4.543
REMARK  4 active torsions:
REMARK  status: ('A' for Active; 'I' for Inactive)
REMARK    1  A    between atoms: C4_4  and  C5_5 
REMARK    2  A    between atoms: C5_5  and  C6_6 
REMARK    3  A    between atoms: C6_6  and  C7_7 
REMARK    4  A    between atoms: C7_7  and  O8_8 
ROOT
HETATM    1  C1  UNL     1     -35.434   5.890   4.150  1.00 20.00     0.012 C 
HETATM    2  C2  UNL     1     -34.580   6.684   3.866  1.00 20.00    -0.117 C 
HETATM    3  C4  UNL     1     -33.535   7.658   3.522  1.00 20.00     0.093 C 
ENDROOT
BRANCH   3   4
HETATM    4  C5  UNL     1     -32.745   7.209   2.291  1.00 20.00     0.014 C 
BRANCH   4   5
HETATM    5  C6  UNL     1     -31.781   8.299   1.823  1.00 20.00     0.032 C 
BRANCH   5   6
HETATM    6  C7  UNL     1     -32.153   8.905   0.465  1.00 20.00     0.114 C 
HETATM    7  C3  UNL     1     -32.680  10.330   0.562  1.00 20.00     0.039 C 
BRANCH   6   8
HETATM    8  O8  UNL     1     -30.972   8.910  -0.338  1.00 20.00    -0.396 OA
HETATM    9  H20 UNL     1     -30.381   9.572   0.051  1.00 20.00     0.210 HD
ENDBRANCH   6   8
ENDBRANCH   5   6
ENDBRANCH   4   5
ENDBRANCH   3   4
TORSDOF 4
ENDMDL
MODEL 9
REMARK VINA RESULT:      -2.2      1.889      4.277
REMARK  4 active torsions:
REMARK  status: ('A' for Active; 'I' for Inactive)
REMARK    1  A    between atoms: C4_4  and  C5_5 
REMARK    2  A    between atoms: C5_5  and  C6_6 
REMARK    3  A    between atoms: C6_6  and  C7_7 
REMARK    4  A    between atoms: C7_7  and  O8_8 
ROOT
HETATM    1  C1  UNL     1     -34.575   6.640   3.832  1.00 20.00     0.012 C 
HETATM    2  C2  UNL     1     -33.796   6.499   2.930  1.00 20.00    -0.117 C 
HETATM    3  C4  UNL     1     -32.844   6.323   1.824  1.00 20.00     0.093 C 
ENDROOT
BRANCH   3   4
HETATM    4  C5  UNL     1     -31.909   7.528   1.704  1.00 20.00     0.014 C 
BRANCH   4   5
HETATM    5  C6  UNL     1     -32.694   8.840   1.703  1.00 20.00     0.032 C 
BRANCH   5   6
HETATM    6  C7  UNL     1     -32.204   9.848   0.659  1.00 20.00     0.114 C 
HETATM    7  C3  UNL     1     -32.640   9.510  -0.760  1.00 20.00     0.039 C 
BRANCH   6   8
HETATM    8  O8  UNL     1     -32.743  11.123   1.010  1.00 20.00    -0.396 OA
HETATM    9  H20 UNL     1     -32.782  11.638   0.190  1.00 20.00     0.210 HD
ENDBRANCH   6   8
ENDBRANCH   5   6
ENDBRANCH   4   5
ENDBRANCH   3   4
TORSDOF 4
ENDMDL
