MODEL 1
REMARK VINA RESULT:      -2.4      0.000      0.000
REMARK  1 active torsions:
REMARK  status: ('A' for Active; 'I' for Inactive)
REMARK    1  A    between atoms: C1_1  and  C3_3 
ROOT
HETATM    1  C1  UNL     1     -33.694   5.976   3.166  1.00 20.00     0.035 C 
HETATM    2  C2  UNL     1     -33.437   7.243   3.485  1.00 20.00     0.053 C 
HETATM    3  C4  UNL     1     -33.124   5.675   1.837  1.00 20.00     0.073 C 
HETATM    4  C5  UNL     1     -32.255   6.908   1.623  1.00 20.00     0.180 C 
HETATM    5  C6  UNL     1     -33.822   8.022   4.692  1.00 20.00     0.077 C 
HETATM    6  O8  UNL     1     -32.710   7.942   2.517  1.00 20.00    -0.355 OA
ENDROOT
BRANCH   1   7
HETATM    7  C3  UNL     1     -34.425   4.998   3.952  1.00 20.00     0.250 C 
HETATM    8  O7  UNL     1     -35.567   5.270   4.357  1.00 20.00    -0.274 OA
HETATM    9 CL9  UNL     1     -33.629   3.467   4.281  1.00 20.00    -0.039 Cl
ENDBRANCH   1   7
TORSDOF 1
ENDMDL
MODEL 2
REMARK VINA RESULT:      -2.1      1.019      2.152
REMARK  1 active torsions:
REMARK  status: ('A' for Active; 'I' for Inactive)
REMARK    1  A    between atoms: C1_1  and  C3_3 
ROOT
HETATM    1  C1  UNL     1     -33.497   6.553   3.041  1.00 20.00     0.035 C 
HETATM    2  C2  UNL     1     -32.814   6.286   1.929  1.00 20.00     0.053 C 
HETATM    3  C4  UNL     1     -33.094   7.874   3.563  1.00 20.00     0.073 C 
HETATM    4  C5  UNL     1     -32.295   8.408   2.381  1.00 20.00     0.180 C 
HETATM    5  C6  UNL     1     -32.841   5.081   1.058  1.00 20.00     0.077 C 
HETATM    6  O8  UNL     1     -31.924   7.293   1.547  1.00 20.00    -0.355 OA
ENDROOT
BRANCH   1   7
HETATM    7  C3  UNL     1     -34.486   5.713   3.694  1.00 20.00     0.250 C 
HETATM    8  O7  UNL     1     -35.613   6.174   3.938  1.00 20.00    -0.274 OA
HETATM    9 CL9  UNL     1     -34.010   4.072   4.101  1.00 20.00    -0.039 Cl
ENDBRANCH   1   7
TORSDOF 1
ENDMDL
MODEL 3
REMARK VINA RESULT:      -1.5      2.619      4.173
REMARK  1 active torsions:
REMARK  status: ('A' for Active; 'I' for Inactive)
REMARK    1  A    between atoms: C1_1  and  C3_3 
ROOT
HETATM    1  C1  UNL     1     -32.988   7.401   2.650  1.00 20.00     0.035 C 
HETATM    2  C2  UNL     1     -33.151   6.143   2.245  1.00 20.00     0.053 C 
HETATM    3  C4  UNL     1     -33.976   7.714   3.704  1.00 20.00     0.073 C 
HETATM    4  C5  UNL     1     -34.505   6.318   4.011  1.00 20.00     0.180 C 
HETATM    5  C6  UNL     1     -32.429   5.377   1.196  1.00 20.00     0.077 C 
HETATM    6  O8  UNL     1     -34.176   5.458   2.902  1.00 20.00    -0.355 OA
ENDROOT
BRANCH   1   7
HETATM    7  C3  UNL     1     -32.020   8.368   2.164  1.00 20.00     0.250 C 
HETATM    8  O7  UNL     1     -30.991   8.586   2.824  1.00 20.00    -0.274 OA
HETATM    9 CL9  UNL     1     -32.378   9.177   0.647  1.00 20.00    -0.039 Cl
ENDBRANCH   1   7
TORSDOF 1
ENDMDL
MODEL 4
REMARK VINA RESULT:      -1.2      2.236      3.754
REMARK  1 active torsions:
REMARK  status: ('A' for Active; 'I' for Inactive)
REMARK    1  A    between atoms: C1_1  and  C3_3 
ROOT
HETATM    1  C1  UNL     1     -33.821   5.802   2.956  1.00 20.00     0.035 C 
HETATM    2  C2  UNL     1     -34.036   4.724   3.710  1.00 20.00     0.053 C 
HETATM    3  C4  UNL     1     -34.871   6.807   3.220  1.00 20.00     0.073 C 
HETATM    4  C5  UNL     1     -35.519   6.211   4.464  1.00 20.00     0.180 C 
HETATM    5  C6  UNL     1     -33.282   3.445   3.784  1.00 20.00     0.077 C 
HETATM    6  O8  UNL     1     -35.158   4.818   4.537  1.00 20.00    -0.355 OA
ENDROOT
BRANCH   1   7
HETATM    7  C3  UNL     1     -32.750   6.011   1.998  1.00 20.00     0.250 C 
HETATM    8  O7  UNL     1     -32.382   5.068   1.278  1.00 20.00    -0.274 OA
HETATM    9 CL9  UNL     1     -32.037   7.614   1.921  1.00 20.00    -0.039 Cl
ENDBRANCH   1   7
TORSDOF 1
ENDMDL
MODEL 5
REMARK VINA RESULT:      -0.9      2.135      3.111
REMARK  1 active torsions:
REMARK  status: ('A' for Active; 'I' for Inactive)
REMARK    1  A    between atoms: C1_1  and  C3_3 
ROOT
HETATM    1  C1  UNL     1     -33.225   6.176   2.355  1.00 20.00     0.035 C 
HETATM    2  C2  UNL     1     -32.942   7.442   2.657  1.00 20.00     0.053 C 
HETATM    3  C4  UNL     1     -34.186   5.636   3.338  1.00 20.00     0.073 C 
HETATM    4  C5  UNL     1     -34.605   6.917   4.049  1.00 20.00     0.180 C 
HETATM    5  C6  UNL     1     -32.016   8.398   1.994  1.00 20.00     0.077 C 
HETATM    6  O8  UNL     1     -33.609   7.925   3.786  1.00 20.00    -0.355 OA
ENDROOT
BRANCH   1   7
HETATM    7  C3  UNL     1     -32.695   5.390   1.254  1.00 20.00     0.250 C 
HETATM    8  O7  UNL     1     -31.493   5.082   1.247  1.00 20.00    -0.274 OA
HETATM    9 CL9  UNL     1     -33.815   4.921  -0.015  1.00 20.00    -0.039 Cl
ENDBRANCH   1   7
TORSDOF 1
ENDMDL
MODEL 6
REMARK VINA RESULT:      -0.9      2.730      3.735
REMARK  1 active torsions:
REMARK  status: ('A' for Active; 'I' for Inactive)
REMARK    1  A    between atoms: C1_1  and  C3_3 
ROOT
HETATM    1  C1  UNL     1     -32.515   7.084   2.087  1.00 20.00     0.035 C 
HETATM    2  C2  UNL     1     -33.472   6.665   2.912  1.00 20.00     0.053 C 
HETATM    3  C4  UNL     1     -32.068   5.962   1.236  1.00 20.00     0.073 C 
HETATM    4  C5  UNL     1     -33.156   4.938   1.535  1.00 20.00     0.180 C 
HETATM    5  C6  UNL     1     -34.212   7.403   3.969  1.00 20.00     0.077 C 
HETATM    6  O8  UNL     1     -33.806   5.316   2.764  1.00 20.00    -0.355 OA
ENDROOT
BRANCH   1   7
HETATM    7  C3  UNL     1     -31.946   8.418   1.997  1.00 20.00     0.250 C 
HETATM    8  O7  UNL     1     -31.205   8.828   2.906  1.00 20.00    -0.274 OA
HETATM    9 CL9  UNL     1     -32.353   9.376   0.583  1.00 20.00    -0.039 Cl
ENDBRANCH   1   7
TORSDOF 1
ENDMDL
MODEL 7
REMARK VINA RESULT:      -0.9      2.010      2.704
REMARK  1 active torsions:
REMARK  status: ('A' for Active; 'I' for Inactive)
REMARK    1  A    between atoms: C1_1  and  C3_3 
ROOT
HETATM    1  C1  UNL     1     -33.127   7.395   2.943  1.00 20.00     0.035 C 
HETATM    2  C2  UNL     1     -32.794   6.398   2.126  1.00 20.00     0.053 C 
HETATM    3  C4  UNL     1     -32.361   8.606   2.583  1.00 20.00     0.073 C 
HETATM    4  C5  UNL     1     -31.780   8.178   1.242  1.00 20.00     0.180 C 
HETATM    5  C6  UNL     1     -33.261   4.986   2.101  1.00 20.00     0.077 C 
HETATM    6  O8  UNL     1     -31.842   6.741   1.162  1.00 20.00    -0.355 OA
ENDROOT
BRANCH   1   7
HETATM    7  C3  UNL     1     -34.075   7.357   4.043  1.00 20.00     0.250 C 
HETATM    8  O7  UNL     1     -33.869   8.054   5.050  1.00 20.00    -0.274 OA
HETATM    9 CL9  UNL     1     -35.473   6.310   3.868  1.00 20.00    -0.039 Cl
ENDBRANCH   1   7
TORSDOF 1
ENDMDL
MODEL 8
REMARK VINA RESULT:      -0.9      1.935      2.227
REMARK  1 active torsions:
REMARK  status: ('A' for Active; 'I' for Inactive)
REMARK    1  A    between atoms: C1_1  and  C3_3 
ROOT
HETATM    1  C1  UNL     1     -33.310   6.722   2.737  1.00 20.00     0.035 C 
HETATM    2  C2  UNL     1     -32.343   7.467   2.205  1.00 20.00     0.053 C 
HETATM    3  C4  UNL     1     -33.404   5.440   2.010  1.00 20.00     0.073 C 
HETATM    4  C5  UNL     1     -32.123   5.494   1.187  1.00 20.00     0.180 C 
HETATM    5  C6  UNL     1     -31.886   8.836   2.562  1.00 20.00     0.077 C 
HETATM    6  O8  UNL     1     -31.678   6.863   1.134  1.00 20.00    -0.355 OA
ENDROOT
BRANCH   1   7
HETATM    7  C3  UNL     1     -34.181   7.066   3.848  1.00 20.00     0.250 C 
HETATM    8  O7  UNL     1     -33.906   8.047   4.558  1.00 20.00    -0.274 OA
HETATM    9 CL9  UNL     1     -35.588   6.050   4.115  1.00 20.00    -0.039 Cl
ENDBRANCH   1   7
TORSDOF 1
ENDMDL
MODEL 9
REMARK VINA RESULT:      -0.7      2.173      3.267
REMARK  1 active torsions:
REMARK  status: ('A' for Active; 'I' for Inactive)
REMARK    1  A    between atoms: C1_1  and  C3_3 
ROOT
HETATM    1  C1  UNL     1     -33.646   5.968   2.985  1.00 20.00     0.035 C 
HETATM    2  C2  UNL     1     -34.308   6.897   3.672  1.00 20.00     0.053 C 
HETATM    3  C4  UNL     1     -33.983   4.629   3.511  1.00 20.00     0.073 C 
HETATM    4  C5  UNL     1     -35.170   4.973   4.402  1.00 20.00     0.180 C 
HETATM    5  C6  UNL     1     -34.284   8.378   3.544  1.00 20.00     0.077 C 
HETATM    6  O8  UNL     1     -35.133   6.387   4.678  1.00 20.00    -0.355 OA
ENDROOT
BRANCH   1   7
HETATM    7  C3  UNL     1     -32.714   6.175   1.889  1.00 20.00     0.250 C 
HETATM    8  O7  UNL     1     -32.529   5.265   1.066  1.00 20.00    -0.274 OA
HETATM    9 CL9  UNL     1     -31.901   7.729   1.804  1.00 20.00    -0.039 Cl
ENDBRANCH   1   7
TORSDOF 1
ENDMDL
