MODEL 1
REMARK VINA RESULT:      -0.1      0.000      0.000
REMARK  3 active torsions:
REMARK  status: ('A' for Active; 'I' for Inactive)
REMARK    1  A    between atoms: C6_6  and  N8_8 
REMARK    2  A    between atoms: C6_6  and  O9_9 
REMARK    3  A    between atoms: C7_7  and  O9_9 
ROOT
HETATM    1  O9  UNL     1     -33.317   7.657   2.633  1.00 20.00    -0.352 OA
ENDROOT
BRANCH   1   2
HETATM    2  C6  UNL     1     -33.595   6.252   2.604  1.00 20.00     0.440 C 
BRANCH   2   3
HETATM    3  N8  UNL     1     -34.124   5.766   3.887  1.00 20.00     0.102 N 
HETATM    4  C4  UNL     1     -34.065   4.304   3.938  1.00 20.00     0.312 C 
HETATM    5  C5  UNL     1     -35.500   6.221   4.094  1.00 20.00     0.312 C 
ENDBRANCH   2   3
ENDBRANCH   1   2
BRANCH   1   6
HETATM    6  C7  UNL     1     -32.141   7.977   1.900  1.00 20.00     0.052 C 
HETATM    7  C1  UNL     1     -31.085   8.492   2.878  1.00 20.00     0.045 C 
HETATM    8  C2  UNL     1     -31.661   6.699   1.217  1.00 20.00     0.045 C 
HETATM    9  C3  UNL     1     -32.489   9.044   0.864  1.00 20.00     0.045 C 
ENDBRANCH   1   6
TORSDOF 3
ENDMDL
MODEL 2
REMARK VINA RESULT:      -0.1      0.019      1.451
REMARK  3 active torsions:
REMARK  status: ('A' for Active; 'I' for Inactive)
REMARK    1  A    between atoms: C6_6  and  N8_8 
REMARK    2  A    between atoms: C6_6  and  O9_9 
REMARK    3  A    between atoms: C7_7  and  O9_9 
ROOT
HETATM    1  O9  UNL     1     -33.320   7.649   2.624  1.00 20.00    -0.352 OA
ENDROOT
BRANCH   1   2
HETATM    2  C6  UNL     1     -33.583   6.241   2.607  1.00 20.00     0.440 C 
BRANCH   2   3
HETATM    3  N8  UNL     1     -34.117   5.762   3.891  1.00 20.00     0.102 N 
HETATM    4  C4  UNL     1     -34.070   4.301   3.946  1.00 20.00     0.312 C 
HETATM    5  C5  UNL     1     -35.490   6.229   4.096  1.00 20.00     0.312 C 
ENDBRANCH   2   3
ENDBRANCH   1   2
BRANCH   1   6
HETATM    6  C7  UNL     1     -32.141   7.975   1.899  1.00 20.00     0.052 C 
HETATM    7  C1  UNL     1     -32.484   9.054   0.873  1.00 20.00     0.045 C 
HETATM    8  C2  UNL     1     -31.113   8.493   2.901  1.00 20.00     0.045 C 
HETATM    9  C3  UNL     1     -31.631   6.711   1.209  1.00 20.00     0.045 C 
ENDBRANCH   1   6
TORSDOF 3
ENDMDL
MODEL 3
REMARK VINA RESULT:      -0.1      0.024      1.449
REMARK  3 active torsions:
REMARK  status: ('A' for Active; 'I' for Inactive)
REMARK    1  A    between atoms: C6_6  and  N8_8 
REMARK    2  A    between atoms: C6_6  and  O9_9 
REMARK    3  A    between atoms: C7_7  and  O9_9 
ROOT
HETATM    1  O9  UNL     1     -33.312   7.638   2.639  1.00 20.00    -0.352 OA
ENDROOT
BRANCH   1   2
HETATM    2  C6  UNL     1     -33.581   6.232   2.619  1.00 20.00     0.440 C 
BRANCH   2   3
HETATM    3  N8  UNL     1     -34.123   5.753   3.899  1.00 20.00     0.102 N 
HETATM    4  C4  UNL     1     -34.068   4.292   3.959  1.00 20.00     0.312 C 
HETATM    5  C5  UNL     1     -35.501   6.212   4.090  1.00 20.00     0.312 C 
ENDBRANCH   2   3
ENDBRANCH   1   2
BRANCH   1   6
HETATM    6  C7  UNL     1     -32.131   7.960   1.915  1.00 20.00     0.052 C 
HETATM    7  C1  UNL     1     -31.627   6.695   1.221  1.00 20.00     0.045 C 
HETATM    8  C2  UNL     1     -32.498   9.027   0.887  1.00 20.00     0.045 C 
HETATM    9  C3  UNL     1     -31.089   8.493   2.897  1.00 20.00     0.045 C 
ENDBRANCH   1   6
TORSDOF 3
ENDMDL
MODEL 4
REMARK VINA RESULT:      -0.0      1.666      4.180
REMARK  3 active torsions:
REMARK  status: ('A' for Active; 'I' for Inactive)
REMARK    1  A    between atoms: C6_6  and  N8_8 
REMARK    2  A    between atoms: C6_6  and  O9_9 
REMARK    3  A    between atoms: C7_7  and  O9_9 
ROOT
HETATM    1  O9  UNL     1     -33.690   6.528   2.683  1.00 20.00    -0.352 OA
ENDROOT
BRANCH   1   2
HETATM    2  C6  UNL     1     -32.906   7.723   2.766  1.00 20.00     0.440 C 
BRANCH   2   3
HETATM    3  N8  UNL     1     -31.841   7.758   1.753  1.00 20.00     0.102 N 
HETATM    4  C4  UNL     1     -32.067   8.860   0.818  1.00 20.00     0.312 C 
HETATM    5  C5  UNL     1     -31.767   6.489   1.025  1.00 20.00     0.312 C 
ENDBRANCH   2   3
ENDBRANCH   1   2
BRANCH   1   6
HETATM    6  C7  UNL     1     -34.611   6.424   3.763  1.00 20.00     0.052 C 
HETATM    7  C1  UNL     1     -34.535   5.007   4.330  1.00 20.00     0.045 C 
HETATM    8  C2  UNL     1     -34.201   7.448   4.818  1.00 20.00     0.045 C 
HETATM    9  C3  UNL     1     -36.013   6.725   3.236  1.00 20.00     0.045 C 
ENDBRANCH   1   6
TORSDOF 3
ENDMDL
MODEL 5
REMARK VINA RESULT:       0.0      1.665      4.177
REMARK  3 active torsions:
REMARK  status: ('A' for Active; 'I' for Inactive)
REMARK    1  A    between atoms: C6_6  and  N8_8 
REMARK    2  A    between atoms: C6_6  and  O9_9 
REMARK    3  A    between atoms: C7_7  and  O9_9 
ROOT
HETATM    1  O9  UNL     1     -33.690   6.541   2.678  1.00 20.00    -0.352 OA
ENDROOT
BRANCH   1   2
HETATM    2  C6  UNL     1     -32.894   7.730   2.759  1.00 20.00     0.440 C 
BRANCH   2   3
HETATM    3  N8  UNL     1     -31.831   7.755   1.744  1.00 20.00     0.102 N 
HETATM    4  C4  UNL     1     -32.053   8.856   0.806  1.00 20.00     0.312 C 
HETATM    5  C5  UNL     1     -31.766   6.483   1.020  1.00 20.00     0.312 C 
ENDBRANCH   2   3
ENDBRANCH   1   2
BRANCH   1   6
HETATM    6  C7  UNL     1     -34.601   6.440   3.766  1.00 20.00     0.052 C 
HETATM    7  C1  UNL     1     -36.010   6.724   3.246  1.00 20.00     0.045 C 
HETATM    8  C2  UNL     1     -34.507   5.019   4.315  1.00 20.00     0.045 C 
HETATM    9  C3  UNL     1     -34.199   7.458   4.832  1.00 20.00     0.045 C 
ENDBRANCH   1   6
TORSDOF 3
ENDMDL
MODEL 6
REMARK VINA RESULT:       0.0      1.664      4.185
REMARK  3 active torsions:
REMARK  status: ('A' for Active; 'I' for Inactive)
REMARK    1  A    between atoms: C6_6  and  N8_8 
REMARK    2  A    between atoms: C6_6  and  O9_9 
REMARK    3  A    between atoms: C7_7  and  O9_9 
ROOT
HETATM    1  O9  UNL     1     -33.693   6.549   2.671  1.00 20.00    -0.352 OA
ENDROOT
BRANCH   1   2
HETATM    2  C6  UNL     1     -32.891   7.732   2.765  1.00 20.00     0.440 C 
BRANCH   2   3
HETATM    3  N8  UNL     1     -31.831   7.765   1.747  1.00 20.00     0.102 N 
HETATM    4  C4  UNL     1     -32.065   8.862   0.807  1.00 20.00     0.312 C 
HETATM    5  C5  UNL     1     -31.756   6.493   1.026  1.00 20.00     0.312 C 
ENDBRANCH   2   3
ENDBRANCH   1   2
BRANCH   1   6
HETATM    6  C7  UNL     1     -34.592   6.431   3.766  1.00 20.00     0.052 C 
HETATM    7  C1  UNL     1     -34.194   7.451   4.832  1.00 20.00     0.045 C 
HETATM    8  C2  UNL     1     -35.997   6.722   3.243  1.00 20.00     0.045 C 
HETATM    9  C3  UNL     1     -34.506   5.008   4.315  1.00 20.00     0.045 C 
ENDBRANCH   1   6
TORSDOF 3
ENDMDL
MODEL 7
REMARK VINA RESULT:       0.6      1.696      3.937
REMARK  3 active torsions:
REMARK  status: ('A' for Active; 'I' for Inactive)
REMARK    1  A    between atoms: C6_6  and  N8_8 
REMARK    2  A    between atoms: C6_6  and  O9_9 
REMARK    3  A    between atoms: C7_7  and  O9_9 
ROOT
HETATM    1  O9  UNL     1     -33.899   7.199   2.320  1.00 20.00    -0.352 OA
ENDROOT
BRANCH   1   2
HETATM    2  C6  UNL     1     -32.609   6.759   1.879  1.00 20.00     0.440 C 
BRANCH   2   3
HETATM    3  N8  UNL     1     -31.727   7.885   1.540  1.00 20.00     0.102 N 
HETATM    4  C4  UNL     1     -31.149   8.460   2.755  1.00 20.00     0.312 C 
HETATM    5  C5  UNL     1     -32.453   8.915   0.793  1.00 20.00     0.312 C 
ENDBRANCH   2   3
ENDBRANCH   1   2
BRANCH   1   6
HETATM    6  C7  UNL     1     -34.257   6.615   3.567  1.00 20.00     0.052 C 
HETATM    7  C1  UNL     1     -33.805   7.550   4.688  1.00 20.00     0.045 C 
HETATM    8  C2  UNL     1     -35.775   6.454   3.581  1.00 20.00     0.045 C 
HETATM    9  C3  UNL     1     -33.570   5.256   3.683  1.00 20.00     0.045 C 
ENDBRANCH   1   6
TORSDOF 3
ENDMDL
MODEL 8
REMARK VINA RESULT:       0.7      1.692      4.083
REMARK  3 active torsions:
REMARK  status: ('A' for Active; 'I' for Inactive)
REMARK    1  A    between atoms: C6_6  and  N8_8 
REMARK    2  A    between atoms: C6_6  and  O9_9 
REMARK    3  A    between atoms: C7_7  and  O9_9 
ROOT
HETATM    1  O9  UNL     1     -33.903   6.106   2.848  1.00 20.00    -0.352 OA
ENDROOT
BRANCH   1   2
HETATM    2  C6  UNL     1     -33.088   7.262   2.621  1.00 20.00     0.440 C 
BRANCH   2   3
HETATM    3  N8  UNL     1     -32.285   7.141   1.395  1.00 20.00     0.102 N 
HETATM    4  C4  UNL     1     -31.865   5.753   1.200  1.00 20.00     0.312 C 
HETATM    5  C5  UNL     1     -31.113   8.018   1.447  1.00 20.00     0.312 C 
ENDBRANCH   2   3
ENDBRANCH   1   2
BRANCH   1   6
HETATM    6  C7  UNL     1     -34.881   6.338   3.854  1.00 20.00     0.052 C 
HETATM    7  C1  UNL     1     -36.187   6.749   3.175  1.00 20.00     0.045 C 
HETATM    8  C2  UNL     1     -35.064   5.036   4.628  1.00 20.00     0.045 C 
HETATM    9  C3  UNL     1     -34.376   7.447   4.776  1.00 20.00     0.045 C 
ENDBRANCH   1   6
TORSDOF 3
ENDMDL
MODEL 9
REMARK VINA RESULT:       0.8      1.718      2.779
REMARK  3 active torsions:
REMARK  status: ('A' for Active; 'I' for Inactive)
REMARK    1  A    between atoms: C6_6  and  N8_8 
REMARK    2  A    between atoms: C6_6  and  O9_9 
REMARK    3  A    between atoms: C7_7  and  O9_9 
ROOT
HETATM    1  O9  UNL     1     -33.248   5.983   2.550  1.00 20.00    -0.352 OA
ENDROOT
BRANCH   1   2
HETATM    2  C6  UNL     1     -33.192   7.292   3.130  1.00 20.00     0.440 C 
BRANCH   2   3
HETATM    3  N8  UNL     1     -34.360   7.572   3.977  1.00 20.00     0.102 N 
HETATM    4  C4  UNL     1     -33.929   8.058   5.289  1.00 20.00     0.312 C 
HETATM    5  C5  UNL     1     -35.194   6.379   4.133  1.00 20.00     0.312 C 
ENDBRANCH   2   3
ENDBRANCH   1   2
BRANCH   1   6
HETATM    6  C7  UNL     1     -32.607   5.940   1.281  1.00 20.00     0.052 C 
HETATM    7  C1  UNL     1     -33.664   5.657   0.214  1.00 20.00     0.045 C 
HETATM    8  C2  UNL     1     -31.957   7.301   1.046  1.00 20.00     0.045 C 
HETATM    9  C3  UNL     1     -31.552   4.836   1.307  1.00 20.00     0.045 C 
ENDBRANCH   1   6
TORSDOF 3
ENDMDL
