MODEL 1
REMARK VINA RESULT:       0.1      0.000      0.000
REMARK  1 active torsions:
REMARK  status: ('A' for Active; 'I' for Inactive)
REMARK    1  A    between atoms: C6_6  and  C8_8 
ROOT
HETATM    1  C1  UNL     1     -34.269   7.076   3.469  1.00 20.00     0.144 C 
HETATM    2  C2  UNL     1     -35.238   6.051   4.024  1.00 20.00     0.079 C 
HETATM    3  C3  UNL     1     -34.514   4.775   4.422  1.00 20.00     0.007 C 
HETATM    4  C4  UNL     1     -33.667   4.226   3.280  1.00 20.00     0.002 C 
HETATM    5  C5  UNL     1     -32.657   5.268   2.803  1.00 20.00     0.026 C 
HETATM    6  C6  UNL     1     -33.299   6.604   2.375  1.00 20.00     0.114 C 
HETATM    7  C7  UNL     1     -34.080   6.457   1.059  1.00 20.00     0.033 C 
HETATM    8  O9  UNL     1     -34.332   8.251   3.831  1.00 20.00    -0.297 OA
ENDROOT
BRANCH   6   9
HETATM    9  C8  UNL     1     -32.187   7.645   2.174  1.00 20.00     0.401 C 
HETATM   10  F10 UNL     1     -31.808   8.133   3.361  1.00 20.00    -0.170 F 
HETATM   11  F11 UNL     1     -31.137   7.070   1.576  1.00 20.00    -0.170 F 
HETATM   12  F12 UNL     1     -32.640   8.645   1.409  1.00 20.00    -0.170 F 
ENDBRANCH   6   9
TORSDOF 1
ENDMDL
MODEL 2
REMARK VINA RESULT:       0.3      1.902      2.827
REMARK  1 active torsions:
REMARK  status: ('A' for Active; 'I' for Inactive)
REMARK    1  A    between atoms: C6_6  and  C8_8 
ROOT
HETATM    1  C1  UNL     1     -32.740   6.456   1.859  1.00 20.00     0.144 C 
HETATM    2  C2  UNL     1     -33.267   5.600   2.993  1.00 20.00     0.079 C 
HETATM    3  C3  UNL     1     -34.486   6.239   3.638  1.00 20.00     0.007 C 
HETATM    4  C4  UNL     1     -34.211   7.677   4.065  1.00 20.00     0.002 C 
HETATM    5  C5  UNL     1     -33.753   8.517   2.874  1.00 20.00     0.026 C 
HETATM    6  C6  UNL     1     -32.515   7.947   2.151  1.00 20.00     0.114 C 
HETATM    7  C7  UNL     1     -31.247   8.094   3.006  1.00 20.00     0.033 C 
HETATM    8  O9  UNL     1     -32.429   5.941   0.784  1.00 20.00    -0.297 OA
ENDROOT
BRANCH   6   9
HETATM    9  C8  UNL     1     -32.314   8.716   0.835  1.00 20.00     0.401 C 
HETATM   10  F10 UNL     1     -31.065   8.531   0.394  1.00 20.00    -0.170 F 
HETATM   11  F11 UNL     1     -33.179   8.268  -0.083  1.00 20.00    -0.170 F 
HETATM   12  F12 UNL     1     -32.523  10.021   1.041  1.00 20.00    -0.170 F 
ENDBRANCH   6   9
TORSDOF 1
ENDMDL
MODEL 3
REMARK VINA RESULT:       0.3      1.902      2.947
REMARK  1 active torsions:
REMARK  status: ('A' for Active; 'I' for Inactive)
REMARK    1  A    between atoms: C6_6  and  C8_8 
ROOT
HETATM    1  C1  UNL     1     -32.737   6.456   1.858  1.00 20.00     0.144 C 
HETATM    2  C2  UNL     1     -33.266   5.601   2.993  1.00 20.00     0.079 C 
HETATM    3  C3  UNL     1     -34.485   6.241   3.636  1.00 20.00     0.007 C 
HETATM    4  C4  UNL     1     -34.211   7.679   4.061  1.00 20.00     0.002 C 
HETATM    5  C5  UNL     1     -33.751   8.518   2.870  1.00 20.00     0.026 C 
HETATM    6  C6  UNL     1     -32.513   7.947   2.148  1.00 20.00     0.114 C 
HETATM    7  C7  UNL     1     -31.245   8.094   3.005  1.00 20.00     0.033 C 
HETATM    8  O9  UNL     1     -32.425   5.940   0.784  1.00 20.00    -0.297 OA
ENDROOT
BRANCH   6   9
HETATM    9  C8  UNL     1     -32.310   8.714   0.832  1.00 20.00     0.401 C 
HETATM   10  F10 UNL     1     -33.176   8.269  -0.085  1.00 20.00    -0.170 F 
HETATM   11  F11 UNL     1     -32.514  10.020   1.038  1.00 20.00    -0.170 F 
HETATM   12  F12 UNL     1     -31.061   8.526   0.391  1.00 20.00    -0.170 F 
ENDBRANCH   6   9
TORSDOF 1
ENDMDL
MODEL 4
REMARK VINA RESULT:       0.3      1.901      2.763
REMARK  1 active torsions:
REMARK  status: ('A' for Active; 'I' for Inactive)
REMARK    1  A    between atoms: C6_6  and  C8_8 
ROOT
HETATM    1  C1  UNL     1     -32.747   6.457   1.861  1.00 20.00     0.144 C 
HETATM    2  C2  UNL     1     -33.272   5.602   2.997  1.00 20.00     0.079 C 
HETATM    3  C3  UNL     1     -34.488   6.245   3.646  1.00 20.00     0.007 C 
HETATM    4  C4  UNL     1     -34.208   7.682   4.071  1.00 20.00     0.002 C 
HETATM    5  C5  UNL     1     -33.752   8.521   2.878  1.00 20.00     0.026 C 
HETATM    6  C6  UNL     1     -32.518   7.948   2.152  1.00 20.00     0.114 C 
HETATM    7  C7  UNL     1     -31.247   8.091   3.003  1.00 20.00     0.033 C 
HETATM    8  O9  UNL     1     -32.440   5.941   0.785  1.00 20.00    -0.297 OA
ENDROOT
BRANCH   6   9
HETATM    9  C8  UNL     1     -32.319   8.715   0.835  1.00 20.00     0.401 C 
HETATM   10  F10 UNL     1     -32.532  10.020   1.039  1.00 20.00    -0.170 F 
HETATM   11  F11 UNL     1     -31.068   8.534   0.395  1.00 20.00    -0.170 F 
HETATM   12  F12 UNL     1     -33.181   8.264  -0.083  1.00 20.00    -0.170 F 
ENDBRANCH   6   9
TORSDOF 1
ENDMDL
MODEL 5
REMARK VINA RESULT:       0.6      2.474      3.650
REMARK  1 active torsions:
REMARK  status: ('A' for Active; 'I' for Inactive)
REMARK    1  A    between atoms: C6_6  and  C8_8 
ROOT
HETATM    1  C1  UNL     1     -33.151   7.490   3.731  1.00 20.00     0.144 C 
HETATM    2  C2  UNL     1     -31.889   7.842   2.970  1.00 20.00     0.079 C 
HETATM    3  C3  UNL     1     -32.111   7.743   1.469  1.00 20.00     0.007 C 
HETATM    4  C4  UNL     1     -32.680   6.385   1.071  1.00 20.00     0.002 C 
HETATM    5  C5  UNL     1     -33.989   6.108   1.809  1.00 20.00     0.026 C 
HETATM    6  C6  UNL     1     -33.863   6.185   3.345  1.00 20.00     0.114 C 
HETATM    7  C7  UNL     1     -33.057   5.003   3.904  1.00 20.00     0.033 C 
HETATM    8  O9  UNL     1     -33.524   8.189   4.675  1.00 20.00    -0.297 OA
ENDROOT
BRANCH   6   9
HETATM    9  C8  UNL     1     -35.273   6.154   3.958  1.00 20.00     0.401 C 
HETATM   10  F10 UNL     1     -36.165   6.570   3.052  1.00 20.00    -0.170 F 
HETATM   11  F11 UNL     1     -35.571   4.906   4.334  1.00 20.00    -0.170 F 
HETATM   12  F12 UNL     1     -35.316   6.961   5.025  1.00 20.00    -0.170 F 
ENDBRANCH   6   9
TORSDOF 1
ENDMDL
MODEL 6
REMARK VINA RESULT:       1.0      1.762      2.418
REMARK  1 active torsions:
REMARK  status: ('A' for Active; 'I' for Inactive)
REMARK    1  A    between atoms: C6_6  and  C8_8 
ROOT
HETATM    1  C1  UNL     1     -32.752   7.477   2.380  1.00 20.00     0.144 C 
HETATM    2  C2  UNL     1     -33.760   8.175   3.270  1.00 20.00     0.079 C 
HETATM    3  C3  UNL     1     -34.249   7.248   4.372  1.00 20.00     0.007 C 
HETATM    4  C4  UNL     1     -34.773   5.931   3.811  1.00 20.00     0.002 C 
HETATM    5  C5  UNL     1     -33.698   5.230   2.982  1.00 20.00     0.026 C 
HETATM    6  C6  UNL     1     -33.137   6.094   1.834  1.00 20.00     0.114 C 
HETATM    7  C7  UNL     1     -34.172   6.281   0.713  1.00 20.00     0.033 C 
HETATM    8  O9  UNL     1     -31.712   8.049   2.050  1.00 20.00    -0.297 OA
ENDROOT
BRANCH   6   9
HETATM    9  C8  UNL     1     -31.899   5.396   1.249  1.00 20.00     0.401 C 
HETATM   10  F10 UNL     1     -31.224   4.784   2.228  1.00 20.00    -0.170 F 
HETATM   11  F11 UNL     1     -32.281   4.491   0.341  1.00 20.00    -0.170 F 
HETATM   12  F12 UNL     1     -31.107   6.302   0.664  1.00 20.00    -0.170 F 
ENDBRANCH   6   9
TORSDOF 1
ENDMDL
MODEL 7
REMARK VINA RESULT:       1.2      2.789      3.918
REMARK  1 active torsions:
REMARK  status: ('A' for Active; 'I' for Inactive)
REMARK    1  A    between atoms: C6_6  and  C8_8 
ROOT
HETATM    1  C1  UNL     1     -33.172   6.173   2.290  1.00 20.00     0.144 C 
HETATM    2  C2  UNL     1     -32.691   7.537   1.834  1.00 20.00     0.079 C 
HETATM    3  C3  UNL     1     -32.147   8.342   3.003  1.00 20.00     0.007 C 
HETATM    4  C4  UNL     1     -33.149   8.424   4.149  1.00 20.00     0.002 C 
HETATM    5  C5  UNL     1     -33.547   7.026   4.622  1.00 20.00     0.026 C 
HETATM    6  C6  UNL     1     -34.115   6.130   3.501  1.00 20.00     0.114 C 
HETATM    7  C7  UNL     1     -35.508   6.601   3.055  1.00 20.00     0.033 C 
HETATM    8  O9  UNL     1     -32.877   5.164   1.649  1.00 20.00    -0.297 OA
ENDROOT
BRANCH   6   9
HETATM    9  C8  UNL     1     -34.227   4.691   4.029  1.00 20.00     0.401 C 
HETATM   10  F10 UNL     1     -33.145   4.394   4.758  1.00 20.00    -0.170 F 
HETATM   11  F11 UNL     1     -35.320   4.577   4.793  1.00 20.00    -0.170 F 
HETATM   12  F12 UNL     1     -34.314   3.840   3.000  1.00 20.00    -0.170 F 
ENDBRANCH   6   9
TORSDOF 1
ENDMDL
MODEL 8
REMARK VINA RESULT:       2.1      2.575      3.895
REMARK  1 active torsions:
REMARK  status: ('A' for Active; 'I' for Inactive)
REMARK    1  A    between atoms: C6_6  and  C8_8 
ROOT
HETATM    1  C1  UNL     1     -33.151   7.025   2.229  1.00 20.00     0.144 C 
HETATM    2  C2  UNL     1     -32.003   7.900   1.765  1.00 20.00     0.079 C 
HETATM    3  C3  UNL     1     -31.091   8.263   2.925  1.00 20.00     0.007 C 
HETATM    4  C4  UNL     1     -31.867   8.878   4.084  1.00 20.00     0.002 C 
HETATM    5  C5  UNL     1     -32.965   7.929   4.564  1.00 20.00     0.026 C 
HETATM    6  C6  UNL     1     -33.946   7.502   3.453  1.00 20.00     0.114 C 
HETATM    7  C7  UNL     1     -34.853   8.667   3.025  1.00 20.00     0.033 C 
HETATM    8  O9  UNL     1     -33.470   6.025   1.585  1.00 20.00    -0.297 OA
ENDROOT
BRANCH   6   9
HETATM    9  C8  UNL     1     -34.828   6.361   3.985  1.00 20.00     0.401 C 
HETATM   10  F10 UNL     1     -35.940   6.271   3.246  1.00 20.00    -0.170 F 
HETATM   11  F11 UNL     1     -34.156   5.206   3.916  1.00 20.00    -0.170 F 
HETATM   12  F12 UNL     1     -35.160   6.605   5.258  1.00 20.00    -0.170 F 
ENDBRANCH   6   9
TORSDOF 1
ENDMDL
MODEL 9
REMARK VINA RESULT:       2.4      2.343      3.669
REMARK  1 active torsions:
REMARK  status: ('A' for Active; 'I' for Inactive)
REMARK    1  A    between atoms: C6_6  and  C8_8 
ROOT
HETATM    1  C1  UNL     1     -32.696   7.601   3.615  1.00 20.00     0.144 C 
HETATM    2  C2  UNL     1     -31.547   8.021   2.720  1.00 20.00     0.079 C 
HETATM    3  C3  UNL     1     -32.041   8.370   1.326  1.00 20.00     0.007 C 
HETATM    4  C4  UNL     1     -32.876   7.246   0.723  1.00 20.00     0.002 C 
HETATM    5  C5  UNL     1     -34.062   6.908   1.625  1.00 20.00     0.026 C 
HETATM    6  C6  UNL     1     -33.660   6.538   3.067  1.00 20.00     0.114 C 
HETATM    7  C7  UNL     1     -32.963   5.169   3.123  1.00 20.00     0.033 C 
HETATM    8  O9  UNL     1     -32.784   8.041   4.762  1.00 20.00    -0.297 OA
ENDROOT
BRANCH   6   9
HETATM    9  C8  UNL     1     -34.927   6.480   3.934  1.00 20.00     0.401 C 
HETATM   10  F10 UNL     1     -35.043   7.613   4.636  1.00 20.00    -0.170 F 
HETATM   11  F11 UNL     1     -36.001   6.334   3.150  1.00 20.00    -0.170 F 
HETATM   12  F12 UNL     1     -34.849   5.444   4.777  1.00 20.00    -0.170 F 
ENDBRANCH   6   9
TORSDOF 1
ENDMDL
