MODEL 1
REMARK VINA RESULT:      -3.4      0.000      0.000
REMARK  3 active torsions:
REMARK  status: ('A' for Active; 'I' for Inactive)
REMARK    1  A    between atoms: C3_3  and  C6_6 
REMARK    2  A    between atoms: C3_3  and  C7_7 
REMARK    3  A    between atoms: C5_5  and  C7_7 
ROOT
HETATM    1  C1  UNL     1     -32.682  10.492  -0.083  1.00 20.00     0.012 C 
HETATM    2  C2  UNL     1     -32.283   9.483   0.430  1.00 20.00    -0.117 C 
HETATM    3  C5  UNL     1     -31.794   8.244   1.055  1.00 20.00     0.100 C 
ENDROOT
BRANCH   3   4
HETATM    4  C7  UNL     1     -32.237   8.127   2.511  1.00 20.00     0.090 C 
BRANCH   4   5
HETATM    5  C3  UNL     1     -33.243   7.011   2.762  1.00 20.00     0.127 C 
HETATM    6  O8  UNL     1     -33.253   5.972   2.103  1.00 20.00    -0.298 OA
BRANCH   5   7
HETATM    7  C6  UNL     1     -34.222   7.257   3.899  1.00 20.00     0.074 C 
HETATM    8  C4  UNL     1     -35.323   6.214   3.961  1.00 20.00     0.013 C 
ENDBRANCH   5   7
ENDBRANCH   4   5
ENDBRANCH   3   4
TORSDOF 3
ENDMDL
MODEL 2
REMARK VINA RESULT:      -3.1      1.260      1.446
REMARK  3 active torsions:
REMARK  status: ('A' for Active; 'I' for Inactive)
REMARK    1  A    between atoms: C3_3  and  C6_6 
REMARK    2  A    between atoms: C3_3  and  C7_7 
REMARK    3  A    between atoms: C5_5  and  C7_7 
ROOT
HETATM    1  C1  UNL     1     -32.547   9.870   0.152  1.00 20.00     0.012 C 
HETATM    2  C2  UNL     1     -32.275   9.017   0.952  1.00 20.00    -0.117 C 
HETATM    3  C5  UNL     1     -31.938   7.972   1.932  1.00 20.00     0.100 C 
ENDROOT
BRANCH   3   4
HETATM    4  C7  UNL     1     -33.117   7.041   2.199  1.00 20.00     0.090 C 
BRANCH   4   5
HETATM    5  C3  UNL     1     -33.773   7.250   3.558  1.00 20.00     0.127 C 
HETATM    6  O8  UNL     1     -33.253   7.929   4.443  1.00 20.00    -0.298 OA
BRANCH   5   7
HETATM    7  C6  UNL     1     -35.126   6.582   3.742  1.00 20.00     0.074 C 
HETATM    8  C4  UNL     1     -35.016   5.185   4.325  1.00 20.00     0.013 C 
ENDBRANCH   5   7
ENDBRANCH   4   5
ENDBRANCH   3   4
TORSDOF 3
ENDMDL
MODEL 3
REMARK VINA RESULT:      -2.9      1.258      4.562
REMARK  3 active torsions:
REMARK  status: ('A' for Active; 'I' for Inactive)
REMARK    1  A    between atoms: C3_3  and  C6_6 
REMARK    2  A    between atoms: C3_3  and  C7_7 
REMARK    3  A    between atoms: C5_5  and  C7_7 
ROOT
HETATM    1  C1  UNL     1     -33.908   3.792   4.352  1.00 20.00     0.012 C 
HETATM    2  C2  UNL     1     -34.350   4.876   4.087  1.00 20.00    -0.117 C 
HETATM    3  C5  UNL     1     -34.894   6.204   3.762  1.00 20.00     0.100 C 
ENDROOT
BRANCH   3   4
HETATM    4  C7  UNL     1     -33.790   7.240   3.566  1.00 20.00     0.090 C 
BRANCH   4   5
HETATM    5  C3  UNL     1     -32.936   7.004   2.327  1.00 20.00     0.127 C 
HETATM    6  O8  UNL     1     -33.077   6.015   1.608  1.00 20.00    -0.298 OA
BRANCH   5   7
HETATM    7  C6  UNL     1     -31.911   8.085   2.024  1.00 20.00     0.074 C 
HETATM    8  C4  UNL     1     -32.342   9.002   0.894  1.00 20.00     0.013 C 
ENDBRANCH   5   7
ENDBRANCH   4   5
ENDBRANCH   3   4
TORSDOF 3
ENDMDL
MODEL 4
REMARK VINA RESULT:      -2.9      2.302      4.860
REMARK  3 active torsions:
REMARK  status: ('A' for Active; 'I' for Inactive)
REMARK    1  A    between atoms: C3_3  and  C6_6 
REMARK    2  A    between atoms: C3_3  and  C7_7 
REMARK    3  A    between atoms: C5_5  and  C7_7 
ROOT
HETATM    1  C1  UNL     1     -33.517   3.370   4.305  1.00 20.00     0.012 C 
HETATM    2  C2  UNL     1     -34.297   4.278   4.397  1.00 20.00    -0.117 C 
HETATM    3  C5  UNL     1     -35.255   5.389   4.513  1.00 20.00     0.100 C 
ENDROOT
BRANCH   3   4
HETATM    4  C7  UNL     1     -35.023   6.454   3.444  1.00 20.00     0.090 C 
BRANCH   4   5
HETATM    5  C3  UNL     1     -33.823   7.352   3.718  1.00 20.00     0.127 C 
HETATM    6  O8  UNL     1     -33.669   7.936   4.790  1.00 20.00    -0.298 OA
BRANCH   5   7
HETATM    7  C6  UNL     1     -32.816   7.461   2.585  1.00 20.00     0.074 C 
HETATM    8  C4  UNL     1     -32.798   6.230   1.696  1.00 20.00     0.013 C 
ENDBRANCH   5   7
ENDBRANCH   4   5
ENDBRANCH   3   4
TORSDOF 3
ENDMDL
MODEL 5
REMARK VINA RESULT:      -2.8      2.201      3.336
REMARK  3 active torsions:
REMARK  status: ('A' for Active; 'I' for Inactive)
REMARK    1  A    between atoms: C3_3  and  C6_6 
REMARK    2  A    between atoms: C3_3  and  C7_7 
REMARK    3  A    between atoms: C5_5  and  C7_7 
ROOT
HETATM    1  C1  UNL     1     -32.076   7.796   1.812  1.00 20.00     0.012 C 
HETATM    2  C2  UNL     1     -32.807   7.644   2.752  1.00 20.00    -0.117 C 
HETATM    3  C5  UNL     1     -33.701   7.459   3.906  1.00 20.00     0.100 C 
ENDROOT
BRANCH   3   4
HETATM    4  C7  UNL     1     -34.900   6.578   3.562  1.00 20.00     0.090 C 
BRANCH   4   5
HETATM    5  C3  UNL     1     -34.836   5.184   4.173  1.00 20.00     0.127 C 
HETATM    6  O8  UNL     1     -35.702   4.759   4.937  1.00 20.00    -0.298 OA
BRANCH   5   7
HETATM    7  C6  UNL     1     -33.640   4.342   3.758  1.00 20.00     0.074 C 
HETATM    8  C4  UNL     1     -33.459   3.111   4.627  1.00 20.00     0.013 C 
ENDBRANCH   5   7
ENDBRANCH   4   5
ENDBRANCH   3   4
TORSDOF 3
ENDMDL
MODEL 6
REMARK VINA RESULT:      -2.6      1.619      1.842
REMARK  3 active torsions:
REMARK  status: ('A' for Active; 'I' for Inactive)
REMARK    1  A    between atoms: C3_3  and  C6_6 
REMARK    2  A    between atoms: C3_3  and  C7_7 
REMARK    3  A    between atoms: C5_5  and  C7_7 
ROOT
HETATM    1  C1  UNL     1     -32.332   9.692   0.447  1.00 20.00     0.012 C 
HETATM    2  C2  UNL     1     -32.350   8.703   1.127  1.00 20.00    -0.117 C 
HETATM    3  C5  UNL     1     -32.370   7.490   1.959  1.00 20.00     0.100 C 
ENDROOT
BRANCH   3   4
HETATM    4  C7  UNL     1     -33.238   7.666   3.203  1.00 20.00     0.090 C 
BRANCH   4   5
HETATM    5  C3  UNL     1     -34.161   6.487   3.483  1.00 20.00     0.127 C 
HETATM    6  O8  UNL     1     -35.297   6.632   3.932  1.00 20.00    -0.298 OA
BRANCH   5   7
HETATM    7  C6  UNL     1     -33.591   5.117   3.150  1.00 20.00     0.074 C 
HETATM    8  C4  UNL     1     -33.998   4.053   4.152  1.00 20.00     0.013 C 
ENDBRANCH   5   7
ENDBRANCH   4   5
ENDBRANCH   3   4
TORSDOF 3
ENDMDL
MODEL 7
REMARK VINA RESULT:      -2.6      1.326      4.520
REMARK  3 active torsions:
REMARK  status: ('A' for Active; 'I' for Inactive)
REMARK    1  A    between atoms: C3_3  and  C6_6 
REMARK    2  A    between atoms: C3_3  and  C7_7 
REMARK    3  A    between atoms: C5_5  and  C7_7 
ROOT
HETATM    1  C1  UNL     1     -35.413   5.404   4.373  1.00 20.00     0.012 C 
HETATM    2  C2  UNL     1     -34.757   6.332   3.987  1.00 20.00    -0.117 C 
HETATM    3  C5  UNL     1     -33.954   7.472   3.517  1.00 20.00     0.100 C 
ENDROOT
BRANCH   3   4
HETATM    4  C7  UNL     1     -33.123   7.115   2.288  1.00 20.00     0.090 C 
BRANCH   4   5
HETATM    5  C3  UNL     1     -32.048   8.141   1.951  1.00 20.00     0.127 C 
HETATM    6  O8  UNL     1     -31.215   8.517   2.774  1.00 20.00    -0.298 OA
BRANCH   5   7
HETATM    7  C6  UNL     1     -32.060   8.654   0.520  1.00 20.00     0.074 C 
HETATM    8  C4  UNL     1     -32.465  10.114   0.423  1.00 20.00     0.013 C 
ENDBRANCH   5   7
ENDBRANCH   4   5
ENDBRANCH   3   4
TORSDOF 3
ENDMDL
MODEL 8
REMARK VINA RESULT:      -2.6      2.241      4.535
REMARK  3 active torsions:
REMARK  status: ('A' for Active; 'I' for Inactive)
REMARK    1  A    between atoms: C3_3  and  C6_6 
REMARK    2  A    between atoms: C3_3  and  C7_7 
REMARK    3  A    between atoms: C5_5  and  C7_7 
ROOT
HETATM    1  C1  UNL     1     -33.939   3.836   4.381  1.00 20.00     0.012 C 
HETATM    2  C2  UNL     1     -34.410   4.908   4.115  1.00 20.00    -0.117 C 
HETATM    3  C5  UNL     1     -34.990   6.220   3.787  1.00 20.00     0.100 C 
ENDROOT
BRANCH   3   4
HETATM    4  C7  UNL     1     -33.948   7.333   3.842  1.00 20.00     0.090 C 
BRANCH   4   5
HETATM    5  C3  UNL     1     -33.003   7.353   2.647  1.00 20.00     0.127 C 
HETATM    6  O8  UNL     1     -32.092   8.173   2.540  1.00 20.00    -0.298 OA
BRANCH   5   7
HETATM    7  C6  UNL     1     -33.247   6.275   1.603  1.00 20.00     0.074 C 
HETATM    8  C4  UNL     1     -31.997   5.477   1.280  1.00 20.00     0.013 C 
ENDBRANCH   5   7
ENDBRANCH   4   5
ENDBRANCH   3   4
TORSDOF 3
ENDMDL
MODEL 9
REMARK VINA RESULT:      -2.3      1.865      2.627
REMARK  3 active torsions:
REMARK  status: ('A' for Active; 'I' for Inactive)
REMARK    1  A    between atoms: C3_3  and  C6_6 
REMARK    2  A    between atoms: C3_3  and  C7_7 
REMARK    3  A    between atoms: C5_5  and  C7_7 
ROOT
HETATM    1  C1  UNL     1     -31.755   8.104   1.574  1.00 20.00     0.012 C 
HETATM    2  C2  UNL     1     -32.356   7.065   1.609  1.00 20.00    -0.117 C 
HETATM    3  C5  UNL     1     -33.093   5.792   1.650  1.00 20.00     0.100 C 
ENDROOT
BRANCH   3   4
HETATM    4  C7  UNL     1     -33.054   5.155   3.036  1.00 20.00     0.090 C 
BRANCH   4   5
HETATM    5  C3  UNL     1     -34.363   5.272   3.806  1.00 20.00     0.127 C 
HETATM    6  O8  UNL     1     -34.873   4.316   4.388  1.00 20.00    -0.298 OA
BRANCH   5   7
HETATM    7  C6  UNL     1     -34.986   6.658   3.828  1.00 20.00     0.074 C 
HETATM    8  C4  UNL     1     -34.115   7.683   4.531  1.00 20.00     0.013 C 
ENDBRANCH   5   7
ENDBRANCH   4   5
ENDBRANCH   3   4
TORSDOF 3
ENDMDL
