MODEL 1
REMARK VINA RESULT:      -1.2      0.000      0.000
REMARK  5 active torsions:
REMARK  status: ('A' for Active; 'I' for Inactive)
REMARK    1  A    between atoms: C5_5  and  C9_9 
REMARK    2  A    between atoms: C6_6  and  C9_9 
REMARK    3  A    between atoms: C7_7  and  N11_11 
REMARK    4  A    between atoms: C8_8  and  N11_11 
REMARK    5  A    between atoms: C9_9  and  N11_11 
ROOT
HETATM    1  C1  UNL     1     -33.769   3.967   4.191  1.00 20.00     0.061 C 
HETATM    2  C5  UNL     1     -34.375   5.040   3.387  1.00 20.00     0.159 C 
HETATM    3  N10 UNL     1     -33.293   3.119   4.824  1.00 20.00    -0.197 NA
ENDROOT
BRANCH   2   4
HETATM    4  C9  UNL     1     -33.515   6.315   3.379  1.00 20.00     0.235 C 
BRANCH   4   5
HETATM    5  C6  UNL     1     -34.226   7.489   4.082  1.00 20.00     0.032 C 
HETATM    6  C2  UNL     1     -33.340   8.240   5.069  1.00 20.00     0.007 C 
ENDBRANCH   4   5
BRANCH   4   7
HETATM    7  N11 UNL     1     -33.217   6.662   1.986  1.00 20.00     0.093 N 
BRANCH   7   8
HETATM    8  C7  UNL     1     -33.075   5.449   1.181  1.00 20.00     0.268 C 
HETATM    9  C3  UNL     1     -31.640   5.083   1.009  1.00 20.00     0.037 C 
ENDBRANCH   7   8
BRANCH   7  10
HETATM   10  C8  UNL     1     -32.005   7.474   1.911  1.00 20.00     0.268 C 
HETATM   11  C4  UNL     1     -32.250   8.736   1.156  1.00 20.00     0.037 C 
ENDBRANCH   7  10
ENDBRANCH   4   7
ENDBRANCH   2   4
TORSDOF 5
ENDMDL
MODEL 2
REMARK VINA RESULT:      -1.0      1.193      3.848
REMARK  5 active torsions:
REMARK  status: ('A' for Active; 'I' for Inactive)
REMARK    1  A    between atoms: C5_5  and  C9_9 
REMARK    2  A    between atoms: C6_6  and  C9_9 
REMARK    3  A    between atoms: C7_7  and  N11_11 
REMARK    4  A    between atoms: C8_8  and  N11_11 
REMARK    5  A    between atoms: C9_9  and  N11_11 
ROOT
HETATM    1  C1  UNL     1     -32.266   8.893   1.240  1.00 20.00     0.061 C 
HETATM    2  C5  UNL     1     -32.176   8.036   2.433  1.00 20.00     0.159 C 
HETATM    3  N10 UNL     1     -32.334   9.569   0.300  1.00 20.00    -0.197 NA
ENDROOT
BRANCH   2   4
HETATM    4  C9  UNL     1     -33.500   7.313   2.729  1.00 20.00     0.235 C 
BRANCH   4   5
HETATM    5  C6  UNL     1     -34.104   7.754   4.078  1.00 20.00     0.032 C 
HETATM    6  C2  UNL     1     -33.077   8.317   5.054  1.00 20.00     0.007 C 
ENDBRANCH   4   5
BRANCH   4   7
HETATM    7  N11 UNL     1     -33.244   5.869   2.734  1.00 20.00     0.093 N 
BRANCH   7   8
HETATM    8  C7  UNL     1     -33.204   5.357   1.365  1.00 20.00     0.268 C 
HETATM    9  C3  UNL     1     -31.821   4.954   0.982  1.00 20.00     0.037 C 
ENDBRANCH   7   8
BRANCH   7  10
HETATM   10  C8  UNL     1     -34.265   5.174   3.514  1.00 20.00     0.268 C 
HETATM   11  C4  UNL     1     -33.735   3.901   4.081  1.00 20.00     0.037 C 
ENDBRANCH   7  10
ENDBRANCH   4   7
ENDBRANCH   2   4
TORSDOF 5
ENDMDL
MODEL 3
REMARK VINA RESULT:      -0.4      1.293      3.733
REMARK  5 active torsions:
REMARK  status: ('A' for Active; 'I' for Inactive)
REMARK    1  A    between atoms: C5_5  and  C9_9 
REMARK    2  A    between atoms: C6_6  and  C9_9 
REMARK    3  A    between atoms: C7_7  and  N11_11 
REMARK    4  A    between atoms: C8_8  and  N11_11 
REMARK    5  A    between atoms: C9_9  and  N11_11 
ROOT
HETATM    1  C1  UNL     1     -32.309   8.764   1.270  1.00 20.00     0.061 C 
HETATM    2  C5  UNL     1     -32.309   7.788   2.371  1.00 20.00     0.159 C 
HETATM    3  N10 UNL     1     -32.306   9.533   0.401  1.00 20.00    -0.197 NA
ENDROOT
BRANCH   2   4
HETATM    4  C9  UNL     1     -33.731   7.342   2.751  1.00 20.00     0.235 C 
BRANCH   4   5
HETATM    5  C6  UNL     1     -34.076   7.709   4.209  1.00 20.00     0.032 C 
HETATM    6  C2  UNL     1     -32.923   8.358   4.966  1.00 20.00     0.007 C 
ENDBRANCH   4   5
BRANCH   4   7
HETATM    7  N11 UNL     1     -33.826   5.892   2.554  1.00 20.00     0.093 N 
BRANCH   7   8
HETATM    8  C7  UNL     1     -34.345   5.250   3.760  1.00 20.00     0.268 C 
HETATM    9  C3  UNL     1     -33.720   3.912   3.968  1.00 20.00     0.037 C 
ENDBRANCH   7   8
BRANCH   7  10
HETATM   10  C8  UNL     1     -32.521   5.340   2.198  1.00 20.00     0.268 C 
HETATM   11  C4  UNL     1     -32.470   4.970   0.754  1.00 20.00     0.037 C 
ENDBRANCH   7  10
ENDBRANCH   4   7
ENDBRANCH   2   4
TORSDOF 5
ENDMDL
MODEL 4
REMARK VINA RESULT:      -0.3      0.749      2.844
REMARK  5 active torsions:
REMARK  status: ('A' for Active; 'I' for Inactive)
REMARK    1  A    between atoms: C5_5  and  C9_9 
REMARK    2  A    between atoms: C6_6  and  C9_9 
REMARK    3  A    between atoms: C7_7  and  N11_11 
REMARK    4  A    between atoms: C8_8  and  N11_11 
REMARK    5  A    between atoms: C9_9  and  N11_11 
ROOT
HETATM    1  C1  UNL     1     -33.965   4.068   4.180  1.00 20.00     0.061 C 
HETATM    2  C5  UNL     1     -34.484   5.412   3.883  1.00 20.00     0.159 C 
HETATM    3  N10 UNL     1     -33.558   3.008   4.416  1.00 20.00    -0.197 NA
ENDROOT
BRANCH   2   4
HETATM    4  C9  UNL     1     -33.855   6.010   2.613  1.00 20.00     0.235 C 
BRANCH   4   5
HETATM    5  C6  UNL     1     -32.509   5.339   2.272  1.00 20.00     0.032 C 
HETATM    6  C2  UNL     1     -32.361   4.979   0.798  1.00 20.00     0.007 C 
ENDBRANCH   4   5
BRANCH   4   7
HETATM    7  N11 UNL     1     -33.668   7.449   2.826  1.00 20.00     0.093 N 
BRANCH   7   8
HETATM    8  C7  UNL     1     -32.284   7.827   2.546  1.00 20.00     0.268 C 
HETATM    9  C3  UNL     1     -32.187   8.621   1.288  1.00 20.00     0.037 C 
ENDBRANCH   7   8
BRANCH   7  10
HETATM   10  C8  UNL     1     -34.035   7.813   4.192  1.00 20.00     0.268 C 
HETATM   11  C4  UNL     1     -32.868   8.375   4.931  1.00 20.00     0.037 C 
ENDBRANCH   7  10
ENDBRANCH   4   7
ENDBRANCH   2   4
TORSDOF 5
ENDMDL
MODEL 5
REMARK VINA RESULT:      -0.3      0.825      2.156
REMARK  5 active torsions:
REMARK  status: ('A' for Active; 'I' for Inactive)
REMARK    1  A    between atoms: C5_5  and  C9_9 
REMARK    2  A    between atoms: C6_6  and  C9_9 
REMARK    3  A    between atoms: C7_7  and  N11_11 
REMARK    4  A    between atoms: C8_8  and  N11_11 
REMARK    5  A    between atoms: C9_9  and  N11_11 
ROOT
HETATM    1  C1  UNL     1     -33.477   3.603   4.254  1.00 20.00     0.061 C 
HETATM    2  C5  UNL     1     -33.948   4.592   3.271  1.00 20.00     0.159 C 
HETATM    3  N10 UNL     1     -33.108   2.822   5.028  1.00 20.00    -0.197 NA
ENDROOT
BRANCH   2   4
HETATM    4  C9  UNL     1     -33.307   5.973   3.485  1.00 20.00     0.235 C 
BRANCH   4   5
HETATM    5  C6  UNL     1     -34.359   7.043   3.843  1.00 20.00     0.032 C 
HETATM    6  C2  UNL     1     -35.787   6.512   3.874  1.00 20.00     0.007 C 
ENDBRANCH   4   5
BRANCH   4   7
HETATM    7  N11 UNL     1     -32.599   6.347   2.256  1.00 20.00     0.093 N 
BRANCH   7   8
HETATM    8  C7  UNL     1     -32.848   7.751   1.934  1.00 20.00     0.268 C 
HETATM    9  C3  UNL     1     -31.607   8.419   1.446  1.00 20.00     0.037 C 
ENDBRANCH   7   8
BRANCH   7  10
HETATM   10  C8  UNL     1     -33.009   5.485   1.150  1.00 20.00     0.268 C 
HETATM   11  C4  UNL     1     -31.838   4.780   0.555  1.00 20.00     0.037 C 
ENDBRANCH   7  10
ENDBRANCH   4   7
ENDBRANCH   2   4
TORSDOF 5
ENDMDL
MODEL 6
REMARK VINA RESULT:      -0.1      1.393      4.366
REMARK  5 active torsions:
REMARK  status: ('A' for Active; 'I' for Inactive)
REMARK    1  A    between atoms: C5_5  and  C9_9 
REMARK    2  A    between atoms: C6_6  and  C9_9 
REMARK    3  A    between atoms: C7_7  and  N11_11 
REMARK    4  A    between atoms: C8_8  and  N11_11 
REMARK    5  A    between atoms: C9_9  and  N11_11 
ROOT
HETATM    1  C1  UNL     1     -32.241   8.587   1.277  1.00 20.00     0.061 C 
HETATM    2  C5  UNL     1     -32.739   8.047   2.552  1.00 20.00     0.159 C 
HETATM    3  N10 UNL     1     -31.848   9.016   0.274  1.00 20.00    -0.197 NA
ENDROOT
BRANCH   2   4
HETATM    4  C9  UNL     1     -32.593   6.518   2.631  1.00 20.00     0.235 C 
BRANCH   4   5
HETATM    5  C6  UNL     1     -32.989   5.836   1.306  1.00 20.00     0.032 C 
HETATM    6  C2  UNL     1     -31.891   4.956   0.718  1.00 20.00     0.007 C 
ENDBRANCH   4   5
BRANCH   4   7
HETATM    7  N11 UNL     1     -33.437   6.031   3.727  1.00 20.00     0.093 N 
BRANCH   7   8
HETATM    8  C7  UNL     1     -34.024   4.739   3.379  1.00 20.00     0.268 C 
HETATM    9  C3  UNL     1     -33.634   3.688   4.362  1.00 20.00     0.037 C 
ENDBRANCH   7   8
BRANCH   7  10
HETATM   10  C8  UNL     1     -34.481   7.005   4.036  1.00 20.00     0.268 C 
HETATM   11  C4  UNL     1     -35.832   6.466   3.708  1.00 20.00     0.037 C 
ENDBRANCH   7  10
ENDBRANCH   4   7
ENDBRANCH   2   4
TORSDOF 5
ENDMDL
MODEL 7
REMARK VINA RESULT:      -0.0      1.709      4.809
REMARK  5 active torsions:
REMARK  status: ('A' for Active; 'I' for Inactive)
REMARK    1  A    between atoms: C5_5  and  C9_9 
REMARK    2  A    between atoms: C6_6  and  C9_9 
REMARK    3  A    between atoms: C7_7  and  N11_11 
REMARK    4  A    between atoms: C8_8  and  N11_11 
REMARK    5  A    between atoms: C9_9  and  N11_11 
ROOT
HETATM    1  C1  UNL     1     -32.243   9.069   0.801  1.00 20.00     0.061 C 
HETATM    2  C5  UNL     1     -31.825   8.506   2.095  1.00 20.00     0.159 C 
HETATM    3  N10 UNL     1     -32.570   9.516  -0.218  1.00 20.00    -0.197 NA
ENDROOT
BRANCH   2   4
HETATM    4  C9  UNL     1     -32.427   7.113   2.342  1.00 20.00     0.235 C 
BRANCH   4   5
HETATM    5  C6  UNL     1     -32.554   6.303   1.035  1.00 20.00     0.032 C 
HETATM    6  C2  UNL     1     -31.760   5.002   1.042  1.00 20.00     0.007 C 
ENDBRANCH   4   5
BRANCH   4   7
HETATM    7  N11 UNL     1     -33.745   7.284   2.964  1.00 20.00     0.093 N 
BRANCH   7   8
HETATM    8  C7  UNL     1     -33.710   8.380   3.932  1.00 20.00     0.268 C 
HETATM    9  C3  UNL     1     -33.074   7.948   5.209  1.00 20.00     0.037 C 
ENDBRANCH   7   8
BRANCH   7  10
HETATM   10  C8  UNL     1     -34.169   6.043   3.607  1.00 20.00     0.268 C 
HETATM   11  C4  UNL     1     -35.608   6.102   3.992  1.00 20.00     0.037 C 
ENDBRANCH   7  10
ENDBRANCH   4   7
ENDBRANCH   2   4
TORSDOF 5
ENDMDL
MODEL 8
REMARK VINA RESULT:       0.1      0.827      2.951
REMARK  5 active torsions:
REMARK  status: ('A' for Active; 'I' for Inactive)
REMARK    1  A    between atoms: C5_5  and  C9_9 
REMARK    2  A    between atoms: C6_6  and  C9_9 
REMARK    3  A    between atoms: C7_7  and  N11_11 
REMARK    4  A    between atoms: C8_8  and  N11_11 
REMARK    5  A    between atoms: C9_9  and  N11_11 
ROOT
HETATM    1  C1  UNL     1     -33.974   4.048   4.206  1.00 20.00     0.061 C 
HETATM    2  C5  UNL     1     -34.536   5.335   3.768  1.00 20.00     0.159 C 
HETATM    3  N10 UNL     1     -33.533   3.032   4.553  1.00 20.00    -0.197 NA
ENDROOT
BRANCH   2   4
HETATM    4  C9  UNL     1     -33.720   5.966   2.627  1.00 20.00     0.235 C 
BRANCH   4   5
HETATM    5  C6  UNL     1     -32.612   5.019   2.123  1.00 20.00     0.032 C 
HETATM    6  C2  UNL     1     -32.548   4.905   0.604  1.00 20.00     0.007 C 
ENDBRANCH   4   5
BRANCH   4   7
HETATM    7  N11 UNL     1     -33.134   7.218   3.118  1.00 20.00     0.093 N 
BRANCH   7   8
HETATM    8  C7  UNL     1     -33.987   7.807   4.149  1.00 20.00     0.268 C 
HETATM    9  C3  UNL     1     -33.172   8.361   5.268  1.00 20.00     0.037 C 
ENDBRANCH   7   8
BRANCH   7  10
HETATM   10  C8  UNL     1     -32.939   8.155   2.014  1.00 20.00     0.268 C 
HETATM   11  C4  UNL     1     -31.497   8.270   1.655  1.00 20.00     0.037 C 
ENDBRANCH   7  10
ENDBRANCH   4   7
ENDBRANCH   2   4
TORSDOF 5
ENDMDL
MODEL 9
REMARK VINA RESULT:       0.1      1.495      3.617
REMARK  5 active torsions:
REMARK  status: ('A' for Active; 'I' for Inactive)
REMARK    1  A    between atoms: C5_5  and  C9_9 
REMARK    2  A    between atoms: C6_6  and  C9_9 
REMARK    3  A    between atoms: C7_7  and  N11_11 
REMARK    4  A    between atoms: C8_8  and  N11_11 
REMARK    5  A    between atoms: C9_9  and  N11_11 
ROOT
HETATM    1  C1  UNL     1     -32.881   4.892   0.497  1.00 20.00     0.061 C 
HETATM    2  C5  UNL     1     -32.090   5.680   1.455  1.00 20.00     0.159 C 
HETATM    3  N10 UNL     1     -33.503   4.269  -0.259  1.00 20.00    -0.197 NA
ENDROOT
BRANCH   2   4
HETATM    4  C9  UNL     1     -32.844   6.928   1.942  1.00 20.00     0.235 C 
BRANCH   4   5
HETATM    5  C6  UNL     1     -31.974   8.198   1.843  1.00 20.00     0.032 C 
HETATM    6  C2  UNL     1     -32.334   9.095   0.664  1.00 20.00     0.007 C 
ENDBRANCH   4   5
BRANCH   4   7
HETATM    7  N11 UNL     1     -33.259   6.702   3.331  1.00 20.00     0.093 N 
BRANCH   7   8
HETATM    8  C7  UNL     1     -34.211   5.596   3.402  1.00 20.00     0.268 C 
HETATM    9  C3  UNL     1     -35.483   6.022   4.053  1.00 20.00     0.037 C 
ENDBRANCH   7   8
BRANCH   7  10
HETATM   10  C8  UNL     1     -33.840   7.919   3.892  1.00 20.00     0.268 C 
HETATM   11  C4  UNL     1     -33.151   8.310   5.156  1.00 20.00     0.037 C 
ENDBRANCH   7  10
ENDBRANCH   4   7
ENDBRANCH   2   4
TORSDOF 5
ENDMDL
