MODEL 1
REMARK VINA RESULT:       0.9      0.000      0.000
REMARK  1 active torsions:
REMARK  status: ('A' for Active; 'I' for Inactive)
REMARK    1  A    between atoms: C3_3  and  C8_8 
ROOT
HETATM    1  C1  UNL     1     -32.265   7.929   3.477  1.00 20.00     0.302 C 
HETATM    2  C2  UNL     1     -33.296   5.904   2.158  1.00 20.00     0.209 C 
HETATM    3  C3  UNL     1     -32.190   8.006   1.945  1.00 20.00     0.149 C 
HETATM    4  C4  UNL     1     -34.174   6.420   3.318  1.00 20.00     0.171 C 
HETATM    5  C5  UNL     1     -34.302   5.324   4.386  1.00 20.00     0.051 C 
HETATM    6  C6  UNL     1     -35.575   6.783   2.797  1.00 20.00     0.051 C 
HETATM    7  N9  UNL     1     -33.626   7.649   3.920  1.00 20.00     0.097 N 
HETATM    8  O10 UNL     1     -32.940   6.975   1.289  1.00 20.00    -0.382 OA
HETATM    9  H27 UNL     1     -33.620   7.543   4.934  1.00 20.00     0.317 HD
ENDROOT
BRANCH   3  10
HETATM   10  C8  UNL     1     -32.703   9.339   1.410  1.00 20.00     0.029 C 
HETATM   11  C7  UNL     1     -32.291   9.565  -0.010  1.00 20.00     0.007 C 
ENDBRANCH   3  10
TORSDOF 1
ENDMDL
MODEL 2
REMARK VINA RESULT:       1.2      1.628      4.010
REMARK  1 active torsions:
REMARK  status: ('A' for Active; 'I' for Inactive)
REMARK    1  A    between atoms: C3_3  and  C8_8 
ROOT
HETATM    1  C1  UNL     1     -32.958   6.493   1.891  1.00 20.00     0.302 C 
HETATM    2  C2  UNL     1     -31.348   8.497   2.435  1.00 20.00     0.209 C 
HETATM    3  C3  UNL     1     -33.043   7.068   3.312  1.00 20.00     0.149 C 
HETATM    4  C4  UNL     1     -32.071   8.614   1.075  1.00 20.00     0.171 C 
HETATM    5  C5  UNL     1     -31.037   8.562  -0.058  1.00 20.00     0.051 C 
HETATM    6  C6  UNL     1     -32.837   9.946   0.999  1.00 20.00     0.051 C 
HETATM    7  N9  UNL     1     -33.075   7.550   0.892  1.00 20.00     0.097 N 
HETATM    8  O10 UNL     1     -32.289   8.275   3.482  1.00 20.00    -0.382 OA
HETATM    9  H27 UNL     1     -32.950   7.136  -0.031  1.00 20.00     0.317 HD
ENDROOT
BRANCH   3  10
HETATM   10  C8  UNL     1     -34.479   7.378   3.722  1.00 20.00     0.029 C 
HETATM   11  C7  UNL     1     -35.245   6.137   4.054  1.00 20.00     0.007 C 
ENDBRANCH   3  10
TORSDOF 1
ENDMDL
MODEL 3
REMARK VINA RESULT:       1.6      1.215      4.056
REMARK  1 active torsions:
REMARK  status: ('A' for Active; 'I' for Inactive)
REMARK    1  A    between atoms: C3_3  and  C8_8 
ROOT
HETATM    1  C1  UNL     1     -34.192   6.938   3.351  1.00 20.00     0.302 C 
HETATM    2  C2  UNL     1     -33.050   6.598   1.009  1.00 20.00     0.209 C 
HETATM    3  C3  UNL     1     -33.873   5.489   2.954  1.00 20.00     0.149 C 
HETATM    4  C4  UNL     1     -32.448   7.745   1.849  1.00 20.00     0.171 C 
HETATM    5  C5  UNL     1     -32.690   9.082   1.135  1.00 20.00     0.051 C 
HETATM    6  C6  UNL     1     -30.934   7.532   2.022  1.00 20.00     0.051 C 
HETATM    7  N9  UNL     1     -33.016   7.789   3.209  1.00 20.00     0.097 N 
HETATM    8  O10 UNL     1     -33.078   5.390   1.763  1.00 20.00    -0.382 OA
HETATM    9  H27 UNL     1     -33.286   8.749   3.421  1.00 20.00     0.317 HD
ENDROOT
BRANCH   3  10
HETATM   10  C8  UNL     1     -33.124   4.742   4.052  1.00 20.00     0.029 C 
HETATM   11  C7  UNL     1     -33.746   3.414   4.346  1.00 20.00     0.007 C 
ENDBRANCH   3  10
TORSDOF 1
ENDMDL
MODEL 4
REMARK VINA RESULT:       1.8      1.391      1.523
REMARK  1 active torsions:
REMARK  status: ('A' for Active; 'I' for Inactive)
REMARK    1  A    between atoms: C3_3  and  C8_8 
ROOT
HETATM    1  C1  UNL     1     -32.880   7.921   3.243  1.00 20.00     0.302 C 
HETATM    2  C2  UNL     1     -31.670   6.129   1.750  1.00 20.00     0.209 C 
HETATM    3  C3  UNL     1     -32.007   8.464   2.102  1.00 20.00     0.149 C 
HETATM    4  C4  UNL     1     -33.152   5.813   2.046  1.00 20.00     0.171 C 
HETATM    5  C5  UNL     1     -33.242   4.529   2.882  1.00 20.00     0.051 C 
HETATM    6  C6  UNL     1     -33.921   5.613   0.729  1.00 20.00     0.051 C 
HETATM    7  N9  UNL     1     -33.822   6.922   2.750  1.00 20.00     0.097 N 
HETATM    8  O10 UNL     1     -31.539   7.442   1.212  1.00 20.00    -0.382 OA
HETATM    9  H27 UNL     1     -34.336   6.543   3.545  1.00 20.00     0.317 HD
ENDROOT
BRANCH   3  10
HETATM   10  C8  UNL     1     -32.745   9.492   1.251  1.00 20.00     0.029 C 
HETATM   11  C7  UNL     1     -32.219   9.537  -0.148  1.00 20.00     0.007 C 
ENDBRANCH   3  10
TORSDOF 1
ENDMDL
MODEL 5
REMARK VINA RESULT:       2.1      2.053      4.293
REMARK  1 active torsions:
REMARK  status: ('A' for Active; 'I' for Inactive)
REMARK    1  A    between atoms: C3_3  and  C8_8 
ROOT
HETATM    1  C1  UNL     1     -35.460   5.593   3.948  1.00 20.00     0.302 C 
HETATM    2  C2  UNL     1     -33.433   6.573   2.594  1.00 20.00     0.209 C 
HETATM    3  C3  UNL     1     -34.300   4.627   3.664  1.00 20.00     0.149 C 
HETATM    4  C4  UNL     1     -33.946   7.492   3.723  1.00 20.00     0.171 C 
HETATM    5  C5  UNL     1     -34.513   8.782   3.113  1.00 20.00     0.051 C 
HETATM    6  C6  UNL     1     -32.793   7.849   4.676  1.00 20.00     0.051 C 
HETATM    7  N9  UNL     1     -34.974   6.830   4.548  1.00 20.00     0.097 N 
HETATM    8  O10 UNL     1     -33.150   5.272   3.100  1.00 20.00    -0.382 OA
HETATM    9  H27 UNL     1     -35.763   7.465   4.661  1.00 20.00     0.317 HD
ENDROOT
BRANCH   3  10
HETATM   10  C8  UNL     1     -33.832   3.904   4.923  1.00 20.00     0.029 C 
HETATM   11  C7  UNL     1     -33.041   2.676   4.599  1.00 20.00     0.007 C 
ENDBRANCH   3  10
TORSDOF 1
ENDMDL
MODEL 6
REMARK VINA RESULT:       2.4      1.898      3.443
REMARK  1 active torsions:
REMARK  status: ('A' for Active; 'I' for Inactive)
REMARK    1  A    between atoms: C3_3  and  C8_8 
ROOT
HETATM    1  C1  UNL     1     -33.036   5.645   3.635  1.00 20.00     0.302 C 
HETATM    2  C2  UNL     1     -32.008   7.069   1.680  1.00 20.00     0.209 C 
HETATM    3  C3  UNL     1     -33.334   7.152   3.661  1.00 20.00     0.149 C 
HETATM    4  C4  UNL     1     -32.667   5.750   1.226  1.00 20.00     0.171 C 
HETATM    5  C5  UNL     1     -31.597   4.823   0.632  1.00 20.00     0.051 C 
HETATM    6  C6  UNL     1     -33.736   6.036   0.158  1.00 20.00     0.051 C 
HETATM    7  N9  UNL     1     -33.364   5.071   2.334  1.00 20.00     0.097 N 
HETATM    8  O10 UNL     1     -32.914   7.833   2.470  1.00 20.00    -0.382 OA
HETATM    9  H27 UNL     1     -33.093   4.088   2.339  1.00 20.00     0.317 HD
ENDROOT
BRANCH   3  10
HETATM   10  C8  UNL     1     -34.821   7.442   3.839  1.00 20.00     0.029 C 
HETATM   11  C7  UNL     1     -35.599   6.199   4.134  1.00 20.00     0.007 C 
ENDBRANCH   3  10
TORSDOF 1
ENDMDL
MODEL 7
REMARK VINA RESULT:       2.6      1.738      2.738
REMARK  1 active torsions:
REMARK  status: ('A' for Active; 'I' for Inactive)
REMARK    1  A    between atoms: C3_3  and  C8_8 
ROOT
HETATM    1  C1  UNL     1     -32.325   7.098   1.896  1.00 20.00     0.302 C 
HETATM    2  C2  UNL     1     -33.390   5.611   3.783  1.00 20.00     0.209 C 
HETATM    3  C3  UNL     1     -32.647   5.645   1.517  1.00 20.00     0.149 C 
HETATM    4  C4  UNL     1     -34.007   7.021   3.662  1.00 20.00     0.171 C 
HETATM    5  C5  UNL     1     -33.724   7.813   4.945  1.00 20.00     0.051 C 
HETATM    6  C6  UNL     1     -35.528   6.914   3.459  1.00 20.00     0.051 C 
HETATM    7  N9  UNL     1     -33.485   7.752   2.492  1.00 20.00     0.097 N 
HETATM    8  O10 UNL     1     -33.401   4.951   2.521  1.00 20.00    -0.382 OA
HETATM    9  H27 UNL     1     -33.212   8.689   2.786  1.00 20.00     0.317 HD
ENDROOT
BRANCH   3  10
HETATM   10  C8  UNL     1     -33.442   5.552   0.219  1.00 20.00     0.029 C 
HETATM   11  C7  UNL     1     -33.549   4.142  -0.269  1.00 20.00     0.007 C 
ENDBRANCH   3  10
TORSDOF 1
ENDMDL
MODEL 8
REMARK VINA RESULT:       3.4      1.424      2.109
REMARK  1 active torsions:
REMARK  status: ('A' for Active; 'I' for Inactive)
REMARK    1  A    between atoms: C3_3  and  C8_8 
ROOT
HETATM    1  C1  UNL     1     -32.947   4.964   2.346  1.00 20.00     0.302 C 
HETATM    2  C2  UNL     1     -34.944   6.671   2.371  1.00 20.00     0.209 C 
HETATM    3  C3  UNL     1     -32.845   6.145   1.370  1.00 20.00     0.149 C 
HETATM    4  C4  UNL     1     -34.444   6.258   3.772  1.00 20.00     0.171 C 
HETATM    5  C5  UNL     1     -35.556   5.498   4.507  1.00 20.00     0.051 C 
HETATM    6  C6  UNL     1     -34.064   7.508   4.585  1.00 20.00     0.051 C 
HETATM    7  N9  UNL     1     -33.227   5.428   3.700  1.00 20.00     0.097 N 
HETATM    8  O10 UNL     1     -33.861   7.137   1.572  1.00 20.00    -0.382 OA
HETATM    9  H27 UNL     1     -33.350   4.613   4.301  1.00 20.00     0.317 HD
ENDROOT
BRANCH   3  10
HETATM   10  C8  UNL     1     -31.500   6.859   1.469  1.00 20.00     0.029 C 
HETATM   11  C7  UNL     1     -31.665   8.332   1.669  1.00 20.00     0.007 C 
ENDBRANCH   3  10
TORSDOF 1
ENDMDL
MODEL 9
REMARK VINA RESULT:       3.7      2.183      3.365
REMARK  1 active torsions:
REMARK  status: ('A' for Active; 'I' for Inactive)
REMARK    1  A    between atoms: C3_3  and  C8_8 
ROOT
HETATM    1  C1  UNL     1     -33.540   5.322   2.401  1.00 20.00     0.302 C 
HETATM    2  C2  UNL     1     -34.864   4.462   4.502  1.00 20.00     0.209 C 
HETATM    3  C3  UNL     1     -34.253   6.392   3.242  1.00 20.00     0.149 C 
HETATM    4  C4  UNL     1     -33.461   3.840   4.337  1.00 20.00     0.171 C 
HETATM    5  C5  UNL     1     -33.598   2.332   4.082  1.00 20.00     0.051 C 
HETATM    6  C6  UNL     1     -32.634   4.063   5.615  1.00 20.00     0.051 C 
HETATM    7  N9  UNL     1     -32.704   4.471   3.240  1.00 20.00     0.097 N 
HETATM    8  O10 UNL     1     -34.786   5.884   4.472  1.00 20.00    -0.382 OA
HETATM    9  H27 UNL     1     -32.301   3.739   2.656  1.00 20.00     0.317 HD
ENDROOT
BRANCH   3  10
HETATM   10  C8  UNL     1     -33.329   7.551   3.601  1.00 20.00     0.029 C 
HETATM   11  C7  UNL     1     -32.436   7.926   2.461  1.00 20.00     0.007 C 
ENDBRANCH   3  10
TORSDOF 1
ENDMDL
