MODEL 1
REMARK VINA RESULT:      -2.1      0.000      0.000
REMARK  0 active torsions:
REMARK  status: ('A' for Active; 'I' for Inactive)
ROOT
HETATM    1  C1  UNL     1     -35.141   6.464   4.211  1.00 20.00    -0.003 C 
HETATM    2  C2  UNL     1     -34.331   7.594   3.804  1.00 20.00     0.011 C 
HETATM    3  C3  UNL     1     -34.619   5.316   3.737  1.00 20.00    -0.017 C 
HETATM    4  C4  UNL     1     -33.301   7.101   3.118  1.00 20.00    -0.005 C 
HETATM    5  C5  UNL     1     -32.401   7.617   2.082  1.00 20.00     0.156 C 
HETATM    6  C6  UNL     1     -32.067   6.471   1.152  1.00 20.00     0.084 C 
HETATM    7  C7  UNL     1     -33.089   5.383   1.579  1.00 20.00     0.021 C 
HETATM    8  C8  UNL     1     -33.307   5.607   3.074  1.00 20.00     0.045 C 
HETATM    9  O9  UNL     1     -32.006   8.765   1.994  1.00 20.00    -0.293 OA
ENDROOT
TORSDOF 0
ENDMDL
MODEL 2
REMARK VINA RESULT:      -2.1      1.947      3.678
REMARK  0 active torsions:
REMARK  status: ('A' for Active; 'I' for Inactive)
ROOT
HETATM    1  C1  UNL     1     -32.166   7.008   1.392  1.00 20.00    -0.003 C 
HETATM    2  C2  UNL     1     -32.537   5.690   1.868  1.00 20.00     0.011 C 
HETATM    3  C3  UNL     1     -32.659   7.959   2.210  1.00 20.00    -0.017 C 
HETATM    4  C4  UNL     1     -33.219   5.868   2.998  1.00 20.00    -0.005 C 
HETATM    5  C5  UNL     1     -34.231   5.101   3.732  1.00 20.00     0.156 C 
HETATM    6  C6  UNL     1     -35.181   6.089   4.371  1.00 20.00     0.084 C 
HETATM    7  C7  UNL     1     -34.793   7.424   3.680  1.00 20.00     0.021 C 
HETATM    8  C8  UNL     1     -33.296   7.306   3.398  1.00 20.00     0.045 C 
HETATM    9  O9  UNL     1     -34.287   3.887   3.801  1.00 20.00    -0.293 OA
ENDROOT
TORSDOF 0
ENDMDL
MODEL 3
REMARK VINA RESULT:      -2.0      1.370      2.207
REMARK  0 active torsions:
REMARK  status: ('A' for Active; 'I' for Inactive)
ROOT
HETATM    1  C1  UNL     1     -34.932   5.147   4.389  1.00 20.00    -0.003 C 
HETATM    2  C2  UNL     1     -34.001   4.671   3.385  1.00 20.00     0.011 C 
HETATM    3  C3  UNL     1     -35.093   6.481   4.286  1.00 20.00    -0.017 C 
HETATM    4  C4  UNL     1     -33.643   5.731   2.662  1.00 20.00    -0.005 C 
HETATM    5  C5  UNL     1     -32.476   6.086   1.847  1.00 20.00     0.156 C 
HETATM    6  C6  UNL     1     -32.244   7.572   2.001  1.00 20.00     0.084 C 
HETATM    7  C7  UNL     1     -33.174   7.936   3.190  1.00 20.00     0.021 C 
HETATM    8  C8  UNL     1     -34.356   6.975   3.079  1.00 20.00     0.045 C 
HETATM    9  O9  UNL     1     -31.817   5.311   1.178  1.00 20.00    -0.293 OA
ENDROOT
TORSDOF 0
ENDMDL
MODEL 4
REMARK VINA RESULT:      -1.6      1.367      3.009
REMARK  0 active torsions:
REMARK  status: ('A' for Active; 'I' for Inactive)
ROOT
HETATM    1  C1  UNL     1     -31.479   7.271   1.427  1.00 20.00    -0.003 C 
HETATM    2  C2  UNL     1     -32.169   8.044   2.441  1.00 20.00     0.011 C 
HETATM    3  C3  UNL     1     -32.131   6.115   1.193  1.00 20.00    -0.017 C 
HETATM    4  C4  UNL     1     -33.257   7.353   2.776  1.00 20.00    -0.005 C 
HETATM    5  C5  UNL     1     -34.114   7.277   3.964  1.00 20.00     0.156 C 
HETATM    6  C6  UNL     1     -34.585   5.846   4.098  1.00 20.00     0.084 C 
HETATM    7  C7  UNL     1     -33.681   5.097   3.082  1.00 20.00     0.021 C 
HETATM    8  C8  UNL     1     -33.414   6.107   1.967  1.00 20.00     0.045 C 
HETATM    9  O9  UNL     1     -34.382   8.204   4.704  1.00 20.00    -0.293 OA
ENDROOT
TORSDOF 0
ENDMDL
MODEL 5
REMARK VINA RESULT:      -1.1      1.758      3.080
REMARK  0 active torsions:
REMARK  status: ('A' for Active; 'I' for Inactive)
ROOT
HETATM    1  C1  UNL     1     -31.970   7.854   1.832  1.00 20.00    -0.003 C 
HETATM    2  C2  UNL     1     -33.095   7.978   2.738  1.00 20.00     0.011 C 
HETATM    3  C3  UNL     1     -31.871   6.590   1.376  1.00 20.00    -0.017 C 
HETATM    4  C4  UNL     1     -33.685   6.784   2.781  1.00 20.00    -0.005 C 
HETATM    5  C5  UNL     1     -34.522   6.075   3.754  1.00 20.00     0.156 C 
HETATM    6  C6  UNL     1     -34.175   4.605   3.672  1.00 20.00     0.084 C 
HETATM    7  C7  UNL     1     -32.884   4.611   2.812  1.00 20.00     0.021 C 
HETATM    8  C8  UNL     1     -33.045   5.796   1.861  1.00 20.00     0.045 C 
HETATM    9  O9  UNL     1     -35.340   6.590   4.494  1.00 20.00    -0.293 OA
ENDROOT
TORSDOF 0
ENDMDL
MODEL 6
REMARK VINA RESULT:      -0.6      2.199      3.207
REMARK  0 active torsions:
REMARK  status: ('A' for Active; 'I' for Inactive)
ROOT
HETATM    1  C1  UNL     1     -33.054   8.043   2.915  1.00 20.00    -0.003 C 
HETATM    2  C2  UNL     1     -34.113   7.508   3.748  1.00 20.00     0.011 C 
HETATM    3  C3  UNL     1     -32.518   7.070   2.154  1.00 20.00    -0.017 C 
HETATM    4  C4  UNL     1     -34.225   6.216   3.442  1.00 20.00    -0.005 C 
HETATM    5  C5  UNL     1     -34.711   5.022   4.142  1.00 20.00     0.156 C 
HETATM    6  C6  UNL     1     -33.855   3.854   3.703  1.00 20.00     0.084 C 
HETATM    7  C7  UNL     1     -32.687   4.554   2.958  1.00 20.00     0.021 C 
HETATM    8  C8  UNL     1     -33.303   5.808   2.339  1.00 20.00     0.045 C 
HETATM    9  O9  UNL     1     -35.633   4.992   4.936  1.00 20.00    -0.293 OA
ENDROOT
TORSDOF 0
ENDMDL
MODEL 7
REMARK VINA RESULT:      -0.5      1.639      2.382
REMARK  0 active torsions:
REMARK  status: ('A' for Active; 'I' for Inactive)
ROOT
HETATM    1  C1  UNL     1     -34.193   7.341   4.445  1.00 20.00    -0.003 C 
HETATM    2  C2  UNL     1     -34.255   6.269   3.471  1.00 20.00     0.011 C 
HETATM    3  C3  UNL     1     -33.393   8.332   4.003  1.00 20.00    -0.017 C 
HETATM    4  C4  UNL     1     -33.516   6.653   2.431  1.00 20.00    -0.005 C 
HETATM    5  C5  UNL     1     -32.785   5.960   1.365  1.00 20.00     0.156 C 
HETATM    6  C6  UNL     1     -31.546   6.771   1.057  1.00 20.00     0.084 C 
HETATM    7  C7  UNL     1     -31.502   7.779   2.236  1.00 20.00     0.021 C 
HETATM    8  C8  UNL     1     -32.964   8.031   2.599  1.00 20.00     0.045 C 
HETATM    9  O9  UNL     1     -33.123   4.917   0.837  1.00 20.00    -0.293 OA
ENDROOT
TORSDOF 0
ENDMDL
MODEL 8
REMARK VINA RESULT:      -0.1      1.815      3.603
REMARK  0 active torsions:
REMARK  status: ('A' for Active; 'I' for Inactive)
ROOT
HETATM    1  C1  UNL     1     -32.076   9.417   0.720  1.00 20.00    -0.003 C 
HETATM    2  C2  UNL     1     -31.912   8.013   0.397  1.00 20.00     0.011 C 
HETATM    3  C3  UNL     1     -32.487   9.560   1.996  1.00 20.00    -0.017 C 
HETATM    4  C4  UNL     1     -32.191   7.329   1.505  1.00 20.00    -0.005 C 
HETATM    5  C5  UNL     1     -32.660   5.971   1.796  1.00 20.00     0.156 C 
HETATM    6  C6  UNL     1     -33.556   6.046   3.013  1.00 20.00     0.084 C 
HETATM    7  C7  UNL     1     -33.782   7.574   3.170  1.00 20.00     0.021 C 
HETATM    8  C8  UNL     1     -32.493   8.221   2.666  1.00 20.00     0.045 C 
HETATM    9  O9  UNL     1     -32.377   4.972   1.161  1.00 20.00    -0.293 OA
ENDROOT
TORSDOF 0
ENDMDL
MODEL 9
REMARK VINA RESULT:       0.1      1.088      2.822
REMARK  0 active torsions:
REMARK  status: ('A' for Active; 'I' for Inactive)
ROOT
HETATM    1  C1  UNL     1     -32.110   5.588   1.014  1.00 20.00    -0.003 C 
HETATM    2  C2  UNL     1     -31.566   6.739   1.708  1.00 20.00     0.011 C 
HETATM    3  C3  UNL     1     -33.409   5.419   1.331  1.00 20.00    -0.017 C 
HETATM    4  C4  UNL     1     -32.566   7.273   2.407  1.00 20.00    -0.005 C 
HETATM    5  C5  UNL     1     -32.664   8.099   3.615  1.00 20.00     0.156 C 
HETATM    6  C6  UNL     1     -33.915   7.682   4.355  1.00 20.00     0.084 C 
HETATM    7  C7  UNL     1     -34.317   6.372   3.627  1.00 20.00     0.021 C 
HETATM    8  C8  UNL     1     -33.863   6.566   2.180  1.00 20.00     0.045 C 
HETATM    9  O9  UNL     1     -31.869   8.957   3.952  1.00 20.00    -0.293 OA
ENDROOT
TORSDOF 0
ENDMDL
