MODEL 1
REMARK VINA RESULT:      -0.1      0.000      0.000
REMARK  1 active torsions:
REMARK  status: ('A' for Active; 'I' for Inactive)
REMARK    1  A    between atoms: C1_1  and  S9_9 
ROOT
HETATM    1  C1  UNL     1     -32.782   7.081   2.341  1.00 20.00     0.047 A 
HETATM    2  C2  UNL     1     -32.865   5.756   1.873  1.00 20.00     0.069 A 
HETATM    3  C3  UNL     1     -33.673   7.132   3.386  1.00 20.00     0.044 A 
HETATM    4  C4  UNL     1     -32.126   5.133   0.759  1.00 20.00     0.074 C 
HETATM    5  C5  UNL     1     -34.057   8.231   4.294  1.00 20.00     0.071 C 
HETATM    6  C6  UNL     1     -35.205   5.432   4.425  1.00 20.00     0.179 C 
HETATM    7  N7  UNL     1     -33.739   5.019   2.564  1.00 20.00    -0.176 NA
HETATM    8  N8  UNL     1     -34.213   5.884   3.477  1.00 20.00    -0.277 N 
ENDROOT
BRANCH   1   9
HETATM    9  S9  UNL     1     -31.776   8.357   1.727  1.00 20.00    -0.139 SA
HETATM   10  H19 UNL     1     -32.308   9.396   2.401  1.00 20.00     0.107 HD
ENDBRANCH   1   9
TORSDOF 1
ENDMDL
MODEL 2
REMARK VINA RESULT:       0.2      2.289      3.954
REMARK  1 active torsions:
REMARK  status: ('A' for Active; 'I' for Inactive)
REMARK    1  A    between atoms: C1_1  and  S9_9 
ROOT
HETATM    1  C1  UNL     1     -33.468   6.045   3.069  1.00 20.00     0.047 A 
HETATM    2  C2  UNL     1     -33.509   7.348   3.600  1.00 20.00     0.069 A 
HETATM    3  C3  UNL     1     -32.746   6.171   1.907  1.00 20.00     0.044 A 
HETATM    4  C4  UNL     1     -34.156   7.809   4.843  1.00 20.00     0.074 C 
HETATM    5  C5  UNL     1     -32.347   5.180   0.889  1.00 20.00     0.071 C 
HETATM    6  C6  UNL     1     -31.648   8.123   0.766  1.00 20.00     0.179 C 
HETATM    7  N7  UNL     1     -32.865   8.236   2.838  1.00 20.00    -0.176 NA
HETATM    8  N8  UNL     1     -32.411   7.490   1.816  1.00 20.00    -0.277 N 
ENDROOT
BRANCH   1   9
HETATM    9  S9  UNL     1     -34.176   4.609   3.742  1.00 20.00    -0.139 SA
HETATM   10  H19 UNL     1     -34.739   4.103   2.626  1.00 20.00     0.107 HD
ENDBRANCH   1   9
TORSDOF 1
ENDMDL
MODEL 3
REMARK VINA RESULT:       0.5      1.920      2.589
REMARK  1 active torsions:
REMARK  status: ('A' for Active; 'I' for Inactive)
REMARK    1  A    between atoms: C1_1  and  S9_9 
ROOT
HETATM    1  C1  UNL     1     -32.717   6.197   1.856  1.00 20.00     0.047 A 
HETATM    2  C2  UNL     1     -32.368   7.560   1.815  1.00 20.00     0.069 A 
HETATM    3  C3  UNL     1     -33.483   6.073   2.988  1.00 20.00     0.044 A 
HETATM    4  C4  UNL     1     -31.547   8.264   0.811  1.00 20.00     0.074 C 
HETATM    5  C5  UNL     1     -34.154   4.906   3.596  1.00 20.00     0.071 C 
HETATM    6  C6  UNL     1     -34.239   7.706   4.743  1.00 20.00     0.179 C 
HETATM    7  N7  UNL     1     -32.871   8.252   2.841  1.00 20.00    -0.176 NA
HETATM    8  N8  UNL     1     -33.544   7.319   3.537  1.00 20.00    -0.277 N 
ENDROOT
BRANCH   1   9
HETATM    9  S9  UNL     1     -32.271   4.959   0.721  1.00 20.00    -0.139 SA
HETATM   10  H19 UNL     1     -31.411   4.261   1.489  1.00 20.00     0.107 HD
ENDBRANCH   1   9
TORSDOF 1
ENDMDL
MODEL 4
REMARK VINA RESULT:       0.7      1.438      3.022
REMARK  1 active torsions:
REMARK  status: ('A' for Active; 'I' for Inactive)
REMARK    1  A    between atoms: C1_1  and  S9_9 
ROOT
HETATM    1  C1  UNL     1     -33.565   7.122   3.478  1.00 20.00     0.047 A 
HETATM    2  C2  UNL     1     -34.194   5.862   3.479  1.00 20.00     0.069 A 
HETATM    3  C3  UNL     1     -32.728   7.086   2.390  1.00 20.00     0.044 A 
HETATM    4  C4  UNL     1     -35.198   5.343   4.427  1.00 20.00     0.074 C 
HETATM    5  C5  UNL     1     -31.793   8.087   1.838  1.00 20.00     0.071 C 
HETATM    6  C6  UNL     1     -32.235   5.336   0.654  1.00 20.00     0.179 C 
HETATM    7  N7  UNL     1     -33.790   5.083   2.472  1.00 20.00    -0.176 NA
HETATM    8  N8  UNL     1     -32.898   5.855   1.828  1.00 20.00    -0.277 N 
ENDROOT
BRANCH   1   9
HETATM    9  S9  UNL     1     -33.804   8.422   4.605  1.00 20.00    -0.139 SA
HETATM   10  H19 UNL     1     -32.920   9.308   4.104  1.00 20.00     0.107 HD
ENDBRANCH   1   9
TORSDOF 1
ENDMDL
MODEL 5
REMARK VINA RESULT:       0.9      2.305      2.805
REMARK  1 active torsions:
REMARK  status: ('A' for Active; 'I' for Inactive)
REMARK    1  A    between atoms: C1_1  and  S9_9 
ROOT
HETATM    1  C1  UNL     1     -33.328   5.844   2.827  1.00 20.00     0.047 A 
HETATM    2  C2  UNL     1     -32.557   5.763   1.652  1.00 20.00     0.069 A 
HETATM    3  C3  UNL     1     -33.349   7.183   3.131  1.00 20.00     0.044 A 
HETATM    4  C4  UNL     1     -32.202   4.561   0.873  1.00 20.00     0.074 C 
HETATM    5  C5  UNL     1     -33.983   7.927   4.238  1.00 20.00     0.071 C 
HETATM    6  C6  UNL     1     -32.346   9.212   2.039  1.00 20.00     0.179 C 
HETATM    7  N7  UNL     1     -32.119   6.955   1.239  1.00 20.00    -0.176 NA
HETATM    8  N8  UNL     1     -32.617   7.798   2.159  1.00 20.00    -0.277 N 
ENDROOT
BRANCH   1   9
HETATM    9  S9  UNL     1     -34.079   4.535   3.688  1.00 20.00    -0.139 SA
HETATM   10  H19 UNL     1     -34.026   3.587   2.731  1.00 20.00     0.107 HD
ENDBRANCH   1   9
TORSDOF 1
ENDMDL
MODEL 6
REMARK VINA RESULT:       1.2      0.893      2.821
REMARK  1 active torsions:
REMARK  status: ('A' for Active; 'I' for Inactive)
REMARK    1  A    between atoms: C1_1  and  S9_9 
ROOT
HETATM    1  C1  UNL     1     -32.948   7.110   2.417  1.00 20.00     0.047 A 
HETATM    2  C2  UNL     1     -33.750   7.254   3.566  1.00 20.00     0.069 A 
HETATM    3  C3  UNL     1     -32.879   5.753   2.216  1.00 20.00     0.044 A 
HETATM    4  C4  UNL     1     -34.161   8.498   4.243  1.00 20.00     0.074 C 
HETATM    5  C5  UNL     1     -32.194   4.949   1.184  1.00 20.00     0.071 C 
HETATM    6  C6  UNL     1     -33.845   3.780   3.437  1.00 20.00     0.179 C 
HETATM    7  N7  UNL     1     -34.160   6.082   4.059  1.00 20.00    -0.176 NA
HETATM    8  N8  UNL     1     -33.613   5.189   3.216  1.00 20.00    -0.277 N 
ENDROOT
BRANCH   1   9
HETATM    9  S9  UNL     1     -32.217   8.373   1.476  1.00 20.00    -0.139 SA
HETATM   10  H19 UNL     1     -31.444   8.933   2.428  1.00 20.00     0.107 HD
ENDBRANCH   1   9
TORSDOF 1
ENDMDL
MODEL 7
REMARK VINA RESULT:       1.5      1.950      3.107
REMARK  1 active torsions:
REMARK  status: ('A' for Active; 'I' for Inactive)
REMARK    1  A    between atoms: C1_1  and  S9_9 
ROOT
HETATM    1  C1  UNL     1     -33.241   7.223   3.028  1.00 20.00     0.047 A 
HETATM    2  C2  UNL     1     -32.493   7.804   1.986  1.00 20.00     0.069 A 
HETATM    3  C3  UNL     1     -33.278   5.885   2.718  1.00 20.00     0.044 A 
HETATM    4  C4  UNL     1     -32.133   9.222   1.800  1.00 20.00     0.074 C 
HETATM    5  C5  UNL     1     -33.904   4.737   3.405  1.00 20.00     0.071 C 
HETATM    6  C6  UNL     1     -32.333   4.529   0.825  1.00 20.00     0.179 C 
HETATM    7  N7  UNL     1     -32.085   6.908   1.083  1.00 20.00    -0.176 NA
HETATM    8  N8  UNL     1     -32.579   5.751   1.556  1.00 20.00    -0.277 N 
ENDROOT
BRANCH   1   9
HETATM    9  S9  UNL     1     -33.951   8.029   4.393  1.00 20.00    -0.139 SA
HETATM   10  H19 UNL     1     -35.251   7.931   4.049  1.00 20.00     0.107 HD
ENDBRANCH   1   9
TORSDOF 1
ENDMDL
MODEL 8
REMARK VINA RESULT:       1.7      1.695      2.570
REMARK  1 active torsions:
REMARK  status: ('A' for Active; 'I' for Inactive)
REMARK    1  A    between atoms: C1_1  and  S9_9 
ROOT
HETATM    1  C1  UNL     1     -32.887   5.727   2.253  1.00 20.00     0.047 A 
HETATM    2  C2  UNL     1     -33.651   5.200   3.311  1.00 20.00     0.069 A 
HETATM    3  C3  UNL     1     -32.950   7.087   2.428  1.00 20.00     0.044 A 
HETATM    4  C4  UNL     1     -33.930   3.786   3.621  1.00 20.00     0.074 C 
HETATM    5  C5  UNL     1     -32.363   8.203   1.659  1.00 20.00     0.071 C 
HETATM    6  C6  UNL     1     -34.079   8.554   4.129  1.00 20.00     0.179 C 
HETATM    7  N7  UNL     1     -34.163   6.149   4.099  1.00 20.00    -0.176 NA
HETATM    8  N8  UNL     1     -33.719   7.286   3.536  1.00 20.00    -0.277 N 
ENDROOT
BRANCH   1   9
HETATM    9  S9  UNL     1     -32.054   4.842   1.010  1.00 20.00    -0.139 SA
HETATM   10  H19 UNL     1     -33.092   4.603   0.183  1.00 20.00     0.107 HD
ENDBRANCH   1   9
TORSDOF 1
ENDMDL
MODEL 9
REMARK VINA RESULT:       2.9      1.587      2.115
REMARK  1 active torsions:
REMARK  status: ('A' for Active; 'I' for Inactive)
REMARK    1  A    between atoms: C1_1  and  S9_9 
ROOT
HETATM    1  C1  UNL     1     -33.904   7.142   3.160  1.00 20.00     0.047 A 
HETATM    2  C2  UNL     1     -32.818   6.746   2.356  1.00 20.00     0.069 A 
HETATM    3  C3  UNL     1     -34.366   5.971   3.712  1.00 20.00     0.044 A 
HETATM    4  C4  UNL     1     -31.942   7.592   1.524  1.00 20.00     0.074 C 
HETATM    5  C5  UNL     1     -35.479   5.698   4.643  1.00 20.00     0.071 C 
HETATM    6  C6  UNL     1     -33.643   3.572   3.513  1.00 20.00     0.179 C 
HETATM    7  N7  UNL     1     -32.603   5.429   2.391  1.00 20.00    -0.176 NA
HETATM    8  N8  UNL     1     -33.561   4.985   3.224  1.00 20.00    -0.277 N 
ENDROOT
BRANCH   1   9
HETATM    9  S9  UNL     1     -34.514   8.752   3.394  1.00 20.00    -0.139 SA
HETATM   10  H19 UNL     1     -34.697   8.721   4.729  1.00 20.00     0.107 HD
ENDBRANCH   1   9
TORSDOF 1
ENDMDL
