MODEL 1
REMARK VINA RESULT:      -0.4      0.000      0.000
REMARK  2 active torsions:
REMARK  status: ('A' for Active; 'I' for Inactive)
REMARK    1  A    between atoms: C6_6  and  C7_7 
REMARK    2  A    between atoms: C7_7  and  N9_9 
ROOT
HETATM    1  C1  UNL     1     -33.890   4.953   3.744  1.00 20.00     0.101 C 
HETATM    2  C4  UNL     1     -35.307   6.912   3.310  1.00 20.00     0.066 C 
HETATM    3  C7  UNL     1     -33.872   6.361   3.290  1.00 20.00     0.243 C 
HETATM    4  N8  UNL     1     -33.907   3.850   4.102  1.00 20.00    -0.195 NA
ENDROOT
BRANCH   3   5
HETATM    5  C6  UNL     1     -33.218   6.503   1.878  1.00 20.00     0.030 C 
HETATM    6  C2  UNL     1     -32.518   5.226   1.390  1.00 20.00     0.013 C 
HETATM    7  C3  UNL     1     -32.228   7.678   1.788  1.00 20.00     0.013 C 
ENDBRANCH   3   5
BRANCH   3   8
HETATM    8  N9  UNL     1     -33.105   7.151   4.243  1.00 20.00     0.102 N 
HETATM    9  C5  UNL     1     -33.959   8.115   4.925  1.00 20.00     0.309 C 
HETATM   10  H23 UNL     1     -32.366   7.648   3.748  1.00 20.00     0.317 HD
ENDBRANCH   3   8
TORSDOF 2
ENDMDL
MODEL 2
REMARK VINA RESULT:      -0.3      1.953      3.548
REMARK  2 active torsions:
REMARK  status: ('A' for Active; 'I' for Inactive)
REMARK    1  A    between atoms: C6_6  and  C7_7 
REMARK    2  A    between atoms: C7_7  and  N9_9 
ROOT
HETATM    1  C1  UNL     1     -32.517   6.383   1.714  1.00 20.00     0.101 C 
HETATM    2  C4  UNL     1     -31.287   8.250   2.732  1.00 20.00     0.066 C 
HETATM    3  C7  UNL     1     -32.665   7.743   2.275  1.00 20.00     0.243 C 
HETATM    4  N8  UNL     1     -32.398   5.317   1.272  1.00 20.00    -0.195 NA
ENDROOT
BRANCH   3   5
HETATM    5  C6  UNL     1     -33.708   7.777   3.438  1.00 20.00     0.030 C 
HETATM    6  C2  UNL     1     -33.106   8.172   4.795  1.00 20.00     0.013 C 
HETATM    7  C3  UNL     1     -34.473   6.452   3.600  1.00 20.00     0.013 C 
ENDBRANCH   3   5
BRANCH   3   8
HETATM    8  N9  UNL     1     -33.113   8.641   1.219  1.00 20.00     0.102 N 
HETATM    9  C5  UNL     1     -31.983   9.323   0.603  1.00 20.00     0.309 C 
HETATM   10  H23 UNL     1     -33.748   9.333   1.614  1.00 20.00     0.317 HD
ENDBRANCH   3   8
TORSDOF 2
ENDMDL
MODEL 3
REMARK VINA RESULT:       0.5      1.343      2.386
REMARK  2 active torsions:
REMARK  status: ('A' for Active; 'I' for Inactive)
REMARK    1  A    between atoms: C6_6  and  C7_7 
REMARK    2  A    between atoms: C7_7  and  N9_9 
ROOT
HETATM    1  C1  UNL     1     -33.207   7.521   4.201  1.00 20.00     0.101 C 
HETATM    2  C4  UNL     1     -33.355   5.110   3.756  1.00 20.00     0.066 C 
HETATM    3  C7  UNL     1     -33.693   6.515   3.231  1.00 20.00     0.243 C 
HETATM    4  N8  UNL     1     -32.827   8.308   4.964  1.00 20.00    -0.195 NA
ENDROOT
BRANCH   3   5
HETATM    5  C6  UNL     1     -33.102   6.756   1.805  1.00 20.00     0.030 C 
HETATM    6  C2  UNL     1     -32.482   5.501   1.174  1.00 20.00     0.013 C 
HETATM    7  C3  UNL     1     -32.069   7.895   1.765  1.00 20.00     0.013 C 
ENDBRANCH   3   5
BRANCH   3   8
HETATM    8  N9  UNL     1     -35.145   6.597   3.157  1.00 20.00     0.102 N 
HETATM    9  C5  UNL     1     -35.765   5.832   4.230  1.00 20.00     0.309 C 
HETATM   10  H23 UNL     1     -35.456   6.229   2.259  1.00 20.00     0.317 HD
ENDBRANCH   3   8
TORSDOF 2
ENDMDL
MODEL 4
REMARK VINA RESULT:       0.5      1.637      3.840
REMARK  2 active torsions:
REMARK  status: ('A' for Active; 'I' for Inactive)
REMARK    1  A    between atoms: C6_6  and  C7_7 
REMARK    2  A    between atoms: C7_7  and  N9_9 
ROOT
HETATM    1  C1  UNL     1     -32.419   7.522   1.807  1.00 20.00     0.101 C 
HETATM    2  C4  UNL     1     -33.786   5.935   0.524  1.00 20.00     0.066 C 
HETATM    3  C7  UNL     1     -33.133   6.229   1.885  1.00 20.00     0.243 C 
HETATM    4  N8  UNL     1     -31.859   8.536   1.744  1.00 20.00    -0.195 NA
ENDROOT
BRANCH   3   5
HETATM    5  C6  UNL     1     -34.181   6.217   3.044  1.00 20.00     0.030 C 
HETATM    6  C2  UNL     1     -34.053   7.408   4.004  1.00 20.00     0.013 C 
HETATM    7  C3  UNL     1     -34.160   4.914   3.861  1.00 20.00     0.013 C 
ENDBRANCH   3   5
BRANCH   3   8
HETATM    8  N9  UNL     1     -32.161   5.170   2.121  1.00 20.00     0.102 N 
HETATM    9  C5  UNL     1     -31.535   4.751   0.875  1.00 20.00     0.309 C 
HETATM   10  H23 UNL     1     -32.632   4.373   2.546  1.00 20.00     0.317 HD
ENDBRANCH   3   8
TORSDOF 2
ENDMDL
MODEL 5
REMARK VINA RESULT:       0.7      1.970      3.524
REMARK  2 active torsions:
REMARK  status: ('A' for Active; 'I' for Inactive)
REMARK    1  A    between atoms: C6_6  and  C7_7 
REMARK    2  A    between atoms: C7_7  and  N9_9 
ROOT
HETATM    1  C1  UNL     1     -33.303   7.720   2.977  1.00 20.00     0.101 C 
HETATM    2  C4  UNL     1     -31.005   8.571   2.810  1.00 20.00     0.066 C 
HETATM    3  C7  UNL     1     -32.198   7.990   2.033  1.00 20.00     0.243 C 
HETATM    4  N8  UNL     1     -34.169   7.508   3.721  1.00 20.00    -0.195 NA
ENDROOT
BRANCH   3   5
HETATM    5  C6  UNL     1     -32.647   8.936   0.873  1.00 20.00     0.030 C 
HETATM    6  C2  UNL     1     -31.714   8.903  -0.346  1.00 20.00     0.013 C 
HETATM    7  C3  UNL     1     -32.829  10.396   1.322  1.00 20.00     0.013 C 
ENDBRANCH   3   5
BRANCH   3   8
HETATM    8  N9  UNL     1     -31.750   6.727   1.461  1.00 20.00     0.102 N 
HETATM    9  C5  UNL     1     -32.825   5.744   1.465  1.00 20.00     0.309 C 
HETATM   10  H23 UNL     1     -30.967   6.371   2.006  1.00 20.00     0.317 HD
ENDBRANCH   3   8
TORSDOF 2
ENDMDL
MODEL 6
REMARK VINA RESULT:       0.7      1.366      2.197
REMARK  2 active torsions:
REMARK  status: ('A' for Active; 'I' for Inactive)
REMARK    1  A    between atoms: C6_6  and  C7_7 
REMARK    2  A    between atoms: C7_7  and  N9_9 
ROOT
HETATM    1  C1  UNL     1     -35.219   6.598   3.274  1.00 20.00     0.101 C 
HETATM    2  C4  UNL     1     -33.216   7.534   4.342  1.00 20.00     0.066 C 
HETATM    3  C7  UNL     1     -33.743   6.531   3.302  1.00 20.00     0.243 C 
HETATM    4  N8  UNL     1     -36.379   6.651   3.254  1.00 20.00    -0.195 NA
ENDROOT
BRANCH   3   5
HETATM    5  C6  UNL     1     -33.125   6.786   1.889  1.00 20.00     0.030 C 
HETATM    6  C2  UNL     1     -32.459   5.547   1.274  1.00 20.00     0.013 C 
HETATM    7  C3  UNL     1     -32.121   7.951   1.872  1.00 20.00     0.013 C 
ENDBRANCH   3   5
BRANCH   3   8
HETATM    8  N9  UNL     1     -33.341   5.207   3.756  1.00 20.00     0.102 N 
HETATM    9  C5  UNL     1     -34.474   4.483   4.317  1.00 20.00     0.309 C 
HETATM   10  H23 UNL     1     -32.617   5.302   4.468  1.00 20.00     0.317 HD
ENDBRANCH   3   8
TORSDOF 2
ENDMDL
MODEL 7
REMARK VINA RESULT:       1.0      1.527      2.665
REMARK  2 active torsions:
REMARK  status: ('A' for Active; 'I' for Inactive)
REMARK    1  A    between atoms: C6_6  and  C7_7 
REMARK    2  A    between atoms: C7_7  and  N9_9 
ROOT
HETATM    1  C1  UNL     1     -33.498   5.861   2.066  1.00 20.00     0.101 C 
HETATM    2  C4  UNL     1     -35.585   6.383   3.252  1.00 20.00     0.066 C 
HETATM    3  C7  UNL     1     -34.049   6.404   3.326  1.00 20.00     0.243 C 
HETATM    4  N8  UNL     1     -33.067   5.433   1.077  1.00 20.00    -0.195 NA
ENDROOT
BRANCH   3   5
HETATM    5  C6  UNL     1     -33.505   7.839   3.623  1.00 20.00     0.030 C 
HETATM    6  C2  UNL     1     -32.262   8.210   2.801  1.00 20.00     0.013 C 
HETATM    7  C3  UNL     1     -33.204   8.073   5.113  1.00 20.00     0.013 C 
ENDBRANCH   3   5
BRANCH   3   8
HETATM    8  N9  UNL     1     -33.670   5.524   4.423  1.00 20.00     0.102 N 
HETATM    9  C5  UNL     1     -34.070   4.150   4.149  1.00 20.00     0.309 C 
HETATM   10  H23 UNL     1     -34.122   5.841   5.279  1.00 20.00     0.317 HD
ENDBRANCH   3   8
TORSDOF 2
ENDMDL
MODEL 8
REMARK VINA RESULT:       1.1      1.728      3.304
REMARK  2 active torsions:
REMARK  status: ('A' for Active; 'I' for Inactive)
REMARK    1  A    between atoms: C6_6  and  C7_7 
REMARK    2  A    between atoms: C7_7  and  N9_9 
ROOT
HETATM    1  C1  UNL     1     -33.699   6.458   2.874  1.00 20.00     0.101 C 
HETATM    2  C4  UNL     1     -31.853   5.275   1.768  1.00 20.00     0.066 C 
HETATM    3  C7  UNL     1     -32.749   6.524   1.743  1.00 20.00     0.243 C 
HETATM    4  N8  UNL     1     -34.445   6.403   3.762  1.00 20.00    -0.195 NA
ENDROOT
BRANCH   3   5
HETATM    5  C6  UNL     1     -31.907   7.840   1.772  1.00 20.00     0.030 C 
HETATM    6  C2  UNL     1     -31.858   8.511   3.153  1.00 20.00     0.013 C 
HETATM    7  C3  UNL     1     -32.371   8.875   0.733  1.00 20.00     0.013 C 
ENDBRANCH   3   5
BRANCH   3   8
HETATM    8  N9  UNL     1     -33.500   6.476   0.496  1.00 20.00     0.102 N 
HETATM    9  C5  UNL     1     -33.743   5.099   0.087  1.00 20.00     0.309 C 
HETATM   10  H23 UNL     1     -32.971   6.954  -0.232  1.00 20.00     0.317 HD
ENDBRANCH   3   8
TORSDOF 2
ENDMDL
MODEL 9
REMARK VINA RESULT:       1.2      1.582      3.194
REMARK  2 active torsions:
REMARK  status: ('A' for Active; 'I' for Inactive)
REMARK    1  A    between atoms: C6_6  and  C7_7 
REMARK    2  A    between atoms: C7_7  and  N9_9 
ROOT
HETATM    1  C1  UNL     1     -33.586   4.952   3.038  1.00 20.00     0.101 C 
HETATM    2  C4  UNL     1     -31.609   5.464   1.674  1.00 20.00     0.066 C 
HETATM    3  C7  UNL     1     -33.075   5.828   1.962  1.00 20.00     0.243 C 
HETATM    4  N8  UNL     1     -33.986   4.263   3.882  1.00 20.00    -0.195 NA
ENDROOT
BRANCH   3   5
HETATM    5  C6  UNL     1     -33.234   7.340   2.323  1.00 20.00     0.030 C 
HETATM    6  C2  UNL     1     -31.966   8.170   2.075  1.00 20.00     0.013 C 
HETATM    7  C3  UNL     1     -33.703   7.567   3.770  1.00 20.00     0.013 C 
ENDBRANCH   3   5
BRANCH   3   8
HETATM    8  N9  UNL     1     -33.822   5.557   0.741  1.00 20.00     0.102 N 
HETATM    9  C5  UNL     1     -33.266   4.410   0.035  1.00 20.00     0.309 C 
HETATM   10  H23 UNL     1     -33.783   6.375   0.136  1.00 20.00     0.317 HD
ENDBRANCH   3   8
TORSDOF 2
ENDMDL
