MODEL 1
REMARK VINA RESULT:      -2.6      0.000      0.000
REMARK  2 active torsions:
REMARK  status: ('A' for Active; 'I' for Inactive)
REMARK    1  A    between atoms: C1_1  and  C5_5 
REMARK       I    between atoms: C1_1  and  N7_7 
REMARK    2  A    between atoms: C5_5  and  C6_6 
ROOT
HETATM    1  C1  UNL     1     -32.537   6.759   2.049  1.00 20.00     0.220 C 
HETATM    2  C2  UNL     1     -35.205   6.358   4.123  1.00 20.00     0.040 C 
HETATM    3  C3  UNL     1     -34.275   5.407   3.359  1.00 20.00     0.127 C 
HETATM    4  C4  UNL     1     -34.152   7.460   3.948  1.00 20.00     0.127 C 
HETATM    5  N7  UNL     1     -33.524   6.586   2.978  1.00 20.00    -0.352 N 
HETATM    6  O8  UNL     1     -32.097   5.862   1.331  1.00 20.00    -0.273 OA
ENDROOT
BRANCH   1   7
HETATM    7  C5  UNL     1     -32.012   8.167   1.956  1.00 20.00     0.118 C 
BRANCH   7   8
HETATM    8  C6  UNL     1     -31.983   8.633   0.513  1.00 20.00     0.124 C 
HETATM    9 CL9  UNL     1     -32.593  10.298   0.351  1.00 20.00    -0.130 Cl
ENDBRANCH   7   8
ENDBRANCH   1   7
TORSDOF 2
ENDMDL
MODEL 2
REMARK VINA RESULT:      -2.1      3.044      4.489
REMARK  2 active torsions:
REMARK  status: ('A' for Active; 'I' for Inactive)
REMARK    1  A    between atoms: C1_1  and  C5_5 
REMARK       I    between atoms: C1_1  and  N7_7 
REMARK    2  A    between atoms: C5_5  and  C6_6 
ROOT
HETATM    1  C1  UNL     1     -34.145   7.229   3.860  1.00 20.00     0.220 C 
HETATM    2  C2  UNL     1     -31.926   7.489   1.293  1.00 20.00     0.040 C 
HETATM    3  C3  UNL     1     -32.006   8.055   2.716  1.00 20.00     0.127 C 
HETATM    4  C4  UNL     1     -32.958   6.429   1.701  1.00 20.00     0.127 C 
HETATM    5  N7  UNL     1     -33.190   7.236   2.882  1.00 20.00    -0.352 N 
HETATM    6  O8  UNL     1     -34.146   7.983   4.832  1.00 20.00    -0.273 OA
ENDROOT
BRANCH   1   7
HETATM    7  C5  UNL     1     -35.233   6.209   3.657  1.00 20.00     0.118 C 
BRANCH   7   8
HETATM    8  C6  UNL     1     -35.093   5.072   4.650  1.00 20.00     0.124 C 
HETATM    9 CL9  UNL     1     -33.887   3.877   4.112  1.00 20.00    -0.130 Cl
ENDBRANCH   7   8
ENDBRANCH   1   7
TORSDOF 2
ENDMDL
MODEL 3
REMARK VINA RESULT:      -1.5      3.274      4.682
REMARK  2 active torsions:
REMARK  status: ('A' for Active; 'I' for Inactive)
REMARK    1  A    between atoms: C1_1  and  C5_5 
REMARK       I    between atoms: C1_1  and  N7_7 
REMARK    2  A    between atoms: C5_5  and  C6_6 
ROOT
HETATM    1  C1  UNL     1     -33.895   6.479   3.375  1.00 20.00     0.220 C 
HETATM    2  C2  UNL     1     -31.785   7.968   1.158  1.00 20.00     0.040 C 
HETATM    3  C3  UNL     1     -32.503   8.416   2.438  1.00 20.00     0.127 C 
HETATM    4  C4  UNL     1     -32.026   6.513   1.582  1.00 20.00     0.127 C 
HETATM    5  N7  UNL     1     -32.952   7.043   2.563  1.00 20.00    -0.352 N 
HETATM    6  O8  UNL     1     -34.566   7.104   4.194  1.00 20.00    -0.273 OA
ENDROOT
BRANCH   1   7
HETATM    7  C5  UNL     1     -34.067   4.995   3.188  1.00 20.00     0.118 C 
BRANCH   7   8
HETATM    8  C6  UNL     1     -34.296   4.311   4.521  1.00 20.00     0.124 C 
HETATM    9 CL9  UNL     1     -33.201   2.924   4.741  1.00 20.00    -0.130 Cl
ENDBRANCH   7   8
ENDBRANCH   1   7
TORSDOF 2
ENDMDL
MODEL 4
REMARK VINA RESULT:      -0.9      2.555      4.172
REMARK  2 active torsions:
REMARK  status: ('A' for Active; 'I' for Inactive)
REMARK    1  A    between atoms: C1_1  and  C5_5 
REMARK       I    between atoms: C1_1  and  N7_7 
REMARK    2  A    between atoms: C5_5  and  C6_6 
ROOT
HETATM    1  C1  UNL     1     -32.300   7.657   1.797  1.00 20.00     0.220 C 
HETATM    2  C2  UNL     1     -32.313  10.627   0.135  1.00 20.00     0.040 C 
HETATM    3  C3  UNL     1     -31.822   9.210  -0.185  1.00 20.00     0.127 C 
HETATM    4  C4  UNL     1     -33.185  10.029   1.247  1.00 20.00     0.127 C 
HETATM    5  N7  UNL     1     -32.416   8.813   1.076  1.00 20.00    -0.352 N 
HETATM    6  O8  UNL     1     -31.614   6.695   1.455  1.00 20.00    -0.273 OA
ENDROOT
BRANCH   1   7
HETATM    7  C5  UNL     1     -33.088   7.644   3.079  1.00 20.00     0.118 C 
BRANCH   7   8
HETATM    8  C6  UNL     1     -33.749   6.296   3.287  1.00 20.00     0.124 C 
HETATM    9 CL9  UNL     1     -35.379   6.466   3.983  1.00 20.00    -0.130 Cl
ENDBRANCH   7   8
ENDBRANCH   1   7
TORSDOF 2
ENDMDL
MODEL 5
REMARK VINA RESULT:      -0.8      2.861      4.272
REMARK  2 active torsions:
REMARK  status: ('A' for Active; 'I' for Inactive)
REMARK    1  A    between atoms: C1_1  and  C5_5 
REMARK       I    between atoms: C1_1  and  N7_7 
REMARK    2  A    between atoms: C5_5  and  C6_6 
ROOT
HETATM    1  C1  UNL     1     -32.052   8.136   1.959  1.00 20.00     0.220 C 
HETATM    2  C2  UNL     1     -32.935  10.311  -0.505  1.00 20.00     0.040 C 
HETATM    3  C3  UNL     1     -32.511  10.452   0.962  1.00 20.00     0.127 C 
HETATM    4  C4  UNL     1     -32.333   8.899  -0.500  1.00 20.00     0.127 C 
HETATM    5  N7  UNL     1     -32.282   9.021   0.943  1.00 20.00    -0.352 N 
HETATM    6  O8  UNL     1     -32.001   8.446   3.148  1.00 20.00    -0.273 OA
ENDROOT
BRANCH   1   7
HETATM    7  C5  UNL     1     -31.866   6.712   1.511  1.00 20.00     0.118 C 
BRANCH   7   8
HETATM    8  C6  UNL     1     -33.160   5.934   1.645  1.00 20.00     0.124 C 
HETATM    9 CL9  UNL     1     -33.944   6.235   3.216  1.00 20.00    -0.130 Cl
ENDBRANCH   7   8
ENDBRANCH   1   7
TORSDOF 2
ENDMDL
MODEL 6
REMARK VINA RESULT:      -0.8      1.449      1.698
REMARK  2 active torsions:
REMARK  status: ('A' for Active; 'I' for Inactive)
REMARK    1  A    between atoms: C1_1  and  C5_5 
REMARK       I    between atoms: C1_1  and  N7_7 
REMARK    2  A    between atoms: C5_5  and  C6_6 
ROOT
HETATM    1  C1  UNL     1     -32.294   8.021   2.768  1.00 20.00     0.220 C 
HETATM    2  C2  UNL     1     -34.932   6.328   4.091  1.00 20.00     0.040 C 
HETATM    3  C3  UNL     1     -34.105   7.546   4.518  1.00 20.00     0.127 C 
HETATM    4  C4  UNL     1     -34.401   6.519   2.665  1.00 20.00     0.127 C 
HETATM    5  N7  UNL     1     -33.429   7.426   3.241  1.00 20.00    -0.352 N 
HETATM    6  O8  UNL     1     -31.611   8.818   3.410  1.00 20.00    -0.273 OA
ENDROOT
BRANCH   1   7
HETATM    7  C5  UNL     1     -31.920   7.618   1.367  1.00 20.00     0.118 C 
BRANCH   7   8
HETATM    8  C6  UNL     1     -31.422   8.815   0.580  1.00 20.00     0.124 C 
HETATM    9 CL9  UNL     1     -32.690  10.052   0.398  1.00 20.00    -0.130 Cl
ENDBRANCH   7   8
ENDBRANCH   1   7
TORSDOF 2
ENDMDL
MODEL 7
REMARK VINA RESULT:      -0.7      1.759      2.338
REMARK  2 active torsions:
REMARK  status: ('A' for Active; 'I' for Inactive)
REMARK    1  A    between atoms: C1_1  and  C5_5 
REMARK       I    between atoms: C1_1  and  N7_7 
REMARK    2  A    between atoms: C5_5  and  C6_6 
ROOT
HETATM    1  C1  UNL     1     -33.732   6.635   3.094  1.00 20.00     0.220 C 
HETATM    2  C2  UNL     1     -33.834   3.498   4.410  1.00 20.00     0.040 C 
HETATM    3  C3  UNL     1     -34.648   4.782   4.610  1.00 20.00     0.127 C 
HETATM    4  C4  UNL     1     -33.324   4.077   3.084  1.00 20.00     0.127 C 
HETATM    5  N7  UNL     1     -33.860   5.347   3.532  1.00 20.00    -0.352 N 
HETATM    6  O8  UNL     1     -34.317   7.596   3.591  1.00 20.00    -0.273 OA
ENDROOT
BRANCH   1   7
HETATM    7  C5  UNL     1     -32.792   6.804   1.930  1.00 20.00     0.118 C 
BRANCH   7   8
HETATM    8  C6  UNL     1     -31.994   8.085   2.069  1.00 20.00     0.124 C 
HETATM    9 CL9  UNL     1     -32.338   9.219   0.739  1.00 20.00    -0.130 Cl
ENDBRANCH   7   8
ENDBRANCH   1   7
TORSDOF 2
ENDMDL
MODEL 8
REMARK VINA RESULT:      -0.4      2.972      4.341
REMARK  2 active torsions:
REMARK  status: ('A' for Active; 'I' for Inactive)
REMARK    1  A    between atoms: C1_1  and  C5_5 
REMARK       I    between atoms: C1_1  and  N7_7 
REMARK    2  A    between atoms: C5_5  and  C6_6 
ROOT
HETATM    1  C1  UNL     1     -32.167   8.109   1.966  1.00 20.00     0.220 C 
HETATM    2  C2  UNL     1     -32.855  10.416  -0.439  1.00 20.00     0.040 C 
HETATM    3  C3  UNL     1     -32.675  10.461   1.084  1.00 20.00     0.127 C 
HETATM    4  C4  UNL     1     -32.136   9.061  -0.442  1.00 20.00     0.127 C 
HETATM    5  N7  UNL     1     -32.317   9.059   0.995  1.00 20.00    -0.352 N 
HETATM    6  O8  UNL     1     -32.328   8.316   3.168  1.00 20.00    -0.273 OA
ENDROOT
BRANCH   1   7
HETATM    7  C5  UNL     1     -31.786   6.748   1.449  1.00 20.00     0.118 C 
BRANCH   7   8
HETATM    8  C6  UNL     1     -32.901   5.750   1.695  1.00 20.00     0.124 C 
HETATM    9 CL9  UNL     1     -33.145   4.682   0.292  1.00 20.00    -0.130 Cl
ENDBRANCH   7   8
ENDBRANCH   1   7
TORSDOF 2
ENDMDL
MODEL 9
REMARK VINA RESULT:      -0.0      2.521      2.996
REMARK  2 active torsions:
REMARK  status: ('A' for Active; 'I' for Inactive)
REMARK    1  A    between atoms: C1_1  and  C5_5 
REMARK       I    between atoms: C1_1  and  N7_7 
REMARK    2  A    between atoms: C5_5  and  C6_6 
ROOT
HETATM    1  C1  UNL     1     -32.608   6.983   1.941  1.00 20.00     0.220 C 
HETATM    2  C2  UNL     1     -34.685   6.820   4.632  1.00 20.00     0.040 C 
HETATM    3  C3  UNL     1     -33.796   7.907   4.016  1.00 20.00     0.127 C 
HETATM    4  C4  UNL     1     -34.612   6.063   3.299  1.00 20.00     0.127 C 
HETATM    5  N7  UNL     1     -33.534   6.965   2.946  1.00 20.00    -0.352 N 
HETATM    6  O8  UNL     1     -31.783   7.881   1.777  1.00 20.00    -0.273 OA
ENDROOT
BRANCH   1   7
HETATM    7  C5  UNL     1     -32.664   5.792   1.024  1.00 20.00     0.118 C 
BRANCH   7   8
HETATM    8  C6  UNL     1     -31.522   4.838   1.314  1.00 20.00     0.124 C 
HETATM    9 CL9  UNL     1     -31.093   3.874  -0.120  1.00 20.00    -0.130 Cl
ENDBRANCH   7   8
ENDBRANCH   1   7
TORSDOF 2
ENDMDL
