MODEL 1
REMARK VINA RESULT:      -2.5      0.000      0.000
REMARK  3 active torsions:
REMARK  status: ('A' for Active; 'I' for Inactive)
REMARK    1  A    between atoms: C2_2  and  C5_5 
REMARK    2  A    between atoms: C2_2  and  C7_7 
REMARK    3  A    between atoms: C5_5  and  C6_6 
ROOT
HETATM    1  C1  UNL     1     -32.786   7.630   2.542  1.00 20.00     0.071 C 
HETATM    2  C4  UNL     1     -33.244   8.101   4.918  1.00 20.00     0.033 C 
HETATM    3  C7  UNL     1     -33.827   7.653   3.584  1.00 20.00     0.158 C 
HETATM    4  N8  UNL     1     -31.967   7.614   1.718  1.00 20.00    -0.196 NA
ENDROOT
BRANCH   3   5
HETATM    5  C2  UNL     1     -34.469   6.279   3.745  1.00 20.00     0.144 C 
HETATM    6  O9  UNL     1     -35.654   6.147   4.056  1.00 20.00    -0.297 OA
BRANCH   5   7
HETATM    7  C5  UNL     1     -33.556   5.082   3.513  1.00 20.00     0.079 C 
BRANCH   7   8
HETATM    8  C6  UNL     1     -34.050   3.795   4.171  1.00 20.00     0.003 C 
HETATM    9  C3  UNL     1     -32.941   3.058   4.910  1.00 20.00     0.005 C 
ENDBRANCH   7   8
ENDBRANCH   5   7
ENDBRANCH   3   5
TORSDOF 3
ENDMDL
MODEL 2
REMARK VINA RESULT:      -2.5      2.456      4.357
REMARK  3 active torsions:
REMARK  status: ('A' for Active; 'I' for Inactive)
REMARK    1  A    between atoms: C2_2  and  C5_5 
REMARK    2  A    between atoms: C2_2  and  C7_7 
REMARK    3  A    between atoms: C5_5  and  C6_6 
ROOT
HETATM    1  C1  UNL     1     -33.914   4.636   3.976  1.00 20.00     0.071 C 
HETATM    2  C4  UNL     1     -35.404   6.572   3.646  1.00 20.00     0.033 C 
HETATM    3  C7  UNL     1     -33.963   6.092   3.759  1.00 20.00     0.158 C 
HETATM    4  N8  UNL     1     -33.874   3.489   4.152  1.00 20.00    -0.196 NA
ENDROOT
BRANCH   3   5
HETATM    5  C2  UNL     1     -33.196   6.482   2.498  1.00 20.00     0.144 C 
HETATM    6  O9  UNL     1     -33.021   5.689   1.572  1.00 20.00    -0.297 OA
BRANCH   5   7
HETATM    7  C5  UNL     1     -32.651   7.904   2.460  1.00 20.00     0.079 C 
BRANCH   7   8
HETATM    8  C6  UNL     1     -31.865   8.227   1.190  1.00 20.00     0.003 C 
HETATM    9  C3  UNL     1     -32.354   9.499   0.512  1.00 20.00     0.005 C 
ENDBRANCH   7   8
ENDBRANCH   5   7
ENDBRANCH   3   5
TORSDOF 3
ENDMDL
MODEL 3
REMARK VINA RESULT:      -2.3      1.616      2.374
REMARK  3 active torsions:
REMARK  status: ('A' for Active; 'I' for Inactive)
REMARK    1  A    between atoms: C2_2  and  C5_5 
REMARK    2  A    between atoms: C2_2  and  C7_7 
REMARK    3  A    between atoms: C5_5  and  C6_6 
ROOT
HETATM    1  C1  UNL     1     -32.317   8.385   1.462  1.00 20.00     0.071 C 
HETATM    2  C4  UNL     1     -32.691   5.949   1.482  1.00 20.00     0.033 C 
HETATM    3  C7  UNL     1     -32.375   7.185   2.313  1.00 20.00     0.158 C 
HETATM    4  N8  UNL     1     -32.267   9.332   0.792  1.00 20.00    -0.196 NA
ENDROOT
BRANCH   3   5
HETATM    5  C2  UNL     1     -33.424   7.343   3.410  1.00 20.00     0.144 C 
HETATM    6  O9  UNL     1     -33.216   8.022   4.416  1.00 20.00    -0.297 OA
BRANCH   5   7
HETATM    7  C5  UNL     1     -34.736   6.601   3.192  1.00 20.00     0.079 C 
BRANCH   7   8
HETATM    8  C6  UNL     1     -35.096   5.644   4.327  1.00 20.00     0.003 C 
HETATM    9  C3  UNL     1     -34.291   4.352   4.276  1.00 20.00     0.005 C 
ENDBRANCH   7   8
ENDBRANCH   5   7
ENDBRANCH   3   5
TORSDOF 3
ENDMDL
MODEL 4
REMARK VINA RESULT:      -2.2      2.889      5.031
REMARK  3 active torsions:
REMARK  status: ('A' for Active; 'I' for Inactive)
REMARK    1  A    between atoms: C2_2  and  C5_5 
REMARK    2  A    between atoms: C2_2  and  C7_7 
REMARK    3  A    between atoms: C5_5  and  C6_6 
ROOT
HETATM    1  C1  UNL     1     -33.938   6.744   2.989  1.00 20.00     0.071 C 
HETATM    2  C4  UNL     1     -32.389   5.547   1.490  1.00 20.00     0.033 C 
HETATM    3  C7  UNL     1     -33.116   6.856   1.773  1.00 20.00     0.158 C 
HETATM    4  N8  UNL     1     -34.590   6.656   3.946  1.00 20.00    -0.196 NA
ENDROOT
BRANCH   3   5
HETATM    5  C2  UNL     1     -32.097   7.984   1.904  1.00 20.00     0.144 C 
HETATM    6  O9  UNL     1     -31.749   8.422   3.002  1.00 20.00    -0.297 OA
BRANCH   5   7
HETATM    7  C5  UNL     1     -31.547   8.545   0.599  1.00 20.00     0.079 C 
BRANCH   7   8
HETATM    8  C6  UNL     1     -32.512   9.485  -0.121  1.00 20.00     0.003 C 
HETATM    9  C3  UNL     1     -32.722  10.792   0.632  1.00 20.00     0.005 C 
ENDBRANCH   7   8
ENDBRANCH   5   7
ENDBRANCH   3   5
TORSDOF 3
ENDMDL
MODEL 5
REMARK VINA RESULT:      -2.1      2.342      4.351
REMARK  3 active torsions:
REMARK  status: ('A' for Active; 'I' for Inactive)
REMARK    1  A    between atoms: C2_2  and  C5_5 
REMARK    2  A    between atoms: C2_2  and  C7_7 
REMARK    3  A    between atoms: C5_5  and  C6_6 
ROOT
HETATM    1  C1  UNL     1     -33.874   7.552   4.225  1.00 20.00     0.071 C 
HETATM    2  C4  UNL     1     -34.288   5.195   3.631  1.00 20.00     0.033 C 
HETATM    3  C7  UNL     1     -34.101   6.615   3.112  1.00 20.00     0.158 C 
HETATM    4  N8  UNL     1     -33.699   8.292   5.102  1.00 20.00    -0.196 NA
ENDROOT
BRANCH   3   5
HETATM    5  C2  UNL     1     -32.938   6.647   2.125  1.00 20.00     0.144 C 
HETATM    6  O9  UNL     1     -32.646   5.672   1.431  1.00 20.00    -0.297 OA
BRANCH   5   7
HETATM    7  C5  UNL     1     -32.152   7.950   2.060  1.00 20.00     0.079 C 
BRANCH   7   8
HETATM    8  C6  UNL     1     -31.874   8.430   0.636  1.00 20.00     0.003 C 
HETATM    9  C3  UNL     1     -32.437   9.819   0.370  1.00 20.00     0.005 C 
ENDBRANCH   7   8
ENDBRANCH   5   7
ENDBRANCH   3   5
TORSDOF 3
ENDMDL
MODEL 6
REMARK VINA RESULT:      -2.0      1.600      2.093
REMARK  3 active torsions:
REMARK  status: ('A' for Active; 'I' for Inactive)
REMARK    1  A    between atoms: C2_2  and  C5_5 
REMARK    2  A    between atoms: C2_2  and  C7_7 
REMARK    3  A    between atoms: C5_5  and  C6_6 
ROOT
HETATM    1  C1  UNL     1     -32.726   6.134   1.673  1.00 20.00     0.071 C 
HETATM    2  C4  UNL     1     -31.949   8.345   2.438  1.00 20.00     0.033 C 
HETATM    3  C7  UNL     1     -33.147   7.425   2.243  1.00 20.00     0.158 C 
HETATM    4  N8  UNL     1     -32.397   5.117   1.220  1.00 20.00    -0.196 NA
ENDROOT
BRANCH   3   5
HETATM    5  C2  UNL     1     -33.859   7.227   3.578  1.00 20.00     0.144 C 
HETATM    6  O9  UNL     1     -33.427   7.714   4.624  1.00 20.00    -0.297 OA
BRANCH   5   7
HETATM    7  C5  UNL     1     -35.125   6.383   3.542  1.00 20.00     0.079 C 
BRANCH   7   8
HETATM    8  C6  UNL     1     -35.124   5.230   4.545  1.00 20.00     0.003 C 
HETATM    9  C3  UNL     1     -34.079   4.173   4.214  1.00 20.00     0.005 C 
ENDBRANCH   7   8
ENDBRANCH   5   7
ENDBRANCH   3   5
TORSDOF 3
ENDMDL
MODEL 7
REMARK VINA RESULT:      -2.0      2.672      4.434
REMARK  3 active torsions:
REMARK  status: ('A' for Active; 'I' for Inactive)
REMARK    1  A    between atoms: C2_2  and  C5_5 
REMARK    2  A    between atoms: C2_2  and  C7_7 
REMARK    3  A    between atoms: C5_5  and  C6_6 
ROOT
HETATM    1  C1  UNL     1     -34.662   6.539   3.754  1.00 20.00     0.071 C 
HETATM    2  C4  UNL     1     -33.096   8.339   4.374  1.00 20.00     0.033 C 
HETATM    3  C7  UNL     1     -33.257   6.977   3.711  1.00 20.00     0.158 C 
HETATM    4  N8  UNL     1     -35.769   6.190   3.789  1.00 20.00    -0.196 NA
ENDROOT
BRANCH   3   5
HETATM    5  C2  UNL     1     -32.750   7.048   2.274  1.00 20.00     0.144 C 
HETATM    6  O9  UNL     1     -32.976   6.152   1.459  1.00 20.00    -0.297 OA
BRANCH   5   7
HETATM    7  C5  UNL     1     -31.938   8.285   1.911  1.00 20.00     0.079 C 
BRANCH   7   8
HETATM    8  C6  UNL     1     -32.125   8.742   0.466  1.00 20.00     0.003 C 
HETATM    9  C3  UNL     1     -32.535  10.205   0.367  1.00 20.00     0.005 C 
ENDBRANCH   7   8
ENDBRANCH   5   7
ENDBRANCH   3   5
TORSDOF 3
ENDMDL
MODEL 8
REMARK VINA RESULT:      -1.8      2.286      4.048
REMARK  3 active torsions:
REMARK  status: ('A' for Active; 'I' for Inactive)
REMARK    1  A    between atoms: C2_2  and  C5_5 
REMARK    2  A    between atoms: C2_2  and  C7_7 
REMARK    3  A    between atoms: C5_5  and  C6_6 
ROOT
HETATM    1  C1  UNL     1     -34.374   4.902   4.127  1.00 20.00     0.071 C 
HETATM    2  C4  UNL     1     -35.993   6.537   3.242  1.00 20.00     0.033 C 
HETATM    3  C7  UNL     1     -34.778   6.318   4.135  1.00 20.00     0.158 C 
HETATM    4  N8  UNL     1     -34.056   3.785   4.125  1.00 20.00    -0.196 NA
ENDROOT
BRANCH   3   5
HETATM    5  C2  UNL     1     -33.636   7.215   3.667  1.00 20.00     0.144 C 
HETATM    6  O9  UNL     1     -33.148   8.080   4.396  1.00 20.00    -0.297 OA
BRANCH   5   7
HETATM    7  C5  UNL     1     -33.145   6.986   2.244  1.00 20.00     0.079 C 
BRANCH   7   8
HETATM    8  C6  UNL     1     -31.922   7.823   1.873  1.00 20.00     0.003 C 
HETATM    9  C3  UNL     1     -32.261   8.952   0.909  1.00 20.00     0.005 C 
ENDBRANCH   7   8
ENDBRANCH   5   7
ENDBRANCH   3   5
TORSDOF 3
ENDMDL
MODEL 9
REMARK VINA RESULT:      -1.7      1.404      1.404
REMARK  3 active torsions:
REMARK  status: ('A' for Active; 'I' for Inactive)
REMARK    1  A    between atoms: C2_2  and  C5_5 
REMARK    2  A    between atoms: C2_2  and  C7_7 
REMARK    3  A    between atoms: C5_5  and  C6_6 
ROOT
HETATM    1  C1  UNL     1     -32.639   7.870   2.257  1.00 20.00     0.071 C 
HETATM    2  C4  UNL     1     -33.867   7.647   4.382  1.00 20.00     0.033 C 
HETATM    3  C7  UNL     1     -33.761   7.196   2.932  1.00 20.00     0.158 C 
HETATM    4  N8  UNL     1     -31.757   8.403   1.722  1.00 20.00    -0.196 NA
ENDROOT
BRANCH   3   5
HETATM    5  C2  UNL     1     -33.598   5.680   2.881  1.00 20.00     0.144 C 
HETATM    6  O9  UNL     1     -32.999   5.120   1.962  1.00 20.00    -0.297 OA
BRANCH   5   7
HETATM    7  C5  UNL     1     -34.230   4.900   4.027  1.00 20.00     0.079 C 
BRANCH   7   8
HETATM    8  C6  UNL     1     -33.821   3.429   4.070  1.00 20.00     0.003 C 
HETATM    9  C3  UNL     1     -32.833   3.132   5.190  1.00 20.00     0.005 C 
ENDBRANCH   7   8
ENDBRANCH   5   7
ENDBRANCH   3   5
TORSDOF 3
ENDMDL
