MODEL 1
REMARK VINA RESULT:      -0.1      0.000      0.000
REMARK  3 active torsions:
REMARK  status: ('A' for Active; 'I' for Inactive)
REMARK    1  A    between atoms: C2_2  and  C7_7 
REMARK    2  A    between atoms: C2_2  and  C8_8 
REMARK    3  A    between atoms: C7_7  and  C9_9 
ROOT
HETATM    1  C1  UNL     1     -34.482   5.089   4.128  1.00 20.00     0.071 C 
HETATM    2  C3  UNL     1     -36.043   6.666   3.055  1.00 20.00     0.033 C 
HETATM    3  C8  UNL     1     -35.028   6.456   4.171  1.00 20.00     0.158 C 
HETATM    4  N10 UNL     1     -34.053   4.011   4.099  1.00 20.00    -0.196 NA
ENDROOT
BRANCH   3   5
HETATM    5  C2  UNL     1     -33.917   7.491   4.041  1.00 20.00     0.144 C 
HETATM    6  O11 UNL     1     -33.191   7.795   4.990  1.00 20.00    -0.296 OA
BRANCH   5   7
HETATM    7  C7  UNL     1     -33.751   8.167   2.687  1.00 20.00     0.088 C 
BRANCH   7   8
HETATM    8  C9  UNL     1     -32.399   7.899   1.988  1.00 20.00    -0.045 C 
HETATM    9  C4  UNL     1     -32.259   6.421   1.590  1.00 20.00     0.015 C 
HETATM   10  C5  UNL     1     -31.217   8.296   2.887  1.00 20.00     0.015 C 
HETATM   11  C6  UNL     1     -32.345   8.757   0.709  1.00 20.00     0.015 C 
ENDBRANCH   7   8
ENDBRANCH   5   7
ENDBRANCH   3   5
TORSDOF 3
ENDMDL
MODEL 2
REMARK VINA RESULT:      -0.0      1.586      2.086
REMARK  3 active torsions:
REMARK  status: ('A' for Active; 'I' for Inactive)
REMARK    1  A    between atoms: C2_2  and  C7_7 
REMARK    2  A    between atoms: C2_2  and  C8_8 
REMARK    3  A    between atoms: C7_7  and  C9_9 
ROOT
HETATM    1  C1  UNL     1     -33.884   4.328   4.129  1.00 20.00     0.071 C 
HETATM    2  C3  UNL     1     -35.428   6.243   3.957  1.00 20.00     0.033 C 
HETATM    3  C8  UNL     1     -33.984   5.770   3.845  1.00 20.00     0.158 C 
HETATM    4  N10 UNL     1     -33.802   3.193   4.357  1.00 20.00    -0.196 NA
ENDROOT
BRANCH   3   5
HETATM    5  C2  UNL     1     -33.458   6.087   2.450  1.00 20.00     0.144 C 
HETATM    6  O11 UNL     1     -32.959   5.223   1.726  1.00 20.00    -0.296 OA
BRANCH   5   7
HETATM    7  C7  UNL     1     -33.545   7.536   1.986  1.00 20.00     0.088 C 
BRANCH   7   8
HETATM    8  C9  UNL     1     -32.182   8.225   1.752  1.00 20.00    -0.045 C 
HETATM    9  C4  UNL     1     -32.319   9.426   0.802  1.00 20.00     0.015 C 
HETATM   10  C5  UNL     1     -31.148   7.242   1.182  1.00 20.00     0.015 C 
HETATM   11  C6  UNL     1     -31.666   8.735   3.113  1.00 20.00     0.015 C 
ENDBRANCH   7   8
ENDBRANCH   5   7
ENDBRANCH   3   5
TORSDOF 3
ENDMDL
MODEL 3
REMARK VINA RESULT:      -0.0      1.657      2.137
REMARK  3 active torsions:
REMARK  status: ('A' for Active; 'I' for Inactive)
REMARK    1  A    between atoms: C2_2  and  C7_7 
REMARK    2  A    between atoms: C2_2  and  C8_8 
REMARK    3  A    between atoms: C7_7  and  C9_9 
ROOT
HETATM    1  C1  UNL     1     -33.860   4.347   4.083  1.00 20.00     0.071 C 
HETATM    2  C3  UNL     1     -35.256   6.360   3.798  1.00 20.00     0.033 C 
HETATM    3  C8  UNL     1     -33.855   5.770   3.701  1.00 20.00     0.158 C 
HETATM    4  N10 UNL     1     -33.861   3.227   4.386  1.00 20.00    -0.196 NA
ENDROOT
BRANCH   3   5
HETATM    5  C2  UNL     1     -33.330   5.952   2.282  1.00 20.00     0.144 C 
HETATM    6  O11 UNL     1     -32.772   5.039   1.668  1.00 20.00    -0.296 OA
BRANCH   5   7
HETATM    7  C7  UNL     1     -33.494   7.328   1.650  1.00 20.00     0.088 C 
BRANCH   7   8
HETATM    8  C9  UNL     1     -32.241   8.229   1.723  1.00 20.00    -0.045 C 
HETATM    9  C4  UNL     1     -31.968   8.691   3.164  1.00 20.00     0.015 C 
HETATM   10  C5  UNL     1     -32.384   9.461   0.814  1.00 20.00     0.015 C 
HETATM   11  C6  UNL     1     -31.032   7.406   1.237  1.00 20.00     0.015 C 
ENDBRANCH   7   8
ENDBRANCH   5   7
ENDBRANCH   3   5
TORSDOF 3
ENDMDL
MODEL 4
REMARK VINA RESULT:       0.1      2.666      4.566
REMARK  3 active torsions:
REMARK  status: ('A' for Active; 'I' for Inactive)
REMARK    1  A    between atoms: C2_2  and  C7_7 
REMARK    2  A    between atoms: C2_2  and  C8_8 
REMARK    3  A    between atoms: C7_7  and  C9_9 
ROOT
HETATM    1  C1  UNL     1     -32.353   9.086   0.708  1.00 20.00     0.071 C 
HETATM    2  C3  UNL     1     -30.826   8.462   2.541  1.00 20.00     0.033 C 
HETATM    3  C8  UNL     1     -32.237   8.348   1.978  1.00 20.00     0.158 C 
HETATM    4  N10 UNL     1     -32.448   9.670  -0.290  1.00 20.00    -0.196 NA
ENDROOT
BRANCH   3   5
HETATM    5  C2  UNL     1     -32.584   6.876   1.785  1.00 20.00     0.144 C 
HETATM    6  O11 UNL     1     -31.751   6.052   1.400  1.00 20.00    -0.296 OA
BRANCH   5   7
HETATM    7  C7  UNL     1     -34.023   6.458   2.059  1.00 20.00     0.088 C 
BRANCH   7   8
HETATM    8  C9  UNL     1     -34.370   6.267   3.552  1.00 20.00    -0.045 C 
HETATM    9  C4  UNL     1     -33.777   7.394   4.413  1.00 20.00     0.015 C 
HETATM   10  C5  UNL     1     -33.867   4.911   4.074  1.00 20.00     0.015 C 
HETATM   11  C6  UNL     1     -35.905   6.301   3.692  1.00 20.00     0.015 C 
ENDBRANCH   7   8
ENDBRANCH   5   7
ENDBRANCH   3   5
TORSDOF 3
ENDMDL
MODEL 5
REMARK VINA RESULT:       0.2      2.676      4.531
REMARK  3 active torsions:
REMARK  status: ('A' for Active; 'I' for Inactive)
REMARK    1  A    between atoms: C2_2  and  C7_7 
REMARK    2  A    between atoms: C2_2  and  C8_8 
REMARK    3  A    between atoms: C7_7  and  C9_9 
ROOT
HETATM    1  C1  UNL     1     -32.331   9.123   0.742  1.00 20.00     0.071 C 
HETATM    2  C3  UNL     1     -30.800   8.455   2.556  1.00 20.00     0.033 C 
HETATM    3  C8  UNL     1     -32.216   8.365   2.000  1.00 20.00     0.158 C 
HETATM    4  N10 UNL     1     -32.425   9.723  -0.247  1.00 20.00    -0.196 NA
ENDROOT
BRANCH   3   5
HETATM    5  C2  UNL     1     -32.580   6.900   1.788  1.00 20.00     0.144 C 
HETATM    6  O11 UNL     1     -31.757   6.071   1.396  1.00 20.00    -0.296 OA
BRANCH   5   7
HETATM    7  C7  UNL     1     -34.025   6.498   2.054  1.00 20.00     0.088 C 
BRANCH   7   8
HETATM    8  C9  UNL     1     -34.364   6.235   3.538  1.00 20.00    -0.045 C 
HETATM    9  C4  UNL     1     -33.759   4.908   4.023  1.00 20.00     0.015 C 
HETATM   10  C5  UNL     1     -35.883   6.215   3.770  1.00 20.00     0.015 C 
HETATM   11  C6  UNL     1     -33.761   7.382   4.374  1.00 20.00     0.015 C 
ENDBRANCH   7   8
ENDBRANCH   5   7
ENDBRANCH   3   5
TORSDOF 3
ENDMDL
MODEL 6
REMARK VINA RESULT:       0.8      2.040      2.589
REMARK  3 active torsions:
REMARK  status: ('A' for Active; 'I' for Inactive)
REMARK    1  A    between atoms: C2_2  and  C7_7 
REMARK    2  A    between atoms: C2_2  and  C8_8 
REMARK    3  A    between atoms: C7_7  and  C9_9 
ROOT
HETATM    1  C1  UNL     1     -34.149   6.967   3.783  1.00 20.00     0.071 C 
HETATM    2  C3  UNL     1     -33.571   4.581   3.555  1.00 20.00     0.033 C 
HETATM    3  C8  UNL     1     -33.991   5.855   2.831  1.00 20.00     0.158 C 
HETATM    4  N10 UNL     1     -34.279   7.844   4.532  1.00 20.00    -0.196 NA
ENDROOT
BRANCH   3   5
HETATM    5  C2  UNL     1     -32.954   6.193   1.766  1.00 20.00     0.144 C 
HETATM    6  O11 UNL     1     -31.958   5.492   1.577  1.00 20.00    -0.296 OA
BRANCH   5   7
HETATM    7  C7  UNL     1     -33.179   7.461   0.954  1.00 20.00     0.088 C 
BRANCH   7   8
HETATM    8  C9  UNL     1     -32.071   8.529   1.096  1.00 20.00    -0.045 C 
HETATM    9  C4  UNL     1     -31.000   8.372   0.005  1.00 20.00     0.015 C 
HETATM   10  C5  UNL     1     -31.402   8.460   2.478  1.00 20.00     0.015 C 
HETATM   11  C6  UNL     1     -32.725   9.917   0.943  1.00 20.00     0.015 C 
ENDBRANCH   7   8
ENDBRANCH   5   7
ENDBRANCH   3   5
TORSDOF 3
ENDMDL
MODEL 7
REMARK VINA RESULT:       0.9      2.374      4.385
REMARK  3 active torsions:
REMARK  status: ('A' for Active; 'I' for Inactive)
REMARK    1  A    between atoms: C2_2  and  C7_7 
REMARK    2  A    between atoms: C2_2  and  C8_8 
REMARK    3  A    between atoms: C7_7  and  C9_9 
ROOT
HETATM    1  C1  UNL     1     -32.128   8.871   0.749  1.00 20.00     0.071 C 
HETATM    2  C3  UNL     1     -31.871   6.420   0.671  1.00 20.00     0.033 C 
HETATM    3  C8  UNL     1     -31.742   7.678   1.522  1.00 20.00     0.158 C 
HETATM    4  N10 UNL     1     -32.429   9.813   0.142  1.00 20.00    -0.196 NA
ENDROOT
BRANCH   3   5
HETATM    5  C2  UNL     1     -32.606   7.533   2.769  1.00 20.00     0.144 C 
HETATM    6  O11 UNL     1     -32.552   8.337   3.700  1.00 20.00    -0.296 OA
BRANCH   5   7
HETATM    7  C7  UNL     1     -33.531   6.324   2.837  1.00 20.00     0.088 C 
BRANCH   7   8
HETATM    8  C9  UNL     1     -34.716   6.468   3.818  1.00 20.00    -0.045 C 
HETATM    9  C4  UNL     1     -35.996   6.907   3.087  1.00 20.00     0.015 C 
HETATM   10  C5  UNL     1     -34.399   7.475   4.935  1.00 20.00     0.015 C 
HETATM   11  C6  UNL     1     -34.970   5.092   4.464  1.00 20.00     0.015 C 
ENDBRANCH   7   8
ENDBRANCH   5   7
ENDBRANCH   3   5
TORSDOF 3
ENDMDL
MODEL 8
REMARK VINA RESULT:       1.1      2.107      2.984
REMARK  3 active torsions:
REMARK  status: ('A' for Active; 'I' for Inactive)
REMARK    1  A    between atoms: C2_2  and  C7_7 
REMARK    2  A    between atoms: C2_2  and  C8_8 
REMARK    3  A    between atoms: C7_7  and  C9_9 
ROOT
HETATM    1  C1  UNL     1     -33.846   7.500   4.065  1.00 20.00     0.071 C 
HETATM    2  C3  UNL     1     -33.961   5.158   3.304  1.00 20.00     0.033 C 
HETATM    3  C8  UNL     1     -33.872   6.620   2.884  1.00 20.00     0.158 C 
HETATM    4  N10 UNL     1     -33.829   8.196   4.994  1.00 20.00    -0.196 NA
ENDROOT
BRANCH   3   5
HETATM    5  C2  UNL     1     -32.628   6.822   2.027  1.00 20.00     0.144 C 
HETATM    6  O11 UNL     1     -32.106   5.896   1.402  1.00 20.00    -0.296 OA
BRANCH   5   7
HETATM    7  C7  UNL     1     -32.025   8.220   1.993  1.00 20.00     0.088 C 
BRANCH   7   8
HETATM    8  C9  UNL     1     -32.165   8.955   0.642  1.00 20.00    -0.045 C 
HETATM    9  C4  UNL     1     -32.664  10.396   0.839  1.00 20.00     0.015 C 
HETATM   10  C5  UNL     1     -33.124   8.212  -0.303  1.00 20.00     0.015 C 
HETATM   11  C6  UNL     1     -30.774   9.005  -0.020  1.00 20.00     0.015 C 
ENDBRANCH   7   8
ENDBRANCH   5   7
ENDBRANCH   3   5
TORSDOF 3
ENDMDL
MODEL 9
REMARK VINA RESULT:       1.3      1.729      3.138
REMARK  3 active torsions:
REMARK  status: ('A' for Active; 'I' for Inactive)
REMARK    1  A    between atoms: C2_2  and  C7_7 
REMARK    2  A    between atoms: C2_2  and  C8_8 
REMARK    3  A    between atoms: C7_7  and  C9_9 
ROOT
HETATM    1  C1  UNL     1     -33.904   6.692   2.963  1.00 20.00     0.071 C 
HETATM    2  C3  UNL     1     -32.284   5.618   1.446  1.00 20.00     0.033 C 
HETATM    3  C8  UNL     1     -33.040   6.896   1.787  1.00 20.00     0.158 C 
HETATM    4  N10 UNL     1     -34.588   6.533   3.887  1.00 20.00    -0.196 NA
ENDROOT
BRANCH   3   5
HETATM    5  C2  UNL     1     -32.040   8.020   2.035  1.00 20.00     0.144 C 
HETATM    6  O11 UNL     1     -31.743   8.394   3.171  1.00 20.00    -0.296 OA
BRANCH   5   7
HETATM    7  C7  UNL     1     -31.436   8.696   0.810  1.00 20.00     0.088 C 
BRANCH   7   8
HETATM    8  C9  UNL     1     -32.254   9.882   0.253  1.00 20.00    -0.045 C 
HETATM    9  C4  UNL     1     -31.335  11.004  -0.256  1.00 20.00     0.015 C 
HETATM   10  C5  UNL     1     -33.210  10.450   1.315  1.00 20.00     0.015 C 
HETATM   11  C6  UNL     1     -33.096   9.366  -0.931  1.00 20.00     0.015 C 
ENDBRANCH   7   8
ENDBRANCH   5   7
ENDBRANCH   3   5
TORSDOF 3
ENDMDL
