MODEL 1
REMARK VINA RESULT:      -1.3      0.000      0.000
REMARK  2 active torsions:
REMARK  status: ('A' for Active; 'I' for Inactive)
REMARK    1  A    between atoms: C1_1  and  C3_3 
REMARK    2  A    between atoms: C7_7  and  C9_9 
ROOT
HETATM    1  C1  UNL     1     -33.588   7.037   3.261  1.00 20.00    -0.002 C 
HETATM    2  C2  UNL     1     -33.426   5.744   2.928  1.00 20.00     0.021 C 
HETATM    3  C4  UNL     1     -32.950   8.160   2.484  1.00 20.00     0.047 C 
HETATM    4  C5  UNL     1     -32.621   5.303   1.733  1.00 20.00     0.052 C 
HETATM    5  C6  UNL     1     -32.280   6.444   0.771  1.00 20.00     0.010 C 
HETATM    6  C7  UNL     1     -31.831   7.692   1.537  1.00 20.00    -0.010 C 
HETATM    7 CL11 UNL     1     -34.122   4.427   3.816  1.00 20.00    -0.088 Cl
ENDROOT
BRANCH   1   8
HETATM    8  C3  UNL     1     -34.392   7.455   4.420  1.00 20.00     0.267 C 
HETATM    9  O10 UNL     1     -33.959   8.210   5.277  1.00 20.00    -0.302 OA
ENDBRANCH   1   8
BRANCH   6  10
HETATM   10  C9  UNL     1     -31.426   8.811   0.581  1.00 20.00     0.000 C 
HETATM   11  C8  UNL     1     -32.548   9.771   0.349  1.00 20.00     0.005 C 
ENDBRANCH   6  10
TORSDOF 2
ENDMDL
MODEL 2
REMARK VINA RESULT:      -0.8      2.017      2.845
REMARK  2 active torsions:
REMARK  status: ('A' for Active; 'I' for Inactive)
REMARK    1  A    between atoms: C1_1  and  C3_3 
REMARK    2  A    between atoms: C7_7  and  C9_9 
ROOT
HETATM    1  C1  UNL     1     -33.647   5.034   3.398  1.00 20.00    -0.002 C 
HETATM    2  C2  UNL     1     -34.580   5.768   4.030  1.00 20.00     0.021 C 
HETATM    3  C4  UNL     1     -32.623   5.645   2.476  1.00 20.00     0.047 C 
HETATM    4  C5  UNL     1     -34.666   7.266   3.901  1.00 20.00     0.052 C 
HETATM    5  C6  UNL     1     -33.429   7.896   3.255  1.00 20.00     0.010 C 
HETATM    6  C7  UNL     1     -32.966   7.081   2.044  1.00 20.00    -0.010 C 
HETATM    7 CL11 UNL     1     -35.789   5.094   5.075  1.00 20.00    -0.088 Cl
ENDROOT
BRANCH   1   8
HETATM    8  C3  UNL     1     -33.562   3.572   3.548  1.00 20.00     0.267 C 
HETATM    9  O10 UNL     1     -33.244   3.042   4.601  1.00 20.00    -0.302 OA
ENDBRANCH   1   8
BRANCH   6  10
HETATM   10  C9  UNL     1     -31.773   7.741   1.358  1.00 20.00     0.000 C 
HETATM   11  C8  UNL     1     -32.123   9.091   0.822  1.00 20.00     0.005 C 
ENDBRANCH   6  10
TORSDOF 2
ENDMDL
MODEL 3
REMARK VINA RESULT:      -0.2      2.139      2.987
REMARK  2 active torsions:
REMARK  status: ('A' for Active; 'I' for Inactive)
REMARK    1  A    between atoms: C1_1  and  C3_3 
REMARK    2  A    between atoms: C7_7  and  C9_9 
ROOT
HETATM    1  C1  UNL     1     -32.630   5.801   1.793  1.00 20.00    -0.002 C 
HETATM    2  C2  UNL     1     -33.394   5.877   2.897  1.00 20.00     0.021 C 
HETATM    3  C4  UNL     1     -32.082   7.022   1.100  1.00 20.00     0.047 C 
HETATM    4  C5  UNL     1     -33.741   7.184   3.560  1.00 20.00     0.052 C 
HETATM    5  C6  UNL     1     -32.905   8.365   3.061  1.00 20.00     0.010 C 
HETATM    6  C7  UNL     1     -32.762   8.331   1.536  1.00 20.00    -0.010 C 
HETATM    7 CL11 UNL     1     -34.063   4.494   3.703  1.00 20.00    -0.088 Cl
ENDROOT
BRANCH   1   8
HETATM    8  C3  UNL     1     -32.282   4.515   1.166  1.00 20.00     0.267 C 
HETATM    9  O10 UNL     1     -31.461   4.429   0.267  1.00 20.00    -0.302 OA
ENDBRANCH   1   8
BRANCH   6  10
HETATM   10  C9  UNL     1     -31.985   9.542   1.028  1.00 20.00     0.000 C 
HETATM   11  C8  UNL     1     -32.619  10.133  -0.190  1.00 20.00     0.005 C 
ENDBRANCH   6  10
TORSDOF 2
ENDMDL
MODEL 4
REMARK VINA RESULT:       0.0      2.962      4.941
REMARK  2 active torsions:
REMARK  status: ('A' for Active; 'I' for Inactive)
REMARK    1  A    between atoms: C1_1  and  C3_3 
REMARK    2  A    between atoms: C7_7  and  C9_9 
ROOT
HETATM    1  C1  UNL     1     -32.594   6.077   1.763  1.00 20.00    -0.002 C 
HETATM    2  C2  UNL     1     -32.870   7.348   2.103  1.00 20.00     0.021 C 
HETATM    3  C4  UNL     1     -33.101   4.898   2.554  1.00 20.00     0.047 C 
HETATM    4  C5  UNL     1     -33.737   7.708   3.281  1.00 20.00     0.052 C 
HETATM    5  C6  UNL     1     -34.517   6.521   3.852  1.00 20.00     0.010 C 
HETATM    6  C7  UNL     1     -33.629   5.276   3.948  1.00 20.00    -0.010 C 
HETATM    7 CL11 UNL     1     -32.281   8.727   1.232  1.00 20.00    -0.088 Cl
ENDROOT
BRANCH   1   8
HETATM    8  C3  UNL     1     -31.761   5.738   0.598  1.00 20.00     0.267 C 
HETATM    9  O10 UNL     1     -31.550   4.584   0.259  1.00 20.00    -0.302 OA
ENDBRANCH   1   8
BRANCH   6  10
HETATM   10  C9  UNL     1     -34.383   4.108   4.578  1.00 20.00     0.000 C 
HETATM   11  C8  UNL     1     -33.499   2.917   4.763  1.00 20.00     0.005 C 
ENDBRANCH   6  10
TORSDOF 2
ENDMDL
MODEL 5
REMARK VINA RESULT:       0.2      2.207      3.186
REMARK  2 active torsions:
REMARK  status: ('A' for Active; 'I' for Inactive)
REMARK    1  A    between atoms: C1_1  and  C3_3 
REMARK    2  A    between atoms: C7_7  and  C9_9 
ROOT
HETATM    1  C1  UNL     1     -34.155   6.299   3.499  1.00 20.00    -0.002 C 
HETATM    2  C2  UNL     1     -33.561   7.494   3.672  1.00 20.00     0.021 C 
HETATM    3  C4  UNL     1     -33.778   5.361   2.380  1.00 20.00     0.047 C 
HETATM    4  C5  UNL     1     -32.446   7.987   2.787  1.00 20.00     0.052 C 
HETATM    5  C6  UNL     1     -31.847   6.898   1.892  1.00 20.00     0.010 C 
HETATM    6  C7  UNL     1     -32.948   6.031   1.273  1.00 20.00    -0.010 C 
HETATM    7 CL11 UNL     1     -33.988   8.608   4.930  1.00 20.00    -0.088 Cl
ENDROOT
BRANCH   1   8
HETATM    8  C3  UNL     1     -35.230   5.821   4.383  1.00 20.00     0.267 C 
HETATM    9  O10 UNL     1     -35.366   4.641   4.665  1.00 20.00    -0.302 OA
ENDBRANCH   1   8
BRANCH   6  10
HETATM   10  C9  UNL     1     -32.360   4.986   0.328  1.00 20.00     0.000 C 
HETATM   11  C8  UNL     1     -31.141   4.343   0.907  1.00 20.00     0.005 C 
ENDBRANCH   6  10
TORSDOF 2
ENDMDL
MODEL 6
REMARK VINA RESULT:       0.5      2.611      4.725
REMARK  2 active torsions:
REMARK  status: ('A' for Active; 'I' for Inactive)
REMARK    1  A    between atoms: C1_1  and  C3_3 
REMARK    2  A    between atoms: C7_7  and  C9_9 
ROOT
HETATM    1  C1  UNL     1     -33.218   6.666   2.508  1.00 20.00    -0.002 C 
HETATM    2  C2  UNL     1     -34.103   7.403   3.202  1.00 20.00     0.021 C 
HETATM    3  C4  UNL     1     -33.039   5.187   2.736  1.00 20.00     0.047 C 
HETATM    4  C5  UNL     1     -35.017   6.814   4.244  1.00 20.00     0.052 C 
HETATM    5  C6  UNL     1     -35.071   5.284   4.215  1.00 20.00     0.010 C 
HETATM    6  C7  UNL     1     -33.670   4.689   4.047  1.00 20.00    -0.010 C 
HETATM    7 CL11 UNL     1     -34.314   9.111   2.984  1.00 20.00    -0.088 Cl
ENDROOT
BRANCH   1   8
HETATM    8  C3  UNL     1     -32.344   7.251   1.478  1.00 20.00     0.267 C 
HETATM    9  O10 UNL     1     -31.390   7.961   1.758  1.00 20.00    -0.302 OA
ENDBRANCH   1   8
BRANCH   6  10
HETATM   10  C9  UNL     1     -33.711   3.164   4.085  1.00 20.00     0.000 C 
HETATM   11  C8  UNL     1     -32.843   2.615   5.171  1.00 20.00     0.005 C 
ENDBRANCH   6  10
TORSDOF 2
ENDMDL
MODEL 7
REMARK VINA RESULT:       0.9      2.879      4.686
REMARK  2 active torsions:
REMARK  status: ('A' for Active; 'I' for Inactive)
REMARK    1  A    between atoms: C1_1  and  C3_3 
REMARK    2  A    between atoms: C7_7  and  C9_9 
ROOT
HETATM    1  C1  UNL     1     -32.575   6.307   1.629  1.00 20.00    -0.002 C 
HETATM    2  C2  UNL     1     -32.155   7.578   1.756  1.00 20.00     0.021 C 
HETATM    3  C4  UNL     1     -33.674   5.726   2.482  1.00 20.00     0.047 C 
HETATM    4  C5  UNL     1     -32.766   8.545   2.737  1.00 20.00     0.052 C 
HETATM    5  C6  UNL     1     -34.088   8.056   3.335  1.00 20.00     0.010 C 
HETATM    6  C7  UNL     1     -34.001   6.577   3.721  1.00 20.00    -0.010 C 
HETATM    7 CL11 UNL     1     -30.875   8.268   0.812  1.00 20.00    -0.088 Cl
ENDROOT
BRANCH   1   8
HETATM    8  C3  UNL     1     -31.982   5.377   0.654  1.00 20.00     0.267 C 
HETATM    9  O10 UNL     1     -32.583   4.401   0.234  1.00 20.00    -0.302 OA
ENDBRANCH   1   8
BRANCH   6  10
HETATM   10  C9  UNL     1     -35.295   6.102   4.379  1.00 20.00     0.000 C 
HETATM   11  C8  UNL     1     -35.228   4.655   4.746  1.00 20.00     0.005 C 
ENDBRANCH   6  10
TORSDOF 2
ENDMDL
MODEL 8
REMARK VINA RESULT:       0.9      2.170      4.004
REMARK  2 active torsions:
REMARK  status: ('A' for Active; 'I' for Inactive)
REMARK    1  A    between atoms: C1_1  and  C3_3 
REMARK    2  A    between atoms: C7_7  and  C9_9 
ROOT
HETATM    1  C1  UNL     1     -33.520   7.107   3.390  1.00 20.00    -0.002 C 
HETATM    2  C2  UNL     1     -32.879   7.088   2.208  1.00 20.00     0.021 C 
HETATM    3  C4  UNL     1     -33.915   5.849   4.119  1.00 20.00     0.047 C 
HETATM    4  C5  UNL     1     -32.467   5.810   1.524  1.00 20.00     0.052 C 
HETATM    5  C6  UNL     1     -32.558   4.576   2.425  1.00 20.00     0.010 C 
HETATM    6  C7  UNL     1     -33.855   4.587   3.241  1.00 20.00    -0.010 C 
HETATM    7 CL11 UNL     1     -32.435   8.516   1.330  1.00 20.00    -0.088 Cl
ENDROOT
BRANCH   1   8
HETATM    8  C3  UNL     1     -33.899   8.363   4.057  1.00 20.00     0.267 C 
HETATM    9  O10 UNL     1     -33.858   8.495   5.270  1.00 20.00    -0.302 OA
ENDBRANCH   1   8
BRANCH   6  10
HETATM   10  C9  UNL     1     -33.981   3.327   4.092  1.00 20.00     0.000 C 
HETATM   11  C8  UNL     1     -32.796   3.142   4.983  1.00 20.00     0.005 C 
ENDBRANCH   6  10
TORSDOF 2
ENDMDL
MODEL 9
REMARK VINA RESULT:       1.2      2.285      3.766
REMARK  2 active torsions:
REMARK  status: ('A' for Active; 'I' for Inactive)
REMARK    1  A    between atoms: C1_1  and  C3_3 
REMARK    2  A    between atoms: C7_7  and  C9_9 
ROOT
HETATM    1  C1  UNL     1     -32.298   6.986   1.686  1.00 20.00    -0.002 C 
HETATM    2  C2  UNL     1     -32.471   5.667   1.490  1.00 20.00     0.021 C 
HETATM    3  C4  UNL     1     -32.983   7.738   2.799  1.00 20.00     0.047 C 
HETATM    4  C5  UNL     1     -33.337   4.816   2.382  1.00 20.00     0.052 C 
HETATM    5  C6  UNL     1     -33.737   5.508   3.688  1.00 20.00     0.010 C 
HETATM    6  C7  UNL     1     -34.149   6.962   3.434  1.00 20.00    -0.010 C 
HETATM    7 CL11 UNL     1     -31.721   4.778   0.204  1.00 20.00    -0.088 Cl
ENDROOT
BRANCH   1   8
HETATM    8  C3  UNL     1     -31.433   7.803   0.818  1.00 20.00     0.267 C 
HETATM    9  O10 UNL     1     -31.735   8.935   0.477  1.00 20.00    -0.302 OA
ENDBRANCH   1   8
BRANCH   6  10
HETATM   10  C9  UNL     1     -34.611   7.636   4.723  1.00 20.00     0.000 C 
HETATM   11  C8  UNL     1     -33.490   8.353   5.403  1.00 20.00     0.005 C 
ENDBRANCH   6  10
TORSDOF 2
ENDMDL
