MODEL 1
REMARK VINA RESULT:      -3.4      0.000      0.000
REMARK  4 active torsions:
REMARK  status: ('A' for Active; 'I' for Inactive)
REMARK    1  A    between atoms: C3_3  and  C6_6 
REMARK    2  A    between atoms: C3_3  and  C7_7 
REMARK    3  A    between atoms: C5_5  and  C6_6 
REMARK    4  A    between atoms: C7_7  and  C8_8 
ROOT
HETATM    1  C1  UNL     1     -33.883   3.754   4.373  1.00 20.00     0.012 C 
HETATM    2  C2  UNL     1     -34.367   4.820   4.105  1.00 20.00    -0.117 C 
HETATM    3  C5  UNL     1     -34.962   6.124   3.776  1.00 20.00     0.100 C 
ENDROOT
BRANCH   3   4
HETATM    4  C6  UNL     1     -33.904   7.220   3.668  1.00 20.00     0.090 C 
BRANCH   4   5
HETATM    5  C3  UNL     1     -33.015   7.099   2.436  1.00 20.00     0.127 C 
HETATM    6  O9  UNL     1     -33.045   6.117   1.696  1.00 20.00    -0.298 OA
BRANCH   5   7
HETATM    7  C7  UNL     1     -32.102   8.286   2.171  1.00 20.00     0.078 C 
BRANCH   7   8
HETATM    8  C8  UNL     1     -31.948   8.587   0.682  1.00 20.00     0.003 C 
HETATM    9  C4  UNL     1     -32.467   9.974   0.338  1.00 20.00     0.005 C 
ENDBRANCH   7   8
ENDBRANCH   5   7
ENDBRANCH   4   5
ENDBRANCH   3   4
TORSDOF 4
ENDMDL
MODEL 2
REMARK VINA RESULT:      -3.4      0.729      4.924
REMARK  4 active torsions:
REMARK  status: ('A' for Active; 'I' for Inactive)
REMARK    1  A    between atoms: C3_3  and  C6_6 
REMARK    2  A    between atoms: C3_3  and  C7_7 
REMARK    3  A    between atoms: C5_5  and  C6_6 
REMARK    4  A    between atoms: C7_7  and  C8_8 
ROOT
HETATM    1  C1  UNL     1     -32.763  10.617   0.011  1.00 20.00     0.012 C 
HETATM    2  C2  UNL     1     -32.321   9.572   0.404  1.00 20.00    -0.117 C 
HETATM    3  C5  UNL     1     -31.778   8.291   0.883  1.00 20.00     0.100 C 
ENDROOT
BRANCH   3   4
HETATM    4  C6  UNL     1     -32.067   8.069   2.365  1.00 20.00     0.090 C 
BRANCH   4   5
HETATM    5  C3  UNL     1     -33.110   6.991   2.635  1.00 20.00     0.127 C 
HETATM    6  O9  UNL     1     -33.187   5.966   1.960  1.00 20.00    -0.298 OA
BRANCH   5   7
HETATM    7  C7  UNL     1     -34.038   7.259   3.809  1.00 20.00     0.078 C 
BRANCH   7   8
HETATM    8  C8  UNL     1     -35.297   6.397   3.771  1.00 20.00     0.003 C 
HETATM    9  C4  UNL     1     -35.090   5.075   4.491  1.00 20.00     0.005 C 
ENDBRANCH   7   8
ENDBRANCH   5   7
ENDBRANCH   4   5
ENDBRANCH   3   4
TORSDOF 4
ENDMDL
MODEL 3
REMARK VINA RESULT:      -3.2      1.184      4.946
REMARK  4 active torsions:
REMARK  status: ('A' for Active; 'I' for Inactive)
REMARK    1  A    between atoms: C3_3  and  C6_6 
REMARK    2  A    between atoms: C3_3  and  C7_7 
REMARK    3  A    between atoms: C5_5  and  C6_6 
REMARK    4  A    between atoms: C7_7  and  C8_8 
ROOT
HETATM    1  C1  UNL     1     -32.607   9.888   0.086  1.00 20.00     0.012 C 
HETATM    2  C2  UNL     1     -32.289   9.059   0.894  1.00 20.00    -0.117 C 
HETATM    3  C5  UNL     1     -31.898   8.044   1.885  1.00 20.00     0.100 C 
ENDROOT
BRANCH   3   4
HETATM    4  C6  UNL     1     -33.004   7.015   2.111  1.00 20.00     0.090 C 
BRANCH   4   5
HETATM    5  C3  UNL     1     -33.743   7.187   3.433  1.00 20.00     0.127 C 
HETATM    6  O9  UNL     1     -33.277   7.834   4.370  1.00 20.00    -0.298 OA
BRANCH   5   7
HETATM    7  C7  UNL     1     -35.107   6.520   3.510  1.00 20.00     0.078 C 
BRANCH   7   8
HETATM    8  C8  UNL     1     -35.132   5.344   4.483  1.00 20.00     0.003 C 
HETATM    9  C4  UNL     1     -34.129   4.273   4.088  1.00 20.00     0.005 C 
ENDBRANCH   7   8
ENDBRANCH   5   7
ENDBRANCH   4   5
ENDBRANCH   3   4
TORSDOF 4
ENDMDL
MODEL 4
REMARK VINA RESULT:      -3.2      1.357      4.997
REMARK  4 active torsions:
REMARK  status: ('A' for Active; 'I' for Inactive)
REMARK    1  A    between atoms: C3_3  and  C6_6 
REMARK    2  A    between atoms: C3_3  and  C7_7 
REMARK    3  A    between atoms: C5_5  and  C6_6 
REMARK    4  A    between atoms: C7_7  and  C8_8 
ROOT
HETATM    1  C1  UNL     1     -32.190   9.436   0.545  1.00 20.00     0.012 C 
HETATM    2  C2  UNL     1     -32.321   8.483   1.264  1.00 20.00    -0.117 C 
HETATM    3  C5  UNL     1     -32.481   7.314   2.142  1.00 20.00     0.100 C 
ENDROOT
BRANCH   3   4
HETATM    4  C6  UNL     1     -33.529   7.556   3.226  1.00 20.00     0.090 C 
BRANCH   4   5
HETATM    5  C3  UNL     1     -34.309   6.307   3.619  1.00 20.00     0.127 C 
HETATM    6  O9  UNL     1     -35.450   6.359   4.074  1.00 20.00    -0.298 OA
BRANCH   5   7
HETATM    7  C7  UNL     1     -33.588   4.988   3.390  1.00 20.00     0.078 C 
BRANCH   7   8
HETATM    8  C8  UNL     1     -34.091   3.877   4.307  1.00 20.00     0.003 C 
HETATM    9  C4  UNL     1     -32.961   2.961   4.746  1.00 20.00     0.005 C 
ENDBRANCH   7   8
ENDBRANCH   5   7
ENDBRANCH   4   5
ENDBRANCH   3   4
TORSDOF 4
ENDMDL
MODEL 5
REMARK VINA RESULT:      -3.1      1.224      1.604
REMARK  4 active torsions:
REMARK  status: ('A' for Active; 'I' for Inactive)
REMARK    1  A    between atoms: C3_3  and  C6_6 
REMARK    2  A    between atoms: C3_3  and  C7_7 
REMARK    3  A    between atoms: C5_5  and  C6_6 
REMARK    4  A    between atoms: C7_7  and  C8_8 
ROOT
HETATM    1  C1  UNL     1     -33.515   3.446   4.153  1.00 20.00     0.012 C 
HETATM    2  C2  UNL     1     -34.329   4.308   4.340  1.00 20.00    -0.117 C 
HETATM    3  C5  UNL     1     -35.328   5.363   4.571  1.00 20.00     0.100 C 
ENDROOT
BRANCH   3   4
HETATM    4  C6  UNL     1     -35.212   6.490   3.548  1.00 20.00     0.090 C 
BRANCH   4   5
HETATM    5  C3  UNL     1     -33.834   7.140   3.500  1.00 20.00     0.127 C 
HETATM    6  O9  UNL     1     -33.394   7.820   4.426  1.00 20.00    -0.298 OA
BRANCH   5   7
HETATM    7  C7  UNL     1     -33.029   6.873   2.238  1.00 20.00     0.078 C 
BRANCH   7   8
HETATM    8  C8  UNL     1     -31.920   7.899   2.021  1.00 20.00     0.003 C 
HETATM    9  C4  UNL     1     -32.293   8.904   0.943  1.00 20.00     0.005 C 
ENDBRANCH   7   8
ENDBRANCH   5   7
ENDBRANCH   4   5
ENDBRANCH   3   4
TORSDOF 4
ENDMDL
MODEL 6
REMARK VINA RESULT:      -3.0      1.969      2.368
REMARK  4 active torsions:
REMARK  status: ('A' for Active; 'I' for Inactive)
REMARK    1  A    between atoms: C3_3  and  C6_6 
REMARK    2  A    between atoms: C3_3  and  C7_7 
REMARK    3  A    between atoms: C5_5  and  C6_6 
REMARK    4  A    between atoms: C7_7  and  C8_8 
ROOT
HETATM    1  C1  UNL     1     -33.530   3.419   4.261  1.00 20.00     0.012 C 
HETATM    2  C2  UNL     1     -34.327   4.309   4.383  1.00 20.00    -0.117 C 
HETATM    3  C5  UNL     1     -35.304   5.398   4.533  1.00 20.00     0.100 C 
ENDROOT
BRANCH   3   4
HETATM    4  C6  UNL     1     -35.072   6.515   3.518  1.00 20.00     0.090 C 
BRANCH   4   5
HETATM    5  C3  UNL     1     -33.848   7.374   3.817  1.00 20.00     0.127 C 
HETATM    6  O9  UNL     1     -33.700   7.959   4.888  1.00 20.00    -0.298 OA
BRANCH   5   7
HETATM    7  C7  UNL     1     -32.812   7.442   2.706  1.00 20.00     0.078 C 
BRANCH   7   8
HETATM    8  C8  UNL     1     -33.101   6.462   1.573  1.00 20.00     0.003 C 
HETATM    9  C4  UNL     1     -31.985   5.442   1.420  1.00 20.00     0.005 C 
ENDBRANCH   7   8
ENDBRANCH   5   7
ENDBRANCH   4   5
ENDBRANCH   3   4
TORSDOF 4
ENDMDL
MODEL 7
REMARK VINA RESULT:      -3.0      1.038      1.347
REMARK  4 active torsions:
REMARK  status: ('A' for Active; 'I' for Inactive)
REMARK    1  A    between atoms: C3_3  and  C6_6 
REMARK    2  A    between atoms: C3_3  and  C7_7 
REMARK    3  A    between atoms: C5_5  and  C6_6 
REMARK    4  A    between atoms: C7_7  and  C8_8 
ROOT
HETATM    1  C1  UNL     1     -35.379   5.397   4.322  1.00 20.00     0.012 C 
HETATM    2  C2  UNL     1     -34.897   6.460   4.040  1.00 20.00    -0.117 C 
HETATM    3  C5  UNL     1     -34.308   7.762   3.694  1.00 20.00     0.100 C 
ENDROOT
BRANCH   3   4
HETATM    4  C6  UNL     1     -32.811   7.653   3.410  1.00 20.00     0.090 C 
BRANCH   4   5
HETATM    5  C3  UNL     1     -32.485   7.235   1.980  1.00 20.00     0.127 C 
HETATM    6  O9  UNL     1     -32.811   6.140   1.523  1.00 20.00    -0.298 OA
BRANCH   5   7
HETATM    7  C7  UNL     1     -31.746   8.272   1.150  1.00 20.00     0.078 C 
BRANCH   7   8
HETATM    8  C8  UNL     1     -32.543   9.562   0.976  1.00 20.00     0.003 C 
HETATM    9  C4  UNL     1     -32.616   9.980  -0.483  1.00 20.00     0.005 C 
ENDBRANCH   7   8
ENDBRANCH   5   7
ENDBRANCH   4   5
ENDBRANCH   3   4
TORSDOF 4
ENDMDL
MODEL 8
REMARK VINA RESULT:      -2.8      1.930      4.499
REMARK  4 active torsions:
REMARK  status: ('A' for Active; 'I' for Inactive)
REMARK    1  A    between atoms: C3_3  and  C6_6 
REMARK    2  A    between atoms: C3_3  and  C7_7 
REMARK    3  A    between atoms: C5_5  and  C6_6 
REMARK    4  A    between atoms: C7_7  and  C8_8 
ROOT
HETATM    1  C1  UNL     1     -32.357   5.632   1.195  1.00 20.00     0.012 C 
HETATM    2  C2  UNL     1     -32.777   6.531   1.871  1.00 20.00    -0.117 C 
HETATM    3  C5  UNL     1     -33.292   7.634   2.697  1.00 20.00     0.100 C 
ENDROOT
BRANCH   3   4
HETATM    4  C6  UNL     1     -33.829   7.138   4.038  1.00 20.00     0.090 C 
BRANCH   4   5
HETATM    5  C3  UNL     1     -35.053   6.238   3.917  1.00 20.00     0.127 C 
HETATM    6  O9  UNL     1     -36.063   6.579   3.303  1.00 20.00    -0.298 OA
BRANCH   5   7
HETATM    7  C7  UNL     1     -34.935   4.880   4.590  1.00 20.00     0.078 C 
BRANCH   7   8
HETATM    8  C8  UNL     1     -33.915   3.973   3.906  1.00 20.00     0.003 C 
HETATM    9  C4  UNL     1     -33.234   3.049   4.901  1.00 20.00     0.005 C 
ENDBRANCH   7   8
ENDBRANCH   5   7
ENDBRANCH   4   5
ENDBRANCH   3   4
TORSDOF 4
ENDMDL
MODEL 9
REMARK VINA RESULT:      -2.6      1.493      2.044
REMARK  4 active torsions:
REMARK  status: ('A' for Active; 'I' for Inactive)
REMARK    1  A    between atoms: C3_3  and  C6_6 
REMARK    2  A    between atoms: C3_3  and  C7_7 
REMARK    3  A    between atoms: C5_5  and  C6_6 
REMARK    4  A    between atoms: C7_7  and  C8_8 
ROOT
HETATM    1  C1  UNL     1     -35.239   6.438   4.025  1.00 20.00     0.012 C 
HETATM    2  C2  UNL     1     -34.272   6.094   3.402  1.00 20.00    -0.117 C 
HETATM    3  C5  UNL     1     -33.088   5.672   2.639  1.00 20.00     0.100 C 
ENDROOT
BRANCH   3   4
HETATM    4  C6  UNL     1     -32.838   6.572   1.431  1.00 20.00     0.090 C 
BRANCH   4   5
HETATM    5  C3  UNL     1     -32.093   7.859   1.765  1.00 20.00     0.127 C 
HETATM    6  O9  UNL     1     -31.958   8.261   2.920  1.00 20.00    -0.298 OA
BRANCH   5   7
HETATM    7  C7  UNL     1     -31.510   8.604   0.575  1.00 20.00     0.078 C 
BRANCH   7   8
HETATM    8  C8  UNL     1     -32.548   9.457  -0.150  1.00 20.00     0.003 C 
HETATM    9  C4  UNL     1     -32.739  10.802   0.532  1.00 20.00     0.005 C 
ENDBRANCH   7   8
ENDBRANCH   5   7
ENDBRANCH   4   5
ENDBRANCH   3   4
TORSDOF 4
ENDMDL
