MODEL 1
REMARK VINA RESULT:      -2.0      0.000      0.000
REMARK  2 active torsions:
REMARK  status: ('A' for Active; 'I' for Inactive)
REMARK    1  A    between atoms: C2_2  and  C4_4 
REMARK    2  A    between atoms: C2_2  and  C8_8 
ROOT
HETATM    1  C1  UNL     1     -32.311   8.452   1.342  1.00 20.00     0.071 C 
HETATM    2  C7  UNL     1     -32.269   5.990   1.260  1.00 20.00     0.033 C 
HETATM    3  C8  UNL     1     -32.267   7.224   2.154  1.00 20.00     0.158 C 
HETATM    4  N9  UNL     1     -32.343   9.421   0.703  1.00 20.00    -0.196 NA
ENDROOT
BRANCH   3   5
HETATM    5  C2  UNL     1     -33.447   7.162   3.107  1.00 20.00     0.148 C 
HETATM    6  O10 UNL     1     -33.816   8.092   3.814  1.00 20.00    -0.296 OA
BRANCH   5   7
HETATM    7  C4  UNL     1     -34.170   5.856   3.172  1.00 20.00     0.061 A 
HETATM    8  C3  UNL     1     -35.283   5.707   4.155  1.00 20.00     0.017 A 
HETATM    9  C5  UNL     1     -33.977   4.998   4.390  1.00 20.00    -0.007 A 
HETATM   10  C6  UNL     1     -33.888   3.519   4.237  1.00 20.00     0.011 C 
ENDBRANCH   5   7
ENDBRANCH   3   5
TORSDOF 2
ENDMDL
MODEL 2
REMARK VINA RESULT:      -1.8      2.336      4.300
REMARK  2 active torsions:
REMARK  status: ('A' for Active; 'I' for Inactive)
REMARK    1  A    between atoms: C2_2  and  C4_4 
REMARK    2  A    between atoms: C2_2  and  C8_8 
ROOT
HETATM    1  C1  UNL     1     -34.431   4.986   4.166  1.00 20.00     0.071 C 
HETATM    2  C7  UNL     1     -36.007   6.623   3.215  1.00 20.00     0.033 C 
HETATM    3  C8  UNL     1     -34.848   6.398   4.179  1.00 20.00     0.158 C 
HETATM    4  N9  UNL     1     -34.103   3.873   4.160  1.00 20.00    -0.196 NA
ENDROOT
BRANCH   3   5
HETATM    5  C2  UNL     1     -33.692   7.308   3.803  1.00 20.00     0.148 C 
HETATM    6  O10 UNL     1     -33.015   7.935   4.608  1.00 20.00    -0.296 OA
BRANCH   5   7
HETATM    7  C4  UNL     1     -33.406   7.436   2.342  1.00 20.00     0.061 A 
HETATM    8  C3  UNL     1     -32.337   6.579   1.749  1.00 20.00     0.017 A 
HETATM    9  C5  UNL     1     -32.102   8.056   1.925  1.00 20.00    -0.007 A 
HETATM   10  C6  UNL     1     -32.066   8.956   0.739  1.00 20.00     0.011 C 
ENDBRANCH   5   7
ENDBRANCH   3   5
TORSDOF 2
ENDMDL
MODEL 3
REMARK VINA RESULT:      -1.7      2.675      4.611
REMARK  2 active torsions:
REMARK  status: ('A' for Active; 'I' for Inactive)
REMARK    1  A    between atoms: C2_2  and  C4_4 
REMARK    2  A    between atoms: C2_2  and  C8_8 
ROOT
HETATM    1  C1  UNL     1     -33.729   4.653   3.813  1.00 20.00     0.071 C 
HETATM    2  C7  UNL     1     -34.915   6.787   3.488  1.00 20.00     0.033 C 
HETATM    3  C8  UNL     1     -33.584   6.054   3.382  1.00 20.00     0.158 C 
HETATM    4  N9  UNL     1     -33.841   3.549   4.155  1.00 20.00    -0.196 NA
ENDROOT
BRANCH   3   5
HETATM    5  C2  UNL     1     -33.075   6.132   1.954  1.00 20.00     0.148 C 
HETATM    6  O10 UNL     1     -33.397   5.356   1.061  1.00 20.00    -0.296 OA
BRANCH   5   7
HETATM    7  C4  UNL     1     -32.103   7.229   1.662  1.00 20.00     0.061 A 
HETATM    8  C3  UNL     1     -31.941   8.321   2.667  1.00 20.00     0.017 A 
HETATM    9  C5  UNL     1     -32.647   8.598   1.367  1.00 20.00    -0.007 A 
HETATM   10  C6  UNL     1     -31.994   9.435   0.323  1.00 20.00     0.011 C 
ENDBRANCH   5   7
ENDBRANCH   3   5
TORSDOF 2
ENDMDL
MODEL 4
REMARK VINA RESULT:      -1.4      1.567      1.900
REMARK  2 active torsions:
REMARK  status: ('A' for Active; 'I' for Inactive)
REMARK    1  A    between atoms: C2_2  and  C4_4 
REMARK    2  A    between atoms: C2_2  and  C8_8 
ROOT
HETATM    1  C1  UNL     1     -32.386   5.824   1.409  1.00 20.00     0.071 C 
HETATM    2  C7  UNL     1     -32.025   8.149   2.137  1.00 20.00     0.033 C 
HETATM    3  C8  UNL     1     -33.048   7.047   1.893  1.00 20.00     0.158 C 
HETATM    4  N9  UNL     1     -31.866   4.860   1.024  1.00 20.00    -0.196 NA
ENDROOT
BRANCH   3   5
HETATM    5  C2  UNL     1     -33.815   6.776   3.176  1.00 20.00     0.148 C 
HETATM    6  O10 UNL     1     -34.009   7.608   4.054  1.00 20.00    -0.296 OA
BRANCH   5   7
HETATM    7  C4  UNL     1     -34.335   5.386   3.349  1.00 20.00     0.061 A 
HETATM    8  C3  UNL     1     -35.255   5.108   4.491  1.00 20.00     0.017 A 
HETATM    9  C5  UNL     1     -33.843   4.585   4.521  1.00 20.00    -0.007 A 
HETATM   10  C6  UNL     1     -33.579   3.129   4.353  1.00 20.00     0.011 C 
ENDBRANCH   5   7
ENDBRANCH   3   5
TORSDOF 2
ENDMDL
MODEL 5
REMARK VINA RESULT:      -1.3      1.518      2.269
REMARK  2 active torsions:
REMARK  status: ('A' for Active; 'I' for Inactive)
REMARK    1  A    between atoms: C2_2  and  C4_4 
REMARK    2  A    between atoms: C2_2  and  C8_8 
ROOT
HETATM    1  C1  UNL     1     -32.809   7.717   2.597  1.00 20.00     0.071 C 
HETATM    2  C7  UNL     1     -33.232   8.185   4.978  1.00 20.00     0.033 C 
HETATM    3  C8  UNL     1     -33.833   7.724   3.656  1.00 20.00     0.158 C 
HETATM    4  N9  UNL     1     -32.005   7.714   1.760  1.00 20.00    -0.196 NA
ENDROOT
BRANCH   3   5
HETATM    5  C2  UNL     1     -34.442   6.344   3.830  1.00 20.00     0.148 C 
HETATM    6  O10 UNL     1     -35.634   6.132   4.018  1.00 20.00    -0.296 OA
BRANCH   5   7
HETATM    7  C4  UNL     1     -33.488   5.195   3.782  1.00 20.00     0.061 A 
HETATM    8  C3  UNL     1     -33.730   4.111   2.784  1.00 20.00     0.017 A 
HETATM    9  C5  UNL     1     -33.973   3.851   4.247  1.00 20.00    -0.007 A 
HETATM   10  C6  UNL     1     -33.052   2.966   5.013  1.00 20.00     0.011 C 
ENDBRANCH   5   7
ENDBRANCH   3   5
TORSDOF 2
ENDMDL
MODEL 6
REMARK VINA RESULT:      -1.2      2.201      4.042
REMARK  2 active torsions:
REMARK  status: ('A' for Active; 'I' for Inactive)
REMARK    1  A    between atoms: C2_2  and  C4_4 
REMARK    2  A    between atoms: C2_2  and  C8_8 
ROOT
HETATM    1  C1  UNL     1     -33.904   7.637   4.497  1.00 20.00     0.071 C 
HETATM    2  C7  UNL     1     -35.536   5.793   4.436  1.00 20.00     0.033 C 
HETATM    3  C8  UNL     1     -34.632   6.707   3.617  1.00 20.00     0.158 C 
HETATM    4  N9  UNL     1     -33.331   8.373   5.188  1.00 20.00    -0.196 NA
ENDROOT
BRANCH   3   5
HETATM    5  C2  UNL     1     -33.667   5.865   2.801  1.00 20.00     0.148 C 
HETATM    6  O10 UNL     1     -33.340   4.718   3.082  1.00 20.00    -0.296 OA
BRANCH   5   7
HETATM    7  C4  UNL     1     -33.085   6.522   1.592  1.00 20.00     0.061 A 
HETATM    8  C3  UNL     1     -31.671   6.213   1.226  1.00 20.00     0.017 A 
HETATM    9  C5  UNL     1     -32.021   7.563   1.793  1.00 20.00    -0.007 A 
HETATM   10  C6  UNL     1     -32.003   8.770   0.920  1.00 20.00     0.011 C 
ENDBRANCH   5   7
ENDBRANCH   3   5
TORSDOF 2
ENDMDL
MODEL 7
REMARK VINA RESULT:      -1.2      1.551      1.922
REMARK  2 active torsions:
REMARK  status: ('A' for Active; 'I' for Inactive)
REMARK    1  A    between atoms: C2_2  and  C4_4 
REMARK    2  A    between atoms: C2_2  and  C8_8 
ROOT
HETATM    1  C1  UNL     1     -32.260   8.968   0.648  1.00 20.00     0.071 C 
HETATM    2  C7  UNL     1     -32.566   6.590   1.216  1.00 20.00     0.033 C 
HETATM    3  C8  UNL     1     -31.878   7.898   1.587  1.00 20.00     0.158 C 
HETATM    4  N9  UNL     1     -32.557   9.811  -0.092  1.00 20.00    -0.196 NA
ENDROOT
BRANCH   3   5
HETATM    5  C2  UNL     1     -32.239   8.274   3.013  1.00 20.00     0.148 C 
HETATM    6  O10 UNL     1     -31.444   8.711   3.836  1.00 20.00    -0.296 OA
BRANCH   5   7
HETATM    7  C4  UNL     1     -33.666   8.064   3.405  1.00 20.00     0.061 A 
HETATM    8  C3  UNL     1     -34.016   8.099   4.856  1.00 20.00     0.017 A 
HETATM    9  C5  UNL     1     -34.026   6.789   4.114  1.00 20.00    -0.007 A 
HETATM   10  C6  UNL     1     -35.317   6.115   3.798  1.00 20.00     0.011 C 
ENDBRANCH   5   7
ENDBRANCH   3   5
TORSDOF 2
ENDMDL
MODEL 8
REMARK VINA RESULT:      -1.1      2.377      4.414
REMARK  2 active torsions:
REMARK  status: ('A' for Active; 'I' for Inactive)
REMARK    1  A    between atoms: C2_2  and  C4_4 
REMARK    2  A    between atoms: C2_2  and  C8_8 
ROOT
HETATM    1  C1  UNL     1     -33.832   4.673   3.373  1.00 20.00     0.071 C 
HETATM    2  C7  UNL     1     -32.408   4.920   1.378  1.00 20.00     0.033 C 
HETATM    3  C8  UNL     1     -33.557   5.506   2.189  1.00 20.00     0.158 C 
HETATM    4  N9  UNL     1     -34.052   4.017   4.304  1.00 20.00    -0.196 NA
ENDROOT
BRANCH   3   5
HETATM    5  C2  UNL     1     -33.217   6.929   2.595  1.00 20.00     0.148 C 
HETATM    6  O10 UNL     1     -33.661   7.490   3.589  1.00 20.00    -0.296 OA
BRANCH   5   7
HETATM    7  C4  UNL     1     -32.291   7.667   1.684  1.00 20.00     0.061 A 
HETATM    8  C3  UNL     1     -31.337   8.648   2.282  1.00 20.00     0.017 A 
HETATM    9  C5  UNL     1     -32.516   9.139   1.485  1.00 20.00    -0.007 A 
HETATM   10  C6  UNL     1     -32.311   9.735   0.134  1.00 20.00     0.011 C 
ENDBRANCH   5   7
ENDBRANCH   3   5
TORSDOF 2
ENDMDL
MODEL 9
REMARK VINA RESULT:      -1.0      1.573      1.922
REMARK  2 active torsions:
REMARK  status: ('A' for Active; 'I' for Inactive)
REMARK    1  A    between atoms: C2_2  and  C4_4 
REMARK    2  A    between atoms: C2_2  and  C8_8 
ROOT
HETATM    1  C1  UNL     1     -32.480   9.126   0.771  1.00 20.00     0.071 C 
HETATM    2  C7  UNL     1     -30.830   8.172   2.333  1.00 20.00     0.033 C 
HETATM    3  C8  UNL     1     -32.308   8.414   2.049  1.00 20.00     0.158 C 
HETATM    4  N9  UNL     1     -32.617   9.690  -0.234  1.00 20.00    -0.196 NA
ENDROOT
BRANCH   3   5
HETATM    5  C2  UNL     1     -33.044   7.086   2.033  1.00 20.00     0.148 C 
HETATM    6  O10 UNL     1     -32.704   6.114   1.369  1.00 20.00    -0.296 OA
BRANCH   5   7
HETATM    7  C4  UNL     1     -34.272   7.005   2.881  1.00 20.00     0.061 A 
HETATM    8  C3  UNL     1     -34.228   7.594   4.252  1.00 20.00     0.017 A 
HETATM    9  C5  UNL     1     -34.248   6.098   4.079  1.00 20.00    -0.007 A 
HETATM   10  C6  UNL     1     -35.468   5.319   4.431  1.00 20.00     0.011 C 
ENDBRANCH   5   7
ENDBRANCH   3   5
TORSDOF 2
ENDMDL
