MODEL 1
REMARK VINA RESULT:      -1.3      0.000      0.000
REMARK  3 active torsions:
REMARK  status: ('A' for Active; 'I' for Inactive)
REMARK    1  A    between atoms: C2_2  and  C4_4 
REMARK    2  A    between atoms: C2_2  and  C9_9 
REMARK    3  A    between atoms: C8_8  and  C9_9 
ROOT
HETATM    1  C1  UNL     1     -32.311   8.408   1.405  1.00 20.00     0.071 C 
HETATM    2  C9  UNL     1     -32.360   7.124   2.129  1.00 20.00     0.162 C 
HETATM    3  N10 UNL     1     -32.270   9.419   0.837  1.00 20.00    -0.196 NA
ENDROOT
BRANCH   2   4
HETATM    4  C2  UNL     1     -33.286   7.203   3.333  1.00 20.00     0.148 C 
HETATM    5  O11 UNL     1     -33.017   7.791   4.375  1.00 20.00    -0.296 OA
BRANCH   4   6
HETATM    6  C4  UNL     1     -34.596   6.498   3.202  1.00 20.00     0.061 A 
HETATM    7  C3  UNL     1     -35.380   6.213   4.442  1.00 20.00     0.017 A 
HETATM    8  C5  UNL     1     -34.742   5.088   3.680  1.00 20.00    -0.007 A 
HETATM    9  C6  UNL     1     -33.621   4.317   4.290  1.00 20.00     0.011 C 
ENDBRANCH   4   6
ENDBRANCH   2   4
BRANCH   2  10
HETATM   10  C8  UNL     1     -32.752   5.963   1.203  1.00 20.00     0.022 C 
HETATM   11  C7  UNL     1     -31.691   4.876   1.062  1.00 20.00     0.007 C 
ENDBRANCH   2  10
TORSDOF 3
ENDMDL
MODEL 2
REMARK VINA RESULT:      -1.2      1.464      2.241
REMARK  3 active torsions:
REMARK  status: ('A' for Active; 'I' for Inactive)
REMARK    1  A    between atoms: C2_2  and  C4_4 
REMARK    2  A    between atoms: C2_2  and  C9_9 
REMARK    3  A    between atoms: C8_8  and  C9_9 
ROOT
HETATM    1  C1  UNL     1     -32.350   5.924   1.437  1.00 20.00     0.071 C 
HETATM    2  C9  UNL     1     -32.942   7.219   1.819  1.00 20.00     0.162 C 
HETATM    3  N10 UNL     1     -31.887   4.904   1.133  1.00 20.00    -0.196 NA
ENDROOT
BRANCH   2   4
HETATM    4  C2  UNL     1     -33.523   7.168   3.224  1.00 20.00     0.148 C 
HETATM    5  O11 UNL     1     -32.969   7.623   4.219  1.00 20.00    -0.296 OA
BRANCH   4   6
HETATM    6  C4  UNL     1     -34.854   6.505   3.361  1.00 20.00     0.061 A 
HETATM    7  C3  UNL     1     -35.370   6.218   4.734  1.00 20.00     0.017 A 
HETATM    8  C5  UNL     1     -34.943   5.090   3.840  1.00 20.00    -0.007 A 
HETATM    9  C6  UNL     1     -33.746   4.274   4.190  1.00 20.00     0.011 C 
ENDBRANCH   4   6
ENDBRANCH   2   4
BRANCH   2  10
HETATM   10  C8  UNL     1     -31.935   8.371   1.678  1.00 20.00     0.022 C 
HETATM   11  C7  UNL     1     -32.281   9.389   0.595  1.00 20.00     0.007 C 
ENDBRANCH   2  10
TORSDOF 3
ENDMDL
MODEL 3
REMARK VINA RESULT:      -0.7      1.976      4.484
REMARK  3 active torsions:
REMARK  status: ('A' for Active; 'I' for Inactive)
REMARK    1  A    between atoms: C2_2  and  C4_4 
REMARK    2  A    between atoms: C2_2  and  C9_9 
REMARK    3  A    between atoms: C8_8  and  C9_9 
ROOT
HETATM    1  C1  UNL     1     -33.041   5.850   1.663  1.00 20.00     0.071 C 
HETATM    2  C9  UNL     1     -32.828   6.888   2.689  1.00 20.00     0.162 C 
HETATM    3  N10 UNL     1     -33.207   5.031   0.858  1.00 20.00    -0.196 NA
ENDROOT
BRANCH   2   4
HETATM    4  C2  UNL     1     -32.007   8.045   2.142  1.00 20.00     0.148 C 
HETATM    5  O11 UNL     1     -31.323   8.795   2.830  1.00 20.00    -0.296 OA
BRANCH   4   6
HETATM    6  C4  UNL     1     -32.070   8.255   0.664  1.00 20.00     0.061 A 
HETATM    7  C3  UNL     1     -31.047   9.138   0.025  1.00 20.00     0.017 A 
HETATM    8  C5  UNL     1     -32.478   9.584   0.111  1.00 20.00    -0.007 A 
HETATM    9  C6  UNL     1     -32.847  10.744   0.972  1.00 20.00     0.011 C 
ENDBRANCH   4   6
ENDBRANCH   2   4
BRANCH   2  10
HETATM   10  C8  UNL     1     -34.155   7.382   3.284  1.00 20.00     0.022 C 
HETATM   11  C7  UNL     1     -35.000   6.296   3.943  1.00 20.00     0.007 C 
ENDBRANCH   2  10
TORSDOF 3
ENDMDL
MODEL 4
REMARK VINA RESULT:      -0.5      2.120      4.295
REMARK  3 active torsions:
REMARK  status: ('A' for Active; 'I' for Inactive)
REMARK    1  A    between atoms: C2_2  and  C4_4 
REMARK    2  A    between atoms: C2_2  and  C9_9 
REMARK    3  A    between atoms: C8_8  and  C9_9 
ROOT
HETATM    1  C1  UNL     1     -33.819   7.411   3.596  1.00 20.00     0.071 C 
HETATM    2  C9  UNL     1     -33.379   7.093   2.225  1.00 20.00     0.162 C 
HETATM    3  N10 UNL     1     -34.168   7.664   4.673  1.00 20.00    -0.196 NA
ENDROOT
BRANCH   2   4
HETATM    4  C2  UNL     1     -32.194   7.952   1.810  1.00 20.00     0.148 C 
HETATM    5  O11 UNL     1     -31.318   8.338   2.576  1.00 20.00    -0.296 OA
BRANCH   4   6
HETATM    6  C4  UNL     1     -32.134   8.337   0.368  1.00 20.00     0.061 A 
HETATM    7  C3  UNL     1     -31.038   9.249  -0.081  1.00 20.00     0.017 A 
HETATM    8  C5  UNL     1     -32.457   9.737  -0.049  1.00 20.00    -0.007 A 
HETATM    9  C6  UNL     1     -32.858  10.801   0.915  1.00 20.00     0.011 C 
ENDBRANCH   4   6
ENDBRANCH   2   4
BRANCH   2  10
HETATM   10  C8  UNL     1     -33.064   5.598   2.060  1.00 20.00     0.022 C 
HETATM   11  C7  UNL     1     -31.943   5.290   1.071  1.00 20.00     0.007 C 
ENDBRANCH   2  10
TORSDOF 3
ENDMDL
MODEL 5
REMARK VINA RESULT:      -0.3      2.602      4.544
REMARK  3 active torsions:
REMARK  status: ('A' for Active; 'I' for Inactive)
REMARK    1  A    between atoms: C2_2  and  C4_4 
REMARK    2  A    between atoms: C2_2  and  C9_9 
REMARK    3  A    between atoms: C8_8  and  C9_9 
ROOT
HETATM    1  C1  UNL     1     -33.700   4.685   3.661  1.00 20.00     0.071 C 
HETATM    2  C9  UNL     1     -33.361   6.076   3.306  1.00 20.00     0.162 C 
HETATM    3  N10 UNL     1     -33.964   3.591   3.942  1.00 20.00    -0.196 NA
ENDROOT
BRANCH   2   4
HETATM    4  C2  UNL     1     -32.937   6.187   1.850  1.00 20.00     0.148 C 
HETATM    5  O11 UNL     1     -33.559   5.706   0.909  1.00 20.00    -0.296 OA
BRANCH   4   6
HETATM    6  C4  UNL     1     -31.668   6.932   1.590  1.00 20.00     0.061 A 
HETATM    7  C3  UNL     1     -31.315   8.073   2.488  1.00 20.00     0.017 A 
HETATM    8  C5  UNL     1     -31.714   8.332   1.064  1.00 20.00    -0.007 A 
HETATM    9  C6  UNL     1     -32.987   9.046   0.764  1.00 20.00     0.011 C 
ENDBRANCH   4   6
ENDBRANCH   2   4
BRANCH   2  10
HETATM   10  C8  UNL     1     -34.512   7.042   3.622  1.00 20.00     0.022 C 
HETATM   11  C7  UNL     1     -34.147   8.176   4.575  1.00 20.00     0.007 C 
ENDBRANCH   2  10
TORSDOF 3
ENDMDL
MODEL 6
REMARK VINA RESULT:      -0.2      2.057      2.722
REMARK  3 active torsions:
REMARK  status: ('A' for Active; 'I' for Inactive)
REMARK    1  A    between atoms: C2_2  and  C4_4 
REMARK    2  A    between atoms: C2_2  and  C9_9 
REMARK    3  A    between atoms: C8_8  and  C9_9 
ROOT
HETATM    1  C1  UNL     1     -31.861   5.230   0.753  1.00 20.00     0.071 C 
HETATM    2  C9  UNL     1     -32.611   6.364   1.326  1.00 20.00     0.162 C 
HETATM    3  N10 UNL     1     -31.274   4.339   0.298  1.00 20.00    -0.196 NA
ENDROOT
BRANCH   2   4
HETATM    4  C2  UNL     1     -33.389   5.942   2.563  1.00 20.00     0.148 C 
HETATM    5  O11 UNL     1     -33.266   4.858   3.121  1.00 20.00    -0.296 OA
BRANCH   4   6
HETATM    6  C4  UNL     1     -34.362   6.941   3.099  1.00 20.00     0.061 A 
HETATM    7  C3  UNL     1     -34.199   7.410   4.509  1.00 20.00     0.017 A 
HETATM    8  C5  UNL     1     -35.360   6.534   4.137  1.00 20.00    -0.007 A 
HETATM    9  C6  UNL     1     -35.451   5.148   4.678  1.00 20.00     0.011 C 
ENDBRANCH   4   6
ENDBRANCH   2   4
BRANCH   2  10
HETATM   10  C8  UNL     1     -31.695   7.559   1.628  1.00 20.00     0.022 C 
HETATM   11  C7  UNL     1     -32.118   8.867   0.966  1.00 20.00     0.007 C 
ENDBRANCH   2  10
TORSDOF 3
ENDMDL
MODEL 7
REMARK VINA RESULT:       0.2      1.741      2.436
REMARK  3 active torsions:
REMARK  status: ('A' for Active; 'I' for Inactive)
REMARK    1  A    between atoms: C2_2  and  C4_4 
REMARK    2  A    between atoms: C2_2  and  C9_9 
REMARK    3  A    between atoms: C8_8  and  C9_9 
ROOT
HETATM    1  C1  UNL     1     -31.656   8.452   2.758  1.00 20.00     0.071 C 
HETATM    2  C9  UNL     1     -32.086   7.640   1.604  1.00 20.00     0.162 C 
HETATM    3  N10 UNL     1     -31.314   9.088   3.666  1.00 20.00    -0.196 NA
ENDROOT
BRANCH   2   4
HETATM    4  C2  UNL     1     -33.042   6.536   2.030  1.00 20.00     0.148 C 
HETATM    5  O11 UNL     1     -32.861   5.343   1.813  1.00 20.00    -0.296 OA
BRANCH   4   6
HETATM    6  C4  UNL     1     -34.274   6.976   2.751  1.00 20.00     0.061 A 
HETATM    7  C3  UNL     1     -34.169   7.308   4.205  1.00 20.00     0.017 A 
HETATM    8  C5  UNL     1     -34.911   6.079   3.765  1.00 20.00    -0.007 A 
HETATM    9  C6  UNL     1     -34.379   4.728   4.103  1.00 20.00     0.011 C 
ENDBRANCH   4   6
ENDBRANCH   2   4
BRANCH   2  10
HETATM   10  C8  UNL     1     -32.700   8.507   0.495  1.00 20.00     0.022 C 
HETATM   11  C7  UNL     1     -32.253   9.966   0.507  1.00 20.00     0.007 C 
ENDBRANCH   2  10
TORSDOF 3
ENDMDL
MODEL 8
REMARK VINA RESULT:       0.2      1.432      1.624
REMARK  3 active torsions:
REMARK  status: ('A' for Active; 'I' for Inactive)
REMARK    1  A    between atoms: C2_2  and  C4_4 
REMARK    2  A    between atoms: C2_2  and  C9_9 
REMARK    3  A    between atoms: C8_8  and  C9_9 
ROOT
HETATM    1  C1  UNL     1     -32.059   7.554   1.494  1.00 20.00     0.071 C 
HETATM    2  C9  UNL     1     -32.099   6.103   1.756  1.00 20.00     0.162 C 
HETATM    3  N10 UNL     1     -32.024   8.695   1.289  1.00 20.00    -0.196 NA
ENDROOT
BRANCH   2   4
HETATM    4  C2  UNL     1     -33.176   5.755   2.772  1.00 20.00     0.148 C 
HETATM    5  O11 UNL     1     -33.258   4.677   3.351  1.00 20.00    -0.296 OA
BRANCH   4   6
HETATM    6  C4  UNL     1     -34.187   6.818   3.049  1.00 20.00     0.061 A 
HETATM    7  C3  UNL     1     -34.196   7.460   4.399  1.00 20.00     0.017 A 
HETATM    8  C5  UNL     1     -35.319   6.552   3.991  1.00 20.00    -0.007 A 
HETATM    9  C6  UNL     1     -35.510   5.246   4.683  1.00 20.00     0.011 C 
ENDBRANCH   4   6
ENDBRANCH   2   4
BRANCH   2  10
HETATM   10  C8  UNL     1     -32.276   5.294   0.462  1.00 20.00     0.022 C 
HETATM   11  C7  UNL     1     -31.276   4.156   0.282  1.00 20.00     0.007 C 
ENDBRANCH   2  10
TORSDOF 3
ENDMDL
MODEL 9
REMARK VINA RESULT:       0.3      2.208      4.359
REMARK  3 active torsions:
REMARK  status: ('A' for Active; 'I' for Inactive)
REMARK    1  A    between atoms: C2_2  and  C4_4 
REMARK    2  A    between atoms: C2_2  and  C9_9 
REMARK    3  A    between atoms: C8_8  and  C9_9 
ROOT
HETATM    1  C1  UNL     1     -33.199   8.077   4.309  1.00 20.00     0.071 C 
HETATM    2  C9  UNL     1     -33.600   7.573   2.983  1.00 20.00     0.162 C 
HETATM    3  N10 UNL     1     -32.885   8.478   5.352  1.00 20.00    -0.196 NA
ENDROOT
BRANCH   2   4
HETATM    4  C2  UNL     1     -32.452   7.658   1.989  1.00 20.00     0.148 C 
HETATM    5  O11 UNL     1     -31.952   6.690   1.425  1.00 20.00    -0.296 OA
BRANCH   4   6
HETATM    6  C4  UNL     1     -31.920   9.026   1.714  1.00 20.00     0.061 A 
HETATM    7  C3  UNL     1     -32.893  10.126   1.435  1.00 20.00     0.017 A 
HETATM    8  C5  UNL     1     -32.011   9.605   0.337  1.00 20.00    -0.007 A 
HETATM    9  C6  UNL     1     -32.610   8.872  -0.814  1.00 20.00     0.011 C 
ENDBRANCH   4   6
ENDBRANCH   2   4
BRANCH   2  10
HETATM   10  C8  UNL     1     -34.159   6.144   3.062  1.00 20.00     0.022 C 
HETATM   11  C7  UNL     1     -35.282   5.957   4.078  1.00 20.00     0.007 C 
ENDBRANCH   2  10
TORSDOF 3
ENDMDL
