MODEL 1
REMARK VINA RESULT:      -1.6      0.000      0.000
REMARK  3 active torsions:
REMARK  status: ('A' for Active; 'I' for Inactive)
REMARK    1  A    between atoms: C4_4  and  N9_9 
REMARK    2  A    between atoms: C6_6  and  N9_9 
REMARK    3  A    between atoms: C7_7  and  N9_9 
ROOT
HETATM    1  C1  UNL     1     -33.764   3.814   4.331  1.00 20.00     0.089 C 
HETATM    2  C6  UNL     1     -34.542   4.919   3.774  1.00 20.00     0.396 C 
HETATM    3  N8  UNL     1     -33.148   2.936   4.774  1.00 20.00    -0.195 NA
ENDROOT
BRANCH   2   4
HETATM    4  N9  UNL     1     -33.687   6.071   3.495  1.00 20.00     0.105 N 
BRANCH   4   5
HETATM    5  C4  UNL     1     -33.372   6.141   2.069  1.00 20.00     0.224 A 
HETATM    6  C2  UNL     1     -32.310   7.081   1.569  1.00 20.00     0.038 A 
HETATM    7  C3  UNL     1     -32.070   5.600   1.546  1.00 20.00     0.038 A 
ENDBRANCH   4   5
BRANCH   4   8
HETATM    8  C7  UNL     1     -34.333   7.307   3.938  1.00 20.00     0.269 C 
HETATM    9  C5  UNL     1     -33.458   8.064   4.877  1.00 20.00     0.037 C 
ENDBRANCH   4   8
ENDBRANCH   2   4
TORSDOF 3
ENDMDL
MODEL 2
REMARK VINA RESULT:      -1.6      2.185      4.679
REMARK  3 active torsions:
REMARK  status: ('A' for Active; 'I' for Inactive)
REMARK    1  A    between atoms: C4_4  and  N9_9 
REMARK    2  A    between atoms: C6_6  and  N9_9 
REMARK    3  A    between atoms: C7_7  and  N9_9 
ROOT
HETATM    1  C1  UNL     1     -32.200   8.946   1.017  1.00 20.00     0.089 C 
HETATM    2  C6  UNL     1     -31.605   8.071   2.025  1.00 20.00     0.396 C 
HETATM    3  N8  UNL     1     -32.671   9.642   0.217  1.00 20.00    -0.195 NA
ENDROOT
BRANCH   2   4
HETATM    4  N9  UNL     1     -32.549   7.035   2.441  1.00 20.00     0.105 N 
BRANCH   4   5
HETATM    5  C4  UNL     1     -33.737   7.638   3.044  1.00 20.00     0.224 A 
HETATM    6  C2  UNL     1     -34.752   6.779   3.746  1.00 20.00     0.038 A 
HETATM    7  C3  UNL     1     -33.882   7.710   4.539  1.00 20.00     0.038 A 
ENDBRANCH   4   5
BRANCH   4   8
HETATM    8  C7  UNL     1     -32.923   6.197   1.301  1.00 20.00     0.269 C 
HETATM    9  C5  UNL     1     -31.937   5.099   1.095  1.00 20.00     0.037 C 
ENDBRANCH   4   8
ENDBRANCH   2   4
TORSDOF 3
ENDMDL
MODEL 3
REMARK VINA RESULT:      -1.3      2.139      3.568
REMARK  3 active torsions:
REMARK  status: ('A' for Active; 'I' for Inactive)
REMARK    1  A    between atoms: C4_4  and  N9_9 
REMARK    2  A    between atoms: C6_6  and  N9_9 
REMARK    3  A    between atoms: C7_7  and  N9_9 
ROOT
HETATM    1  C1  UNL     1     -34.243   7.050   3.703  1.00 20.00     0.089 C 
HETATM    2  C6  UNL     1     -33.079   7.851   3.328  1.00 20.00     0.396 C 
HETATM    3  N8  UNL     1     -35.166   6.415   4.004  1.00 20.00    -0.195 NA
ENDROOT
BRANCH   2   4
HETATM    4  N9  UNL     1     -32.748   7.662   1.917  1.00 20.00     0.105 N 
BRANCH   4   5
HETATM    5  C4  UNL     1     -31.996   8.808   1.409  1.00 20.00     0.224 A 
HETATM    6  C2  UNL     1     -31.790   8.989  -0.069  1.00 20.00     0.038 A 
HETATM    7  C3  UNL     1     -32.698   9.921   0.680  1.00 20.00     0.038 A 
ENDBRANCH   4   5
BRANCH   4   8
HETATM    8  C7  UNL     1     -31.987   6.427   1.730  1.00 20.00     0.269 C 
HETATM    9  C5  UNL     1     -32.766   5.427   0.947  1.00 20.00     0.037 C 
ENDBRANCH   4   8
ENDBRANCH   2   4
TORSDOF 3
ENDMDL
MODEL 4
REMARK VINA RESULT:      -1.3      2.212      3.998
REMARK  3 active torsions:
REMARK  status: ('A' for Active; 'I' for Inactive)
REMARK    1  A    between atoms: C4_4  and  N9_9 
REMARK    2  A    between atoms: C6_6  and  N9_9 
REMARK    3  A    between atoms: C7_7  and  N9_9 
ROOT
HETATM    1  C1  UNL     1     -32.229   9.035   0.982  1.00 20.00     0.089 C 
HETATM    2  C6  UNL     1     -32.019   8.062   2.052  1.00 20.00     0.396 C 
HETATM    3  N8  UNL     1     -32.394   9.809   0.133  1.00 20.00    -0.195 NA
ENDROOT
BRANCH   2   4
HETATM    4  N9  UNL     1     -33.222   7.261   2.273  1.00 20.00     0.105 N 
BRANCH   4   5
HETATM    5  C4  UNL     1     -32.948   5.847   2.019  1.00 20.00     0.224 A 
HETATM    6  C2  UNL     1     -33.266   5.240   0.680  1.00 20.00     0.038 A 
HETATM    7  C3  UNL     1     -31.837   5.438   1.092  1.00 20.00     0.038 A 
ENDBRANCH   4   5
BRANCH   4   8
HETATM    8  C7  UNL     1     -33.718   7.450   3.636  1.00 20.00     0.269 C 
HETATM    9  C5  UNL     1     -34.871   6.547   3.918  1.00 20.00     0.037 C 
ENDBRANCH   4   8
ENDBRANCH   2   4
TORSDOF 3
ENDMDL
MODEL 5
REMARK VINA RESULT:      -1.2      1.412      3.894
REMARK  3 active torsions:
REMARK  status: ('A' for Active; 'I' for Inactive)
REMARK    1  A    between atoms: C4_4  and  N9_9 
REMARK    2  A    between atoms: C6_6  and  N9_9 
REMARK    3  A    between atoms: C7_7  and  N9_9 
ROOT
HETATM    1  C1  UNL     1     -32.145   6.963   1.599  1.00 20.00     0.089 C 
HETATM    2  C6  UNL     1     -32.594   5.590   1.825  1.00 20.00     0.396 C 
HETATM    3  N8  UNL     1     -31.787   8.052   1.419  1.00 20.00    -0.195 NA
ENDROOT
BRANCH   2   4
HETATM    4  N9  UNL     1     -33.290   5.472   3.105  1.00 20.00     0.105 N 
BRANCH   4   5
HETATM    5  C4  UNL     1     -34.307   6.515   3.232  1.00 20.00     0.224 A 
HETATM    6  C2  UNL     1     -35.397   6.393   4.261  1.00 20.00     0.038 A 
HETATM    7  C3  UNL     1     -34.322   7.426   4.428  1.00 20.00     0.038 A 
ENDBRANCH   4   5
BRANCH   4   8
HETATM    8  C7  UNL     1     -33.896   4.147   3.237  1.00 20.00     0.269 C 
HETATM    9  C5  UNL     1     -33.395   3.445   4.452  1.00 20.00     0.037 C 
ENDBRANCH   4   8
ENDBRANCH   2   4
TORSDOF 3
ENDMDL
MODEL 6
REMARK VINA RESULT:      -0.7      1.710      2.862
REMARK  3 active torsions:
REMARK  status: ('A' for Active; 'I' for Inactive)
REMARK    1  A    between atoms: C4_4  and  N9_9 
REMARK    2  A    between atoms: C6_6  and  N9_9 
REMARK    3  A    between atoms: C7_7  and  N9_9 
ROOT
HETATM    1  C1  UNL     1     -34.829   6.112   4.142  1.00 20.00     0.089 C 
HETATM    2  C6  UNL     1     -34.077   7.315   3.792  1.00 20.00     0.396 C 
HETATM    3  N8  UNL     1     -35.426   5.157   4.423  1.00 20.00    -0.195 NA
ENDROOT
BRANCH   2   4
HETATM    4  N9  UNL     1     -33.440   7.170   2.484  1.00 20.00     0.105 N 
BRANCH   4   5
HETATM    5  C4  UNL     1     -32.379   8.163   2.320  1.00 20.00     0.224 A 
HETATM    6  C2  UNL     1     -31.261   7.927   1.341  1.00 20.00     0.038 A 
HETATM    7  C3  UNL     1     -32.289   8.984   1.063  1.00 20.00     0.038 A 
ENDBRANCH   4   5
BRANCH   4   8
HETATM    8  C7  UNL     1     -32.905   5.818   2.323  1.00 20.00     0.269 C 
HETATM    9  C5  UNL     1     -33.120   5.316   0.936  1.00 20.00     0.037 C 
ENDBRANCH   4   8
ENDBRANCH   2   4
TORSDOF 3
ENDMDL
MODEL 7
REMARK VINA RESULT:      -0.6      2.164      3.527
REMARK  3 active torsions:
REMARK  status: ('A' for Active; 'I' for Inactive)
REMARK    1  A    between atoms: C4_4  and  N9_9 
REMARK    2  A    between atoms: C6_6  and  N9_9 
REMARK    3  A    between atoms: C7_7  and  N9_9 
ROOT
HETATM    1  C1  UNL     1     -33.153   5.022   0.517  1.00 20.00     0.089 C 
HETATM    2  C6  UNL     1     -32.303   5.705   1.491  1.00 20.00     0.396 C 
HETATM    3  N8  UNL     1     -33.825   4.479  -0.257  1.00 20.00    -0.195 NA
ENDROOT
BRANCH   2   4
HETATM    4  N9  UNL     1     -32.979   6.877   2.043  1.00 20.00     0.105 N 
BRANCH   4   5
HETATM    5  C4  UNL     1     -33.488   6.591   3.383  1.00 20.00     0.224 A 
HETATM    6  C2  UNL     1     -34.115   7.681   4.208  1.00 20.00     0.038 A 
HETATM    7  C3  UNL     1     -34.967   6.578   3.653  1.00 20.00     0.038 A 
ENDBRANCH   4   5
BRANCH   4   8
HETATM    8  C7  UNL     1     -32.071   8.024   2.074  1.00 20.00     0.269 C 
HETATM    9  C5  UNL     1     -32.294   8.918   0.902  1.00 20.00     0.037 C 
ENDBRANCH   4   8
ENDBRANCH   2   4
TORSDOF 3
ENDMDL
MODEL 8
REMARK VINA RESULT:      -0.5      1.984      2.870
REMARK  3 active torsions:
REMARK  status: ('A' for Active; 'I' for Inactive)
REMARK    1  A    between atoms: C4_4  and  N9_9 
REMARK    2  A    between atoms: C6_6  and  N9_9 
REMARK    3  A    between atoms: C7_7  and  N9_9 
ROOT
HETATM    1  C1  UNL     1     -34.586   6.939   3.785  1.00 20.00     0.089 C 
HETATM    2  C6  UNL     1     -33.630   7.919   3.271  1.00 20.00     0.396 C 
HETATM    3  N8  UNL     1     -35.345   6.164   4.195  1.00 20.00    -0.195 NA
ENDROOT
BRANCH   2   4
HETATM    4  N9  UNL     1     -32.508   7.256   2.609  1.00 20.00     0.105 N 
BRANCH   4   5
HETATM    5  C4  UNL     1     -32.993   6.252   1.663  1.00 20.00     0.224 A 
HETATM    6  C2  UNL     1     -32.024   5.461   0.829  1.00 20.00     0.038 A 
HETATM    7  C3  UNL     1     -32.786   4.787   1.931  1.00 20.00     0.038 A 
ENDBRANCH   4   5
BRANCH   4   8
HETATM    8  C7  UNL     1     -31.665   8.237   1.926  1.00 20.00     0.269 C 
HETATM    9  C5  UNL     1     -32.461   9.061   0.973  1.00 20.00     0.037 C 
ENDBRANCH   4   8
ENDBRANCH   2   4
TORSDOF 3
ENDMDL
MODEL 9
REMARK VINA RESULT:      -0.2      1.367      1.568
REMARK  3 active torsions:
REMARK  status: ('A' for Active; 'I' for Inactive)
REMARK    1  A    between atoms: C4_4  and  N9_9 
REMARK    2  A    between atoms: C6_6  and  N9_9 
REMARK    3  A    between atoms: C7_7  and  N9_9 
ROOT
HETATM    1  C1  UNL     1     -35.182   5.582   4.264  1.00 20.00     0.089 C 
HETATM    2  C6  UNL     1     -34.816   6.859   3.654  1.00 20.00     0.396 C 
HETATM    3  N8  UNL     1     -35.474   4.570   4.750  1.00 20.00    -0.195 NA
ENDROOT
BRANCH   2   4
HETATM    4  N9  UNL     1     -33.387   6.903   3.350  1.00 20.00     0.105 N 
BRANCH   4   5
HETATM    5  C4  UNL     1     -33.166   6.783   1.910  1.00 20.00     0.224 A 
HETATM    6  C2  UNL     1     -31.874   7.249   1.297  1.00 20.00     0.038 A 
HETATM    7  C3  UNL     1     -32.183   5.782   1.368  1.00 20.00     0.038 A 
ENDBRANCH   4   5
BRANCH   4   8
HETATM    8  C7  UNL     1     -32.794   8.140   3.858  1.00 20.00     0.269 C 
HETATM    9  C5  UNL     1     -33.182   8.380   5.277  1.00 20.00     0.037 C 
ENDBRANCH   4   8
ENDBRANCH   2   4
TORSDOF 3
ENDMDL
