MODEL 1
REMARK VINA RESULT:      -2.3      0.000      0.000
REMARK  3 active torsions:
REMARK  status: ('A' for Active; 'I' for Inactive)
REMARK    1  A    between atoms: C1_1  and  C4_4 
REMARK       I    between atoms: C1_1  and  N7_7 
REMARK    2  A    between atoms: C5_5  and  C6_6 
REMARK    3  A    between atoms: C6_6  and  N7_7 
ROOT
HETATM    1  C1  UNL     1     -34.011   7.038   3.647  1.00 20.00     0.233 C 
HETATM    2  C3  UNL     1     -33.088   5.921   1.558  1.00 20.00     0.152 C 
HETATM    3  N7  UNL     1     -33.119   6.976   2.567  1.00 20.00    -0.356 N 
HETATM    4  O8  UNL     1     -34.001   7.950   4.477  1.00 20.00    -0.272 OA
ENDROOT
BRANCH   3   5
HETATM    5  C6  UNL     1     -32.128   8.031   2.393  1.00 20.00     0.125 C 
BRANCH   5   6
HETATM    6  C5  UNL     1     -31.847   8.326   0.924  1.00 20.00     0.015 C 
HETATM    7  C2  UNL     1     -32.406   9.668   0.476  1.00 20.00     0.006 C 
ENDBRANCH   5   6
ENDBRANCH   3   5
BRANCH   1   8
HETATM    8  C4  UNL     1     -35.007   5.899   3.738  1.00 20.00     0.217 C 
HETATM    9 CL9  UNL     1     -34.213   4.412   4.297  1.00 20.00    -0.121 Cl
ENDBRANCH   1   8
TORSDOF 3
ENDMDL
MODEL 2
REMARK VINA RESULT:      -1.9      2.657      4.485
REMARK  3 active torsions:
REMARK  status: ('A' for Active; 'I' for Inactive)
REMARK    1  A    between atoms: C1_1  and  C4_4 
REMARK       I    between atoms: C1_1  and  N7_7 
REMARK    2  A    between atoms: C5_5  and  C6_6 
REMARK    3  A    between atoms: C6_6  and  N7_7 
ROOT
HETATM    1  C1  UNL     1     -32.983   6.787   2.251  1.00 20.00     0.233 C 
HETATM    2  C3  UNL     1     -33.843   7.896   4.371  1.00 20.00     0.152 C 
HETATM    3  N7  UNL     1     -33.869   6.868   3.334  1.00 20.00    -0.356 N 
HETATM    4  O8  UNL     1     -33.043   5.900   1.397  1.00 20.00    -0.272 OA
ENDROOT
BRANCH   3   5
HETATM    5  C6  UNL     1     -34.924   5.871   3.475  1.00 20.00     0.125 C 
BRANCH   5   6
HETATM    6  C5  UNL     1     -34.635   4.874   4.591  1.00 20.00     0.015 C 
HETATM    7  C2  UNL     1     -33.753   3.721   4.136  1.00 20.00     0.006 C 
ENDBRANCH   5   6
ENDBRANCH   3   5
BRANCH   1   8
HETATM    8  C4  UNL     1     -31.926   7.872   2.189  1.00 20.00     0.217 C 
HETATM    9 CL9  UNL     1     -32.266   9.007   0.866  1.00 20.00    -0.121 Cl
ENDBRANCH   1   8
TORSDOF 3
ENDMDL
MODEL 3
REMARK VINA RESULT:      -1.5      1.569      1.929
REMARK  3 active torsions:
REMARK  status: ('A' for Active; 'I' for Inactive)
REMARK    1  A    between atoms: C1_1  and  C4_4 
REMARK       I    between atoms: C1_1  and  N7_7 
REMARK    2  A    between atoms: C5_5  and  C6_6 
REMARK    3  A    between atoms: C6_6  and  N7_7 
ROOT
HETATM    1  C1  UNL     1     -33.351   6.045   2.500  1.00 20.00     0.233 C 
HETATM    2  C3  UNL     1     -33.400   8.209   3.833  1.00 20.00     0.152 C 
HETATM    3  N7  UNL     1     -32.955   7.371   2.722  1.00 20.00    -0.356 N 
HETATM    4  O8  UNL     1     -32.949   5.373   1.547  1.00 20.00    -0.272 OA
ENDROOT
BRANCH   3   5
HETATM    5  C6  UNL     1     -32.021   8.006   1.801  1.00 20.00     0.125 C 
BRANCH   5   6
HETATM    6  C5  UNL     1     -32.473   9.401   1.386  1.00 20.00     0.015 C 
HETATM    7  C2  UNL     1     -32.368   9.632  -0.114  1.00 20.00     0.006 C 
ENDBRANCH   5   6
ENDBRANCH   3   5
BRANCH   1   8
HETATM    8  C4  UNL     1     -34.319   5.472   3.517  1.00 20.00     0.217 C 
HETATM    9 CL9  UNL     1     -33.788   3.866   4.056  1.00 20.00    -0.121 Cl
ENDBRANCH   1   8
TORSDOF 3
ENDMDL
MODEL 4
REMARK VINA RESULT:      -1.4      1.827      2.194
REMARK  3 active torsions:
REMARK  status: ('A' for Active; 'I' for Inactive)
REMARK    1  A    between atoms: C1_1  and  C4_4 
REMARK       I    between atoms: C1_1  and  N7_7 
REMARK    2  A    between atoms: C5_5  and  C6_6 
REMARK    3  A    between atoms: C6_6  and  N7_7 
ROOT
HETATM    1  C1  UNL     1     -33.093   6.211   2.196  1.00 20.00     0.233 C 
HETATM    2  C3  UNL     1     -32.580   8.267   3.598  1.00 20.00     0.152 C 
HETATM    3  N7  UNL     1     -32.549   7.491   2.361  1.00 20.00    -0.356 N 
HETATM    4  O8  UNL     1     -33.044   5.591   1.131  1.00 20.00    -0.272 OA
ENDROOT
BRANCH   3   5
HETATM    5  C6  UNL     1     -31.884   8.140   1.238  1.00 20.00     0.125 C 
BRANCH   5   6
HETATM    6  C5  UNL     1     -32.363   9.571   1.027  1.00 20.00     0.015 C 
HETATM    7  C2  UNL     1     -32.655   9.884  -0.433  1.00 20.00     0.006 C 
ENDBRANCH   5   6
ENDBRANCH   3   5
BRANCH   1   8
HETATM    8  C4  UNL     1     -33.759   5.619   3.423  1.00 20.00     0.217 C 
HETATM    9 CL9  UNL     1     -35.313   6.416   3.742  1.00 20.00    -0.121 Cl
ENDBRANCH   1   8
TORSDOF 3
ENDMDL
MODEL 5
REMARK VINA RESULT:      -1.3      2.630      4.171
REMARK  3 active torsions:
REMARK  status: ('A' for Active; 'I' for Inactive)
REMARK    1  A    between atoms: C1_1  and  C4_4 
REMARK       I    between atoms: C1_1  and  N7_7 
REMARK    2  A    between atoms: C5_5  and  C6_6 
REMARK    3  A    between atoms: C6_6  and  N7_7 
ROOT
HETATM    1  C1  UNL     1     -32.163   7.869   1.924  1.00 20.00     0.233 C 
HETATM    2  C3  UNL     1     -32.982   5.766   0.756  1.00 20.00     0.152 C 
HETATM    3  N7  UNL     1     -32.776   6.609   1.930  1.00 20.00    -0.356 N 
HETATM    4  O8  UNL     1     -32.010   8.548   2.942  1.00 20.00    -0.272 OA
ENDROOT
BRANCH   3   5
HETATM    5  C6  UNL     1     -33.258   6.052   3.187  1.00 20.00     0.125 C 
BRANCH   5   6
HETATM    6  C5  UNL     1     -34.591   6.655   3.617  1.00 20.00     0.015 C 
HETATM    7  C2  UNL     1     -35.479   5.659   4.347  1.00 20.00     0.006 C 
ENDBRANCH   5   6
ENDBRANCH   3   5
BRANCH   1   8
HETATM    8  C4  UNL     1     -31.690   8.360   0.570  1.00 20.00     0.217 C 
HETATM    9 CL9  UNL     1     -32.451   9.911   0.161  1.00 20.00    -0.121 Cl
ENDBRANCH   1   8
TORSDOF 3
ENDMDL
MODEL 6
REMARK VINA RESULT:      -1.0      2.568      4.262
REMARK  3 active torsions:
REMARK  status: ('A' for Active; 'I' for Inactive)
REMARK    1  A    between atoms: C1_1  and  C4_4 
REMARK       I    between atoms: C1_1  and  N7_7 
REMARK    2  A    between atoms: C5_5  and  C6_6 
REMARK    3  A    between atoms: C6_6  and  N7_7 
ROOT
HETATM    1  C1  UNL     1     -32.726   7.538   2.641  1.00 20.00     0.233 C 
HETATM    2  C3  UNL     1     -32.864   5.338   1.374  1.00 20.00     0.152 C 
HETATM    3  N7  UNL     1     -33.184   6.222   2.492  1.00 20.00    -0.356 N 
HETATM    4  O8  UNL     1     -33.023   8.249   3.603  1.00 20.00    -0.272 OA
ENDROOT
BRANCH   3   5
HETATM    5  C6  UNL     1     -34.048   5.643   3.513  1.00 20.00     0.125 C 
BRANCH   5   6
HETATM    6  C5  UNL     1     -34.032   4.119   3.491  1.00 20.00     0.015 C 
HETATM    7  C2  UNL     1     -33.461   3.518   4.767  1.00 20.00     0.006 C 
ENDBRANCH   5   6
ENDBRANCH   3   5
BRANCH   1   8
HETATM    8  C4  UNL     1     -31.829   8.047   1.530  1.00 20.00     0.217 C 
HETATM    9 CL9  UNL     1     -32.523   9.497   0.775  1.00 20.00    -0.121 Cl
ENDBRANCH   1   8
TORSDOF 3
ENDMDL
MODEL 7
REMARK VINA RESULT:      -0.7      2.440      3.044
REMARK  3 active torsions:
REMARK  status: ('A' for Active; 'I' for Inactive)
REMARK    1  A    between atoms: C1_1  and  C4_4 
REMARK       I    between atoms: C1_1  and  N7_7 
REMARK    2  A    between atoms: C5_5  and  C6_6 
REMARK    3  A    between atoms: C6_6  and  N7_7 
ROOT
HETATM    1  C1  UNL     1     -34.396   4.616   4.042  1.00 20.00     0.233 C 
HETATM    2  C3  UNL     1     -32.973   5.792   2.294  1.00 20.00     0.152 C 
HETATM    3  N7  UNL     1     -34.041   5.743   3.290  1.00 20.00    -0.356 N 
HETATM    4  O8  UNL     1     -35.307   4.620   4.874  1.00 20.00    -0.272 OA
ENDROOT
BRANCH   3   5
HETATM    5  C6  UNL     1     -34.771   6.991   3.479  1.00 20.00     0.125 C 
BRANCH   5   6
HETATM    6  C5  UNL     1     -33.846   8.165   3.780  1.00 20.00     0.015 C 
HETATM    7  C2  UNL     1     -33.274   8.116   5.188  1.00 20.00     0.006 C 
ENDBRANCH   5   6
ENDBRANCH   3   5
BRANCH   1   8
HETATM    8  C4  UNL     1     -33.582   3.365   3.770  1.00 20.00     0.217 C 
HETATM    9 CL9  UNL     1     -32.795   2.791   5.254  1.00 20.00    -0.121 Cl
ENDBRANCH   1   8
TORSDOF 3
ENDMDL
MODEL 8
REMARK VINA RESULT:      -0.0      2.488      4.171
REMARK  3 active torsions:
REMARK  status: ('A' for Active; 'I' for Inactive)
REMARK    1  A    between atoms: C1_1  and  C4_4 
REMARK       I    between atoms: C1_1  and  N7_7 
REMARK    2  A    between atoms: C5_5  and  C6_6 
REMARK    3  A    between atoms: C6_6  and  N7_7 
ROOT
HETATM    1  C1  UNL     1     -34.527   6.469   3.791  1.00 20.00     0.233 C 
HETATM    2  C3  UNL     1     -32.590   6.072   2.193  1.00 20.00     0.152 C 
HETATM    3  N7  UNL     1     -33.695   5.628   3.040  1.00 20.00    -0.356 N 
HETATM    4  O8  UNL     1     -35.450   6.050   4.494  1.00 20.00    -0.272 OA
ENDROOT
BRANCH   3   5
HETATM    5  C6  UNL     1     -33.907   4.187   3.078  1.00 20.00     0.125 C 
BRANCH   5   6
HETATM    6  C5  UNL     1     -33.941   3.643   4.502  1.00 20.00     0.015 C 
HETATM    7  C2  UNL     1     -32.752   2.748   4.818  1.00 20.00     0.006 C 
ENDBRANCH   5   6
ENDBRANCH   3   5
BRANCH   1   8
HETATM    8  C4  UNL     1     -34.222   7.951   3.690  1.00 20.00     0.217 C 
HETATM    9 CL9  UNL     1     -33.057   8.441   4.937  1.00 20.00    -0.121 Cl
ENDBRANCH   1   8
TORSDOF 3
ENDMDL
MODEL 9
REMARK VINA RESULT:       0.1      1.993      2.992
REMARK  3 active torsions:
REMARK  status: ('A' for Active; 'I' for Inactive)
REMARK    1  A    between atoms: C1_1  and  C4_4 
REMARK       I    between atoms: C1_1  and  N7_7 
REMARK    2  A    between atoms: C5_5  and  C6_6 
REMARK    3  A    between atoms: C6_6  and  N7_7 
ROOT
HETATM    1  C1  UNL     1     -34.129   6.765   3.483  1.00 20.00     0.233 C 
HETATM    2  C3  UNL     1     -32.395   7.894   2.007  1.00 20.00     0.152 C 
HETATM    3  N7  UNL     1     -33.215   6.758   2.421  1.00 20.00    -0.356 N 
HETATM    4  O8  UNL     1     -34.802   5.780   3.798  1.00 20.00    -0.272 OA
ENDROOT
BRANCH   3   5
HETATM    5  C6  UNL     1     -33.028   5.541   1.642  1.00 20.00     0.125 C 
BRANCH   5   6
HETATM    6  C5  UNL     1     -31.651   5.475   0.990  1.00 20.00     0.015 C 
HETATM    7  C2  UNL     1     -31.437   4.194   0.197  1.00 20.00     0.006 C 
ENDBRANCH   5   6
ENDBRANCH   3   5
BRANCH   1   8
HETATM    8  C4  UNL     1     -34.248   8.075   4.236  1.00 20.00     0.217 C 
HETATM    9 CL9  UNL     1     -32.911   8.261   5.390  1.00 20.00    -0.121 Cl
ENDBRANCH   1   8
TORSDOF 3
ENDMDL
