MODEL 1
REMARK VINA RESULT:       0.0      0.000      0.000
REMARK  0 active torsions:
REMARK  status: ('A' for Active; 'I' for Inactive)
ROOT
HETATM    1  C1  UNL     1     -34.399   7.296   3.748  1.00 20.00     0.039 A 
HETATM    2  C2  UNL     1     -34.433   5.972   4.188  1.00 20.00     0.022 A 
HETATM    3  C3  UNL     1     -32.716   5.347   2.580  1.00 20.00     0.029 A 
HETATM    4  C4  UNL     1     -32.685   6.665   2.159  1.00 20.00    -0.021 A 
HETATM    5  C5  UNL     1     -33.512   7.615   2.738  1.00 20.00     0.075 A 
HETATM    6  C6  UNL     1     -33.596   5.003   3.609  1.00 20.00     0.011 A 
HETATM    7  C7  UNL     1     -31.906   7.287   1.066  1.00 20.00     0.073 C 
HETATM    8  C8  UNL     1     -32.161   8.767   1.397  1.00 20.00     0.129 C 
HETATM    9  C9  UNL     1     -32.321   9.623   0.151  1.00 20.00     0.040 C 
HETATM   10  O10 UNL     1     -33.370   8.866   2.195  1.00 20.00    -0.345 OA
HETATM   11 BR11 UNL     1     -33.671   3.215   4.221  1.00 20.00    -0.051 Br
ENDROOT
TORSDOF 0
ENDMDL
MODEL 2
REMARK VINA RESULT:       0.9      2.750      4.372
REMARK  0 active torsions:
REMARK  status: ('A' for Active; 'I' for Inactive)
ROOT
HETATM    1  C1  UNL     1     -34.161   7.512   3.778  1.00 20.00     0.039 A 
HETATM    2  C2  UNL     1     -33.648   8.448   2.878  1.00 20.00     0.022 A 
HETATM    3  C3  UNL     1     -32.474   6.698   1.660  1.00 20.00     0.029 A 
HETATM    4  C4  UNL     1     -32.997   5.779   2.552  1.00 20.00    -0.021 A 
HETATM    5  C5  UNL     1     -33.825   6.185   3.587  1.00 20.00     0.075 A 
HETATM    6  C6  UNL     1     -32.811   8.044   1.825  1.00 20.00     0.011 A 
HETATM    7  C7  UNL     1     -32.763   4.321   2.649  1.00 20.00     0.073 C 
HETATM    8  C8  UNL     1     -33.876   3.961   3.647  1.00 20.00     0.129 C 
HETATM    9  C9  UNL     1     -33.452   2.881   4.628  1.00 20.00     0.040 C 
HETATM   10  O10 UNL     1     -34.241   5.155   4.390  1.00 20.00    -0.345 OA
HETATM   11 BR11 UNL     1     -32.124   9.335   0.627  1.00 20.00    -0.051 Br
ENDROOT
TORSDOF 0
ENDMDL
MODEL 3
REMARK VINA RESULT:       1.3      2.803      4.652
REMARK  0 active torsions:
REMARK  status: ('A' for Active; 'I' for Inactive)
ROOT
HETATM    1  C1  UNL     1     -32.280   5.971   1.467  1.00 20.00     0.039 A 
HETATM    2  C2  UNL     1     -31.896   7.148   0.822  1.00 20.00     0.022 A 
HETATM    3  C3  UNL     1     -33.315   8.469   2.295  1.00 20.00     0.029 A 
HETATM    4  C4  UNL     1     -33.680   7.296   2.932  1.00 20.00    -0.021 A 
HETATM    5  C5  UNL     1     -33.167   6.075   2.521  1.00 20.00     0.075 A 
HETATM    6  C6  UNL     1     -32.409   8.389   1.234  1.00 20.00     0.011 A 
HETATM    7  C7  UNL     1     -34.651   7.081   4.027  1.00 20.00     0.073 C 
HETATM    8  C8  UNL     1     -34.298   5.628   4.385  1.00 20.00     0.129 C 
HETATM    9  C9  UNL     1     -35.521   4.805   4.755  1.00 20.00     0.040 C 
HETATM   10  O10 UNL     1     -33.643   5.012   3.244  1.00 20.00    -0.345 OA
HETATM   11 BR11 UNL     1     -31.877   9.966   0.336  1.00 20.00    -0.051 Br
ENDROOT
TORSDOF 0
ENDMDL
MODEL 4
REMARK VINA RESULT:       2.9      1.181      2.088
REMARK  0 active torsions:
REMARK  status: ('A' for Active; 'I' for Inactive)
ROOT
HETATM    1  C1  UNL     1     -31.954   5.884   1.295  1.00 20.00     0.039 A 
HETATM    2  C2  UNL     1     -32.539   5.017   2.220  1.00 20.00     0.022 A 
HETATM    3  C3  UNL     1     -33.803   6.850   3.204  1.00 20.00     0.029 A 
HETATM    4  C4  UNL     1     -33.223   7.697   2.276  1.00 20.00    -0.021 A 
HETATM    5  C5  UNL     1     -32.319   7.215   1.342  1.00 20.00     0.075 A 
HETATM    6  C6  UNL     1     -33.459   5.496   3.168  1.00 20.00     0.011 A 
HETATM    7  C7  UNL     1     -33.358   9.162   2.125  1.00 20.00     0.073 C 
HETATM    8  C8  UNL     1     -32.691   9.328   0.750  1.00 20.00     0.129 C 
HETATM    9  C9  UNL     1     -31.866  10.600   0.651  1.00 20.00     0.040 C 
HETATM   10  O10 UNL     1     -31.826   8.186   0.509  1.00 20.00    -0.345 OA
HETATM   11 BR11 UNL     1     -34.228   4.299   4.413  1.00 20.00    -0.051 Br
ENDROOT
TORSDOF 0
ENDMDL
