MODEL 1
REMARK VINA RESULT:       0.3      0.000      0.000
REMARK  0 active torsions:
REMARK  status: ('A' for Active; 'I' for Inactive)
ROOT
HETATM    1  C1  UNL     1     -32.303   9.180   0.892  1.00 20.00     0.064 C 
HETATM    2  C2  UNL     1     -32.466   8.296   3.206  1.00 20.00     0.023 C 
HETATM    3  C3  UNL     1     -31.425   6.891   1.361  1.00 20.00     0.028 C 
HETATM    4  C4  UNL     1     -33.416   6.016   2.675  1.00 20.00     0.013 C 
HETATM    5  C5  UNL     1     -31.670   8.309   1.898  1.00 20.00     0.094 C 
HETATM    6  C6  UNL     1     -33.743   7.446   3.131  1.00 20.00    -0.017 C 
HETATM    7  C7  UNL     1     -32.662   5.957   1.328  1.00 20.00    -0.046 C 
HETATM    8  C8  UNL     1     -34.448   7.423   4.488  1.00 20.00     0.010 C 
HETATM    9  C9  UNL     1     -32.176   4.510   1.098  1.00 20.00     0.015 C 
HETATM   10  C10 UNL     1     -33.607   6.309   0.162  1.00 20.00     0.015 C 
HETATM   11  N11 UNL     1     -32.801   9.866   0.100  1.00 20.00    -0.197 NA
ENDROOT
TORSDOF 0
ENDMDL
MODEL 2
REMARK VINA RESULT:       2.7      2.613      3.693
REMARK  0 active torsions:
REMARK  status: ('A' for Active; 'I' for Inactive)
ROOT
HETATM    1  C1  UNL     1     -34.296   4.774   3.820  1.00 20.00     0.064 C 
HETATM    2  C2  UNL     1     -34.428   7.187   4.392  1.00 20.00     0.023 C 
HETATM    3  C3  UNL     1     -34.245   6.446   1.967  1.00 20.00     0.028 C 
HETATM    4  C4  UNL     1     -32.518   8.020   2.964  1.00 20.00     0.013 C 
HETATM    5  C5  UNL     1     -34.764   6.097   3.369  1.00 20.00     0.094 C 
HETATM    6  C6  UNL     1     -32.949   7.597   4.376  1.00 20.00    -0.017 C 
HETATM    7  C7  UNL     1     -32.777   6.938   1.892  1.00 20.00    -0.046 C 
HETATM    8  C8  UNL     1     -32.701   8.733   5.371  1.00 20.00     0.010 C 
HETATM    9  C9  UNL     1     -32.540   7.558   0.498  1.00 20.00     0.015 C 
HETATM   10  C10 UNL     1     -31.779   5.774   2.046  1.00 20.00     0.015 C 
HETATM   11  N11 UNL     1     -33.927   3.733   4.175  1.00 20.00    -0.197 NA
ENDROOT
TORSDOF 0
ENDMDL
MODEL 3
REMARK VINA RESULT:       3.0      1.943      3.344
REMARK  0 active torsions:
REMARK  status: ('A' for Active; 'I' for Inactive)
ROOT
HETATM    1  C1  UNL     1     -32.064   5.177   1.552  1.00 20.00     0.064 C 
HETATM    2  C2  UNL     1     -33.948   6.293   2.722  1.00 20.00     0.023 C 
HETATM    3  C3  UNL     1     -33.018   7.261   0.564  1.00 20.00     0.028 C 
HETATM    4  C4  UNL     1     -33.069   8.660   2.684  1.00 20.00     0.013 C 
HETATM    5  C5  UNL     1     -33.283   5.986   1.377  1.00 20.00     0.094 C 
HETATM    6  C6  UNL     1     -33.222   7.383   3.523  1.00 20.00    -0.017 C 
HETATM    7  C7  UNL     1     -32.352   8.429   1.335  1.00 20.00    -0.046 C 
HETATM    8  C8  UNL     1     -33.977   7.685   4.819  1.00 20.00     0.010 C 
HETATM    9  C9  UNL     1     -32.477   9.711   0.484  1.00 20.00     0.015 C 
HETATM   10  C10 UNL     1     -30.848   8.177   1.558  1.00 20.00     0.015 C 
HETATM   11  N11 UNL     1     -31.103   4.540   1.690  1.00 20.00    -0.197 NA
ENDROOT
TORSDOF 0
ENDMDL
MODEL 4
REMARK VINA RESULT:       3.1      2.351      3.531
REMARK  0 active torsions:
REMARK  status: ('A' for Active; 'I' for Inactive)
ROOT
HETATM    1  C1  UNL     1     -36.090   6.783   3.235  1.00 20.00     0.064 C 
HETATM    2  C2  UNL     1     -34.480   5.469   4.595  1.00 20.00     0.023 C 
HETATM    3  C3  UNL     1     -33.671   7.395   3.145  1.00 20.00     0.028 C 
HETATM    4  C4  UNL     1     -32.732   5.057   2.819  1.00 20.00     0.013 C 
HETATM    5  C5  UNL     1     -34.825   6.834   3.989  1.00 20.00     0.094 C 
HETATM    6  C6  UNL     1     -33.939   4.468   3.565  1.00 20.00    -0.017 C 
HETATM    7  C7  UNL     1     -33.031   6.409   2.134  1.00 20.00    -0.046 C 
HETATM    8  C8  UNL     1     -33.553   3.156   4.249  1.00 20.00     0.010 C 
HETATM    9  C9  UNL     1     -31.701   7.015   1.637  1.00 20.00     0.015 C 
HETATM   10  C10 UNL     1     -33.927   6.203   0.897  1.00 20.00     0.015 C 
HETATM   11  N11 UNL     1     -37.086   6.743   2.640  1.00 20.00    -0.197 NA
ENDROOT
TORSDOF 0
ENDMDL
