MODEL 1
REMARK VINA RESULT:       1.2      0.000      0.000
REMARK  2 active torsions:
REMARK  status: ('A' for Active; 'I' for Inactive)
REMARK    1  A    between atoms: C7_7  and  C12_12 
REMARK    2  A    between atoms: C11_11  and  C12_12 
ROOT
HETATM    1  C1  UNL     1     -32.184   9.038   0.581  1.00 20.00     0.064 C 
HETATM    2  C2  UNL     1     -31.358   8.128   2.734  1.00 20.00     0.019 C 
HETATM    3  C3  UNL     1     -32.197   6.581   0.913  1.00 20.00     0.019 C 
HETATM    4  C4  UNL     1     -32.683   7.963   3.481  1.00 20.00     0.007 C 
HETATM    5  C5  UNL     1     -33.520   6.420   1.665  1.00 20.00     0.007 C 
HETATM    6  C6  UNL     1     -31.490   7.906   1.222  1.00 20.00     0.093 C 
HETATM    7  C7  UNL     1     -33.343   6.613   3.175  1.00 20.00    -0.007 C 
HETATM    8  N13 UNL     1     -32.729   9.929   0.075  1.00 20.00    -0.197 NA
ENDROOT
BRANCH   7   9
HETATM    9  C12 UNL     1     -34.686   6.494   3.895  1.00 20.00    -0.044 C 
HETATM   10  C9  UNL     1     -34.705   7.472   5.087  1.00 20.00     0.015 C 
HETATM   11  C10 UNL     1     -35.814   6.882   2.918  1.00 20.00     0.015 C 
BRANCH   9  12
HETATM   12  C11 UNL     1     -34.861   5.029   4.383  1.00 20.00     0.004 C 
HETATM   13  C8  UNL     1     -33.733   4.063   4.039  1.00 20.00     0.006 C 
ENDBRANCH   9  12
ENDBRANCH   7   9
TORSDOF 2
ENDMDL
MODEL 2
REMARK VINA RESULT:       1.5      2.442      4.728
REMARK  2 active torsions:
REMARK  status: ('A' for Active; 'I' for Inactive)
REMARK    1  A    between atoms: C7_7  and  C12_12 
REMARK    2  A    between atoms: C11_11  and  C12_12 
ROOT
HETATM    1  C1  UNL     1     -33.503   4.114   4.285  1.00 20.00     0.064 C 
HETATM    2  C2  UNL     1     -34.892   6.142   3.961  1.00 20.00     0.019 C 
HETATM    3  C3  UNL     1     -33.973   4.873   1.972  1.00 20.00     0.019 C 
HETATM    4  C4  UNL     1     -33.794   7.195   3.793  1.00 20.00     0.007 C 
HETATM    5  C5  UNL     1     -32.877   5.929   1.809  1.00 20.00     0.007 C 
HETATM    6  C6  UNL     1     -34.494   4.767   3.409  1.00 20.00     0.093 C 
HETATM    7  C7  UNL     1     -33.323   7.297   2.337  1.00 20.00    -0.007 C 
HETATM    8  N13 UNL     1     -32.724   3.599   4.974  1.00 20.00    -0.197 NA
ENDROOT
BRANCH   7   9
HETATM    9  C12 UNL     1     -32.196   8.320   2.206  1.00 20.00    -0.044 C 
HETATM   10  C9  UNL     1     -31.692   8.696   3.614  1.00 20.00     0.015 C 
HETATM   11  C10 UNL     1     -31.033   7.685   1.417  1.00 20.00     0.015 C 
BRANCH   9  12
HETATM   12  C11 UNL     1     -32.743   9.572   1.466  1.00 20.00     0.004 C 
HETATM   13  C8  UNL     1     -32.412   9.679  -0.017  1.00 20.00     0.006 C 
ENDBRANCH   9  12
ENDBRANCH   7   9
TORSDOF 2
ENDMDL
MODEL 3
REMARK VINA RESULT:       3.0      2.255      4.460
REMARK  2 active torsions:
REMARK  status: ('A' for Active; 'I' for Inactive)
REMARK    1  A    between atoms: C7_7  and  C12_12 
REMARK    2  A    between atoms: C11_11  and  C12_12 
ROOT
HETATM    1  C1  UNL     1     -34.636   4.894   4.419  1.00 20.00     0.064 C 
HETATM    2  C2  UNL     1     -34.276   7.309   4.853  1.00 20.00     0.019 C 
HETATM    3  C3  UNL     1     -35.564   6.540   2.813  1.00 20.00     0.019 C 
HETATM    4  C4  UNL     1     -33.045   7.558   3.979  1.00 20.00     0.007 C 
HETATM    5  C5  UNL     1     -34.330   6.791   1.944  1.00 20.00     0.007 C 
HETATM    6  C6  UNL     1     -35.216   6.243   4.277  1.00 20.00     0.093 C 
HETATM    7  C7  UNL     1     -33.433   7.886   2.532  1.00 20.00    -0.007 C 
HETATM    8  N13 UNL     1     -34.181   3.833   4.532  1.00 20.00    -0.197 NA
ENDROOT
BRANCH   7   9
HETATM    9  C12 UNL     1     -32.186   8.082   1.672  1.00 20.00    -0.044 C 
HETATM   10  C9  UNL     1     -32.388   9.315   0.769  1.00 20.00     0.015 C 
HETATM   11  C10 UNL     1     -30.976   8.335   2.593  1.00 20.00     0.015 C 
BRANCH   9  12
HETATM   12  C11 UNL     1     -31.966   6.804   0.815  1.00 20.00     0.004 C 
HETATM   13  C8  UNL     1     -31.669   5.520   1.581  1.00 20.00     0.006 C 
ENDBRANCH   9  12
ENDBRANCH   7   9
TORSDOF 2
ENDMDL
MODEL 4
REMARK VINA RESULT:       3.0      2.642      4.722
REMARK  2 active torsions:
REMARK  status: ('A' for Active; 'I' for Inactive)
REMARK    1  A    between atoms: C7_7  and  C12_12 
REMARK    2  A    between atoms: C11_11  and  C12_12 
ROOT
HETATM    1  C1  UNL     1     -33.250   3.480   4.822  1.00 20.00     0.064 C 
HETATM    2  C2  UNL     1     -35.189   4.950   4.344  1.00 20.00     0.019 C 
HETATM    3  C3  UNL     1     -33.613   4.245   2.491  1.00 20.00     0.019 C 
HETATM    4  C4  UNL     1     -34.508   6.319   4.400  1.00 20.00     0.007 C 
HETATM    5  C5  UNL     1     -32.936   5.616   2.551  1.00 20.00     0.007 C 
HETATM    6  C6  UNL     1     -34.268   3.842   3.818  1.00 20.00     0.093 C 
HETATM    7  C7  UNL     1     -33.896   6.703   3.047  1.00 20.00    -0.007 C 
HETATM    8  N13 UNL     1     -32.450   3.194   5.612  1.00 20.00    -0.197 NA
ENDROOT
BRANCH   7   9
HETATM    9  C12 UNL     1     -33.182   8.050   3.143  1.00 20.00    -0.044 C 
HETATM   10  C9  UNL     1     -34.173   9.172   2.773  1.00 20.00     0.015 C 
HETATM   11  C10 UNL     1     -32.709   8.265   4.595  1.00 20.00     0.015 C 
BRANCH   9  12
HETATM   12  C11 UNL     1     -31.972   8.043   2.167  1.00 20.00     0.004 C 
HETATM   13  C8  UNL     1     -32.097   8.922   0.928  1.00 20.00     0.006 C 
ENDBRANCH   9  12
ENDBRANCH   7   9
TORSDOF 2
ENDMDL
MODEL 5
REMARK VINA RESULT:       3.1      0.939      1.188
REMARK  2 active torsions:
REMARK  status: ('A' for Active; 'I' for Inactive)
REMARK    1  A    between atoms: C7_7  and  C12_12 
REMARK    2  A    between atoms: C11_11  and  C12_12 
ROOT
HETATM    1  C1  UNL     1     -32.309   9.305   0.863  1.00 20.00     0.064 C 
HETATM    2  C2  UNL     1     -32.015   8.766   3.266  1.00 20.00     0.019 C 
HETATM    3  C3  UNL     1     -31.242   7.152   1.475  1.00 20.00     0.019 C 
HETATM    4  C4  UNL     1     -33.258   7.906   3.502  1.00 20.00     0.007 C 
HETATM    5  C5  UNL     1     -32.487   6.295   1.715  1.00 20.00     0.007 C 
HETATM    6  C6  UNL     1     -31.447   8.624   1.848  1.00 20.00     0.093 C 
HETATM    7  C7  UNL     1     -33.005   6.434   3.151  1.00 20.00    -0.007 C 
HETATM    8  N13 UNL     1     -32.986   9.841   0.088  1.00 20.00    -0.197 NA
ENDROOT
BRANCH   7   9
HETATM    9  C12 UNL     1     -34.274   5.608   3.350  1.00 20.00    -0.044 C 
HETATM   10  C9  UNL     1     -35.458   6.559   3.616  1.00 20.00     0.015 C 
HETATM   11  C10 UNL     1     -34.559   4.810   2.061  1.00 20.00     0.015 C 
BRANCH   9  12
HETATM   12  C11 UNL     1     -34.059   4.648   4.554  1.00 20.00     0.004 C 
HETATM   13  C8  UNL     1     -33.508   3.265   4.226  1.00 20.00     0.006 C 
ENDBRANCH   9  12
ENDBRANCH   7   9
TORSDOF 2
ENDMDL
MODEL 6
REMARK VINA RESULT:       3.2      1.892      4.707
REMARK  2 active torsions:
REMARK  status: ('A' for Active; 'I' for Inactive)
REMARK    1  A    between atoms: C7_7  and  C12_12 
REMARK    2  A    between atoms: C11_11  and  C12_12 
ROOT
HETATM    1  C1  UNL     1     -36.275   6.559   3.316  1.00 20.00     0.064 C 
HETATM    2  C2  UNL     1     -34.143   5.294   3.331  1.00 20.00     0.019 C 
HETATM    3  C3  UNL     1     -34.386   7.434   4.663  1.00 20.00     0.019 C 
HETATM    4  C4  UNL     1     -33.371   6.056   2.252  1.00 20.00     0.007 C 
HETATM    5  C5  UNL     1     -33.613   8.191   3.580  1.00 20.00     0.007 C 
HETATM    6  C6  UNL     1     -35.101   6.188   4.128  1.00 20.00     0.093 C 
HETATM    7  C7  UNL     1     -32.640   7.274   2.830  1.00 20.00    -0.007 C 
HETATM    8  N13 UNL     1     -37.199   6.851   2.678  1.00 20.00    -0.197 NA
ENDROOT
BRANCH   7   9
HETATM    9  C12 UNL     1     -31.918   8.043   1.725  1.00 20.00    -0.044 C 
HETATM   10  C9  UNL     1     -30.559   8.536   2.261  1.00 20.00     0.015 C 
HETATM   11  C10 UNL     1     -31.668   7.094   0.535  1.00 20.00     0.015 C 
BRANCH   9  12
HETATM   12  C11 UNL     1     -32.806   9.244   1.292  1.00 20.00     0.004 C 
HETATM   13  C8  UNL     1     -32.458   9.894  -0.042  1.00 20.00     0.006 C 
ENDBRANCH   9  12
ENDBRANCH   7   9
TORSDOF 2
ENDMDL
MODEL 7
REMARK VINA RESULT:       3.4      0.612      1.762
REMARK  2 active torsions:
REMARK  status: ('A' for Active; 'I' for Inactive)
REMARK    1  A    between atoms: C7_7  and  C12_12 
REMARK    2  A    between atoms: C11_11  and  C12_12 
ROOT
HETATM    1  C1  UNL     1     -32.271   9.018   0.099  1.00 20.00     0.064 C 
HETATM    2  C2  UNL     1     -31.341   8.478   2.332  1.00 20.00     0.019 C 
HETATM    3  C3  UNL     1     -32.010   6.634   0.731  1.00 20.00     0.019 C 
HETATM    4  C4  UNL     1     -32.636   8.263   3.118  1.00 20.00     0.007 C 
HETATM    5  C5  UNL     1     -33.305   6.424   1.520  1.00 20.00     0.007 C 
HETATM    6  C6  UNL     1     -31.453   8.056   0.862  1.00 20.00     0.093 C 
HETATM    7  C7  UNL     1     -33.144   6.821   2.992  1.00 20.00    -0.007 C 
HETATM    8  N13 UNL     1     -32.914   9.774  -0.503  1.00 20.00    -0.197 NA
ENDROOT
BRANCH   7   9
HETATM    9  C12 UNL     1     -34.462   6.646   3.745  1.00 20.00    -0.044 C 
HETATM   10  C9  UNL     1     -35.633   6.885   2.771  1.00 20.00     0.015 C 
HETATM   11  C10 UNL     1     -34.547   5.202   4.278  1.00 20.00     0.015 C 
BRANCH   9  12
HETATM   12  C11 UNL     1     -34.505   7.668   4.916  1.00 20.00     0.004 C 
HETATM   13  C8  UNL     1     -33.161   8.060   5.520  1.00 20.00     0.006 C 
ENDBRANCH   9  12
ENDBRANCH   7   9
TORSDOF 2
ENDMDL
MODEL 8
REMARK VINA RESULT:       3.4      0.603      1.758
REMARK  2 active torsions:
REMARK  status: ('A' for Active; 'I' for Inactive)
REMARK    1  A    between atoms: C7_7  and  C12_12 
REMARK    2  A    between atoms: C11_11  and  C12_12 
ROOT
HETATM    1  C1  UNL     1     -32.141   9.097   0.231  1.00 20.00     0.064 C 
HETATM    2  C2  UNL     1     -31.192   8.490   2.440  1.00 20.00     0.019 C 
HETATM    3  C3  UNL     1     -31.997   6.698   0.841  1.00 20.00     0.019 C 
HETATM    4  C4  UNL     1     -32.480   8.339   3.253  1.00 20.00     0.007 C 
HETATM    5  C5  UNL     1     -33.283   6.552   1.658  1.00 20.00     0.007 C 
HETATM    6  C6  UNL     1     -31.360   8.087   0.969  1.00 20.00     0.093 C 
HETATM    7  C7  UNL     1     -33.068   6.928   3.128  1.00 20.00    -0.007 C 
HETATM    8  N13 UNL     1     -32.754   9.892  -0.351  1.00 20.00    -0.197 NA
ENDROOT
BRANCH   7   9
HETATM    9  C12 UNL     1     -34.377   6.819   3.909  1.00 20.00    -0.044 C 
HETATM   10  C9  UNL     1     -34.653   5.335   4.224  1.00 20.00     0.015 C 
HETATM   11  C10 UNL     1     -34.233   7.590   5.237  1.00 20.00     0.015 C 
BRANCH   9  12
HETATM   12  C11 UNL     1     -35.523   7.420   3.047  1.00 20.00     0.004 C 
HETATM   13  C8  UNL     1     -36.817   6.617   2.990  1.00 20.00     0.006 C 
ENDBRANCH   9  12
ENDBRANCH   7   9
TORSDOF 2
ENDMDL
MODEL 9
REMARK VINA RESULT:       4.0      1.046      2.092
REMARK  2 active torsions:
REMARK  status: ('A' for Active; 'I' for Inactive)
REMARK    1  A    between atoms: C7_7  and  C12_12 
REMARK    2  A    between atoms: C11_11  and  C12_12 
ROOT
HETATM    1  C1  UNL     1     -32.424   9.602   0.265  1.00 20.00     0.064 C 
HETATM    2  C2  UNL     1     -32.122   9.123   2.679  1.00 20.00     0.019 C 
HETATM    3  C3  UNL     1     -30.968   7.707   0.926  1.00 20.00     0.019 C 
HETATM    4  C4  UNL     1     -33.174   8.027   2.869  1.00 20.00     0.007 C 
HETATM    5  C5  UNL     1     -32.022   6.615   1.119  1.00 20.00     0.007 C 
HETATM    6  C6  UNL     1     -31.482   9.106   1.286  1.00 20.00     0.093 C 
HETATM    7  C7  UNL     1     -32.614   6.640   2.533  1.00 20.00    -0.007 C 
HETATM    8  N13 UNL     1     -33.165   9.994  -0.538  1.00 20.00    -0.197 NA
ENDROOT
BRANCH   7   9
HETATM    9  C12 UNL     1     -33.696   5.572   2.684  1.00 20.00    -0.044 C 
HETATM   10  C9  UNL     1     -34.032   4.996   1.294  1.00 20.00     0.015 C 
HETATM   11  C10 UNL     1     -33.156   4.434   3.575  1.00 20.00     0.015 C 
BRANCH   9  12
HETATM   12  C11 UNL     1     -34.952   6.224   3.327  1.00 20.00     0.004 C 
HETATM   13  C8  UNL     1     -35.525   5.522   4.553  1.00 20.00     0.006 C 
ENDBRANCH   9  12
ENDBRANCH   7   9
TORSDOF 2
ENDMDL
