MODEL 1
REMARK VINA RESULT:      -1.6      0.000      0.000
REMARK  6 active torsions:
REMARK  status: ('A' for Active; 'I' for Inactive)
REMARK    1  A    between atoms: C1_1  and  C5_5 
REMARK    2  A    between atoms: C1_1  and  O10_10 
REMARK    3  A    between atoms: C5_5  and  C6_6 
REMARK    4  A    between atoms: C6_6  and  C7_7 
REMARK    5  A    between atoms: C7_7  and  O11_11 
REMARK    6  A    between atoms: C8_8  and  O11_11 
ROOT
HETATM    1  C6  UNL     1     -34.164   7.478   4.551  1.00 20.00     0.036 C 
ENDROOT
BRANCH   1   2
HETATM    2  C5  UNL     1     -34.906   6.492   3.654  1.00 20.00     0.113 C 
BRANCH   2   3
HETATM    3  C1  UNL     1     -34.899   5.092   4.224  1.00 20.00     0.258 C 
HETATM    4  O9  UNL     1     -35.751   4.629   4.970  1.00 20.00    -0.265 OA
BRANCH   3   5
HETATM    5  O10 UNL     1     -33.790   4.436   3.769  1.00 20.00    -0.326 OA
HETATM    6  C4  UNL     1     -33.437   3.251   4.490  1.00 20.00     0.213 C 
ENDBRANCH   3   5
ENDBRANCH   2   3
ENDBRANCH   1   2
BRANCH   1   7
HETATM    7  C7  UNL     1     -32.864   7.949   3.914  1.00 20.00     0.168 C 
BRANCH   7   8
HETATM    8  O11 UNL     1     -33.075   8.132   2.521  1.00 20.00    -0.387 OA
BRANCH   8   9
HETATM    9  C8  UNL     1     -31.923   7.778   1.767  1.00 20.00     0.113 C 
HETATM   10  C2  UNL     1     -32.043   6.329   1.319  1.00 20.00     0.039 C 
HETATM   11  C3  UNL     1     -31.786   8.728   0.587  1.00 20.00     0.039 C 
ENDBRANCH   8   9
ENDBRANCH   7   8
ENDBRANCH   1   7
TORSDOF 6
ENDMDL
MODEL 2
REMARK VINA RESULT:      -1.4      1.018      1.952
REMARK  6 active torsions:
REMARK  status: ('A' for Active; 'I' for Inactive)
REMARK    1  A    between atoms: C1_1  and  C5_5 
REMARK    2  A    between atoms: C1_1  and  O10_10 
REMARK    3  A    between atoms: C5_5  and  C6_6 
REMARK    4  A    between atoms: C6_6  and  C7_7 
REMARK    5  A    between atoms: C7_7  and  O11_11 
REMARK    6  A    between atoms: C8_8  and  O11_11 
ROOT
HETATM    1  C6  UNL     1     -33.144   6.335   2.015  1.00 20.00     0.036 C 
ENDROOT
BRANCH   1   2
HETATM    2  C5  UNL     1     -33.926   6.584   3.301  1.00 20.00     0.113 C 
BRANCH   2   3
HETATM    3  C1  UNL     1     -34.460   5.302   3.897  1.00 20.00     0.258 C 
HETATM    4  O9  UNL     1     -35.512   5.194   4.511  1.00 20.00    -0.265 OA
BRANCH   3   5
HETATM    5  O10 UNL     1     -33.577   4.293   3.636  1.00 20.00    -0.326 OA
HETATM    6  C4  UNL     1     -33.516   3.257   4.622  1.00 20.00     0.213 C 
ENDBRANCH   3   5
ENDBRANCH   2   3
ENDBRANCH   1   2
BRANCH   1   7
HETATM    7  C7  UNL     1     -31.980   7.303   1.866  1.00 20.00     0.168 C 
BRANCH   7   8
HETATM    8  O11 UNL     1     -32.488   8.631   1.840  1.00 20.00    -0.387 OA
BRANCH   8   9
HETATM    9  C8  UNL     1     -32.477   9.168   0.525  1.00 20.00     0.113 C 
HETATM   10  C2  UNL     1     -32.732  10.667   0.594  1.00 20.00     0.039 C 
HETATM   11  C3  UNL     1     -31.145   8.849  -0.135  1.00 20.00     0.039 C 
ENDBRANCH   8   9
ENDBRANCH   7   8
ENDBRANCH   1   7
TORSDOF 6
ENDMDL
MODEL 3
REMARK VINA RESULT:      -1.2      0.896      1.238
REMARK  6 active torsions:
REMARK  status: ('A' for Active; 'I' for Inactive)
REMARK    1  A    between atoms: C1_1  and  C5_5 
REMARK    2  A    between atoms: C1_1  and  O10_10 
REMARK    3  A    between atoms: C5_5  and  C6_6 
REMARK    4  A    between atoms: C6_6  and  C7_7 
REMARK    5  A    between atoms: C7_7  and  O11_11 
REMARK    6  A    between atoms: C8_8  and  O11_11 
ROOT
HETATM    1  C6  UNL     1     -34.218   7.295   4.269  1.00 20.00     0.036 C 
ENDROOT
BRANCH   1   2
HETATM    2  C5  UNL     1     -35.035   6.038   3.988  1.00 20.00     0.113 C 
BRANCH   2   3
HETATM    3  C1  UNL     1     -34.157   4.850   3.669  1.00 20.00     0.258 C 
HETATM    4  O9  UNL     1     -33.397   4.771   2.713  1.00 20.00    -0.265 OA
BRANCH   3   5
HETATM    5  O10 UNL     1     -34.351   3.890   4.620  1.00 20.00    -0.326 OA
HETATM    6  C4  UNL     1     -33.276   2.960   4.785  1.00 20.00     0.213 C 
ENDBRANCH   3   5
ENDBRANCH   2   3
ENDBRANCH   1   2
BRANCH   1   7
HETATM    7  C7  UNL     1     -33.755   7.965   2.983  1.00 20.00     0.168 C 
BRANCH   7   8
HETATM    8  O11 UNL     1     -32.345   8.137   3.038  1.00 20.00    -0.387 OA
BRANCH   8   9
HETATM    9  C8  UNL     1     -31.760   8.067   1.744  1.00 20.00     0.113 C 
HETATM   10  C2  UNL     1     -31.988   6.679   1.165  1.00 20.00     0.039 C 
HETATM   11  C3  UNL     1     -32.359   9.154   0.865  1.00 20.00     0.039 C 
ENDBRANCH   8   9
ENDBRANCH   7   8
ENDBRANCH   1   7
TORSDOF 6
ENDMDL
MODEL 4
REMARK VINA RESULT:      -1.2      1.651      5.421
REMARK  6 active torsions:
REMARK  status: ('A' for Active; 'I' for Inactive)
REMARK    1  A    between atoms: C1_1  and  C5_5 
REMARK    2  A    between atoms: C1_1  and  O10_10 
REMARK    3  A    between atoms: C5_5  and  C6_6 
REMARK    4  A    between atoms: C6_6  and  C7_7 
REMARK    5  A    between atoms: C7_7  and  O11_11 
REMARK    6  A    between atoms: C8_8  and  O11_11 
ROOT
HETATM    1  C6  UNL     1     -31.903   6.490   1.439  1.00 20.00     0.036 C 
ENDROOT
BRANCH   1   2
HETATM    2  C5  UNL     1     -31.883   7.955   1.865  1.00 20.00     0.113 C 
BRANCH   2   3
HETATM    3  C1  UNL     1     -31.728   8.886   0.685  1.00 20.00     0.258 C 
HETATM    4  O9  UNL     1     -30.910   8.754  -0.216  1.00 20.00    -0.265 OA
BRANCH   3   5
HETATM    5  O10 UNL     1     -32.648   9.890   0.791  1.00 20.00    -0.326 OA
HETATM    6  C4  UNL     1     -32.964  10.568  -0.430  1.00 20.00     0.213 C 
ENDBRANCH   3   5
ENDBRANCH   2   3
ENDBRANCH   1   2
BRANCH   1   7
HETATM    7  C7  UNL     1     -33.254   5.843   1.708  1.00 20.00     0.168 C 
BRANCH   7   8
HETATM    8  O11 UNL     1     -33.427   5.708   3.112  1.00 20.00    -0.387 OA
BRANCH   8   9
HETATM    9  C8  UNL     1     -34.592   6.385   3.563  1.00 20.00     0.113 C 
HETATM   10  C2  UNL     1     -35.421   5.440   4.419  1.00 20.00     0.039 C 
HETATM   11  C3  UNL     1     -34.181   7.632   4.329  1.00 20.00     0.039 C 
ENDBRANCH   8   9
ENDBRANCH   7   8
ENDBRANCH   1   7
TORSDOF 6
ENDMDL
MODEL 5
REMARK VINA RESULT:      -1.1      1.522      2.812
REMARK  6 active torsions:
REMARK  status: ('A' for Active; 'I' for Inactive)
REMARK    1  A    between atoms: C1_1  and  C5_5 
REMARK    2  A    between atoms: C1_1  and  O10_10 
REMARK    3  A    between atoms: C5_5  and  C6_6 
REMARK    4  A    between atoms: C6_6  and  C7_7 
REMARK    5  A    between atoms: C7_7  and  O11_11 
REMARK    6  A    between atoms: C8_8  and  O11_11 
ROOT
HETATM    1  C6  UNL     1     -33.152   6.487   1.711  1.00 20.00     0.036 C 
ENDROOT
BRANCH   1   2
HETATM    2  C5  UNL     1     -33.385   5.862   3.083  1.00 20.00     0.113 C 
BRANCH   2   3
HETATM    3  C1  UNL     1     -34.566   6.482   3.795  1.00 20.00     0.258 C 
HETATM    4  O9  UNL     1     -35.587   5.890   4.115  1.00 20.00    -0.265 OA
BRANCH   3   5
HETATM    5  O10 UNL     1     -34.301   7.803   4.019  1.00 20.00    -0.326 OA
HETATM    6  C4  UNL     1     -33.331   8.073   5.036  1.00 20.00     0.213 C 
ENDBRANCH   3   5
ENDBRANCH   2   3
ENDBRANCH   1   2
BRANCH   1   7
HETATM    7  C7  UNL     1     -31.884   7.327   1.683  1.00 20.00     0.168 C 
BRANCH   7   8
HETATM    8  O11 UNL     1     -32.244   8.702   1.682  1.00 20.00    -0.387 OA
BRANCH   8   9
HETATM    9  C8  UNL     1     -32.385   9.204   0.360  1.00 20.00     0.113 C 
HETATM   10  C2  UNL     1     -32.700  10.692   0.420  1.00 20.00     0.039 C 
HETATM   11  C3  UNL     1     -31.109   8.925  -0.419  1.00 20.00     0.039 C 
ENDBRANCH   8   9
ENDBRANCH   7   8
ENDBRANCH   1   7
TORSDOF 6
ENDMDL
MODEL 6
REMARK VINA RESULT:      -1.0      1.617      4.994
REMARK  6 active torsions:
REMARK  status: ('A' for Active; 'I' for Inactive)
REMARK    1  A    between atoms: C1_1  and  C5_5 
REMARK    2  A    between atoms: C1_1  and  O10_10 
REMARK    3  A    between atoms: C5_5  and  C6_6 
REMARK    4  A    between atoms: C6_6  and  C7_7 
REMARK    5  A    between atoms: C7_7  and  O11_11 
REMARK    6  A    between atoms: C8_8  and  O11_11 
ROOT
HETATM    1  C6  UNL     1     -31.921   5.993   1.366  1.00 20.00     0.036 C 
ENDROOT
BRANCH   1   2
HETATM    2  C5  UNL     1     -31.938   7.361   0.691  1.00 20.00     0.113 C 
BRANCH   2   3
HETATM    3  C1  UNL     1     -31.920   8.489   1.697  1.00 20.00     0.258 C 
HETATM    4  O9  UNL     1     -31.333   8.469   2.770  1.00 20.00    -0.265 OA
BRANCH   3   5
HETATM    5  O10 UNL     1     -32.662   9.527   1.209  1.00 20.00    -0.326 OA
HETATM    6  C4  UNL     1     -32.399   9.886  -0.151  1.00 20.00     0.213 C 
ENDBRANCH   3   5
ENDBRANCH   2   3
ENDBRANCH   1   2
BRANCH   1   7
HETATM    7  C7  UNL     1     -33.317   5.553   1.784  1.00 20.00     0.168 C 
BRANCH   7   8
HETATM    8  O11 UNL     1     -33.429   5.661   3.196  1.00 20.00    -0.387 OA
BRANCH   8   9
HETATM    9  C8  UNL     1     -34.583   6.399   3.574  1.00 20.00     0.113 C 
HETATM   10  C2  UNL     1     -35.490   5.514   4.416  1.00 20.00     0.039 C 
HETATM   11  C3  UNL     1     -34.153   7.649   4.327  1.00 20.00     0.039 C 
ENDBRANCH   8   9
ENDBRANCH   7   8
ENDBRANCH   1   7
TORSDOF 6
ENDMDL
MODEL 7
REMARK VINA RESULT:      -0.9      1.427      2.793
REMARK  6 active torsions:
REMARK  status: ('A' for Active; 'I' for Inactive)
REMARK    1  A    between atoms: C1_1  and  C5_5 
REMARK    2  A    between atoms: C1_1  and  O10_10 
REMARK    3  A    between atoms: C5_5  and  C6_6 
REMARK    4  A    between atoms: C6_6  and  C7_7 
REMARK    5  A    between atoms: C7_7  and  O11_11 
REMARK    6  A    between atoms: C8_8  and  O11_11 
ROOT
HETATM    1  C6  UNL     1     -32.071   6.230   1.679  1.00 20.00     0.036 C 
ENDROOT
BRANCH   1   2
HETATM    2  C5  UNL     1     -33.585   6.150   1.840  1.00 20.00     0.113 C 
BRANCH   2   3
HETATM    3  C1  UNL     1     -33.983   5.640   3.206  1.00 20.00     0.258 C 
HETATM    4  O9  UNL     1     -33.648   4.564   3.683  1.00 20.00    -0.265 OA
BRANCH   3   5
HETATM    5  O10 UNL     1     -34.773   6.574   3.814  1.00 20.00    -0.326 OA
HETATM    6  C4  UNL     1     -34.081   7.696   4.373  1.00 20.00     0.213 C 
ENDBRANCH   3   5
ENDBRANCH   2   3
ENDBRANCH   1   2
BRANCH   1   7
HETATM    7  C7  UNL     1     -31.571   7.665   1.757  1.00 20.00     0.168 C 
BRANCH   7   8
HETATM    8  O11 UNL     1     -32.623   8.539   1.371  1.00 20.00    -0.387 OA
BRANCH   8   9
HETATM    9  C8  UNL     1     -32.152   9.585   0.532  1.00 20.00     0.113 C 
HETATM   10  C2  UNL     1     -32.471   9.247  -0.917  1.00 20.00     0.039 C 
HETATM   11  C3  UNL     1     -32.789  10.897   0.962  1.00 20.00     0.039 C 
ENDBRANCH   8   9
ENDBRANCH   7   8
ENDBRANCH   1   7
TORSDOF 6
ENDMDL
MODEL 8
REMARK VINA RESULT:      -0.9      1.635      5.227
REMARK  6 active torsions:
REMARK  status: ('A' for Active; 'I' for Inactive)
REMARK    1  A    between atoms: C1_1  and  C5_5 
REMARK    2  A    between atoms: C1_1  and  O10_10 
REMARK    3  A    between atoms: C5_5  and  C6_6 
REMARK    4  A    between atoms: C6_6  and  C7_7 
REMARK    5  A    between atoms: C7_7  and  O11_11 
REMARK    6  A    between atoms: C8_8  and  O11_11 
ROOT
HETATM    1  C6  UNL     1     -33.354   6.236   1.414  1.00 20.00     0.036 C 
ENDROOT
BRANCH   1   2
HETATM    2  C5  UNL     1     -31.907   6.715   1.349  1.00 20.00     0.113 C 
BRANCH   2   3
HETATM    3  C1  UNL     1     -31.787   8.195   1.632  1.00 20.00     0.258 C 
HETATM    4  O9  UNL     1     -31.663   8.694   2.742  1.00 20.00    -0.265 OA
BRANCH   3   5
HETATM    5  O10 UNL     1     -31.838   8.875   0.448  1.00 20.00    -0.326 OA
HETATM    6  C4  UNL     1     -32.567  10.107   0.477  1.00 20.00     0.213 C 
ENDBRANCH   3   5
ENDBRANCH   2   3
ENDBRANCH   1   2
BRANCH   1   7
HETATM    7  C7  UNL     1     -33.778   5.917   2.840  1.00 20.00     0.168 C 
BRANCH   7   8
HETATM    8  O11 UNL     1     -33.118   4.730   3.260  1.00 20.00    -0.387 OA
BRANCH   8   9
HETATM    9  C8  UNL     1     -33.987   3.883   4.000  1.00 20.00     0.113 C 
HETATM   10  C2  UNL     1     -33.170   3.076   4.999  1.00 20.00     0.039 C 
HETATM   11  C3  UNL     1     -35.046   4.730   4.687  1.00 20.00     0.039 C 
ENDBRANCH   8   9
ENDBRANCH   7   8
ENDBRANCH   1   7
TORSDOF 6
ENDMDL
MODEL 9
REMARK VINA RESULT:      -0.9      1.517      5.340
REMARK  6 active torsions:
REMARK  status: ('A' for Active; 'I' for Inactive)
REMARK    1  A    between atoms: C1_1  and  C5_5 
REMARK    2  A    between atoms: C1_1  and  O10_10 
REMARK    3  A    between atoms: C5_5  and  C6_6 
REMARK    4  A    between atoms: C6_6  and  C7_7 
REMARK    5  A    between atoms: C7_7  and  O11_11 
REMARK    6  A    between atoms: C8_8  and  O11_11 
ROOT
HETATM    1  C6  UNL     1     -32.733   7.763   3.047  1.00 20.00     0.036 C 
ENDROOT
BRANCH   1   2
HETATM    2  C5  UNL     1     -32.086   7.371   1.722  1.00 20.00     0.113 C 
BRANCH   2   3
HETATM    3  C1  UNL     1     -31.768   8.578   0.869  1.00 20.00     0.258 C 
HETATM    4  O9  UNL     1     -30.839   8.656   0.076  1.00 20.00    -0.265 OA
BRANCH   3   5
HETATM    5  O10 UNL     1     -32.685   9.556   1.128  1.00 20.00    -0.326 OA
HETATM    6  C4  UNL     1     -32.755  10.607   0.159  1.00 20.00     0.213 C 
ENDBRANCH   3   5
ENDBRANCH   2   3
ENDBRANCH   1   2
BRANCH   1   7
HETATM    7  C7  UNL     1     -33.869   6.822   3.420  1.00 20.00     0.168 C 
BRANCH   7   8
HETATM    8  O11 UNL     1     -33.465   5.486   3.149  1.00 20.00    -0.387 OA
BRANCH   8   9
HETATM    9  C8  UNL     1     -34.360   4.544   3.724  1.00 20.00     0.113 C 
HETATM   10  C2  UNL     1     -33.568   3.539   4.548  1.00 20.00     0.039 C 
HETATM   11  C3  UNL     1     -35.390   5.280   4.565  1.00 20.00     0.039 C 
ENDBRANCH   8   9
ENDBRANCH   7   8
ENDBRANCH   1   7
TORSDOF 6
ENDMDL
