MODEL 1
REMARK VINA RESULT:      -2.5      0.000      0.000
REMARK  4 active torsions:
REMARK  status: ('A' for Active; 'I' for Inactive)
REMARK    1  A    between atoms: C1_1  and  C8_8 
REMARK    2  A    between atoms: C4_4  and  C7_7 
REMARK    3  A    between atoms: C7_7  and  O10_10 
REMARK    4  A    between atoms: C8_8  and  O10_10 
ROOT
HETATM    1  C6  UNL     1     -32.979   5.780   1.910  1.00 20.00     0.048 C 
HETATM    2  C8  UNL     1     -33.286   7.188   2.389  1.00 20.00     0.186 C 
ENDROOT
BRANCH   2   3
HETATM    3  C1  UNL     1     -34.007   7.176   3.731  1.00 20.00     0.151 C 
HETATM    4  C5  UNL     1     -35.184   6.245   3.870  1.00 20.00     0.093 C 
HETATM    5  O9  UNL     1     -33.658   7.895   4.667  1.00 20.00    -0.296 OA
ENDBRANCH   2   3
BRANCH   2   6
HETATM    6  O10 UNL     1     -32.059   7.886   2.526  1.00 20.00    -0.378 OA
BRANCH   6   7
HETATM    7  C7  UNL     1     -31.617   8.418   1.283  1.00 20.00     0.173 C 
BRANCH   7   8
HETATM    8  C4  UNL     1     -32.727   9.253   0.681  1.00 20.00     0.009 A 
HETATM    9  C2  UNL     1     -32.580  10.746   0.575  1.00 20.00     0.007 A 
HETATM   10  C3  UNL     1     -32.544   9.897  -0.665  1.00 20.00     0.007 A 
ENDBRANCH   7   8
ENDBRANCH   6   7
ENDBRANCH   2   6
TORSDOF 4
ENDMDL
MODEL 2
REMARK VINA RESULT:      -1.6      1.850      2.596
REMARK  4 active torsions:
REMARK  status: ('A' for Active; 'I' for Inactive)
REMARK    1  A    between atoms: C1_1  and  C8_8 
REMARK    2  A    between atoms: C4_4  and  C7_7 
REMARK    3  A    between atoms: C7_7  and  O10_10 
REMARK    4  A    between atoms: C8_8  and  O10_10 
ROOT
HETATM    1  C6  UNL     1     -34.456   7.427   4.105  1.00 20.00     0.048 C 
HETATM    2  C8  UNL     1     -33.750   6.176   3.613  1.00 20.00     0.186 C 
ENDROOT
BRANCH   2   3
HETATM    3  C1  UNL     1     -34.426   4.913   4.131  1.00 20.00     0.151 C 
HETATM    4  C5  UNL     1     -33.616   3.642   4.112  1.00 20.00     0.093 C 
HETATM    5  O9  UNL     1     -35.585   4.915   4.544  1.00 20.00    -0.296 OA
ENDBRANCH   2   3
BRANCH   2   6
HETATM    6  O10 UNL     1     -33.787   6.176   2.196  1.00 20.00    -0.378 OA
BRANCH   6   7
HETATM    7  C7  UNL     1     -32.481   6.266   1.637  1.00 20.00     0.173 C 
BRANCH   7   8
HETATM    8  C4  UNL     1     -31.960   7.674   1.826  1.00 20.00     0.009 A 
HETATM    9  C2  UNL     1     -31.282   8.390   0.690  1.00 20.00     0.007 A 
HETATM   10  C3  UNL     1     -32.644   8.831   1.150  1.00 20.00     0.007 A 
ENDBRANCH   7   8
ENDBRANCH   6   7
ENDBRANCH   2   6
TORSDOF 4
ENDMDL
MODEL 3
REMARK VINA RESULT:      -1.5      1.332      1.880
REMARK  4 active torsions:
REMARK  status: ('A' for Active; 'I' for Inactive)
REMARK    1  A    between atoms: C1_1  and  C8_8 
REMARK    2  A    between atoms: C4_4  and  C7_7 
REMARK    3  A    between atoms: C7_7  and  O10_10 
REMARK    4  A    between atoms: C8_8  and  O10_10 
ROOT
HETATM    1  C6  UNL     1     -33.528   8.245   4.701  1.00 20.00     0.048 C 
HETATM    2  C8  UNL     1     -33.097   7.372   3.536  1.00 20.00     0.186 C 
ENDROOT
BRANCH   2   3
HETATM    3  C1  UNL     1     -33.987   6.144   3.401  1.00 20.00     0.151 C 
HETATM    4  C5  UNL     1     -35.388   6.247   3.949  1.00 20.00     0.093 C 
HETATM    5  O9  UNL     1     -33.592   5.105   2.874  1.00 20.00    -0.296 OA
ENDBRANCH   2   3
BRANCH   2   6
HETATM    6  O10 UNL     1     -33.184   8.143   2.350  1.00 20.00    -0.378 OA
BRANCH   6   7
HETATM    7  C7  UNL     1     -32.035   7.974   1.528  1.00 20.00     0.173 C 
BRANCH   7   8
HETATM    8  C4  UNL     1     -31.772   9.262   0.777  1.00 20.00     0.009 A 
HETATM    9  C2  UNL     1     -32.566   9.594  -0.457  1.00 20.00     0.007 A 
HETATM   10  C3  UNL     1     -32.782  10.376   0.809  1.00 20.00     0.007 A 
ENDBRANCH   7   8
ENDBRANCH   6   7
ENDBRANCH   2   6
TORSDOF 4
ENDMDL
MODEL 4
REMARK VINA RESULT:      -1.5      1.371      1.765
REMARK  4 active torsions:
REMARK  status: ('A' for Active; 'I' for Inactive)
REMARK    1  A    between atoms: C1_1  and  C8_8 
REMARK    2  A    between atoms: C4_4  and  C7_7 
REMARK    3  A    between atoms: C7_7  and  O10_10 
REMARK    4  A    between atoms: C8_8  and  O10_10 
ROOT
HETATM    1  C6  UNL     1     -33.688   8.220   4.131  1.00 20.00     0.048 C 
HETATM    2  C8  UNL     1     -33.352   6.847   3.577  1.00 20.00     0.186 C 
ENDROOT
BRANCH   2   3
HETATM    3  C1  UNL     1     -34.496   5.865   3.788  1.00 20.00     0.151 C 
HETATM    4  C5  UNL     1     -34.135   4.407   3.921  1.00 20.00     0.093 C 
HETATM    5  O9  UNL     1     -35.670   6.230   3.843  1.00 20.00    -0.296 OA
ENDBRANCH   2   3
BRANCH   2   6
HETATM    6  O10 UNL     1     -33.103   6.980   2.187  1.00 20.00    -0.378 OA
BRANCH   6   7
HETATM    7  C7  UNL     1     -32.191   8.038   1.916  1.00 20.00     0.173 C 
BRANCH   7   8
HETATM    8  C4  UNL     1     -32.705   8.844   0.742  1.00 20.00     0.009 A 
HETATM    9  C2  UNL     1     -32.674  10.347   0.784  1.00 20.00     0.007 A 
HETATM   10  C3  UNL     1     -31.745   9.601  -0.133  1.00 20.00     0.007 A 
ENDBRANCH   7   8
ENDBRANCH   6   7
ENDBRANCH   2   6
TORSDOF 4
ENDMDL
MODEL 5
REMARK VINA RESULT:      -1.1      1.342      4.606
REMARK  4 active torsions:
REMARK  status: ('A' for Active; 'I' for Inactive)
REMARK    1  A    between atoms: C1_1  and  C8_8 
REMARK    2  A    between atoms: C4_4  and  C7_7 
REMARK    3  A    between atoms: C7_7  and  O10_10 
REMARK    4  A    between atoms: C8_8  and  O10_10 
ROOT
HETATM    1  C6  UNL     1     -31.999   6.532   1.431  1.00 20.00     0.048 C 
HETATM    2  C8  UNL     1     -32.025   7.974   1.908  1.00 20.00     0.186 C 
ENDROOT
BRANCH   2   3
HETATM    3  C1  UNL     1     -31.844   8.947   0.751  1.00 20.00     0.151 C 
HETATM    4  C5  UNL     1     -32.756  10.147   0.714  1.00 20.00     0.093 C 
HETATM    5  O9  UNL     1     -30.999   8.771  -0.126  1.00 20.00    -0.296 OA
ENDBRANCH   2   3
BRANCH   2   6
HETATM    6  O10 UNL     1     -33.279   8.212   2.525  1.00 20.00    -0.378 OA
BRANCH   6   7
HETATM    7  C7  UNL     1     -33.462   7.393   3.674  1.00 20.00     0.173 C 
BRANCH   7   8
HETATM    8  C4  UNL     1     -34.502   6.337   3.366  1.00 20.00     0.009 A 
HETATM    9  C2  UNL     1     -34.371   4.954   3.943  1.00 20.00     0.007 A 
HETATM   10  C3  UNL     1     -35.451   5.875   4.438  1.00 20.00     0.007 A 
ENDBRANCH   7   8
ENDBRANCH   6   7
ENDBRANCH   2   6
TORSDOF 4
ENDMDL
MODEL 6
REMARK VINA RESULT:      -1.1      1.398      4.558
REMARK  4 active torsions:
REMARK  status: ('A' for Active; 'I' for Inactive)
REMARK    1  A    between atoms: C1_1  and  C8_8 
REMARK    2  A    between atoms: C4_4  and  C7_7 
REMARK    3  A    between atoms: C7_7  and  O10_10 
REMARK    4  A    between atoms: C8_8  and  O10_10 
ROOT
HETATM    1  C6  UNL     1     -31.567   8.658   3.139  1.00 20.00     0.048 C 
HETATM    2  C8  UNL     1     -32.384   8.246   1.927  1.00 20.00     0.186 C 
ENDROOT
BRANCH   2   3
HETATM    3  C1  UNL     1     -31.961   9.013   0.682  1.00 20.00     0.151 C 
HETATM    4  C5  UNL     1     -32.708  10.285   0.372  1.00 20.00     0.093 C 
HETATM    5  O9  UNL     1     -31.054   8.621  -0.052  1.00 20.00    -0.296 OA
ENDBRANCH   2   3
BRANCH   2   6
HETATM    6  O10 UNL     1     -32.182   6.859   1.709  1.00 20.00    -0.378 OA
BRANCH   6   7
HETATM    7  C7  UNL     1     -33.375   6.115   1.924  1.00 20.00     0.173 C 
BRANCH   7   8
HETATM    8  C4  UNL     1     -33.760   6.211   3.385  1.00 20.00     0.009 A 
HETATM    9  C2  UNL     1     -35.193   6.449   3.777  1.00 20.00     0.007 A 
HETATM   10  C3  UNL     1     -34.556   5.111   4.031  1.00 20.00     0.007 A 
ENDBRANCH   7   8
ENDBRANCH   6   7
ENDBRANCH   2   6
TORSDOF 4
ENDMDL
MODEL 7
REMARK VINA RESULT:      -1.1      1.711      2.506
REMARK  4 active torsions:
REMARK  status: ('A' for Active; 'I' for Inactive)
REMARK    1  A    between atoms: C1_1  and  C8_8 
REMARK    2  A    between atoms: C4_4  and  C7_7 
REMARK    3  A    between atoms: C7_7  and  O10_10 
REMARK    4  A    between atoms: C8_8  and  O10_10 
ROOT
HETATM    1  C6  UNL     1     -33.908   4.088   4.151  1.00 20.00     0.048 C 
HETATM    2  C8  UNL     1     -34.081   5.220   3.154  1.00 20.00     0.186 C 
ENDROOT
BRANCH   2   3
HETATM    3  C1  UNL     1     -34.883   6.369   3.750  1.00 20.00     0.151 C 
HETATM    4  C5  UNL     1     -34.107   7.473   4.421  1.00 20.00     0.093 C 
HETATM    5  O9  UNL     1     -36.112   6.405   3.697  1.00 20.00    -0.296 OA
ENDBRANCH   2   3
BRANCH   2   6
HETATM    6  O10 UNL     1     -32.794   5.690   2.791  1.00 20.00    -0.378 OA
BRANCH   6   7
HETATM    7  C7  UNL     1     -32.728   6.028   1.411  1.00 20.00     0.173 C 
BRANCH   7   8
HETATM    8  C4  UNL     1     -31.790   7.203   1.234  1.00 20.00     0.009 A 
HETATM    9  C2  UNL     1     -32.340   8.593   1.070  1.00 20.00     0.007 A 
HETATM   10  C3  UNL     1     -31.627   8.212   2.337  1.00 20.00     0.007 A 
ENDBRANCH   7   8
ENDBRANCH   6   7
ENDBRANCH   2   6
TORSDOF 4
ENDMDL
MODEL 8
REMARK VINA RESULT:      -1.0      2.668      5.405
REMARK  4 active torsions:
REMARK  status: ('A' for Active; 'I' for Inactive)
REMARK    1  A    between atoms: C1_1  and  C8_8 
REMARK    2  A    between atoms: C4_4  and  C7_7 
REMARK    3  A    between atoms: C7_7  and  O10_10 
REMARK    4  A    between atoms: C8_8  and  O10_10 
ROOT
HETATM    1  C6  UNL     1     -35.261   6.429   4.115  1.00 20.00     0.048 C 
HETATM    2  C8  UNL     1     -34.211   6.529   3.022  1.00 20.00     0.186 C 
ENDROOT
BRANCH   2   3
HETATM    3  C1  UNL     1     -33.155   7.574   3.356  1.00 20.00     0.151 C 
HETATM    4  C5  UNL     1     -32.204   7.966   2.255  1.00 20.00     0.093 C 
HETATM    5  O9  UNL     1     -33.067   8.081   4.474  1.00 20.00    -0.296 OA
ENDBRANCH   2   3
BRANCH   2   6
HETATM    6  O10 UNL     1     -33.587   5.262   2.893  1.00 20.00    -0.378 OA
BRANCH   6   7
HETATM    7  C7  UNL     1     -34.095   4.327   3.837  1.00 20.00     0.173 C 
BRANCH   7   8
HETATM    8  C4  UNL     1     -32.987   3.377   4.237  1.00 20.00     0.009 A 
HETATM    9  C2  UNL     1     -32.798   2.998   5.680  1.00 20.00     0.007 A 
HETATM   10  C3  UNL     1     -33.315   1.984   4.698  1.00 20.00     0.007 A 
ENDBRANCH   7   8
ENDBRANCH   6   7
ENDBRANCH   2   6
TORSDOF 4
ENDMDL
MODEL 9
REMARK VINA RESULT:      -0.9      1.234      4.468
REMARK  4 active torsions:
REMARK  status: ('A' for Active; 'I' for Inactive)
REMARK    1  A    between atoms: C1_1  and  C8_8 
REMARK    2  A    between atoms: C4_4  and  C7_7 
REMARK    3  A    between atoms: C7_7  and  O10_10 
REMARK    4  A    between atoms: C8_8  and  O10_10 
ROOT
HETATM    1  C6  UNL     1     -31.678   7.083   0.978  1.00 20.00     0.048 C 
HETATM    2  C8  UNL     1     -31.874   8.403   1.701  1.00 20.00     0.186 C 
ENDROOT
BRANCH   2   3
HETATM    3  C1  UNL     1     -32.402   9.480   0.764  1.00 20.00     0.151 C 
HETATM    4  C5  UNL     1     -32.406   9.166  -0.711  1.00 20.00     0.093 C 
HETATM    5  O9  UNL     1     -32.806  10.567   1.177  1.00 20.00    -0.296 OA
ENDBRANCH   2   3
BRANCH   2   6
HETATM    6  O10 UNL     1     -32.808   8.199   2.749  1.00 20.00    -0.378 OA
BRANCH   6   7
HETATM    7  C7  UNL     1     -33.479   6.951   2.617  1.00 20.00     0.173 C 
BRANCH   7   8
HETATM    8  C4  UNL     1     -34.217   6.650   3.904  1.00 20.00     0.009 A 
HETATM    9  C2  UNL     1     -35.685   6.323   3.877  1.00 20.00     0.007 A 
HETATM   10  C3  UNL     1     -34.682   5.251   4.200  1.00 20.00     0.007 A 
ENDBRANCH   7   8
ENDBRANCH   6   7
ENDBRANCH   2   6
TORSDOF 4
ENDMDL
