MODEL 1
REMARK VINA RESULT:       1.3      0.000      0.000
REMARK  3 active torsions:
REMARK  status: ('A' for Active; 'I' for Inactive)
REMARK    1  A    between atoms: C6_6  and  C8_8 
REMARK    2  A    between atoms: C7_7  and  C8_8 
REMARK    3  A    between atoms: C8_8  and  N10_10 
ROOT
HETATM    1  C1  UNL     1     -35.038   6.554   3.234  1.00 20.00     0.102 C 
HETATM    2  C8  UNL     1     -33.566   6.447   3.144  1.00 20.00     0.244 C 
HETATM    3  N9  UNL     1     -36.194   6.639   3.306  1.00 20.00    -0.194 NA
ENDROOT
BRANCH   2   4
HETATM    4  C6  UNL     1     -33.116   5.024   3.570  1.00 20.00     0.053 C 
HETATM    5  C2  UNL     1     -34.182   4.201   4.292  1.00 20.00     0.009 C 
ENDBRANCH   2   4
BRANCH   2   6
HETATM    6  C7  UNL     1     -32.900   7.473   4.096  1.00 20.00     0.053 C 
HETATM    7  C3  UNL     1     -33.845   8.128   5.104  1.00 20.00     0.009 C 
ENDBRANCH   2   6
BRANCH   2   8
HETATM    8  N10 UNL     1     -33.147   6.705   1.779  1.00 20.00     0.103 N 
HETATM    9  C4  UNL     1     -32.568   5.501   1.174  1.00 20.00     0.311 C 
HETATM   10  C5  UNL     1     -32.181   7.807   1.728  1.00 20.00     0.311 C 
ENDBRANCH   2   8
TORSDOF 3
ENDMDL
MODEL 2
REMARK VINA RESULT:       1.5      1.235      2.419
REMARK  3 active torsions:
REMARK  status: ('A' for Active; 'I' for Inactive)
REMARK    1  A    between atoms: C6_6  and  C8_8 
REMARK    2  A    between atoms: C7_7  and  C8_8 
REMARK    3  A    between atoms: C8_8  and  N10_10 
ROOT
HETATM    1  C1  UNL     1     -33.484   5.187   3.562  1.00 20.00     0.102 C 
HETATM    2  C8  UNL     1     -33.536   6.599   3.124  1.00 20.00     0.244 C 
HETATM    3  N9  UNL     1     -33.444   4.079   3.906  1.00 20.00    -0.194 NA
ENDROOT
BRANCH   2   4
HETATM    4  C6  UNL     1     -32.688   7.477   4.081  1.00 20.00     0.053 C 
HETATM    5  C2  UNL     1     -33.492   8.267   5.112  1.00 20.00     0.009 C 
ENDBRANCH   2   4
BRANCH   2   6
HETATM    6  C7  UNL     1     -34.998   7.112   3.160  1.00 20.00     0.053 C 
HETATM    7  C3  UNL     1     -35.993   6.181   3.854  1.00 20.00     0.009 C 
ENDBRANCH   2   6
BRANCH   2   8
HETATM    8  N10 UNL     1     -33.016   6.704   1.773  1.00 20.00     0.103 N 
HETATM    9  C4  UNL     1     -32.391   5.445   1.355  1.00 20.00     0.311 C 
HETATM   10  C5  UNL     1     -32.052   7.803   1.668  1.00 20.00     0.311 C 
ENDBRANCH   2   8
TORSDOF 3
ENDMDL
MODEL 3
REMARK VINA RESULT:       1.5      0.812      2.635
REMARK  3 active torsions:
REMARK  status: ('A' for Active; 'I' for Inactive)
REMARK    1  A    between atoms: C6_6  and  C8_8 
REMARK    2  A    between atoms: C7_7  and  C8_8 
REMARK    3  A    between atoms: C8_8  and  N10_10 
ROOT
HETATM    1  C1  UNL     1     -34.921   6.311   3.391  1.00 20.00     0.102 C 
HETATM    2  C8  UNL     1     -33.495   6.169   3.027  1.00 20.00     0.244 C 
HETATM    3  N9  UNL     1     -36.041   6.422   3.678  1.00 20.00    -0.194 NA
ENDROOT
BRANCH   2   4
HETATM    4  C6  UNL     1     -33.354   6.078   1.485  1.00 20.00     0.053 C 
HETATM    5  C2  UNL     1     -32.298   5.090   0.991  1.00 20.00     0.009 C 
ENDBRANCH   2   4
BRANCH   2   6
HETATM    6  C7  UNL     1     -32.916   4.871   3.646  1.00 20.00     0.053 C 
HETATM    7  C3  UNL     1     -33.955   3.911   4.225  1.00 20.00     0.009 C 
ENDBRANCH   2   6
BRANCH   2   8
HETATM    8  N10 UNL     1     -32.755   7.316   3.520  1.00 20.00     0.103 N 
HETATM    9  C4  UNL     1     -33.556   8.079   4.482  1.00 20.00     0.311 C 
HETATM   10  C5  UNL     1     -32.338   8.183   2.414  1.00 20.00     0.311 C 
ENDBRANCH   2   8
TORSDOF 3
ENDMDL
MODEL 4
REMARK VINA RESULT:       1.8      1.471      3.077
REMARK  3 active torsions:
REMARK  status: ('A' for Active; 'I' for Inactive)
REMARK    1  A    between atoms: C6_6  and  C8_8 
REMARK    2  A    between atoms: C7_7  and  C8_8 
REMARK    3  A    between atoms: C8_8  and  N10_10 
ROOT
HETATM    1  C1  UNL     1     -33.393   4.944   3.620  1.00 20.00     0.102 C 
HETATM    2  C8  UNL     1     -33.626   6.249   2.965  1.00 20.00     0.244 C 
HETATM    3  N9  UNL     1     -33.209   3.919   4.134  1.00 20.00    -0.194 NA
ENDROOT
BRANCH   2   4
HETATM    4  C6  UNL     1     -35.089   6.704   3.208  1.00 20.00     0.053 C 
HETATM    5  C2  UNL     1     -35.847   5.899   4.264  1.00 20.00     0.009 C 
ENDBRANCH   2   4
BRANCH   2   6
HETATM    6  C7  UNL     1     -33.404   6.122   1.436  1.00 20.00     0.053 C 
HETATM    7  C3  UNL     1     -32.311   5.138   1.021  1.00 20.00     0.009 C 
ENDBRANCH   2   6
BRANCH   2   8
HETATM    8  N10 UNL     1     -32.710   7.233   3.512  1.00 20.00     0.103 N 
HETATM    9  C4  UNL     1     -33.365   8.035   4.550  1.00 20.00     0.311 C 
HETATM   10  C5  UNL     1     -32.190   8.106   2.455  1.00 20.00     0.311 C 
ENDBRANCH   2   8
TORSDOF 3
ENDMDL
MODEL 5
REMARK VINA RESULT:       1.8      1.474      3.238
REMARK  3 active torsions:
REMARK  status: ('A' for Active; 'I' for Inactive)
REMARK    1  A    between atoms: C6_6  and  C8_8 
REMARK    2  A    between atoms: C7_7  and  C8_8 
REMARK    3  A    between atoms: C8_8  and  N10_10 
ROOT
HETATM    1  C1  UNL     1     -33.349   4.977   3.414  1.00 20.00     0.102 C 
HETATM    2  C8  UNL     1     -33.475   6.281   2.726  1.00 20.00     0.244 C 
HETATM    3  N9  UNL     1     -33.249   3.955   3.954  1.00 20.00    -0.194 NA
ENDROOT
BRANCH   2   4
HETATM    4  C6  UNL     1     -33.851   6.055   1.238  1.00 20.00     0.053 C 
HETATM    5  C2  UNL     1     -33.049   4.964   0.530  1.00 20.00     0.009 C 
ENDBRANCH   2   4
BRANCH   2   6
HETATM    6  C7  UNL     1     -32.124   7.040   2.776  1.00 20.00     0.053 C 
HETATM    7  C3  UNL     1     -31.896   8.031   1.636  1.00 20.00     0.009 C 
ENDBRANCH   2   6
BRANCH   2   8
HETATM    8  N10 UNL     1     -34.503   7.072   3.377  1.00 20.00     0.103 N 
HETATM    9  C4  UNL     1     -33.929   7.898   4.444  1.00 20.00     0.311 C 
HETATM   10  C5  UNL     1     -35.559   6.212   3.920  1.00 20.00     0.311 C 
ENDBRANCH   2   8
TORSDOF 3
ENDMDL
MODEL 6
REMARK VINA RESULT:       1.9      1.237      2.399
REMARK  3 active torsions:
REMARK  status: ('A' for Active; 'I' for Inactive)
REMARK    1  A    between atoms: C6_6  and  C8_8 
REMARK    2  A    between atoms: C7_7  and  C8_8 
REMARK    3  A    between atoms: C8_8  and  N10_10 
ROOT
HETATM    1  C1  UNL     1     -33.148   7.423   4.028  1.00 20.00     0.102 C 
HETATM    2  C8  UNL     1     -33.515   6.370   3.057  1.00 20.00     0.244 C 
HETATM    3  N9  UNL     1     -32.859   8.249   4.790  1.00 20.00    -0.194 NA
ENDROOT
BRANCH   2   4
HETATM    4  C6  UNL     1     -35.059   6.228   2.996  1.00 20.00     0.053 C 
HETATM    5  C2  UNL     1     -35.759   6.221   4.353  1.00 20.00     0.009 C 
ENDBRANCH   2   4
BRANCH   2   6
HETATM    6  C7  UNL     1     -32.919   5.009   3.499  1.00 20.00     0.053 C 
HETATM    7  C3  UNL     1     -33.930   4.014   4.067  1.00 20.00     0.009 C 
ENDBRANCH   2   6
BRANCH   2   8
HETATM    8  N10 UNL     1     -33.004   6.723   1.745  1.00 20.00     0.103 N 
HETATM    9  C4  UNL     1     -32.363   5.570   1.106  1.00 20.00     0.311 C 
HETATM   10  C5  UNL     1     -32.056   7.838   1.837  1.00 20.00     0.311 C 
ENDBRANCH   2   8
TORSDOF 3
ENDMDL
MODEL 7
REMARK VINA RESULT:       2.2      2.300      3.545
REMARK  3 active torsions:
REMARK  status: ('A' for Active; 'I' for Inactive)
REMARK    1  A    between atoms: C6_6  and  C8_8 
REMARK    2  A    between atoms: C7_7  and  C8_8 
REMARK    3  A    between atoms: C8_8  and  N10_10 
ROOT
HETATM    1  C1  UNL     1     -31.793   8.568   3.107  1.00 20.00     0.102 C 
HETATM    2  C8  UNL     1     -32.484   7.881   1.994  1.00 20.00     0.244 C 
HETATM    3  N9  UNL     1     -31.250   9.107   3.980  1.00 20.00    -0.194 NA
ENDROOT
BRANCH   2   4
HETATM    4  C6  UNL     1     -33.926   7.506   2.424  1.00 20.00     0.053 C 
HETATM    5  C2  UNL     1     -34.134   7.368   3.931  1.00 20.00     0.009 C 
ENDBRANCH   2   4
BRANCH   2   6
HETATM    6  C7  UNL     1     -31.730   6.577   1.626  1.00 20.00     0.053 C 
HETATM    7  C3  UNL     1     -32.626   5.395   1.257  1.00 20.00     0.009 C 
ENDBRANCH   2   6
BRANCH   2   8
HETATM    8  N10 UNL     1     -32.529   8.760   0.840  1.00 20.00     0.103 N 
HETATM    9  C4  UNL     1     -31.238   8.779   0.146  1.00 20.00     0.311 C 
HETATM   10  C5  UNL     1     -32.908  10.121   1.233  1.00 20.00     0.311 C 
ENDBRANCH   2   8
TORSDOF 3
ENDMDL
MODEL 8
REMARK VINA RESULT:       2.3      1.419      2.527
REMARK  3 active torsions:
REMARK  status: ('A' for Active; 'I' for Inactive)
REMARK    1  A    between atoms: C6_6  and  C8_8 
REMARK    2  A    between atoms: C7_7  and  C8_8 
REMARK    3  A    between atoms: C8_8  and  N10_10 
ROOT
HETATM    1  C1  UNL     1     -33.143   5.678   1.731  1.00 20.00     0.102 C 
HETATM    2  C8  UNL     1     -33.472   6.202   3.075  1.00 20.00     0.244 C 
HETATM    3  N9  UNL     1     -32.886   5.267   0.676  1.00 20.00    -0.194 NA
ENDROOT
BRANCH   2   4
HETATM    4  C6  UNL     1     -33.216   5.106   4.142  1.00 20.00     0.053 C 
HETATM    5  C2  UNL     1     -33.710   3.710   3.764  1.00 20.00     0.009 C 
ENDBRANCH   2   4
BRANCH   2   6
HETATM    6  C7  UNL     1     -34.968   6.602   3.137  1.00 20.00     0.053 C 
HETATM    7  C3  UNL     1     -35.757   5.976   4.286  1.00 20.00     0.009 C 
ENDBRANCH   2   6
BRANCH   2   8
HETATM    8  N10 UNL     1     -32.644   7.361   3.355  1.00 20.00     0.103 N 
HETATM    9  C4  UNL     1     -33.298   8.246   4.324  1.00 20.00     0.311 C 
HETATM   10  C5  UNL     1     -32.343   8.098   2.124  1.00 20.00     0.311 C 
ENDBRANCH   2   8
TORSDOF 3
ENDMDL
MODEL 9
REMARK VINA RESULT:       2.3      2.177      3.373
REMARK  3 active torsions:
REMARK  status: ('A' for Active; 'I' for Inactive)
REMARK    1  A    between atoms: C6_6  and  C8_8 
REMARK    2  A    between atoms: C7_7  and  C8_8 
REMARK    3  A    between atoms: C8_8  and  N10_10 
ROOT
HETATM    1  C1  UNL     1     -32.254   6.522   1.586  1.00 20.00     0.102 C 
HETATM    2  C8  UNL     1     -32.476   7.927   1.990  1.00 20.00     0.244 C 
HETATM    3  N9  UNL     1     -32.081   5.418   1.270  1.00 20.00    -0.194 NA
ENDROOT
BRANCH   2   4
HETATM    4  C6  UNL     1     -31.313   8.402   2.901  1.00 20.00     0.053 C 
HETATM    5  C2  UNL     1     -31.740   8.921   4.272  1.00 20.00     0.009 C 
ENDBRANCH   2   4
BRANCH   2   6
HETATM    6  C7  UNL     1     -33.799   8.047   2.789  1.00 20.00     0.053 C 
HETATM    7  C3  UNL     1     -34.253   6.764   3.485  1.00 20.00     0.009 C 
ENDBRANCH   2   6
BRANCH   2   8
HETATM    8  N10 UNL     1     -32.544   8.764   0.806  1.00 20.00     0.103 N 
HETATM    9  C4  UNL     1     -31.274   8.736   0.074  1.00 20.00     0.311 C 
HETATM   10  C5  UNL     1     -32.890  10.144   1.160  1.00 20.00     0.311 C 
ENDBRANCH   2   8
TORSDOF 3
ENDMDL
