MODEL 1
REMARK VINA RESULT:      -1.6      0.000      0.000
REMARK  3 active torsions:
REMARK  status: ('A' for Active; 'I' for Inactive)
REMARK    1  A    between atoms: C5_5  and  C6_6 
REMARK    2  A    between atoms: C6_6  and  C7_7 
REMARK    3  A    between atoms: C7_7  and  N9_9 
ROOT
HETATM    1  C1  UNL     1     -32.789   5.955   1.685  1.00 20.00     0.095 C 
HETATM    2  C7  UNL     1     -33.334   7.167   2.320  1.00 20.00     0.327 C 
HETATM    3  N8  UNL     1     -32.365   5.000   1.181  1.00 20.00    -0.195 NA
ENDROOT
BRANCH   2   4
HETATM    4  C6  UNL     1     -32.336   8.338   2.254  1.00 20.00     0.050 C 
BRANCH   4   5
HETATM    5  C5  UNL     1     -31.865   8.708   0.841  1.00 20.00    -0.001 C 
HETATM    6  C2  UNL     1     -32.523   9.992   0.359  1.00 20.00     0.005 C 
ENDBRANCH   4   5
ENDBRANCH   2   4
BRANCH   2   7
HETATM    7  N9  UNL     1     -33.725   6.886   3.700  1.00 20.00     0.098 N 
HETATM    8  C3  UNL     1     -35.087   6.353   3.746  1.00 20.00     0.311 C 
HETATM    9  C4  UNL     1     -33.622   8.094   4.518  1.00 20.00     0.311 C 
ENDBRANCH   2   7
TORSDOF 3
ENDMDL
MODEL 2
REMARK VINA RESULT:      -1.0      2.048      4.553
REMARK  3 active torsions:
REMARK  status: ('A' for Active; 'I' for Inactive)
REMARK    1  A    between atoms: C5_5  and  C6_6 
REMARK    2  A    between atoms: C6_6  and  C7_7 
REMARK    3  A    between atoms: C7_7  and  N9_9 
ROOT
HETATM    1  C1  UNL     1     -34.015   7.042   3.688  1.00 20.00     0.095 C 
HETATM    2  C7  UNL     1     -33.767   6.019   2.658  1.00 20.00     0.327 C 
HETATM    3  N8  UNL     1     -34.215   7.849   4.497  1.00 20.00    -0.195 NA
ENDROOT
BRANCH   2   4
HETATM    4  C6  UNL     1     -33.117   4.759   3.256  1.00 20.00     0.050 C 
BRANCH   4   5
HETATM    5  C5  UNL     1     -33.992   3.993   4.258  1.00 20.00    -0.001 C 
HETATM    6  C2  UNL     1     -33.230   2.834   4.883  1.00 20.00     0.005 C 
ENDBRANCH   4   5
ENDBRANCH   2   4
BRANCH   2   7
HETATM    7  N9  UNL     1     -32.951   6.571   1.579  1.00 20.00     0.098 N 
HETATM    8  C3  UNL     1     -32.044   5.550   1.051  1.00 20.00     0.311 C 
HETATM    9  C4  UNL     1     -32.195   7.731   2.049  1.00 20.00     0.311 C 
ENDBRANCH   2   7
TORSDOF 3
ENDMDL
MODEL 3
REMARK VINA RESULT:      -1.0      0.864      1.099
REMARK  3 active torsions:
REMARK  status: ('A' for Active; 'I' for Inactive)
REMARK    1  A    between atoms: C5_5  and  C6_6 
REMARK    2  A    between atoms: C6_6  and  C7_7 
REMARK    3  A    between atoms: C7_7  and  N9_9 
ROOT
HETATM    1  C1  UNL     1     -32.569   5.667   1.569  1.00 20.00     0.095 C 
HETATM    2  C7  UNL     1     -33.395   6.658   2.278  1.00 20.00     0.327 C 
HETATM    3  N8  UNL     1     -31.923   4.885   1.006  1.00 20.00    -0.195 NA
ENDROOT
BRANCH   2   4
HETATM    4  C6  UNL     1     -32.649   7.993   2.457  1.00 20.00     0.050 C 
BRANCH   4   5
HETATM    5  C5  UNL     1     -31.794   8.422   1.257  1.00 20.00    -0.001 C 
HETATM    6  C2  UNL     1     -32.437   9.578   0.506  1.00 20.00     0.005 C 
ENDBRANCH   4   5
ENDBRANCH   2   4
BRANCH   2   7
HETATM    7  N9  UNL     1     -33.836   6.125   3.566  1.00 20.00     0.098 N 
HETATM    8  C3  UNL     1     -33.908   4.664   3.516  1.00 20.00     0.311 C 
HETATM    9  C4  UNL     1     -35.133   6.688   3.937  1.00 20.00     0.311 C 
ENDBRANCH   2   7
TORSDOF 3
ENDMDL
MODEL 4
REMARK VINA RESULT:      -0.6      1.900      4.585
REMARK  3 active torsions:
REMARK  status: ('A' for Active; 'I' for Inactive)
REMARK    1  A    between atoms: C5_5  and  C6_6 
REMARK    2  A    between atoms: C6_6  and  C7_7 
REMARK    3  A    between atoms: C7_7  and  N9_9 
ROOT
HETATM    1  C1  UNL     1     -33.953   7.101   3.731  1.00 20.00     0.095 C 
HETATM    2  C7  UNL     1     -33.640   6.290   2.542  1.00 20.00     0.327 C 
HETATM    3  N8  UNL     1     -34.204   7.743   4.664  1.00 20.00    -0.195 NA
ENDROOT
BRANCH   2   4
HETATM    4  C6  UNL     1     -33.830   4.787   2.816  1.00 20.00     0.050 C 
BRANCH   4   5
HETATM    5  C5  UNL     1     -34.100   4.426   4.283  1.00 20.00    -0.001 C 
HETATM    6  C2  UNL     1     -33.408   3.127   4.668  1.00 20.00     0.005 C 
ENDBRANCH   4   5
ENDBRANCH   2   4
BRANCH   2   7
HETATM    7  N9  UNL     1     -32.284   6.573   2.076  1.00 20.00     0.098 N 
HETATM    8  C3  UNL     1     -32.180   7.959   1.619  1.00 20.00     0.311 C 
HETATM    9  C4  UNL     1     -31.908   5.653   1.004  1.00 20.00     0.311 C 
ENDBRANCH   2   7
TORSDOF 3
ENDMDL
MODEL 5
REMARK VINA RESULT:      -0.6      2.266      4.174
REMARK  3 active torsions:
REMARK  status: ('A' for Active; 'I' for Inactive)
REMARK    1  A    between atoms: C5_5  and  C6_6 
REMARK    2  A    between atoms: C6_6  and  C7_7 
REMARK    3  A    between atoms: C7_7  and  N9_9 
ROOT
HETATM    1  C1  UNL     1     -32.887   5.522   2.082  1.00 20.00     0.095 C 
HETATM    2  C7  UNL     1     -33.459   5.635   3.434  1.00 20.00     0.327 C 
HETATM    3  N8  UNL     1     -32.430   5.435   1.019  1.00 20.00    -0.195 NA
ENDROOT
BRANCH   2   4
HETATM    4  C6  UNL     1     -34.215   4.356   3.838  1.00 20.00     0.050 C 
BRANCH   4   5
HETATM    5  C5  UNL     1     -33.332   3.115   4.024  1.00 20.00    -0.001 C 
HETATM    6  C2  UNL     1     -32.855   2.988   5.463  1.00 20.00     0.005 C 
ENDBRANCH   4   5
ENDBRANCH   2   4
BRANCH   2   7
HETATM    7  N9  UNL     1     -34.326   6.809   3.523  1.00 20.00     0.098 N 
HETATM    8  C3  UNL     1     -33.722   7.826   4.384  1.00 20.00     0.311 C 
HETATM    9  C4  UNL     1     -35.647   6.434   4.026  1.00 20.00     0.311 C 
ENDBRANCH   2   7
TORSDOF 3
ENDMDL
MODEL 6
REMARK VINA RESULT:      -0.4      1.667      3.007
REMARK  3 active torsions:
REMARK  status: ('A' for Active; 'I' for Inactive)
REMARK    1  A    between atoms: C5_5  and  C6_6 
REMARK    2  A    between atoms: C6_6  and  C7_7 
REMARK    3  A    between atoms: C7_7  and  N9_9 
ROOT
HETATM    1  C1  UNL     1     -32.452   8.043   1.889  1.00 20.00     0.095 C 
HETATM    2  C7  UNL     1     -32.920   7.019   2.838  1.00 20.00     0.327 C 
HETATM    3  N8  UNL     1     -32.078   8.851   1.145  1.00 20.00    -0.195 NA
ENDROOT
BRANCH   2   4
HETATM    4  C6  UNL     1     -33.373   5.740   2.112  1.00 20.00     0.050 C 
BRANCH   4   5
HETATM    5  C5  UNL     1     -32.644   5.451   0.793  1.00 20.00    -0.001 C 
HETATM    6  C2  UNL     1     -31.361   4.669   1.031  1.00 20.00     0.005 C 
ENDBRANCH   4   5
ENDBRANCH   2   4
BRANCH   2   7
HETATM    7  N9  UNL     1     -33.989   7.554   3.678  1.00 20.00     0.098 N 
HETATM    8  C3  UNL     1     -33.438   8.111   4.914  1.00 20.00     0.311 C 
HETATM    9  C4  UNL     1     -34.973   6.515   3.981  1.00 20.00     0.311 C 
ENDBRANCH   2   7
TORSDOF 3
ENDMDL
MODEL 7
REMARK VINA RESULT:      -0.4      1.299      3.741
REMARK  3 active torsions:
REMARK  status: ('A' for Active; 'I' for Inactive)
REMARK    1  A    between atoms: C5_5  and  C6_6 
REMARK    2  A    between atoms: C6_6  and  C7_7 
REMARK    3  A    between atoms: C7_7  and  N9_9 
ROOT
HETATM    1  C1  UNL     1     -33.183   5.822   1.825  1.00 20.00     0.095 C 
HETATM    2  C7  UNL     1     -33.459   6.374   3.162  1.00 20.00     0.327 C 
HETATM    3  N8  UNL     1     -32.959   5.385   0.774  1.00 20.00    -0.195 NA
ENDROOT
BRANCH   2   4
HETATM    4  C6  UNL     1     -34.899   6.070   3.613  1.00 20.00     0.050 C 
BRANCH   4   5
HETATM    5  C5  UNL     1     -35.044   4.855   4.540  1.00 20.00    -0.001 C 
HETATM    6  C2  UNL     1     -33.905   3.867   4.337  1.00 20.00     0.005 C 
ENDBRANCH   4   5
ENDBRANCH   2   4
BRANCH   2   7
HETATM    7  N9  UNL     1     -33.193   7.811   3.184  1.00 20.00     0.098 N 
HETATM    8  C3  UNL     1     -32.072   8.137   2.302  1.00 20.00     0.311 C 
HETATM    9  C4  UNL     1     -32.916   8.260   4.548  1.00 20.00     0.311 C 
ENDBRANCH   2   7
TORSDOF 3
ENDMDL
MODEL 8
REMARK VINA RESULT:      -0.4      1.328      2.600
REMARK  3 active torsions:
REMARK  status: ('A' for Active; 'I' for Inactive)
REMARK    1  A    between atoms: C5_5  and  C6_6 
REMARK    2  A    between atoms: C6_6  and  C7_7 
REMARK    3  A    between atoms: C7_7  and  N9_9 
ROOT
HETATM    1  C1  UNL     1     -33.420   7.527   4.179  1.00 20.00     0.095 C 
HETATM    2  C7  UNL     1     -33.222   6.386   3.268  1.00 20.00     0.327 C 
HETATM    3  N8  UNL     1     -33.572   8.423   4.900  1.00 20.00    -0.195 NA
ENDROOT
BRANCH   2   4
HETATM    4  C6  UNL     1     -32.958   6.853   1.826  1.00 20.00     0.050 C 
BRANCH   4   5
HETATM    5  C5  UNL     1     -31.854   7.909   1.679  1.00 20.00    -0.001 C 
HETATM    6  C2  UNL     1     -32.314   9.071   0.810  1.00 20.00     0.005 C 
ENDBRANCH   4   5
ENDBRANCH   2   4
BRANCH   2   7
HETATM    7  N9  UNL     1     -34.370   5.483   3.328  1.00 20.00     0.098 N 
HETATM    8  C3  UNL     1     -35.498   6.133   3.995  1.00 20.00     0.311 C 
HETATM    9  C4  UNL     1     -34.012   4.245   4.019  1.00 20.00     0.311 C 
ENDBRANCH   2   7
TORSDOF 3
ENDMDL
MODEL 9
REMARK VINA RESULT:      -0.3      1.274      2.688
REMARK  3 active torsions:
REMARK  status: ('A' for Active; 'I' for Inactive)
REMARK    1  A    between atoms: C5_5  and  C6_6 
REMARK    2  A    between atoms: C6_6  and  C7_7 
REMARK    3  A    between atoms: C7_7  and  N9_9 
ROOT
HETATM    1  C1  UNL     1     -33.267   7.649   3.400  1.00 20.00     0.095 C 
HETATM    2  C7  UNL     1     -32.353   7.039   2.420  1.00 20.00     0.327 C 
HETATM    3  N8  UNL     1     -33.984   8.127   4.177  1.00 20.00    -0.195 NA
ENDROOT
BRANCH   2   4
HETATM    4  C6  UNL     1     -31.832   8.077   1.410  1.00 20.00     0.050 C 
BRANCH   4   5
HETATM    5  C5  UNL     1     -32.725   9.312   1.232  1.00 20.00    -0.001 C 
HETATM    6  C2  UNL     1     -32.496   9.969  -0.121  1.00 20.00     0.005 C 
ENDBRANCH   4   5
ENDBRANCH   2   4
BRANCH   2   7
HETATM    7  N9  UNL     1     -33.008   5.924   1.738  1.00 20.00     0.098 N 
HETATM    8  C3  UNL     1     -33.636   5.029   2.710  1.00 20.00     0.311 C 
HETATM    9  C4  UNL     1     -32.048   5.191   0.915  1.00 20.00     0.311 C 
ENDBRANCH   2   7
TORSDOF 3
ENDMDL
