MODEL 1
REMARK VINA RESULT:      -1.4      0.000      0.000
REMARK  3 active torsions:
REMARK  status: ('A' for Active; 'I' for Inactive)
REMARK    1  A    between atoms: C5_5  and  C6_6 
REMARK    2  A    between atoms: C6_6  and  C7_7 
REMARK    3  A    between atoms: C7_7  and  N9_9 
ROOT
HETATM    1  C1  UNL     1     -32.859   6.174   1.691  1.00 20.00     0.095 C 
HETATM    2  C7  UNL     1     -32.671   7.159   2.769  1.00 20.00     0.327 C 
HETATM    3  N8  UNL     1     -33.003   5.395   0.842  1.00 20.00    -0.195 NA
ENDROOT
BRANCH   2   4
HETATM    4  C6  UNL     1     -32.071   8.472   2.235  1.00 20.00     0.050 C 
BRANCH   4   5
HETATM    5  C5  UNL     1     -32.088   8.616   0.707  1.00 20.00    -0.001 C 
HETATM    6  C2  UNL     1     -32.507  10.019   0.291  1.00 20.00     0.005 C 
ENDBRANCH   4   5
ENDBRANCH   2   4
BRANCH   2   7
HETATM    7  N9  UNL     1     -33.933   7.396   3.466  1.00 20.00     0.098 N 
HETATM    8  C3  UNL     1     -33.697   8.100   4.727  1.00 20.00     0.311 C 
HETATM    9  C4  UNL     1     -34.629   6.133   3.710  1.00 20.00     0.311 C 
ENDBRANCH   2   7
TORSDOF 3
ENDMDL
MODEL 2
REMARK VINA RESULT:      -1.4      1.719      2.368
REMARK  3 active torsions:
REMARK  status: ('A' for Active; 'I' for Inactive)
REMARK    1  A    between atoms: C5_5  and  C6_6 
REMARK    2  A    between atoms: C6_6  and  C7_7 
REMARK    3  A    between atoms: C7_7  and  N9_9 
ROOT
HETATM    1  C1  UNL     1     -33.677   4.462   3.829  1.00 20.00     0.095 C 
HETATM    2  C7  UNL     1     -33.399   5.790   3.257  1.00 20.00     0.327 C 
HETATM    3  N8  UNL     1     -33.891   3.414   4.280  1.00 20.00    -0.195 NA
ENDROOT
BRANCH   2   4
HETATM    4  C6  UNL     1     -33.179   5.715   1.736  1.00 20.00     0.050 C 
BRANCH   4   5
HETATM    5  C5  UNL     1     -31.898   6.394   1.234  1.00 20.00    -0.001 C 
HETATM    6  C2  UNL     1     -31.893   7.879   1.570  1.00 20.00     0.005 C 
ENDBRANCH   4   5
ENDBRANCH   2   4
BRANCH   2   7
HETATM    7  N9  UNL     1     -34.473   6.722   3.594  1.00 20.00     0.098 N 
HETATM    8  C3  UNL     1     -33.979   7.772   4.486  1.00 20.00     0.311 C 
HETATM    9  C4  UNL     1     -35.593   6.013   4.212  1.00 20.00     0.311 C 
ENDBRANCH   2   7
TORSDOF 3
ENDMDL
MODEL 3
REMARK VINA RESULT:      -1.2      1.864      4.712
REMARK  3 active torsions:
REMARK  status: ('A' for Active; 'I' for Inactive)
REMARK    1  A    between atoms: C5_5  and  C6_6 
REMARK    2  A    between atoms: C6_6  and  C7_7 
REMARK    3  A    between atoms: C7_7  and  N9_9 
ROOT
HETATM    1  C1  UNL     1     -33.954   7.042   3.756  1.00 20.00     0.095 C 
HETATM    2  C7  UNL     1     -33.178   5.990   3.079  1.00 20.00     0.327 C 
HETATM    3  N8  UNL     1     -34.564   7.871   4.295  1.00 20.00    -0.195 NA
ENDROOT
BRANCH   2   4
HETATM    4  C6  UNL     1     -33.915   4.639   3.106  1.00 20.00     0.050 C 
BRANCH   4   5
HETATM    5  C5  UNL     1     -34.079   4.020   4.501  1.00 20.00    -0.001 C 
HETATM    6  C2  UNL     1     -33.105   2.870   4.712  1.00 20.00     0.005 C 
ENDBRANCH   4   5
ENDBRANCH   2   4
BRANCH   2   7
HETATM    7  N9  UNL     1     -32.858   6.394   1.712  1.00 20.00     0.098 N 
HETATM    8  C3  UNL     1     -32.172   5.313   1.005  1.00 20.00     0.311 C 
HETATM    9  C4  UNL     1     -32.037   7.605   1.715  1.00 20.00     0.311 C 
ENDBRANCH   2   7
TORSDOF 3
ENDMDL
MODEL 4
REMARK VINA RESULT:      -1.1      1.251      3.493
REMARK  3 active torsions:
REMARK  status: ('A' for Active; 'I' for Inactive)
REMARK    1  A    between atoms: C5_5  and  C6_6 
REMARK    2  A    between atoms: C6_6  and  C7_7 
REMARK    3  A    between atoms: C7_7  and  N9_9 
ROOT
HETATM    1  C1  UNL     1     -32.709   5.881   1.537  1.00 20.00     0.095 C 
HETATM    2  C7  UNL     1     -33.072   7.215   2.045  1.00 20.00     0.327 C 
HETATM    3  N8  UNL     1     -32.427   4.829   1.134  1.00 20.00    -0.195 NA
ENDROOT
BRANCH   2   4
HETATM    4  C6  UNL     1     -33.533   7.153   3.512  1.00 20.00     0.050 C 
BRANCH   4   5
HETATM    5  C5  UNL     1     -34.996   6.736   3.713  1.00 20.00    -0.001 C 
HETATM    6  C2  UNL     1     -35.094   5.345   4.323  1.00 20.00     0.005 C 
ENDBRANCH   4   5
ENDBRANCH   2   4
BRANCH   2   7
HETATM    7  N9  UNL     1     -31.957   8.144   1.876  1.00 20.00     0.098 N 
HETATM    8  C3  UNL     1     -31.613   8.768   3.154  1.00 20.00     0.311 C 
HETATM    9  C4  UNL     1     -32.287   9.165   0.882  1.00 20.00     0.311 C 
ENDBRANCH   2   7
TORSDOF 3
ENDMDL
MODEL 5
REMARK VINA RESULT:      -0.9      1.045      2.545
REMARK  3 active torsions:
REMARK  status: ('A' for Active; 'I' for Inactive)
REMARK    1  A    between atoms: C5_5  and  C6_6 
REMARK    2  A    between atoms: C6_6  and  C7_7 
REMARK    3  A    between atoms: C7_7  and  N9_9 
ROOT
HETATM    1  C1  UNL     1     -33.580   7.649   3.545  1.00 20.00     0.095 C 
HETATM    2  C7  UNL     1     -33.219   7.400   2.139  1.00 20.00     0.327 C 
HETATM    3  N8  UNL     1     -33.868   7.848   4.652  1.00 20.00    -0.195 NA
ENDROOT
BRANCH   2   4
HETATM    4  C6  UNL     1     -31.875   8.058   1.778  1.00 20.00     0.050 C 
BRANCH   4   5
HETATM    5  C5  UNL     1     -31.869   8.827   0.450  1.00 20.00    -0.001 C 
HETATM    6  C2  UNL     1     -32.627  10.142   0.572  1.00 20.00     0.005 C 
ENDBRANCH   4   5
ENDBRANCH   2   4
BRANCH   2   7
HETATM    7  N9  UNL     1     -33.200   5.965   1.865  1.00 20.00     0.098 N 
HETATM    8  C3  UNL     1     -33.622   5.213   3.047  1.00 20.00     0.311 C 
HETATM    9  C4  UNL     1     -31.865   5.543   1.441  1.00 20.00     0.311 C 
ENDBRANCH   2   7
TORSDOF 3
ENDMDL
MODEL 6
REMARK VINA RESULT:      -0.8      1.621      3.902
REMARK  3 active torsions:
REMARK  status: ('A' for Active; 'I' for Inactive)
REMARK    1  A    between atoms: C5_5  and  C6_6 
REMARK    2  A    between atoms: C6_6  and  C7_7 
REMARK    3  A    between atoms: C7_7  and  N9_9 
ROOT
HETATM    1  C1  UNL     1     -32.847   5.665   1.848  1.00 20.00     0.095 C 
HETATM    2  C7  UNL     1     -33.905   6.159   2.745  1.00 20.00     0.327 C 
HETATM    3  N8  UNL     1     -32.017   5.272   1.137  1.00 20.00    -0.195 NA
ENDROOT
BRANCH   2   4
HETATM    4  C6  UNL     1     -34.006   5.306   4.022  1.00 20.00     0.050 C 
BRANCH   4   5
HETATM    5  C5  UNL     1     -33.898   3.792   3.798  1.00 20.00    -0.001 C 
HETATM    6  C2  UNL     1     -33.124   3.121   4.924  1.00 20.00     0.005 C 
ENDBRANCH   4   5
ENDBRANCH   2   4
BRANCH   2   7
HETATM    7  N9  UNL     1     -33.684   7.568   3.063  1.00 20.00     0.098 N 
HETATM    8  C3  UNL     1     -32.368   8.000   2.591  1.00 20.00     0.311 C 
HETATM    9  C4  UNL     1     -33.809   7.794   4.503  1.00 20.00     0.311 C 
ENDBRANCH   2   7
TORSDOF 3
ENDMDL
MODEL 7
REMARK VINA RESULT:      -0.7      1.446      4.463
REMARK  3 active torsions:
REMARK  status: ('A' for Active; 'I' for Inactive)
REMARK    1  A    between atoms: C5_5  and  C6_6 
REMARK    2  A    between atoms: C6_6  and  C7_7 
REMARK    3  A    between atoms: C7_7  and  N9_9 
ROOT
HETATM    1  C1  UNL     1     -33.081   7.757   4.359  1.00 20.00     0.095 C 
HETATM    2  C7  UNL     1     -33.467   6.635   3.487  1.00 20.00     0.327 C 
HETATM    3  N8  UNL     1     -32.775   8.638   5.050  1.00 20.00    -0.195 NA
ENDROOT
BRANCH   2   4
HETATM    4  C6  UNL     1     -34.944   6.250   3.683  1.00 20.00     0.050 C 
BRANCH   4   5
HETATM    5  C5  UNL     1     -35.174   4.948   4.462  1.00 20.00    -0.001 C 
HETATM    6  C2  UNL     1     -33.998   3.995   4.304  1.00 20.00     0.005 C 
ENDBRANCH   4   5
ENDBRANCH   2   4
BRANCH   2   7
HETATM    7  N9  UNL     1     -33.182   6.956   2.090  1.00 20.00     0.098 N 
HETATM    8  C3  UNL     1     -32.791   5.752   1.357  1.00 20.00     0.311 C 
HETATM    9  C4  UNL     1     -32.132   7.971   2.002  1.00 20.00     0.311 C 
ENDBRANCH   2   7
TORSDOF 3
ENDMDL
MODEL 8
REMARK VINA RESULT:      -0.7      1.331      2.498
REMARK  3 active torsions:
REMARK  status: ('A' for Active; 'I' for Inactive)
REMARK    1  A    between atoms: C5_5  and  C6_6 
REMARK    2  A    between atoms: C6_6  and  C7_7 
REMARK    3  A    between atoms: C7_7  and  N9_9 
ROOT
HETATM    1  C1  UNL     1     -33.409   7.742   4.111  1.00 20.00     0.095 C 
HETATM    2  C7  UNL     1     -33.834   7.052   2.882  1.00 20.00     0.327 C 
HETATM    3  N8  UNL     1     -33.075   8.290   5.079  1.00 20.00    -0.195 NA
ENDROOT
BRANCH   2   4
HETATM    4  C6  UNL     1     -32.653   6.832   1.921  1.00 20.00     0.050 C 
BRANCH   4   5
HETATM    5  C5  UNL     1     -31.718   8.038   1.760  1.00 20.00    -0.001 C 
HETATM    6  C2  UNL     1     -32.291   9.054   0.782  1.00 20.00     0.005 C 
ENDBRANCH   4   5
ENDBRANCH   2   4
BRANCH   2   7
HETATM    7  N9  UNL     1     -34.494   5.790   3.210  1.00 20.00     0.098 N 
HETATM    8  C3  UNL     1     -35.484   5.990   4.269  1.00 20.00     0.311 C 
HETATM    9  C4  UNL     1     -33.510   4.787   3.615  1.00 20.00     0.311 C 
ENDBRANCH   2   7
TORSDOF 3
ENDMDL
MODEL 9
REMARK VINA RESULT:      -0.3      1.679      3.505
REMARK  3 active torsions:
REMARK  status: ('A' for Active; 'I' for Inactive)
REMARK    1  A    between atoms: C5_5  and  C6_6 
REMARK    2  A    between atoms: C6_6  and  C7_7 
REMARK    3  A    between atoms: C7_7  and  N9_9 
ROOT
HETATM    1  C1  UNL     1     -33.949   4.870   3.467  1.00 20.00     0.095 C 
HETATM    2  C7  UNL     1     -33.825   5.997   2.527  1.00 20.00     0.327 C 
HETATM    3  N8  UNL     1     -34.052   3.981   4.206  1.00 20.00    -0.195 NA
ENDROOT
BRANCH   2   4
HETATM    4  C6  UNL     1     -34.352   7.305   3.142  1.00 20.00     0.050 C 
BRANCH   4   5
HETATM    5  C5  UNL     1     -34.225   7.399   4.668  1.00 20.00    -0.001 C 
HETATM    6  C2  UNL     1     -33.072   8.309   5.071  1.00 20.00     0.005 C 
ENDBRANCH   4   5
ENDBRANCH   2   4
BRANCH   2   7
HETATM    7  N9  UNL     1     -32.439   6.138   2.084  1.00 20.00     0.098 N 
HETATM    8  C3  UNL     1     -32.175   7.513   1.659  1.00 20.00     0.311 C 
HETATM    9  C4  UNL     1     -32.152   5.203   0.997  1.00 20.00     0.311 C 
ENDBRANCH   2   7
TORSDOF 3
ENDMDL
