MODEL 1
REMARK VINA RESULT:      -0.6      0.000      0.000
REMARK  4 active torsions:
REMARK  status: ('A' for Active; 'I' for Inactive)
REMARK    1  A    between atoms: C1_1  and  C8_8 
REMARK    2  A    between atoms: C7_7  and  N10_10 
REMARK    3  A    between atoms: C8_8  and  N10_10 
REMARK    4  A    between atoms: C9_9  and  N10_10 
ROOT
HETATM    1  N10 UNL     1     -33.199   6.969   2.193  1.00 20.00     0.103 N 
ENDROOT
BRANCH   1   2
HETATM    2  C7  UNL     1     -32.008   7.785   1.910  1.00 20.00     0.269 C 
HETATM    3  C3  UNL     1     -32.337   8.922   1.003  1.00 20.00     0.037 C 
ENDBRANCH   1   2
BRANCH   1   4
HETATM    4  C8  UNL     1     -33.420   6.838   3.608  1.00 20.00     0.287 C 
HETATM    5  C4  UNL     1     -33.642   8.185   4.273  1.00 20.00     0.051 C 
BRANCH   4   6
HETATM    6  C1  UNL     1     -34.633   5.941   3.796  1.00 20.00     0.155 C 
HETATM    7  C2  UNL     1     -34.358   4.515   4.201  1.00 20.00     0.093 C 
HETATM    8  O11 UNL     1     -35.786   6.353   3.672  1.00 20.00    -0.296 OA
ENDBRANCH   4   6
ENDBRANCH   1   4
BRANCH   1   9
HETATM    9  C9  UNL     1     -33.058   5.654   1.549  1.00 20.00     0.216 C 
HETATM   10  C5  UNL     1     -31.581   5.364   1.326  1.00 20.00     0.042 C 
HETATM   11  C6  UNL     1     -33.835   5.661   0.240  1.00 20.00     0.042 C 
ENDBRANCH   1   9
TORSDOF 4
ENDMDL
MODEL 2
REMARK VINA RESULT:      -0.2      1.704      3.535
REMARK  4 active torsions:
REMARK  status: ('A' for Active; 'I' for Inactive)
REMARK    1  A    between atoms: C1_1  and  C8_8 
REMARK    2  A    between atoms: C7_7  and  N10_10 
REMARK    3  A    between atoms: C8_8  and  N10_10 
REMARK    4  A    between atoms: C9_9  and  N10_10 
ROOT
HETATM    1  N10 UNL     1     -33.388   6.656   3.274  1.00 20.00     0.103 N 
ENDROOT
BRANCH   1   2
HETATM    2  C7  UNL     1     -33.889   7.842   3.987  1.00 20.00     0.269 C 
HETATM    3  C3  UNL     1     -33.039   8.156   5.172  1.00 20.00     0.037 C 
ENDBRANCH   1   2
BRANCH   1   4
HETATM    4  C8  UNL     1     -33.062   6.966   1.908  1.00 20.00     0.287 C 
HETATM    5  C4  UNL     1     -32.002   8.047   1.811  1.00 20.00     0.051 C 
BRANCH   4   6
HETATM    6  C1  UNL     1     -32.579   5.680   1.255  1.00 20.00     0.155 C 
HETATM    7  C2  UNL     1     -33.504   5.048   0.248  1.00 20.00     0.093 C 
HETATM    8  O11 UNL     1     -31.474   5.192   1.494  1.00 20.00    -0.296 OA
ENDBRANCH   4   6
ENDBRANCH   1   4
BRANCH   1   9
HETATM    9  C9  UNL     1     -34.384   5.577   3.356  1.00 20.00     0.216 C 
HETATM   10  C5  UNL     1     -35.635   6.104   4.042  1.00 20.00     0.042 C 
HETATM   11  C6  UNL     1     -33.778   4.404   4.113  1.00 20.00     0.042 C 
ENDBRANCH   1   9
TORSDOF 4
ENDMDL
MODEL 3
REMARK VINA RESULT:       0.4      1.974      4.129
REMARK  4 active torsions:
REMARK  status: ('A' for Active; 'I' for Inactive)
REMARK    1  A    between atoms: C1_1  and  C8_8 
REMARK    2  A    between atoms: C7_7  and  N10_10 
REMARK    3  A    between atoms: C8_8  and  N10_10 
REMARK    4  A    between atoms: C9_9  and  N10_10 
ROOT
HETATM    1  N10 UNL     1     -33.290   7.453   2.118  1.00 20.00     0.103 N 
ENDROOT
BRANCH   1   2
HETATM    2  C7  UNL     1     -32.791   6.070   2.076  1.00 20.00     0.269 C 
HETATM    3  C3  UNL     1     -33.141   5.412   0.784  1.00 20.00     0.037 C 
ENDBRANCH   1   2
BRANCH   1   4
HETATM    4  C8  UNL     1     -32.223   8.400   1.932  1.00 20.00     0.287 C 
HETATM    5  C4  UNL     1     -30.887   7.712   1.718  1.00 20.00     0.051 C 
BRANCH   4   6
HETATM    6  C1  UNL     1     -32.584   9.258   0.730  1.00 20.00     0.155 C 
HETATM    7  C2  UNL     1     -32.772  10.731   0.986  1.00 20.00     0.093 C 
HETATM    8  O11 UNL     1     -32.678   8.796  -0.408  1.00 20.00    -0.296 OA
ENDBRANCH   4   6
ENDBRANCH   1   4
BRANCH   1   9
HETATM    9  C9  UNL     1     -33.993   7.683   3.390  1.00 20.00     0.216 C 
HETATM   10  C5  UNL     1     -32.980   8.074   4.456  1.00 20.00     0.042 C 
HETATM   11  C6  UNL     1     -34.750   6.418   3.769  1.00 20.00     0.042 C 
ENDBRANCH   1   9
TORSDOF 4
ENDMDL
MODEL 4
REMARK VINA RESULT:       0.5      1.803      3.855
REMARK  4 active torsions:
REMARK  status: ('A' for Active; 'I' for Inactive)
REMARK    1  A    between atoms: C1_1  and  C8_8 
REMARK    2  A    between atoms: C7_7  and  N10_10 
REMARK    3  A    between atoms: C8_8  and  N10_10 
REMARK    4  A    between atoms: C9_9  and  N10_10 
ROOT
HETATM    1  N10 UNL     1     -33.245   6.460   3.323  1.00 20.00     0.103 N 
ENDROOT
BRANCH   1   2
HETATM    2  C7  UNL     1     -33.846   7.765   3.639  1.00 20.00     0.269 C 
HETATM    3  C3  UNL     1     -33.456   8.219   5.006  1.00 20.00     0.037 C 
ENDBRANCH   1   2
BRANCH   1   4
HETATM    4  C8  UNL     1     -32.573   6.487   2.052  1.00 20.00     0.287 C 
HETATM    5  C4  UNL     1     -33.521   6.190   0.905  1.00 20.00     0.051 C 
BRANCH   4   6
HETATM    6  C1  UNL     1     -31.956   7.868   1.895  1.00 20.00     0.155 C 
HETATM    7  C2  UNL     1     -32.501   8.726   0.783  1.00 20.00     0.093 C 
HETATM    8  O11 UNL     1     -31.087   8.294   2.656  1.00 20.00    -0.296 OA
ENDBRANCH   4   6
ENDBRANCH   1   4
BRANCH   1   9
HETATM    9  C9  UNL     1     -34.285   5.420   3.356  1.00 20.00     0.216 C 
HETATM   10  C5  UNL     1     -35.517   5.969   4.062  1.00 20.00     0.042 C 
HETATM   11  C6  UNL     1     -33.732   4.192   4.064  1.00 20.00     0.042 C 
ENDBRANCH   1   9
TORSDOF 4
ENDMDL
MODEL 5
REMARK VINA RESULT:       0.5      1.781      3.559
REMARK  4 active torsions:
REMARK  status: ('A' for Active; 'I' for Inactive)
REMARK    1  A    between atoms: C1_1  and  C8_8 
REMARK    2  A    between atoms: C7_7  and  N10_10 
REMARK    3  A    between atoms: C8_8  and  N10_10 
REMARK    4  A    between atoms: C9_9  and  N10_10 
ROOT
HETATM    1  N10 UNL     1     -33.689   6.587   2.529  1.00 20.00     0.103 N 
ENDROOT
BRANCH   1   2
HETATM    2  C7  UNL     1     -32.653   5.753   1.899  1.00 20.00     0.269 C 
HETATM    3  C3  UNL     1     -33.110   5.234   0.578  1.00 20.00     0.037 C 
ENDBRANCH   1   2
BRANCH   1   4
HETATM    4  C8  UNL     1     -33.209   7.921   2.773  1.00 20.00     0.287 C 
HETATM    5  C4  UNL     1     -32.682   8.082   4.187  1.00 20.00     0.051 C 
BRANCH   4   6
HETATM    6  C1  UNL     1     -32.115   8.202   1.756  1.00 20.00     0.155 C 
HETATM    7  C2  UNL     1     -32.452   9.178   0.657  1.00 20.00     0.093 C 
HETATM    8  O11 UNL     1     -30.993   7.702   1.836  1.00 20.00    -0.296 OA
ENDBRANCH   4   6
ENDBRANCH   1   4
BRANCH   1   9
HETATM    9  C9  UNL     1     -34.147   5.946   3.771  1.00 20.00     0.216 C 
HETATM   10  C5  UNL     1     -33.885   4.450   3.687  1.00 20.00     0.042 C 
HETATM   11  C6  UNL     1     -35.625   6.249   3.966  1.00 20.00     0.042 C 
ENDBRANCH   1   9
TORSDOF 4
ENDMDL
MODEL 6
REMARK VINA RESULT:       0.5      1.411      3.202
REMARK  4 active torsions:
REMARK  status: ('A' for Active; 'I' for Inactive)
REMARK    1  A    between atoms: C1_1  and  C8_8 
REMARK    2  A    between atoms: C7_7  and  N10_10 
REMARK    3  A    between atoms: C8_8  and  N10_10 
REMARK    4  A    between atoms: C9_9  and  N10_10 
ROOT
HETATM    1  N10 UNL     1     -33.363   5.317   3.140  1.00 20.00     0.103 N 
ENDROOT
BRANCH   1   2
HETATM    2  C7  UNL     1     -34.089   4.222   3.803  1.00 20.00     0.269 C 
HETATM    3  C3  UNL     1     -33.148   3.299   4.501  1.00 20.00     0.037 C 
ENDBRANCH   1   2
BRANCH   1   4
HETATM    4  C8  UNL     1     -34.136   6.531   3.137  1.00 20.00     0.287 C 
HETATM    5  C4  UNL     1     -35.404   6.395   3.960  1.00 20.00     0.051 C 
BRANCH   4   6
HETATM    6  C1  UNL     1     -33.250   7.634   3.692  1.00 20.00     0.155 C 
HETATM    7  C2  UNL     1     -32.305   8.292   2.720  1.00 20.00     0.093 C 
HETATM    8  O11 UNL     1     -33.319   8.012   4.862  1.00 20.00    -0.296 OA
ENDBRANCH   4   6
ENDBRANCH   1   4
BRANCH   1   9
HETATM    9  C9  UNL     1     -33.000   4.909   1.774  1.00 20.00     0.216 C 
HETATM   10  C5  UNL     1     -31.503   5.097   1.579  1.00 20.00     0.042 C 
HETATM   11  C6  UNL     1     -33.805   5.737   0.783  1.00 20.00     0.042 C 
ENDBRANCH   1   9
TORSDOF 4
ENDMDL
MODEL 7
REMARK VINA RESULT:       0.8      0.565      1.199
REMARK  4 active torsions:
REMARK  status: ('A' for Active; 'I' for Inactive)
REMARK    1  A    between atoms: C1_1  and  C8_8 
REMARK    2  A    between atoms: C7_7  and  N10_10 
REMARK    3  A    between atoms: C8_8  and  N10_10 
REMARK    4  A    between atoms: C9_9  and  N10_10 
ROOT
HETATM    1  N10 UNL     1     -33.076   7.201   2.086  1.00 20.00     0.103 N 
ENDROOT
BRANCH   1   2
HETATM    2  C7  UNL     1     -32.196   8.375   1.977  1.00 20.00     0.269 C 
HETATM    3  C3  UNL     1     -32.324   9.020   0.639  1.00 20.00     0.037 C 
ENDBRANCH   1   2
BRANCH   1   4
HETATM    4  C8  UNL     1     -33.228   6.785   3.454  1.00 20.00     0.287 C 
HETATM    5  C4  UNL     1     -32.997   7.931   4.422  1.00 20.00     0.051 C 
BRANCH   4   6
HETATM    6  C1  UNL     1     -34.634   6.229   3.606  1.00 20.00     0.155 C 
HETATM    7  C2  UNL     1     -34.758   4.882   4.271  1.00 20.00     0.093 C 
HETATM    8  O11 UNL     1     -35.634   6.853   3.249  1.00 20.00    -0.296 OA
ENDBRANCH   4   6
ENDBRANCH   1   4
BRANCH   1   9
HETATM    9  C9  UNL     1     -32.547   6.111   1.250  1.00 20.00     0.216 C 
HETATM   10  C5  UNL     1     -33.700   5.435   0.523  1.00 20.00     0.042 C 
HETATM   11  C6  UNL     1     -31.790   5.134   2.138  1.00 20.00     0.042 C 
ENDBRANCH   1   9
TORSDOF 4
ENDMDL
MODEL 8
REMARK VINA RESULT:       0.8      1.691      3.514
REMARK  4 active torsions:
REMARK  status: ('A' for Active; 'I' for Inactive)
REMARK    1  A    between atoms: C1_1  and  C8_8 
REMARK    2  A    between atoms: C7_7  and  N10_10 
REMARK    3  A    between atoms: C8_8  and  N10_10 
REMARK    4  A    between atoms: C9_9  and  N10_10 
ROOT
HETATM    1  N10 UNL     1     -33.046   6.047   2.585  1.00 20.00     0.103 N 
ENDROOT
BRANCH   1   2
HETATM    2  C7  UNL     1     -34.147   5.149   2.967  1.00 20.00     0.269 C 
HETATM    3  C3  UNL     1     -33.712   4.184   4.018  1.00 20.00     0.037 C 
ENDBRANCH   1   2
BRANCH   1   4
HETATM    4  C8  UNL     1     -33.439   7.428   2.683  1.00 20.00     0.287 C 
HETATM    5  C4  UNL     1     -33.875   7.792   4.090  1.00 20.00     0.051 C 
BRANCH   4   6
HETATM    6  C1  UNL     1     -32.248   8.269   2.255  1.00 20.00     0.155 C 
HETATM    7  C2  UNL     1     -32.386   9.019   0.955  1.00 20.00     0.093 C 
HETATM    8  O11 UNL     1     -31.234   8.379   2.944  1.00 20.00    -0.296 OA
ENDBRANCH   4   6
ENDBRANCH   1   4
BRANCH   1   9
HETATM    9  C9  UNL     1     -32.592   5.716   1.225  1.00 20.00     0.216 C 
HETATM   10  C5  UNL     1     -33.755   5.126   0.441  1.00 20.00     0.042 C 
HETATM   11  C6  UNL     1     -31.426   4.743   1.320  1.00 20.00     0.042 C 
ENDBRANCH   1   9
TORSDOF 4
ENDMDL
MODEL 9
REMARK VINA RESULT:       1.1      1.119      2.625
REMARK  4 active torsions:
REMARK  status: ('A' for Active; 'I' for Inactive)
REMARK    1  A    between atoms: C1_1  and  C8_8 
REMARK    2  A    between atoms: C7_7  and  N10_10 
REMARK    3  A    between atoms: C8_8  and  N10_10 
REMARK    4  A    between atoms: C9_9  and  N10_10 
ROOT
HETATM    1  N10 UNL     1     -33.219   6.344   3.103  1.00 20.00     0.103 N 
ENDROOT
BRANCH   1   2
HETATM    2  C7  UNL     1     -33.440   6.218   1.654  1.00 20.00     0.269 C 
HETATM    3  C3  UNL     1     -32.474   5.259   1.045  1.00 20.00     0.037 C 
ENDBRANCH   1   2
BRANCH   1   4
HETATM    4  C8  UNL     1     -34.465   6.378   3.822  1.00 20.00     0.287 C 
HETATM    5  C4  UNL     1     -35.605   6.876   2.953  1.00 20.00     0.051 C 
BRANCH   4   6
HETATM    6  C1  UNL     1     -34.742   4.966   4.314  1.00 20.00     0.155 C 
HETATM    7  C2  UNL     1     -33.625   3.967   4.155  1.00 20.00     0.093 C 
HETATM    8  O11 UNL     1     -35.801   4.651   4.856  1.00 20.00    -0.296 OA
ENDBRANCH   4   6
ENDBRANCH   1   4
BRANCH   1   9
HETATM    9  C9  UNL     1     -32.412   7.544   3.375  1.00 20.00     0.216 C 
HETATM   10  C5  UNL     1     -33.029   8.307   4.538  1.00 20.00     0.042 C 
HETATM   11  C6  UNL     1     -32.353   8.393   2.113  1.00 20.00     0.042 C 
ENDBRANCH   1   9
TORSDOF 4
ENDMDL
