MODEL 1
REMARK VINA RESULT:      -3.1      0.000      0.000
REMARK  4 active torsions:
REMARK  status: ('A' for Active; 'I' for Inactive)
REMARK    1  A    between atoms: C3_3  and  C7_7 
REMARK    2  A    between atoms: C5_5  and  C6_6 
REMARK    3  A    between atoms: C6_6  and  C7_7 
REMARK    4  A    between atoms: C7_7  and  O8_8 
ROOT
HETATM    1  C7  UNL     1     -33.117   6.922   1.989  1.00 20.00     0.122 C 
ENDROOT
BRANCH   1   2
HETATM    2  C3  UNL     1     -33.543   6.657   3.426  1.00 20.00     0.014 A 
HETATM    3  C1  UNL     1     -34.359   7.675   4.174  1.00 20.00     0.007 A 
HETATM    4  C2  UNL     1     -34.983   6.375   3.749  1.00 20.00     0.007 A 
ENDBRANCH   1   2
BRANCH   1   5
HETATM    5  C6  UNL     1     -32.003   7.971   1.916  1.00 20.00     0.032 C 
BRANCH   5   6
HETATM    6  C5  UNL     1     -31.894   8.600   0.524  1.00 20.00    -0.002 C 
HETATM    7  C4  UNL     1     -32.532   9.980   0.486  1.00 20.00     0.005 C 
ENDBRANCH   5   6
ENDBRANCH   1   5
BRANCH   1   8
HETATM    8  O8  UNL     1     -32.675   5.697   1.410  1.00 20.00    -0.395 OA
HETATM    9  H22 UNL     1     -31.808   5.503   1.800  1.00 20.00     0.210 HD
ENDBRANCH   1   8
TORSDOF 4
ENDMDL
MODEL 2
REMARK VINA RESULT:      -2.6      2.295      4.597
REMARK  4 active torsions:
REMARK  status: ('A' for Active; 'I' for Inactive)
REMARK    1  A    between atoms: C3_3  and  C7_7 
REMARK    2  A    between atoms: C5_5  and  C6_6 
REMARK    3  A    between atoms: C6_6  and  C7_7 
REMARK    4  A    between atoms: C7_7  and  O8_8 
ROOT
HETATM    1  C7  UNL     1     -34.331   6.294   3.402  1.00 20.00     0.122 C 
ENDROOT
BRANCH   1   2
HETATM    2  C3  UNL     1     -32.966   6.183   2.737  1.00 20.00     0.014 A 
HETATM    3  C1  UNL     1     -32.860   6.040   1.243  1.00 20.00     0.007 A 
HETATM    4  C2  UNL     1     -32.432   7.318   1.909  1.00 20.00     0.007 A 
ENDBRANCH   1   2
BRANCH   1   5
HETATM    5  C6  UNL     1     -34.623   5.083   4.294  1.00 20.00     0.032 C 
BRANCH   5   6
HETATM    6  C5  UNL     1     -33.869   3.832   3.833  1.00 20.00    -0.002 C 
HETATM    7  C4  UNL     1     -33.189   3.132   4.999  1.00 20.00     0.005 C 
ENDBRANCH   5   6
ENDBRANCH   1   5
BRANCH   1   8
HETATM    8  O8  UNL     1     -34.367   7.491   4.174  1.00 20.00    -0.395 OA
HETATM    9  H22 UNL     1     -34.259   7.225   5.101  1.00 20.00     0.210 HD
ENDBRANCH   1   8
TORSDOF 4
ENDMDL
MODEL 3
REMARK VINA RESULT:      -2.3      0.986      3.872
REMARK  4 active torsions:
REMARK  status: ('A' for Active; 'I' for Inactive)
REMARK    1  A    between atoms: C3_3  and  C7_7 
REMARK    2  A    between atoms: C5_5  and  C6_6 
REMARK    3  A    between atoms: C6_6  and  C7_7 
REMARK    4  A    between atoms: C7_7  and  O8_8 
ROOT
HETATM    1  C7  UNL     1     -32.114   8.101   2.007  1.00 20.00     0.122 C 
ENDROOT
BRANCH   1   2
HETATM    2  C3  UNL     1     -32.835   8.901   0.932  1.00 20.00     0.014 A 
HETATM    3  C1  UNL     1     -32.568  10.373   0.775  1.00 20.00     0.007 A 
HETATM    4  C2  UNL     1     -32.084   9.405  -0.269  1.00 20.00     0.007 A 
ENDBRANCH   1   2
BRANCH   1   5
HETATM    5  C6  UNL     1     -33.024   7.823   3.208  1.00 20.00     0.032 C 
BRANCH   5   6
HETATM    6  C5  UNL     1     -33.815   6.522   3.043  1.00 20.00    -0.002 C 
HETATM    7  C4  UNL     1     -35.024   6.487   3.965  1.00 20.00     0.005 C 
ENDBRANCH   5   6
ENDBRANCH   1   5
BRANCH   1   8
HETATM    8  O8  UNL     1     -31.664   6.874   1.440  1.00 20.00    -0.395 OA
HETATM    9  H22 UNL     1     -31.165   7.105   0.640  1.00 20.00     0.210 HD
ENDBRANCH   1   8
TORSDOF 4
ENDMDL
MODEL 4
REMARK VINA RESULT:      -2.2      1.508      1.746
REMARK  4 active torsions:
REMARK  status: ('A' for Active; 'I' for Inactive)
REMARK    1  A    between atoms: C3_3  and  C7_7 
REMARK    2  A    between atoms: C5_5  and  C6_6 
REMARK    3  A    between atoms: C6_6  and  C7_7 
REMARK    4  A    between atoms: C7_7  and  O8_8 
ROOT
HETATM    1  C7  UNL     1     -32.209   7.662   2.587  1.00 20.00     0.122 C 
ENDROOT
BRANCH   1   2
HETATM    2  C3  UNL     1     -33.698   7.509   2.862  1.00 20.00     0.014 A 
HETATM    3  C1  UNL     1     -34.227   6.248   3.488  1.00 20.00     0.007 A 
HETATM    4  C2  UNL     1     -34.214   7.529   4.273  1.00 20.00     0.007 A 
ENDBRANCH   1   2
BRANCH   1   5
HETATM    5  C6  UNL     1     -31.947   8.161   1.162  1.00 20.00     0.032 C 
BRANCH   5   6
HETATM    6  C5  UNL     1     -32.365   9.623   0.978  1.00 20.00    -0.002 C 
HETATM    7  C4  UNL     1     -32.674   9.933  -0.479  1.00 20.00     0.005 C 
ENDBRANCH   5   6
ENDBRANCH   1   5
BRANCH   1   8
HETATM    8  O8  UNL     1     -31.660   8.574   3.534  1.00 20.00    -0.395 OA
HETATM    9  H22 UNL     1     -32.256   9.340   3.557  1.00 20.00     0.210 HD
ENDBRANCH   1   8
TORSDOF 4
ENDMDL
MODEL 5
REMARK VINA RESULT:      -2.1      1.597      2.025
REMARK  4 active torsions:
REMARK  status: ('A' for Active; 'I' for Inactive)
REMARK    1  A    between atoms: C3_3  and  C7_7 
REMARK    2  A    between atoms: C5_5  and  C6_6 
REMARK    3  A    between atoms: C6_6  and  C7_7 
REMARK    4  A    between atoms: C7_7  and  O8_8 
ROOT
HETATM    1  C7  UNL     1     -33.368   6.702   3.297  1.00 20.00     0.122 C 
ENDROOT
BRANCH   1   2
HETATM    2  C3  UNL     1     -34.403   5.585   3.297  1.00 20.00     0.014 A 
HETATM    3  C1  UNL     1     -34.235   4.396   4.204  1.00 20.00     0.007 A 
HETATM    4  C2  UNL     1     -35.319   5.401   4.474  1.00 20.00     0.007 A 
ENDBRANCH   1   2
BRANCH   1   5
HETATM    5  C6  UNL     1     -32.826   6.967   1.889  1.00 20.00     0.032 C 
BRANCH   5   6
HETATM    6  C5  UNL     1     -31.880   8.170   1.853  1.00 20.00    -0.002 C 
HETATM    7  C4  UNL     1     -32.268   9.150   0.757  1.00 20.00     0.005 C 
ENDBRANCH   5   6
ENDBRANCH   1   5
BRANCH   1   8
HETATM    8  O8  UNL     1     -33.971   7.882   3.820  1.00 20.00    -0.395 OA
HETATM    9  H22 UNL     1     -34.068   7.743   4.775  1.00 20.00     0.210 HD
ENDBRANCH   1   8
TORSDOF 4
ENDMDL
MODEL 6
REMARK VINA RESULT:      -2.0      1.594      3.973
REMARK  4 active torsions:
REMARK  status: ('A' for Active; 'I' for Inactive)
REMARK    1  A    between atoms: C3_3  and  C7_7 
REMARK    2  A    between atoms: C5_5  and  C6_6 
REMARK    3  A    between atoms: C6_6  and  C7_7 
REMARK    4  A    between atoms: C7_7  and  O8_8 
ROOT
HETATM    1  C7  UNL     1     -32.286   8.198   1.759  1.00 20.00     0.122 C 
ENDROOT
BRANCH   1   2
HETATM    2  C3  UNL     1     -31.856   9.175   0.674  1.00 20.00     0.014 A 
HETATM    3  C1  UNL     1     -32.769   9.472  -0.484  1.00 20.00     0.007 A 
HETATM    4  C2  UNL     1     -32.515  10.521   0.562  1.00 20.00     0.007 A 
ENDBRANCH   1   2
BRANCH   1   5
HETATM    5  C6  UNL     1     -31.917   6.756   1.397  1.00 20.00     0.032 C 
BRANCH   5   6
HETATM    6  C5  UNL     1     -33.039   5.771   1.738  1.00 20.00    -0.002 C 
HETATM    7  C4  UNL     1     -33.821   6.222   2.962  1.00 20.00     0.005 C 
ENDBRANCH   5   6
ENDBRANCH   1   5
BRANCH   1   8
HETATM    8  O8  UNL     1     -31.661   8.571   2.984  1.00 20.00    -0.395 OA
HETATM    9  H22 UNL     1     -32.069   9.406   3.260  1.00 20.00     0.210 HD
ENDBRANCH   1   8
TORSDOF 4
ENDMDL
MODEL 7
REMARK VINA RESULT:      -2.0      1.927      3.981
REMARK  4 active torsions:
REMARK  status: ('A' for Active; 'I' for Inactive)
REMARK    1  A    between atoms: C3_3  and  C7_7 
REMARK    2  A    between atoms: C5_5  and  C6_6 
REMARK    3  A    between atoms: C6_6  and  C7_7 
REMARK    4  A    between atoms: C7_7  and  O8_8 
ROOT
HETATM    1  C7  UNL     1     -33.246   7.274   2.426  1.00 20.00     0.122 C 
ENDROOT
BRANCH   1   2
HETATM    2  C3  UNL     1     -32.895   5.847   2.027  1.00 20.00     0.014 A 
HETATM    3  C1  UNL     1     -33.218   5.344   0.647  1.00 20.00     0.007 A 
HETATM    4  C2  UNL     1     -31.788   5.586   1.044  1.00 20.00     0.007 A 
ENDBRANCH   1   2
BRANCH   1   5
HETATM    5  C6  UNL     1     -33.913   7.326   3.804  1.00 20.00     0.032 C 
BRANCH   5   6
HETATM    6  C5  UNL     1     -35.259   6.596   3.821  1.00 20.00    -0.002 C 
HETATM    7  C4  UNL     1     -35.140   5.224   4.465  1.00 20.00     0.005 C 
ENDBRANCH   5   6
ENDBRANCH   1   5
BRANCH   1   8
HETATM    8  O8  UNL     1     -32.054   8.054   2.428  1.00 20.00    -0.395 OA
HETATM    9  H22 UNL     1     -31.953   8.401   3.328  1.00 20.00     0.210 HD
ENDBRANCH   1   8
TORSDOF 4
ENDMDL
MODEL 8
REMARK VINA RESULT:      -1.9      1.953      4.229
REMARK  4 active torsions:
REMARK  status: ('A' for Active; 'I' for Inactive)
REMARK    1  A    between atoms: C3_3  and  C7_7 
REMARK    2  A    between atoms: C5_5  and  C6_6 
REMARK    3  A    between atoms: C6_6  and  C7_7 
REMARK    4  A    between atoms: C7_7  and  O8_8 
ROOT
HETATM    1  C7  UNL     1     -33.902   7.514   3.562  1.00 20.00     0.122 C 
ENDROOT
BRANCH   1   2
HETATM    2  C3  UNL     1     -32.774   7.293   2.564  1.00 20.00     0.014 A 
HETATM    3  C1  UNL     1     -32.589   8.239   1.408  1.00 20.00     0.007 A 
HETATM    4  C2  UNL     1     -31.595   8.225   2.536  1.00 20.00     0.007 A 
ENDBRANCH   1   2
BRANCH   1   5
HETATM    5  C6  UNL     1     -34.675   6.220   3.835  1.00 20.00     0.032 C 
BRANCH   5   6
HETATM    6  C5  UNL     1     -33.924   4.984   3.330  1.00 20.00    -0.002 C 
HETATM    7  C4  UNL     1     -33.913   3.877   4.373  1.00 20.00     0.005 C 
ENDBRANCH   5   6
ENDBRANCH   1   5
BRANCH   1   8
HETATM    8  O8  UNL     1     -33.348   8.019   4.774  1.00 20.00    -0.395 OA
HETATM    9  H22 UNL     1     -33.723   8.904   4.902  1.00 20.00     0.210 HD
ENDBRANCH   1   8
TORSDOF 4
ENDMDL
MODEL 9
REMARK VINA RESULT:      -1.8      1.858      3.557
REMARK  4 active torsions:
REMARK  status: ('A' for Active; 'I' for Inactive)
REMARK    1  A    between atoms: C3_3  and  C7_7 
REMARK    2  A    between atoms: C5_5  and  C6_6 
REMARK    3  A    between atoms: C6_6  and  C7_7 
REMARK    4  A    between atoms: C7_7  and  O8_8 
ROOT
HETATM    1  C7  UNL     1     -33.598   5.649   3.378  1.00 20.00     0.122 C 
ENDROOT
BRANCH   1   2
HETATM    2  C3  UNL     1     -33.302   5.888   1.904  1.00 20.00     0.014 A 
HETATM    3  C1  UNL     1     -32.166   6.784   1.494  1.00 20.00     0.007 A 
HETATM    4  C2  UNL     1     -32.071   5.300   1.273  1.00 20.00     0.007 A 
ENDBRANCH   1   2
BRANCH   1   5
HETATM    5  C6  UNL     1     -34.824   6.442   3.842  1.00 20.00     0.032 C 
BRANCH   5   6
HETATM    6  C5  UNL     1     -34.492   7.913   4.110  1.00 20.00    -0.002 C 
HETATM    7  C4  UNL     1     -33.207   8.055   4.911  1.00 20.00     0.005 C 
ENDBRANCH   5   6
ENDBRANCH   1   5
BRANCH   1   8
HETATM    8  O8  UNL     1     -33.810   4.255   3.581  1.00 20.00    -0.395 OA
HETATM    9  H22 UNL     1     -34.564   4.006   3.024  1.00 20.00     0.210 HD
ENDBRANCH   1   8
TORSDOF 4
ENDMDL
