MODEL 1
REMARK VINA RESULT:      -2.0      0.000      0.000
REMARK  3 active torsions:
REMARK  status: ('A' for Active; 'I' for Inactive)
REMARK    1  A    between atoms: C1_1  and  C4_4 
REMARK    2  A    between atoms: C1_1  and  C7_7 
REMARK    3  A    between atoms: C7_7  and  C8_8 
ROOT
HETATM    1  C1  UNL     1     -32.194   8.068   1.942  1.00 20.00     0.131 C 
HETATM    2  O9  UNL     1     -31.079   8.360   2.369  1.00 20.00    -0.298 OA
ENDROOT
BRANCH   1   3
HETATM    3  C4  UNL     1     -32.813   8.836   0.803  1.00 20.00     0.055 A 
HETATM    4  C2  UNL     1     -32.707  10.319   0.821  1.00 20.00     0.013 A 
HETATM    5  C3  UNL     1     -31.903   9.514  -0.156  1.00 20.00     0.013 A 
ENDBRANCH   1   3
BRANCH   1   6
HETATM    6  C7  UNL     1     -33.046   6.960   2.542  1.00 20.00     0.082 C 
BRANCH   6   7
HETATM    7  C8  UNL     1     -34.109   7.461   3.532  1.00 20.00    -0.016 C 
HETATM    8  C5  UNL     1     -33.468   8.022   4.804  1.00 20.00     0.010 C 
HETATM    9  C6  UNL     1     -35.063   6.322   3.895  1.00 20.00     0.010 C 
ENDBRANCH   6   7
ENDBRANCH   1   6
TORSDOF 3
ENDMDL
MODEL 2
REMARK VINA RESULT:      -2.0      0.880      1.609
REMARK  3 active torsions:
REMARK  status: ('A' for Active; 'I' for Inactive)
REMARK    1  A    between atoms: C1_1  and  C4_4 
REMARK    2  A    between atoms: C1_1  and  C7_7 
REMARK    3  A    between atoms: C7_7  and  C8_8 
ROOT
HETATM    1  C1  UNL     1     -32.294   8.000   1.645  1.00 20.00     0.131 C 
HETATM    2  O9  UNL     1     -31.679   6.935   1.620  1.00 20.00    -0.298 OA
ENDROOT
BRANCH   1   3
HETATM    3  C4  UNL     1     -31.836   9.178   0.824  1.00 20.00     0.055 A 
HETATM    4  C2  UNL     1     -32.589   9.499  -0.417  1.00 20.00     0.013 A 
HETATM    5  C3  UNL     1     -32.705  10.382   0.789  1.00 20.00     0.013 A 
ENDBRANCH   1   3
BRANCH   1   6
HETATM    6  C7  UNL     1     -33.516   8.230   2.521  1.00 20.00     0.082 C 
BRANCH   6   7
HETATM    7  C8  UNL     1     -33.592   7.294   3.737  1.00 20.00    -0.016 C 
HETATM    8  C5  UNL     1     -34.915   6.523   3.768  1.00 20.00     0.010 C 
HETATM    9  C6  UNL     1     -33.436   8.100   5.028  1.00 20.00     0.010 C 
ENDBRANCH   6   7
ENDBRANCH   1   6
TORSDOF 3
ENDMDL
MODEL 3
REMARK VINA RESULT:      -1.9      1.231      4.159
REMARK  3 active torsions:
REMARK  status: ('A' for Active; 'I' for Inactive)
REMARK    1  A    between atoms: C1_1  and  C4_4 
REMARK    2  A    between atoms: C1_1  and  C7_7 
REMARK    3  A    between atoms: C7_7  and  C8_8 
ROOT
HETATM    1  C1  UNL     1     -32.859   6.854   2.178  1.00 20.00     0.131 C 
HETATM    2  O9  UNL     1     -32.961   6.037   1.265  1.00 20.00    -0.298 OA
ENDROOT
BRANCH   1   3
HETATM    3  C4  UNL     1     -33.486   6.593   3.524  1.00 20.00     0.055 A 
HETATM    4  C2  UNL     1     -34.185   7.718   4.199  1.00 20.00     0.013 A 
HETATM    5  C3  UNL     1     -34.969   6.582   3.612  1.00 20.00     0.013 A 
ENDBRANCH   1   3
BRANCH   1   6
HETATM    6  C7  UNL     1     -32.148   8.189   2.020  1.00 20.00     0.082 C 
BRANCH   6   7
HETATM    7  C8  UNL     1     -32.363   8.848   0.648  1.00 20.00    -0.016 C 
HETATM    8  C5  UNL     1     -31.114   8.732  -0.230  1.00 20.00     0.010 C 
HETATM    9  C6  UNL     1     -32.732  10.322   0.828  1.00 20.00     0.010 C 
ENDBRANCH   6   7
ENDBRANCH   1   6
TORSDOF 3
ENDMDL
MODEL 4
REMARK VINA RESULT:      -1.9      1.705      2.071
REMARK  3 active torsions:
REMARK  status: ('A' for Active; 'I' for Inactive)
REMARK    1  A    between atoms: C1_1  and  C4_4 
REMARK    2  A    between atoms: C1_1  and  C7_7 
REMARK    3  A    between atoms: C7_7  and  C8_8 
ROOT
HETATM    1  C1  UNL     1     -32.849   6.148   1.619  1.00 20.00     0.131 C 
HETATM    2  O9  UNL     1     -33.341   5.456   0.729  1.00 20.00    -0.298 OA
ENDROOT
BRANCH   1   3
HETATM    3  C4  UNL     1     -31.831   7.212   1.298  1.00 20.00     0.055 A 
HETATM    4  C2  UNL     1     -32.314   8.605   1.105  1.00 20.00     0.013 A 
HETATM    5  C3  UNL     1     -31.543   8.235   2.336  1.00 20.00     0.013 A 
ENDBRANCH   1   3
BRANCH   1   6
HETATM    6  C7  UNL     1     -33.183   5.964   3.091  1.00 20.00     0.082 C 
BRANCH   6   7
HETATM    7  C8  UNL     1     -34.455   6.703   3.535  1.00 20.00    -0.016 C 
HETATM    8  C5  UNL     1     -34.129   7.856   4.488  1.00 20.00     0.010 C 
HETATM    9  C6  UNL     1     -35.415   5.727   4.217  1.00 20.00     0.010 C 
ENDBRANCH   6   7
ENDBRANCH   1   6
TORSDOF 3
ENDMDL
MODEL 5
REMARK VINA RESULT:      -1.9      1.267      1.967
REMARK  3 active torsions:
REMARK  status: ('A' for Active; 'I' for Inactive)
REMARK    1  A    between atoms: C1_1  and  C4_4 
REMARK    2  A    between atoms: C1_1  and  C7_7 
REMARK    3  A    between atoms: C7_7  and  C8_8 
ROOT
HETATM    1  C1  UNL     1     -32.441   6.691   1.719  1.00 20.00     0.131 C 
HETATM    2  O9  UNL     1     -31.850   5.648   1.446  1.00 20.00    -0.298 OA
ENDROOT
BRANCH   1   3
HETATM    3  C4  UNL     1     -31.742   8.023   1.630  1.00 20.00     0.055 A 
HETATM    4  C2  UNL     1     -31.441   8.566   0.279  1.00 20.00     0.013 A 
HETATM    5  C3  UNL     1     -32.517   9.184   1.122  1.00 20.00     0.013 A 
ENDBRANCH   1   3
BRANCH   1   6
HETATM    6  C7  UNL     1     -33.883   6.724   2.201  1.00 20.00     0.082 C 
BRANCH   6   7
HETATM    7  C8  UNL     1     -34.033   6.561   3.721  1.00 20.00    -0.016 C 
HETATM    8  C5  UNL     1     -35.393   5.964   4.089  1.00 20.00     0.010 C 
HETATM    9  C6  UNL     1     -33.861   7.916   4.411  1.00 20.00     0.010 C 
ENDBRANCH   6   7
ENDBRANCH   1   6
TORSDOF 3
ENDMDL
MODEL 6
REMARK VINA RESULT:      -1.7      1.658      4.360
REMARK  3 active torsions:
REMARK  status: ('A' for Active; 'I' for Inactive)
REMARK    1  A    between atoms: C1_1  and  C4_4 
REMARK    2  A    between atoms: C1_1  and  C7_7 
REMARK    3  A    between atoms: C7_7  and  C8_8 
ROOT
HETATM    1  C1  UNL     1     -33.670   7.658   4.003  1.00 20.00     0.131 C 
HETATM    2  O9  UNL     1     -33.921   8.157   5.098  1.00 20.00    -0.298 OA
ENDROOT
BRANCH   1   3
HETATM    3  C4  UNL     1     -34.553   6.585   3.419  1.00 20.00     0.055 A 
HETATM    4  C2  UNL     1     -34.268   5.172   3.781  1.00 20.00     0.013 A 
HETATM    5  C3  UNL     1     -35.475   5.866   4.336  1.00 20.00     0.013 A 
ENDBRANCH   1   3
BRANCH   1   6
HETATM    6  C7  UNL     1     -32.449   8.039   3.179  1.00 20.00     0.082 C 
BRANCH   6   7
HETATM    7  C8  UNL     1     -32.592   7.736   1.680  1.00 20.00    -0.016 C 
HETATM    8  C5  UNL     1     -31.838   6.461   1.292  1.00 20.00     0.010 C 
HETATM    9  C6  UNL     1     -32.070   8.914   0.856  1.00 20.00     0.010 C 
ENDBRANCH   6   7
ENDBRANCH   1   6
TORSDOF 3
ENDMDL
MODEL 7
REMARK VINA RESULT:      -1.6      1.485      4.011
REMARK  3 active torsions:
REMARK  status: ('A' for Active; 'I' for Inactive)
REMARK    1  A    between atoms: C1_1  and  C4_4 
REMARK    2  A    between atoms: C1_1  and  C7_7 
REMARK    3  A    between atoms: C7_7  and  C8_8 
ROOT
HETATM    1  C1  UNL     1     -33.186   6.271   2.150  1.00 20.00     0.131 C 
HETATM    2  O9  UNL     1     -32.675   5.298   1.600  1.00 20.00    -0.298 OA
ENDROOT
BRANCH   1   3
HETATM    3  C4  UNL     1     -33.757   6.164   3.540  1.00 20.00     0.055 A 
HETATM    4  C2  UNL     1     -34.258   7.405   4.188  1.00 20.00     0.013 A 
HETATM    5  C3  UNL     1     -35.220   6.359   3.710  1.00 20.00     0.013 A 
ENDBRANCH   1   3
BRANCH   1   6
HETATM    6  C7  UNL     1     -33.325   7.626   1.473  1.00 20.00     0.082 C 
BRANCH   6   7
HETATM    7  C8  UNL     1     -31.983   8.313   1.177  1.00 20.00    -0.016 C 
HETATM    8  C5  UNL     1     -31.187   8.561   2.461  1.00 20.00     0.010 C 
HETATM    9  C6  UNL     1     -32.223   9.640   0.455  1.00 20.00     0.010 C 
ENDBRANCH   6   7
ENDBRANCH   1   6
TORSDOF 3
ENDMDL
MODEL 8
REMARK VINA RESULT:      -1.5      1.607      4.106
REMARK  3 active torsions:
REMARK  status: ('A' for Active; 'I' for Inactive)
REMARK    1  A    between atoms: C1_1  and  C4_4 
REMARK    2  A    between atoms: C1_1  and  C7_7 
REMARK    3  A    between atoms: C7_7  and  C8_8 
ROOT
HETATM    1  C1  UNL     1     -33.279   6.071   2.409  1.00 20.00     0.131 C 
HETATM    2  O9  UNL     1     -33.168   4.877   2.681  1.00 20.00    -0.298 OA
ENDROOT
BRANCH   1   3
HETATM    3  C4  UNL     1     -34.384   6.902   3.009  1.00 20.00     0.055 A 
HETATM    4  C2  UNL     1     -35.234   6.282   4.059  1.00 20.00     0.013 A 
HETATM    5  C3  UNL     1     -34.237   7.341   4.421  1.00 20.00     0.013 A 
ENDBRANCH   1   3
BRANCH   1   6
HETATM    6  C7  UNL     1     -32.361   6.786   1.431  1.00 20.00     0.082 C 
BRANCH   6   7
HETATM    7  C8  UNL     1     -32.270   8.303   1.661  1.00 20.00    -0.016 C 
HETATM    8  C5  UNL     1     -32.015   9.053   0.352  1.00 20.00     0.010 C 
HETATM    9  C6  UNL     1     -31.152   8.614   2.659  1.00 20.00     0.010 C 
ENDBRANCH   6   7
ENDBRANCH   1   6
TORSDOF 3
ENDMDL
MODEL 9
REMARK VINA RESULT:      -1.5      0.815      1.334
REMARK  3 active torsions:
REMARK  status: ('A' for Active; 'I' for Inactive)
REMARK    1  A    between atoms: C1_1  and  C4_4 
REMARK    2  A    between atoms: C1_1  and  C7_7 
REMARK    3  A    between atoms: C7_7  and  C8_8 
ROOT
HETATM    1  C1  UNL     1     -32.309   7.887   1.771  1.00 20.00     0.131 C 
HETATM    2  O9  UNL     1     -31.458   8.277   2.568  1.00 20.00    -0.298 OA
ENDROOT
BRANCH   1   3
HETATM    3  C4  UNL     1     -32.708   8.732   0.588  1.00 20.00     0.055 A 
HETATM    4  C2  UNL     1     -32.664  10.210   0.740  1.00 20.00     0.013 A 
HETATM    5  C3  UNL     1     -31.646   9.505  -0.106  1.00 20.00     0.013 A 
ENDBRANCH   1   3
BRANCH   1   6
HETATM    6  C7  UNL     1     -33.049   6.567   1.929  1.00 20.00     0.082 C 
BRANCH   6   7
HETATM    7  C8  UNL     1     -33.494   6.274   3.370  1.00 20.00    -0.016 C 
HETATM    8  C5  UNL     1     -34.040   4.851   3.508  1.00 20.00     0.010 C 
HETATM    9  C6  UNL     1     -34.563   7.280   3.801  1.00 20.00     0.010 C 
ENDBRANCH   6   7
ENDBRANCH   1   6
TORSDOF 3
ENDMDL
