MODEL 1
REMARK VINA RESULT:      -2.8      0.000      0.000
REMARK  5 active torsions:
REMARK  status: ('A' for Active; 'I' for Inactive)
REMARK    1  A    between atoms: C4_4  and  C6_6 
REMARK    2  A    between atoms: C4_4  and  C7_7 
REMARK    3  A    between atoms: C5_5  and  C8_8 
REMARK    4  A    between atoms: C5_5  and  N9_9 
REMARK    5  A    between atoms: C7_7  and  N9_9 
ROOT
HETATM    1  C3  UNL     1     -32.289   5.366   1.000  1.00 20.00     0.042 C 
HETATM    2  C7  UNL     1     -32.274   6.580   1.926  1.00 20.00     0.217 C 
ENDROOT
BRANCH   2   3
HETATM    3  C4  UNL     1     -33.702   6.954   2.354  1.00 20.00     0.039 C 
BRANCH   3   4
HETATM    4  C6  UNL     1     -34.025   6.703   3.843  1.00 20.00    -0.021 C 
HETATM    5  C1  UNL     1     -35.466   6.204   3.980  1.00 20.00     0.009 C 
HETATM    6  C2  UNL     1     -33.830   7.952   4.702  1.00 20.00     0.009 C 
ENDBRANCH   3   4
ENDBRANCH   2   3
BRANCH   2   7
HETATM    7  N9  UNL     1     -31.657   7.689   1.231  1.00 20.00     0.092 N 
HETATM    8  H28 UNL     1     -30.733   7.874   1.627  1.00 20.00     0.316 HD
BRANCH   7   9
HETATM    9  C5  UNL     1     -32.466   8.899   1.340  1.00 20.00     0.340 C 
BRANCH   9  10
HETATM   10  C8  UNL     1     -32.177   9.840   0.189  1.00 20.00     0.381 C 
HETATM   11  F10 UNL     1     -32.359  11.125   0.585  1.00 20.00    -0.213 F 
HETATM   12  F11 UNL     1     -33.072   9.614  -0.805  1.00 20.00    -0.213 F 
ENDBRANCH   9  10
ENDBRANCH   7   9
ENDBRANCH   2   7
TORSDOF 5
ENDMDL
MODEL 2
REMARK VINA RESULT:      -2.4      0.472      1.126
REMARK  5 active torsions:
REMARK  status: ('A' for Active; 'I' for Inactive)
REMARK    1  A    between atoms: C4_4  and  C6_6 
REMARK    2  A    between atoms: C4_4  and  C7_7 
REMARK    3  A    between atoms: C5_5  and  C8_8 
REMARK    4  A    between atoms: C5_5  and  N9_9 
REMARK    5  A    between atoms: C7_7  and  N9_9 
ROOT
HETATM    1  C3  UNL     1     -32.123   5.387   1.392  1.00 20.00     0.042 C 
HETATM    2  C7  UNL     1     -32.451   6.642   2.198  1.00 20.00     0.217 C 
ENDROOT
BRANCH   2   3
HETATM    3  C4  UNL     1     -33.967   6.891   2.224  1.00 20.00     0.039 C 
BRANCH   3   4
HETATM    4  C6  UNL     1     -34.619   6.803   3.620  1.00 20.00    -0.021 C 
HETATM    5  C1  UNL     1     -33.842   7.678   4.608  1.00 20.00     0.009 C 
HETATM    6  C2  UNL     1     -34.684   5.368   4.145  1.00 20.00     0.009 C 
ENDBRANCH   3   4
ENDBRANCH   2   3
BRANCH   2   7
HETATM    7  N9  UNL     1     -31.772   7.771   1.598  1.00 20.00     0.092 N 
HETATM    8  H28 UNL     1     -31.019   8.088   2.213  1.00 20.00     0.316 HD
BRANCH   7   9
HETATM    9  C5  UNL     1     -32.691   8.882   1.370  1.00 20.00     0.340 C 
BRANCH   9  10
HETATM   10  C8  UNL     1     -32.192   9.765   0.246  1.00 20.00     0.381 C 
HETATM   11  F10 UNL     1     -32.326  11.071   0.591  1.00 20.00    -0.213 F 
HETATM   12  F11 UNL     1     -32.972   9.575  -0.848  1.00 20.00    -0.213 F 
ENDBRANCH   9  10
ENDBRANCH   7   9
ENDBRANCH   2   7
TORSDOF 5
ENDMDL
MODEL 3
REMARK VINA RESULT:      -2.3      0.744      1.049
REMARK  5 active torsions:
REMARK  status: ('A' for Active; 'I' for Inactive)
REMARK    1  A    between atoms: C4_4  and  C6_6 
REMARK    2  A    between atoms: C4_4  and  C7_7 
REMARK    3  A    between atoms: C5_5  and  C8_8 
REMARK    4  A    between atoms: C5_5  and  N9_9 
REMARK    5  A    between atoms: C7_7  and  N9_9 
ROOT
HETATM    1  C3  UNL     1     -31.953   5.340   0.829  1.00 20.00     0.042 C 
HETATM    2  C7  UNL     1     -32.144   6.363   1.947  1.00 20.00     0.217 C 
ENDROOT
BRANCH   2   3
HETATM    3  C4  UNL     1     -33.635   6.544   2.270  1.00 20.00     0.039 C 
BRANCH   3   4
HETATM    4  C6  UNL     1     -34.069   6.035   3.661  1.00 20.00    -0.021 C 
HETATM    5  C1  UNL     1     -33.927   4.511   3.720  1.00 20.00     0.009 C 
HETATM    6  C2  UNL     1     -35.505   6.431   4.006  1.00 20.00     0.009 C 
ENDBRANCH   3   4
ENDBRANCH   2   3
BRANCH   2   7
HETATM    7  N9  UNL     1     -31.570   7.624   1.528  1.00 20.00     0.092 N 
HETATM    8  H28 UNL     1     -30.891   7.943   2.224  1.00 20.00     0.316 HD
BRANCH   7   9
HETATM    9  C5  UNL     1     -32.597   8.648   1.370  1.00 20.00     0.340 C 
BRANCH   9  10
HETATM   10  C8  UNL     1     -32.196   9.647   0.306  1.00 20.00     0.381 C 
HETATM   11  F10 UNL     1     -32.415  10.910   0.751  1.00 20.00    -0.213 F 
HETATM   12  F11 UNL     1     -32.991   9.480  -0.782  1.00 20.00    -0.213 F 
ENDBRANCH   9  10
ENDBRANCH   7   9
ENDBRANCH   2   7
TORSDOF 5
ENDMDL
MODEL 4
REMARK VINA RESULT:      -2.1      4.532      5.855
REMARK  5 active torsions:
REMARK  status: ('A' for Active; 'I' for Inactive)
REMARK    1  A    between atoms: C4_4  and  C6_6 
REMARK    2  A    between atoms: C4_4  and  C7_7 
REMARK    3  A    between atoms: C5_5  and  C8_8 
REMARK    4  A    between atoms: C5_5  and  N9_9 
REMARK    5  A    between atoms: C7_7  and  N9_9 
ROOT
HETATM    1  C3  UNL     1     -34.945   6.600   3.784  1.00 20.00     0.042 C 
HETATM    2  C7  UNL     1     -33.589   6.155   3.240  1.00 20.00     0.217 C 
ENDROOT
BRANCH   2   3
HETATM    3  C4  UNL     1     -33.294   6.833   1.893  1.00 20.00     0.039 C 
BRANCH   3   4
HETATM    4  C6  UNL     1     -32.090   7.800   1.898  1.00 20.00    -0.021 C 
HETATM    5  C1  UNL     1     -31.933   8.419   3.290  1.00 20.00     0.009 C 
HETATM    6  C2  UNL     1     -32.228   8.909   0.855  1.00 20.00     0.009 C 
ENDBRANCH   3   4
ENDBRANCH   2   3
BRANCH   2   7
HETATM    7  N9  UNL     1     -33.601   4.716   3.080  1.00 20.00     0.092 N 
HETATM    8  H28 UNL     1     -34.283   4.454   2.364  1.00 20.00     0.316 HD
BRANCH   7   9
HETATM    9  C5  UNL     1     -33.949   4.047   4.329  1.00 20.00     0.340 C 
BRANCH   9  10
HETATM   10  C8  UNL     1     -32.945   2.960   4.650  1.00 20.00     0.381 C 
HETATM   11  F10 UNL     1     -33.543   1.744   4.587  1.00 20.00    -0.213 F 
HETATM   12  F11 UNL     1     -32.519   3.114   5.930  1.00 20.00    -0.213 F 
ENDBRANCH   9  10
ENDBRANCH   7   9
ENDBRANCH   2   7
TORSDOF 5
ENDMDL
MODEL 5
REMARK VINA RESULT:      -2.1      4.488      5.987
REMARK  5 active torsions:
REMARK  status: ('A' for Active; 'I' for Inactive)
REMARK    1  A    between atoms: C4_4  and  C6_6 
REMARK    2  A    between atoms: C4_4  and  C7_7 
REMARK    3  A    between atoms: C5_5  and  C8_8 
REMARK    4  A    between atoms: C5_5  and  N9_9 
REMARK    5  A    between atoms: C7_7  and  N9_9 
ROOT
HETATM    1  C3  UNL     1     -35.514   6.281   4.099  1.00 20.00     0.042 C 
HETATM    2  C7  UNL     1     -34.019   6.272   3.782  1.00 20.00     0.217 C 
ENDROOT
BRANCH   2   3
HETATM    3  C4  UNL     1     -33.701   7.247   2.637  1.00 20.00     0.039 C 
BRANCH   3   4
HETATM    4  C6  UNL     1     -32.280   7.119   2.047  1.00 20.00    -0.021 C 
HETATM    5  C1  UNL     1     -31.899   8.421   1.336  1.00 20.00     0.009 C 
HETATM    6  C2  UNL     1     -32.157   5.947   1.073  1.00 20.00     0.009 C 
ENDBRANCH   3   4
ENDBRANCH   2   3
BRANCH   2   7
HETATM    7  N9  UNL     1     -33.629   4.928   3.413  1.00 20.00     0.092 N 
HETATM    8  H28 UNL     1     -34.054   4.679   2.516  1.00 20.00     0.316 HD
BRANCH   7   9
HETATM    9  C5  UNL     1     -34.051   3.958   4.418  1.00 20.00     0.340 C 
BRANCH   9  10
HETATM   10  C8  UNL     1     -32.977   2.914   4.637  1.00 20.00     0.381 C 
HETATM   11  F10 UNL     1     -33.527   1.674   4.621  1.00 20.00    -0.213 F 
HETATM   12  F11 UNL     1     -32.440   3.081   5.872  1.00 20.00    -0.213 F 
ENDBRANCH   9  10
ENDBRANCH   7   9
ENDBRANCH   2   7
TORSDOF 5
ENDMDL
MODEL 6
REMARK VINA RESULT:      -2.1      2.978      4.749
REMARK  5 active torsions:
REMARK  status: ('A' for Active; 'I' for Inactive)
REMARK    1  A    between atoms: C4_4  and  C6_6 
REMARK    2  A    between atoms: C4_4  and  C7_7 
REMARK    3  A    between atoms: C5_5  and  C8_8 
REMARK    4  A    between atoms: C5_5  and  N9_9 
REMARK    5  A    between atoms: C7_7  and  N9_9 
ROOT
HETATM    1  C3  UNL     1     -32.660   5.864   1.446  1.00 20.00     0.042 C 
HETATM    2  C7  UNL     1     -33.010   7.212   2.072  1.00 20.00     0.217 C 
ENDROOT
BRANCH   2   3
HETATM    3  C4  UNL     1     -31.976   8.279   1.680  1.00 20.00     0.039 C 
BRANCH   3   4
HETATM    4  C6  UNL     1     -32.288   9.042   0.375  1.00 20.00    -0.021 C 
HETATM    5  C1  UNL     1     -31.071   8.993  -0.554  1.00 20.00     0.009 C 
HETATM    6  C2  UNL     1     -32.681  10.498   0.630  1.00 20.00     0.009 C 
ENDBRANCH   3   4
ENDBRANCH   2   3
BRANCH   2   7
HETATM    7  N9  UNL     1     -33.048   7.062   3.511  1.00 20.00     0.092 N 
HETATM    8  H28 UNL     1     -32.897   6.082   3.760  1.00 20.00     0.316 HD
BRANCH   7   9
HETATM    9  C5  UNL     1     -34.331   7.494   4.057  1.00 20.00     0.340 C 
BRANCH   9  10
HETATM   10  C8  UNL     1     -35.254   6.309   4.250  1.00 20.00     0.381 C 
HETATM   11  F10 UNL     1     -34.582   5.155   4.011  1.00 20.00    -0.213 F 
HETATM   12  F11 UNL     1     -36.252   6.370   3.332  1.00 20.00    -0.213 F 
ENDBRANCH   9  10
ENDBRANCH   7   9
ENDBRANCH   2   7
TORSDOF 5
ENDMDL
MODEL 7
REMARK VINA RESULT:      -2.1      3.114      4.841
REMARK  5 active torsions:
REMARK  status: ('A' for Active; 'I' for Inactive)
REMARK    1  A    between atoms: C4_4  and  C6_6 
REMARK    2  A    between atoms: C4_4  and  C7_7 
REMARK    3  A    between atoms: C5_5  and  C8_8 
REMARK    4  A    between atoms: C5_5  and  N9_9 
REMARK    5  A    between atoms: C7_7  and  N9_9 
ROOT
HETATM    1  C3  UNL     1     -32.161   5.983   1.435  1.00 20.00     0.042 C 
HETATM    2  C7  UNL     1     -32.770   7.362   1.681  1.00 20.00     0.217 C 
ENDROOT
BRANCH   2   3
HETATM    3  C4  UNL     1     -31.693   8.454   1.598  1.00 20.00     0.039 C 
BRANCH   3   4
HETATM    4  C6  UNL     1     -31.940   9.535   0.524  1.00 20.00    -0.021 C 
HETATM    5  C1  UNL     1     -32.860  10.621   1.088  1.00 20.00     0.009 C 
HETATM    6  C2  UNL     1     -32.548   8.959  -0.755  1.00 20.00     0.009 C 
ENDBRANCH   3   4
ENDBRANCH   2   3
BRANCH   2   7
HETATM    7  N9  UNL     1     -33.388   7.372   2.990  1.00 20.00     0.092 N 
HETATM    8  H28 UNL     1     -32.698   7.643   3.695  1.00 20.00     0.316 HD
BRANCH   7   9
HETATM    9  C5  UNL     1     -33.920   6.057   3.335  1.00 20.00     0.340 C 
BRANCH   9  10
HETATM   10  C8  UNL     1     -35.188   6.192   4.151  1.00 20.00     0.381 C 
HETATM   11  F10 UNL     1     -35.549   4.982   4.647  1.00 20.00    -0.213 F 
HETATM   12  F11 UNL     1     -36.199   6.591   3.338  1.00 20.00    -0.213 F 
ENDBRANCH   9  10
ENDBRANCH   7   9
ENDBRANCH   2   7
TORSDOF 5
ENDMDL
MODEL 8
REMARK VINA RESULT:      -1.9      1.101      1.940
REMARK  5 active torsions:
REMARK  status: ('A' for Active; 'I' for Inactive)
REMARK    1  A    between atoms: C4_4  and  C6_6 
REMARK    2  A    between atoms: C4_4  and  C7_7 
REMARK    3  A    between atoms: C5_5  and  C8_8 
REMARK    4  A    between atoms: C5_5  and  N9_9 
REMARK    5  A    between atoms: C7_7  and  N9_9 
ROOT
HETATM    1  C3  UNL     1     -32.603   8.110   3.586  1.00 20.00     0.042 C 
HETATM    2  C7  UNL     1     -33.054   7.478   2.270  1.00 20.00     0.217 C 
ENDROOT
BRANCH   2   3
HETATM    3  C4  UNL     1     -33.420   6.000   2.475  1.00 20.00     0.039 C 
BRANCH   3   4
HETATM    4  C6  UNL     1     -34.060   5.668   3.840  1.00 20.00    -0.021 C 
HETATM    5  C1  UNL     1     -34.029   4.154   4.069  1.00 20.00     0.009 C 
HETATM    6  C2  UNL     1     -35.498   6.175   3.949  1.00 20.00     0.009 C 
ENDBRANCH   3   4
ENDBRANCH   2   3
BRANCH   2   7
HETATM    7  N9  UNL     1     -31.982   7.595   1.305  1.00 20.00     0.092 N 
HETATM    8  H28 UNL     1     -31.178   7.042   1.612  1.00 20.00     0.316 HD
BRANCH   7   9
HETATM    9  C5  UNL     1     -31.562   8.984   1.145  1.00 20.00     0.340 C 
BRANCH   9  10
HETATM   10  C8  UNL     1     -32.637   9.790   0.449  1.00 20.00     0.381 C 
HETATM   11  F10 UNL     1     -32.603   9.551  -0.886  1.00 20.00    -0.213 F 
HETATM   12  F11 UNL     1     -32.375  11.112   0.609  1.00 20.00    -0.213 F 
ENDBRANCH   9  10
ENDBRANCH   7   9
ENDBRANCH   2   7
TORSDOF 5
ENDMDL
MODEL 9
REMARK VINA RESULT:      -1.7      1.827      2.478
REMARK  5 active torsions:
REMARK  status: ('A' for Active; 'I' for Inactive)
REMARK    1  A    between atoms: C4_4  and  C6_6 
REMARK    2  A    between atoms: C4_4  and  C7_7 
REMARK    3  A    between atoms: C5_5  and  C8_8 
REMARK    4  A    between atoms: C5_5  and  N9_9 
REMARK    5  A    between atoms: C7_7  and  N9_9 
ROOT
HETATM    1  C3  UNL     1     -33.666   7.578   3.701  1.00 20.00     0.042 C 
HETATM    2  C7  UNL     1     -33.553   6.441   2.689  1.00 20.00     0.217 C 
ENDROOT
BRANCH   2   3
HETATM    3  C4  UNL     1     -32.985   5.177   3.353  1.00 20.00     0.039 C 
BRANCH   3   4
HETATM    4  C6  UNL     1     -34.041   4.149   3.813  1.00 20.00    -0.021 C 
HETATM    5  C1  UNL     1     -35.155   4.865   4.582  1.00 20.00     0.009 C 
HETATM    6  C2  UNL     1     -33.441   3.046   4.685  1.00 20.00     0.009 C 
ENDBRANCH   3   4
ENDBRANCH   2   3
BRANCH   2   7
HETATM    7  N9  UNL     1     -32.690   6.864   1.607  1.00 20.00     0.092 N 
HETATM    8  H28 UNL     1     -31.888   6.233   1.538  1.00 20.00     0.316 HD
BRANCH   7   9
HETATM    9  C5  UNL     1     -32.201   8.223   1.819  1.00 20.00     0.340 C 
BRANCH   9  10
HETATM   10  C8  UNL     1     -32.296   9.029   0.541  1.00 20.00     0.381 C 
HETATM   11  F10 UNL     1     -31.107   9.005  -0.111  1.00 20.00    -0.213 F 
HETATM   12  F11 UNL     1     -32.537  10.328   0.853  1.00 20.00    -0.213 F 
ENDBRANCH   9  10
ENDBRANCH   7   9
ENDBRANCH   2   7
TORSDOF 5
ENDMDL
