MODEL 1
REMARK VINA RESULT:      -2.9      0.000      0.000
REMARK  1 active torsions:
REMARK  status: ('A' for Active; 'I' for Inactive)
REMARK    1  A    between atoms: C2_2  and  C3_3 
ROOT
HETATM    1  C1  UNL     1     -34.562   4.806   4.208  1.00 20.00     0.064 C 
HETATM    2  C2  UNL     1     -35.262   6.095   4.130  1.00 20.00     0.194 C 
HETATM    3  N4  UNL     1     -34.010   3.788   4.270  1.00 20.00    -0.197 NA
ENDROOT
BRANCH   2   4
HETATM    4  C3  UNL     1     -34.344   7.197   3.637  1.00 20.00     0.366 C 
HETATM    5  F5  UNL     1     -33.411   6.692   2.794  1.00 20.00    -0.213 F 
HETATM    6  F6  UNL     1     -33.681   7.759   4.677  1.00 20.00    -0.213 F 
ENDBRANCH   2   4
TORSDOF 1
ENDMDL
MODEL 2
REMARK VINA RESULT:      -2.9      2.616      3.066
REMARK  1 active torsions:
REMARK  status: ('A' for Active; 'I' for Inactive)
REMARK    1  A    between atoms: C2_2  and  C3_3 
ROOT
HETATM    1  C1  UNL     1     -32.742   7.209   2.289  1.00 20.00     0.064 C 
HETATM    2  C2  UNL     1     -33.625   6.222   2.927  1.00 20.00     0.194 C 
HETATM    3  N4  UNL     1     -32.045   7.986   1.784  1.00 20.00    -0.197 NA
ENDROOT
BRANCH   2   4
HETATM    4  C3  UNL     1     -34.748   6.895   3.693  1.00 20.00     0.366 C 
HETATM    5  F5  UNL     1     -34.244   7.767   4.599  1.00 20.00    -0.213 F 
HETATM    6  F6  UNL     1     -35.467   5.974   4.381  1.00 20.00    -0.213 F 
ENDBRANCH   2   4
TORSDOF 1
ENDMDL
MODEL 3
REMARK VINA RESULT:      -2.8      2.583      3.165
REMARK  1 active torsions:
REMARK  status: ('A' for Active; 'I' for Inactive)
REMARK    1  A    between atoms: C2_2  and  C3_3 
ROOT
HETATM    1  C1  UNL     1     -32.865   7.642   2.704  1.00 20.00     0.064 C 
HETATM    2  C2  UNL     1     -33.848   7.456   3.781  1.00 20.00     0.194 C 
HETATM    3  N4  UNL     1     -32.089   7.789   1.855  1.00 20.00    -0.197 NA
ENDROOT
BRANCH   2   4
HETATM    4  C3  UNL     1     -34.668   6.197   3.574  1.00 20.00     0.366 C 
HETATM    5  F5  UNL     1     -35.651   6.117   4.504  1.00 20.00    -0.213 F 
HETATM    6  F6  UNL     1     -33.889   5.097   3.721  1.00 20.00    -0.213 F 
ENDBRANCH   2   4
TORSDOF 1
ENDMDL
MODEL 4
REMARK VINA RESULT:      -2.8      2.657      2.969
REMARK  1 active torsions:
REMARK  status: ('A' for Active; 'I' for Inactive)
REMARK    1  A    between atoms: C2_2  and  C3_3 
ROOT
HETATM    1  C1  UNL     1     -32.752   7.187   2.207  1.00 20.00     0.064 C 
HETATM    2  C2  UNL     1     -33.672   6.132   2.653  1.00 20.00     0.194 C 
HETATM    3  N4  UNL     1     -32.025   8.019   1.853  1.00 20.00    -0.197 NA
ENDROOT
BRANCH   2   4
HETATM    4  C3  UNL     1     -34.466   6.566   3.871  1.00 20.00     0.366 C 
HETATM    5  F5  UNL     1     -35.794   6.428   3.640  1.00 20.00    -0.213 F 
HETATM    6  F6  UNL     1     -34.240   7.876   4.138  1.00 20.00    -0.213 F 
ENDBRANCH   2   4
TORSDOF 1
ENDMDL
MODEL 5
REMARK VINA RESULT:      -2.8      2.416      2.873
REMARK  1 active torsions:
REMARK  status: ('A' for Active; 'I' for Inactive)
REMARK    1  A    between atoms: C2_2  and  C3_3 
ROOT
HETATM    1  C1  UNL     1     -33.065   7.492   2.811  1.00 20.00     0.064 C 
HETATM    2  C2  UNL     1     -33.992   7.638   3.941  1.00 20.00     0.194 C 
HETATM    3  N4  UNL     1     -32.331   7.376   1.920  1.00 20.00    -0.197 NA
ENDROOT
BRANCH   2   4
HETATM    4  C3  UNL     1     -34.817   6.383   4.150  1.00 20.00     0.366 C 
HETATM    5  F5  UNL     1     -34.156   5.300   3.674  1.00 20.00    -0.213 F 
HETATM    6  F6  UNL     1     -35.986   6.468   3.469  1.00 20.00    -0.213 F 
ENDBRANCH   2   4
TORSDOF 1
ENDMDL
MODEL 6
REMARK VINA RESULT:      -2.8      4.028      4.737
REMARK  1 active torsions:
REMARK  status: ('A' for Active; 'I' for Inactive)
REMARK    1  A    between atoms: C2_2  and  C3_3 
ROOT
HETATM    1  C1  UNL     1     -32.208   8.932   0.927  1.00 20.00     0.064 C 
HETATM    2  C2  UNL     1     -31.962   7.870   1.912  1.00 20.00     0.194 C 
HETATM    3  N4  UNL     1     -32.401   9.771   0.150  1.00 20.00    -0.197 NA
ENDROOT
BRANCH   2   4
HETATM    4  C3  UNL     1     -32.691   6.592   1.545  1.00 20.00     0.366 C 
HETATM    5  F5  UNL     1     -33.525   6.221   2.547  1.00 20.00    -0.213 F 
HETATM    6  F6  UNL     1     -31.807   5.580   1.366  1.00 20.00    -0.213 F 
ENDBRANCH   2   4
TORSDOF 1
ENDMDL
MODEL 7
REMARK VINA RESULT:      -2.7      1.381      1.648
REMARK  1 active torsions:
REMARK  status: ('A' for Active; 'I' for Inactive)
REMARK    1  A    between atoms: C2_2  and  C3_3 
ROOT
HETATM    1  C1  UNL     1     -33.842   4.471   3.852  1.00 20.00     0.064 C 
HETATM    2  C2  UNL     1     -33.819   5.784   3.193  1.00 20.00     0.194 C 
HETATM    3  N4  UNL     1     -33.859   3.435   4.372  1.00 20.00    -0.197 NA
ENDROOT
BRANCH   2   4
HETATM    4  C3  UNL     1     -34.877   6.710   3.761  1.00 20.00     0.366 C 
HETATM    5  F5  UNL     1     -34.299   7.692   4.495  1.00 20.00    -0.213 F 
HETATM    6  F6  UNL     1     -35.705   6.027   4.590  1.00 20.00    -0.213 F 
ENDBRANCH   2   4
TORSDOF 1
ENDMDL
MODEL 8
REMARK VINA RESULT:      -2.7      2.163      2.550
REMARK  1 active torsions:
REMARK  status: ('A' for Active; 'I' for Inactive)
REMARK    1  A    between atoms: C2_2  and  C3_3 
ROOT
HETATM    1  C1  UNL     1     -34.426   6.794   3.739  1.00 20.00     0.064 C 
HETATM    2  C2  UNL     1     -33.230   7.574   3.390  1.00 20.00     0.194 C 
HETATM    3  N4  UNL     1     -35.370   6.179   4.015  1.00 20.00    -0.197 NA
ENDROOT
BRANCH   2   4
HETATM    4  C3  UNL     1     -32.763   7.274   1.979  1.00 20.00     0.366 C 
HETATM    5  F5  UNL     1     -32.825   5.942   1.735  1.00 20.00    -0.213 F 
HETATM    6  F6  UNL     1     -31.470   7.649   1.820  1.00 20.00    -0.213 F 
ENDBRANCH   2   4
TORSDOF 1
ENDMDL
MODEL 9
REMARK VINA RESULT:      -2.5      2.630      3.171
REMARK  1 active torsions:
REMARK  status: ('A' for Active; 'I' for Inactive)
REMARK    1  A    between atoms: C2_2  and  C3_3 
ROOT
HETATM    1  C1  UNL     1     -33.733   6.737   2.965  1.00 20.00     0.064 C 
HETATM    2  C2  UNL     1     -32.798   6.577   1.844  1.00 20.00     0.194 C 
HETATM    3  N4  UNL     1     -34.472   6.862   3.851  1.00 20.00    -0.197 NA
ENDROOT
BRANCH   2   4
HETATM    4  C3  UNL     1     -31.833   7.745   1.754  1.00 20.00     0.366 C 
HETATM    5  F5  UNL     1     -31.718   8.354   2.958  1.00 20.00    -0.213 F 
HETATM    6  F6  UNL     1     -32.296   8.672   0.879  1.00 20.00    -0.213 F 
ENDBRANCH   2   4
TORSDOF 1
ENDMDL
