MODEL 1
REMARK VINA RESULT:      -0.6      0.000      0.000
REMARK  1 active torsions:
REMARK  status: ('A' for Active; 'I' for Inactive)
REMARK    1  A    between atoms: C3_3  and  C6_6 
ROOT
HETATM    1  C1  UNL     1     -32.440   6.468   1.394  1.00 20.00     0.019 A 
HETATM    2  C2  UNL     1     -33.226   5.547   2.143  1.00 20.00     0.028 A 
HETATM    3  C3  UNL     1     -32.534   7.751   1.886  1.00 20.00     0.015 A 
HETATM    4  C4  UNL     1     -33.892   6.161   3.182  1.00 20.00     0.051 A 
HETATM    5  S8  UNL     1     -33.568   7.840   3.249  1.00 20.00    -0.085 SA
HETATM    6 BR9  UNL     1     -35.033   5.263   4.406  1.00 20.00    -0.043 Br
ENDROOT
BRANCH   3   7
HETATM    7  C6  UNL     1     -31.803   8.959   1.294  1.00 20.00     0.185 A 
HETATM    8  C5  UNL     1     -32.607   9.984   0.521  1.00 20.00     0.206 A 
HETATM    9  O7  UNL     1     -31.644   9.151  -0.129  1.00 20.00    -0.376 OA
ENDBRANCH   3   7
TORSDOF 1
ENDMDL
MODEL 2
REMARK VINA RESULT:      -0.4      1.181      1.552
REMARK  1 active torsions:
REMARK  status: ('A' for Active; 'I' for Inactive)
REMARK    1  A    between atoms: C3_3  and  C6_6 
ROOT
HETATM    1  C1  UNL     1     -33.282   8.320   3.067  1.00 20.00     0.019 A 
HETATM    2  C2  UNL     1     -33.835   7.241   3.814  1.00 20.00     0.028 A 
HETATM    3  C3  UNL     1     -32.628   7.885   1.936  1.00 20.00     0.015 A 
HETATM    4  C4  UNL     1     -33.583   6.021   3.225  1.00 20.00     0.051 A 
HETATM    5  S8  UNL     1     -32.683   6.180   1.778  1.00 20.00    -0.085 SA
HETATM    6 BR9  UNL     1     -34.163   4.352   3.922  1.00 20.00    -0.043 Br
ENDROOT
BRANCH   3   7
HETATM    7  C6  UNL     1     -31.933   8.810   0.931  1.00 20.00     0.185 A 
HETATM    8  C5  UNL     1     -32.546  10.166   0.651  1.00 20.00     0.206 A 
HETATM    9  O7  UNL     1     -32.514   9.144  -0.349  1.00 20.00    -0.376 OA
ENDBRANCH   3   7
TORSDOF 1
ENDMDL
MODEL 3
REMARK VINA RESULT:      -0.3      3.560      4.972
REMARK  1 active torsions:
REMARK  status: ('A' for Active; 'I' for Inactive)
REMARK    1  A    between atoms: C3_3  and  C6_6 
ROOT
HETATM    1  C1  UNL     1     -34.253   6.876   4.068  1.00 20.00     0.019 A 
HETATM    2  C2  UNL     1     -33.688   7.964   3.344  1.00 20.00     0.028 A 
HETATM    3  C3  UNL     1     -33.898   5.657   3.532  1.00 20.00     0.015 A 
HETATM    4  C4  UNL     1     -32.921   7.537   2.282  1.00 20.00     0.051 A 
HETATM    5  S8  UNL     1     -32.886   5.829   2.161  1.00 20.00    -0.085 SA
HETATM    6 BR9  UNL     1     -32.003   8.692   1.086  1.00 20.00    -0.043 Br
ENDROOT
BRANCH   3   7
HETATM    7  C6  UNL     1     -34.348   4.304   4.091  1.00 20.00     0.185 A 
HETATM    8  C5  UNL     1     -33.388   3.528   4.968  1.00 20.00     0.206 A 
HETATM    9  O7  UNL     1     -33.760   3.054   3.671  1.00 20.00    -0.376 OA
ENDBRANCH   3   7
TORSDOF 1
ENDMDL
MODEL 4
REMARK VINA RESULT:       0.5      3.491      4.787
REMARK  1 active torsions:
REMARK  status: ('A' for Active; 'I' for Inactive)
REMARK    1  A    between atoms: C3_3  and  C6_6 
ROOT
HETATM    1  C1  UNL     1     -32.801   5.017   1.946  1.00 20.00     0.019 A 
HETATM    2  C2  UNL     1     -32.334   6.161   1.238  1.00 20.00     0.028 A 
HETATM    3  C3  UNL     1     -33.474   5.360   3.098  1.00 20.00     0.015 A 
HETATM    4  C4  UNL     1     -32.668   7.336   1.874  1.00 20.00     0.051 A 
HETATM    5  S8  UNL     1     -33.541   7.058   3.321  1.00 20.00    -0.085 SA
HETATM    6 BR9  UNL     1     -32.224   9.068   1.234  1.00 20.00    -0.043 Br
ENDROOT
BRANCH   3   7
HETATM    7  C6  UNL     1     -34.094   4.351   4.069  1.00 20.00     0.185 A 
HETATM    8  C5  UNL     1     -33.176   3.569   4.984  1.00 20.00     0.206 A 
HETATM    9  O7  UNL     1     -33.905   2.926   3.935  1.00 20.00    -0.376 OA
ENDBRANCH   3   7
TORSDOF 1
ENDMDL
MODEL 5
REMARK VINA RESULT:       0.8      3.369      4.601
REMARK  1 active torsions:
REMARK  status: ('A' for Active; 'I' for Inactive)
REMARK    1  A    between atoms: C3_3  and  C6_6 
ROOT
HETATM    1  C1  UNL     1     -32.974   5.582   2.045  1.00 20.00     0.019 A 
HETATM    2  C2  UNL     1     -32.457   6.546   1.134  1.00 20.00     0.028 A 
HETATM    3  C3  UNL     1     -33.472   6.164   3.189  1.00 20.00     0.015 A 
HETATM    4  C4  UNL     1     -32.579   7.831   1.617  1.00 20.00     0.051 A 
HETATM    5  S8  UNL     1     -33.315   7.870   3.162  1.00 20.00    -0.085 SA
HETATM    6 BR9  UNL     1     -32.008   9.386   0.688  1.00 20.00    -0.043 Br
ENDROOT
BRANCH   3   7
HETATM    7  C6  UNL     1     -34.096   5.387   4.352  1.00 20.00     0.185 A 
HETATM    8  C5  UNL     1     -33.936   3.881   4.386  1.00 20.00     0.206 A 
HETATM    9  O7  UNL     1     -35.214   4.489   4.177  1.00 20.00    -0.376 OA
ENDBRANCH   3   7
TORSDOF 1
ENDMDL
MODEL 6
REMARK VINA RESULT:       1.2      1.702      1.995
REMARK  1 active torsions:
REMARK  status: ('A' for Active; 'I' for Inactive)
REMARK    1  A    between atoms: C3_3  and  C6_6 
ROOT
HETATM    1  C1  UNL     1     -34.051   7.342   3.184  1.00 20.00     0.019 A 
HETATM    2  C2  UNL     1     -34.294   6.187   3.980  1.00 20.00     0.028 A 
HETATM    3  C3  UNL     1     -33.160   7.091   2.164  1.00 20.00     0.015 A 
HETATM    4  C4  UNL     1     -33.581   5.094   3.537  1.00 20.00     0.051 A 
HETATM    5  S8  UNL     1     -32.622   5.464   2.168  1.00 20.00    -0.085 SA
HETATM    6 BR9  UNL     1     -33.647   3.373   4.337  1.00 20.00    -0.043 Br
ENDROOT
BRANCH   3   7
HETATM    7  C6  UNL     1     -32.701   8.135   1.142  1.00 20.00     0.185 A 
HETATM    8  C5  UNL     1     -31.295   8.686   1.251  1.00 20.00     0.206 A 
HETATM    9  O7  UNL     1     -32.438   9.509   1.498  1.00 20.00    -0.376 OA
ENDBRANCH   3   7
TORSDOF 1
ENDMDL
MODEL 7
REMARK VINA RESULT:       1.5      3.351      4.437
REMARK  1 active torsions:
REMARK  status: ('A' for Active; 'I' for Inactive)
REMARK    1  A    between atoms: C3_3  and  C6_6 
ROOT
HETATM    1  C1  UNL     1     -32.541   6.406   2.267  1.00 20.00     0.019 A 
HETATM    2  C2  UNL     1     -32.042   7.292   1.271  1.00 20.00     0.028 A 
HETATM    3  C3  UNL     1     -33.471   7.013   3.082  1.00 20.00     0.015 A 
HETATM    4  C4  UNL     1     -32.610   8.544   1.361  1.00 20.00     0.051 A 
HETATM    5  S8  UNL     1     -33.740   8.646   2.643  1.00 20.00    -0.085 SA
HETATM    6 BR9  UNL     1     -32.203   9.994   0.204  1.00 20.00    -0.043 Br
ENDROOT
BRANCH   3   7
HETATM    7  C6  UNL     1     -34.187   6.316   4.243  1.00 20.00     0.185 A 
HETATM    8  C5  UNL     1     -34.596   4.867   4.077  1.00 20.00     0.206 A 
HETATM    9  O7  UNL     1     -35.571   5.909   4.172  1.00 20.00    -0.376 OA
ENDBRANCH   3   7
TORSDOF 1
ENDMDL
MODEL 8
REMARK VINA RESULT:       1.8      3.454      4.744
REMARK  1 active torsions:
REMARK  status: ('A' for Active; 'I' for Inactive)
REMARK    1  A    between atoms: C3_3  and  C6_6 
ROOT
HETATM    1  C1  UNL     1     -33.201   7.800   3.859  1.00 20.00     0.019 A 
HETATM    2  C2  UNL     1     -32.503   8.539   2.862  1.00 20.00     0.028 A 
HETATM    3  C3  UNL     1     -33.566   6.548   3.416  1.00 20.00     0.015 A 
HETATM    4  C4  UNL     1     -32.359   7.824   1.693  1.00 20.00     0.051 A 
HETATM    5  S8  UNL     1     -33.065   6.268   1.801  1.00 20.00    -0.085 SA
HETATM    6 BR9  UNL     1     -31.481   8.471   0.138  1.00 20.00    -0.043 Br
ENDROOT
BRANCH   3   7
HETATM    7  C6  UNL     1     -34.326   5.521   4.260  1.00 20.00     0.185 A 
HETATM    8  C5  UNL     1     -33.786   4.108   4.342  1.00 20.00     0.206 A 
HETATM    9  O7  UNL     1     -35.019   4.395   3.678  1.00 20.00    -0.376 OA
ENDBRANCH   3   7
TORSDOF 1
ENDMDL
MODEL 9
REMARK VINA RESULT:       2.4      3.157      3.804
REMARK  1 active torsions:
REMARK  status: ('A' for Active; 'I' for Inactive)
REMARK    1  A    between atoms: C3_3  and  C6_6 
ROOT
HETATM    1  C1  UNL     1     -32.229   7.908   1.907  1.00 20.00     0.019 A 
HETATM    2  C2  UNL     1     -31.572   6.992   1.038  1.00 20.00     0.028 A 
HETATM    3  C3  UNL     1     -33.163   7.286   2.705  1.00 20.00     0.015 A 
HETATM    4  C4  UNL     1     -32.028   5.703   1.204  1.00 20.00     0.051 A 
HETATM    5  S8  UNL     1     -33.245   5.601   2.404  1.00 20.00    -0.085 SA
HETATM    6 BR9  UNL     1     -31.391   4.203   0.228  1.00 20.00    -0.043 Br
ENDROOT
BRANCH   3   7
HETATM    7  C6  UNL     1     -34.030   8.006   3.743  1.00 20.00     0.185 A 
HETATM    8  C5  UNL     1     -33.539   8.073   5.174  1.00 20.00     0.206 A 
HETATM    9  O7  UNL     1     -34.695   7.310   4.819  1.00 20.00    -0.376 OA
ENDBRANCH   3   7
TORSDOF 1
ENDMDL
