MODEL 1
REMARK VINA RESULT:       0.0      0.000      0.000
REMARK  2 active torsions:
REMARK  status: ('A' for Active; 'I' for Inactive)
REMARK    1  A    between atoms: C7_7  and  C10_10 
REMARK    2  A    between atoms: C8_8  and  C9_9 
ROOT
HETATM    1  C1  UNL     1     -33.074   7.907   2.011  1.00 20.00    -0.019 A 
HETATM    2  C3  UNL     1     -32.028   7.851   1.177  1.00 20.00    -0.087 A 
HETATM    3  C5  UNL     1     -31.610   6.445   0.856  1.00 20.00     0.039 A 
HETATM    4  C8  UNL     1     -33.555   6.551   2.403  1.00 20.00     0.021 A 
HETATM    5  C10 UNL     1     -32.580   5.576   1.664  1.00 20.00     0.005 A 
HETATM    6  C11 UNL     1     -31.303   9.009   0.592  1.00 20.00     0.043 C 
ENDROOT
BRANCH   4   7
HETATM    7  C9  UNL     1     -33.404   6.127   3.889  1.00 20.00     0.022 C 
HETATM    8  C4  UNL     1     -34.260   4.911   4.183  1.00 20.00    -0.082 C 
HETATM    9  C2  UNL     1     -35.543   5.297   4.110  1.00 20.00    -0.019 C 
HETATM   10  C12 UNL     1     -33.700   3.567   4.451  1.00 20.00     0.043 C 
HETATM   11  C7  UNL     1     -35.549   6.770   3.774  1.00 20.00     0.014 C 
HETATM   12  C6  UNL     1     -34.296   7.182   4.564  1.00 20.00     0.018 C 
ENDBRANCH   4   7
TORSDOF 2
ENDMDL
MODEL 2
REMARK VINA RESULT:       1.3      1.095      4.785
REMARK  2 active torsions:
REMARK  status: ('A' for Active; 'I' for Inactive)
REMARK    1  A    between atoms: C7_7  and  C10_10 
REMARK    2  A    between atoms: C8_8  and  C9_9 
ROOT
HETATM    1  C1  UNL     1     -33.289   5.773   2.544  1.00 20.00    -0.019 A 
HETATM    2  C3  UNL     1     -33.976   5.317   3.600  1.00 20.00    -0.087 A 
HETATM    3  C5  UNL     1     -34.896   6.346   4.188  1.00 20.00     0.039 A 
HETATM    4  C8  UNL     1     -33.623   7.191   2.224  1.00 20.00     0.021 A 
HETATM    5  C10 UNL     1     -34.668   7.588   3.319  1.00 20.00     0.005 A 
HETATM    6  C11 UNL     1     -33.887   3.955   4.188  1.00 20.00     0.043 C 
ENDROOT
BRANCH   4   7
HETATM    7  C9  UNL     1     -32.511   8.259   2.407  1.00 20.00     0.022 C 
HETATM    8  C4  UNL     1     -32.385   9.110   1.158  1.00 20.00    -0.082 C 
HETATM    9  C2  UNL     1     -31.891   8.325   0.187  1.00 20.00    -0.019 C 
HETATM   10  C12 UNL     1     -32.794  10.531   1.097  1.00 20.00     0.043 C 
HETATM   11  C7  UNL     1     -31.682   6.953   0.782  1.00 20.00     0.014 C 
HETATM   12  C6  UNL     1     -31.262   7.387   2.196  1.00 20.00     0.018 C 
ENDBRANCH   4   7
TORSDOF 2
ENDMDL
MODEL 3
REMARK VINA RESULT:       2.3      1.234      2.951
REMARK  2 active torsions:
REMARK  status: ('A' for Active; 'I' for Inactive)
REMARK    1  A    between atoms: C7_7  and  C10_10 
REMARK    2  A    between atoms: C8_8  and  C9_9 
ROOT
HETATM    1  C1  UNL     1     -32.118   8.272   0.259  1.00 20.00    -0.019 A 
HETATM    2  C3  UNL     1     -32.201   9.585   0.507  1.00 20.00    -0.087 A 
HETATM    3  C5  UNL     1     -32.497   9.892   1.946  1.00 20.00     0.039 A 
HETATM    4  C8  UNL     1     -32.339   7.452   1.486  1.00 20.00     0.021 A 
HETATM    5  C10 UNL     1     -32.614   8.512   2.603  1.00 20.00     0.005 A 
HETATM    6  C11 UNL     1     -32.036  10.682  -0.482  1.00 20.00     0.043 C 
ENDROOT
BRANCH   4   7
HETATM    7  C9  UNL     1     -33.605   6.556   1.543  1.00 20.00     0.022 C 
HETATM    8  C4  UNL     1     -33.735   5.909   2.909  1.00 20.00    -0.082 C 
HETATM    9  C2  UNL     1     -32.734   5.023   3.029  1.00 20.00    -0.019 C 
HETATM   10  C12 UNL     1     -34.782   6.278   3.887  1.00 20.00     0.043 C 
HETATM   11  C7  UNL     1     -31.937   5.070   1.747  1.00 20.00     0.014 C 
HETATM   12  C6  UNL     1     -33.100   5.324   0.773  1.00 20.00     0.018 C 
ENDBRANCH   4   7
TORSDOF 2
ENDMDL
