MODEL 1
REMARK VINA RESULT:      -0.0      0.000      0.000
REMARK  0 active torsions:
REMARK  status: ('A' for Active; 'I' for Inactive)
ROOT
HETATM    1  C1  UNL     1     -33.080   8.247   3.195  1.00 20.00     0.092 C 
HETATM    2  C2  UNL     1     -33.179   5.570   2.475  1.00 20.00     0.023 C 
HETATM    3  C3  UNL     1     -32.884   6.543   1.346  1.00 20.00     0.016 C 
HETATM    4  C4  UNL     1     -34.232   6.173   3.389  1.00 20.00     0.148 C 
HETATM    5  C5  UNL     1     -32.371   7.878   1.903  1.00 20.00    -0.014 C 
HETATM    6  C6  UNL     1     -32.608   8.996   0.882  1.00 20.00     0.020 C 
HETATM    7  C7  UNL     1     -30.870   7.797   2.221  1.00 20.00     0.020 C 
HETATM    8  N8  UNL     1     -33.881   7.505   3.875  1.00 20.00    -0.305 NA
ENDROOT
TORSDOF 0
ENDMDL
MODEL 2
REMARK VINA RESULT:       0.1      1.091      2.189
REMARK  0 active torsions:
REMARK  status: ('A' for Active; 'I' for Inactive)
ROOT
HETATM    1  C1  UNL     1     -32.485   6.503   1.546  1.00 20.00     0.092 C 
HETATM    2  C2  UNL     1     -34.184   7.388   3.551  1.00 20.00     0.023 C 
HETATM    3  C3  UNL     1     -32.839   8.090   3.472  1.00 20.00     0.016 C 
HETATM    4  C4  UNL     1     -33.987   5.905   3.292  1.00 20.00     0.148 C 
HETATM    5  C5  UNL     1     -32.206   7.894   2.088  1.00 20.00    -0.014 C 
HETATM    6  C6  UNL     1     -30.688   8.086   2.175  1.00 20.00     0.020 C 
HETATM    7  C7  UNL     1     -32.783   8.896   1.077  1.00 20.00     0.020 C 
HETATM    8  N8  UNL     1     -33.281   5.624   2.045  1.00 20.00    -0.305 NA
ENDROOT
TORSDOF 0
ENDMDL
MODEL 3
REMARK VINA RESULT:       0.3      1.402      3.416
REMARK  0 active torsions:
REMARK  status: ('A' for Active; 'I' for Inactive)
ROOT
HETATM    1  C1  UNL     1     -33.704   6.183   2.176  1.00 20.00     0.092 C 
HETATM    2  C2  UNL     1     -32.518   7.935   3.968  1.00 20.00     0.023 C 
HETATM    3  C3  UNL     1     -34.006   7.700   4.166  1.00 20.00     0.016 C 
HETATM    4  C4  UNL     1     -32.222   8.019   2.481  1.00 20.00     0.148 C 
HETATM    5  C5  UNL     1     -34.443   6.397   3.486  1.00 20.00    -0.014 C 
HETATM    6  C6  UNL     1     -35.947   6.438   3.194  1.00 20.00     0.020 C 
HETATM    7  C7  UNL     1     -34.137   5.184   4.378  1.00 20.00     0.020 C 
HETATM    8  N8  UNL     1     -32.712   6.868   1.728  1.00 20.00    -0.305 NA
ENDROOT
TORSDOF 0
ENDMDL
MODEL 4
REMARK VINA RESULT:       0.3      1.201      3.267
REMARK  0 active torsions:
REMARK  status: ('A' for Active; 'I' for Inactive)
ROOT
HETATM    1  C1  UNL     1     -33.880   7.397   4.381  1.00 20.00     0.092 C 
HETATM    2  C2  UNL     1     -32.956   7.284   1.768  1.00 20.00     0.023 C 
HETATM    3  C3  UNL     1     -33.527   5.988   2.320  1.00 20.00     0.016 C 
HETATM    4  C4  UNL     1     -32.148   7.973   2.855  1.00 20.00     0.148 C 
HETATM    5  C5  UNL     1     -34.430   6.266   3.529  1.00 20.00    -0.014 C 
HETATM    6  C6  UNL     1     -34.539   5.009   4.399  1.00 20.00     0.020 C 
HETATM    7  C7  UNL     1     -35.836   6.688   3.075  1.00 20.00     0.020 C 
HETATM    8  N8  UNL     1     -32.896   8.173   4.094  1.00 20.00    -0.305 NA
ENDROOT
TORSDOF 0
ENDMDL
MODEL 5
REMARK VINA RESULT:       0.4      1.536      2.881
REMARK  0 active torsions:
REMARK  status: ('A' for Active; 'I' for Inactive)
ROOT
HETATM    1  C1  UNL     1     -32.852   8.232   2.669  1.00 20.00     0.092 C 
HETATM    2  C2  UNL     1     -33.182   5.596   1.871  1.00 20.00     0.023 C 
HETATM    3  C3  UNL     1     -33.427   5.872   3.345  1.00 20.00     0.016 C 
HETATM    4  C4  UNL     1     -31.987   6.410   1.406  1.00 20.00     0.148 C 
HETATM    5  C5  UNL     1     -33.704   7.363   3.578  1.00 20.00    -0.014 C 
HETATM    6  C6  UNL     1     -33.395   7.732   5.033  1.00 20.00     0.020 C 
HETATM    7  C7  UNL     1     -35.172   7.700   3.274  1.00 20.00     0.020 C 
HETATM    8  N8  UNL     1     -32.110   7.836   1.695  1.00 20.00    -0.305 NA
ENDROOT
TORSDOF 0
ENDMDL
MODEL 6
REMARK VINA RESULT:       0.5      1.116      2.685
REMARK  0 active torsions:
REMARK  status: ('A' for Active; 'I' for Inactive)
ROOT
HETATM    1  C1  UNL     1     -33.716   5.551   2.683  1.00 20.00     0.092 C 
HETATM    2  C2  UNL     1     -33.089   8.247   2.500  1.00 20.00     0.023 C 
HETATM    3  C3  UNL     1     -32.095   7.295   1.856  1.00 20.00     0.016 C 
HETATM    4  C4  UNL     1     -33.578   7.644   3.806  1.00 20.00     0.148 C 
HETATM    5  C5  UNL     1     -32.749   5.936   1.577  1.00 20.00    -0.014 C 
HETATM    6  C6  UNL     1     -31.672   4.850   1.473  1.00 20.00     0.020 C 
HETATM    7  C7  UNL     1     -33.553   5.974   0.268  1.00 20.00     0.020 C 
HETATM    8  N8  UNL     1     -34.112   6.293   3.656  1.00 20.00    -0.305 NA
ENDROOT
TORSDOF 0
ENDMDL
MODEL 7
REMARK VINA RESULT:       0.6      1.496      3.006
REMARK  0 active torsions:
REMARK  status: ('A' for Active; 'I' for Inactive)
ROOT
HETATM    1  C1  UNL     1     -33.494   5.651   3.236  1.00 20.00     0.092 C 
HETATM    2  C2  UNL     1     -32.158   7.656   1.863  1.00 20.00     0.023 C 
HETATM    3  C3  UNL     1     -33.564   8.000   2.325  1.00 20.00     0.016 C 
HETATM    4  C4  UNL     1     -32.135   6.221   1.367  1.00 20.00     0.148 C 
HETATM    5  C5  UNL     1     -34.007   7.063   3.456  1.00 20.00    -0.014 C 
HETATM    6  C6  UNL     1     -35.537   7.019   3.530  1.00 20.00     0.020 C 
HETATM    7  C7  UNL     1     -33.451   7.538   4.808  1.00 20.00     0.020 C 
HETATM    8  N8  UNL     1     -32.655   5.264   2.341  1.00 20.00    -0.305 NA
ENDROOT
TORSDOF 0
ENDMDL
MODEL 8
REMARK VINA RESULT:       0.9      1.148      1.297
REMARK  0 active torsions:
REMARK  status: ('A' for Active; 'I' for Inactive)
ROOT
HETATM    1  C1  UNL     1     -32.096   8.283   3.354  1.00 20.00     0.092 C 
HETATM    2  C2  UNL     1     -34.225   6.506   3.408  1.00 20.00     0.023 C 
HETATM    3  C3  UNL     1     -33.942   7.153   2.062  1.00 20.00     0.016 C 
HETATM    4  C4  UNL     1     -34.043   7.542   4.504  1.00 20.00     0.148 C 
HETATM    5  C5  UNL     1     -32.509   7.699   2.014  1.00 20.00    -0.014 C 
HETATM    6  C6  UNL     1     -32.404   8.798   0.951  1.00 20.00     0.020 C 
HETATM    7  C7  UNL     1     -31.509   6.581   1.683  1.00 20.00     0.020 C 
HETATM    8  N8  UNL     1     -32.742   8.205   4.463  1.00 20.00    -0.305 NA
ENDROOT
TORSDOF 0
ENDMDL
MODEL 9
REMARK VINA RESULT:       1.1      1.670      2.655
REMARK  0 active torsions:
REMARK  status: ('A' for Active; 'I' for Inactive)
ROOT
HETATM    1  C1  UNL     1     -33.040   5.025   2.670  1.00 20.00     0.092 C 
HETATM    2  C2  UNL     1     -35.252   6.282   3.774  1.00 20.00     0.023 C 
HETATM    3  C3  UNL     1     -34.160   7.205   3.259  1.00 20.00     0.016 C 
HETATM    4  C4  UNL     1     -34.610   5.087   4.457  1.00 20.00     0.148 C 
HETATM    5  C5  UNL     1     -33.258   6.471   2.259  1.00 20.00    -0.014 C 
HETATM    6  C6  UNL     1     -31.893   7.165   2.179  1.00 20.00     0.020 C 
HETATM    7  C7  UNL     1     -33.895   6.450   0.861  1.00 20.00     0.020 C 
HETATM    8  N8  UNL     1     -33.640   4.392   3.615  1.00 20.00    -0.305 NA
ENDROOT
TORSDOF 0
ENDMDL
