MODEL 1
REMARK VINA RESULT:      -0.2      0.000      0.000
REMARK  1 active torsions:
REMARK  status: ('A' for Active; 'I' for Inactive)
REMARK    1  A    between atoms: C2_2  and  C7_7 
ROOT
HETATM    1  C1  UNL     1     -33.508   7.488   3.808  1.00 20.00     0.141 C 
HETATM    2  C3  UNL     1     -32.132   7.833   3.277  1.00 20.00     0.079 C 
HETATM    3  C4  UNL     1     -32.089   7.692   1.765  1.00 20.00     0.007 C 
HETATM    4  C5  UNL     1     -32.565   6.314   1.317  1.00 20.00     0.002 C 
HETATM    5  C6  UNL     1     -33.980   6.028   1.826  1.00 20.00     0.024 C 
HETATM    6  C7  UNL     1     -34.103   6.151   3.357  1.00 20.00     0.070 C 
HETATM    7  C8  UNL     1     -35.580   6.058   3.757  1.00 20.00     0.031 C 
HETATM    8  O9  UNL     1     -34.063   8.218   4.630  1.00 20.00    -0.297 OA
ENDROOT
BRANCH   6   9
HETATM    9  C2  UNL     1     -33.404   4.993   4.022  1.00 20.00     0.248 C 
HETATM   10  O10 UNL     1     -33.881   3.865   4.091  1.00 20.00    -0.306 OA
ENDBRANCH   6   9
TORSDOF 1
ENDMDL
MODEL 2
REMARK VINA RESULT:      -0.0      1.731      3.571
REMARK  1 active torsions:
REMARK  status: ('A' for Active; 'I' for Inactive)
REMARK    1  A    between atoms: C2_2  and  C7_7 
ROOT
HETATM    1  C1  UNL     1     -33.093   7.653   3.552  1.00 20.00     0.141 C 
HETATM    2  C3  UNL     1     -34.292   6.739   3.408  1.00 20.00     0.079 C 
HETATM    3  C4  UNL     1     -33.880   5.403   2.814  1.00 20.00     0.007 C 
HETATM    4  C5  UNL     1     -33.117   5.583   1.506  1.00 20.00     0.002 C 
HETATM    5  C6  UNL     1     -31.882   6.465   1.707  1.00 20.00     0.024 C 
HETATM    6  C7  UNL     1     -32.221   7.843   2.307  1.00 20.00     0.070 C 
HETATM    7  C8  UNL     1     -30.921   8.573   2.668  1.00 20.00     0.031 C 
HETATM    8  O9  UNL     1     -32.899   8.272   4.598  1.00 20.00    -0.297 OA
ENDROOT
BRANCH   6   9
HETATM    9  C2  UNL     1     -32.920   8.693   1.278  1.00 20.00     0.248 C 
HETATM   10  O10 UNL     1     -32.350   9.549   0.608  1.00 20.00    -0.306 OA
ENDBRANCH   6   9
TORSDOF 1
ENDMDL
MODEL 3
REMARK VINA RESULT:       0.4      2.076      3.179
REMARK  1 active torsions:
REMARK  status: ('A' for Active; 'I' for Inactive)
REMARK    1  A    between atoms: C2_2  and  C7_7 
ROOT
HETATM    1  C1  UNL     1     -32.454   7.375   2.144  1.00 20.00     0.141 C 
HETATM    2  C3  UNL     1     -33.457   8.241   2.878  1.00 20.00     0.079 C 
HETATM    3  C4  UNL     1     -34.030   7.502   4.075  1.00 20.00     0.007 C 
HETATM    4  C5  UNL     1     -34.604   6.147   3.675  1.00 20.00     0.002 C 
HETATM    5  C6  UNL     1     -33.545   5.282   2.988  1.00 20.00     0.024 C 
HETATM    6  C7  UNL     1     -32.916   5.966   1.759  1.00 20.00     0.070 C 
HETATM    7  C8  UNL     1     -31.730   5.129   1.263  1.00 20.00     0.031 C 
HETATM    8  O9  UNL     1     -31.362   7.830   1.805  1.00 20.00    -0.297 OA
ENDROOT
BRANCH   6   9
HETATM    9  C2  UNL     1     -33.913   6.010   0.630  1.00 20.00     0.248 C 
HETATM   10  O10 UNL     1     -34.034   5.115  -0.200  1.00 20.00    -0.306 OA
ENDBRANCH   6   9
TORSDOF 1
ENDMDL
MODEL 4
REMARK VINA RESULT:       1.0      1.743      3.768
REMARK  1 active torsions:
REMARK  status: ('A' for Active; 'I' for Inactive)
REMARK    1  A    between atoms: C2_2  and  C7_7 
ROOT
HETATM    1  C1  UNL     1     -32.942   6.198   1.974  1.00 20.00     0.141 C 
HETATM    2  C3  UNL     1     -33.427   5.382   3.155  1.00 20.00     0.079 C 
HETATM    3  C4  UNL     1     -34.654   6.022   3.782  1.00 20.00     0.007 C 
HETATM    4  C5  UNL     1     -34.402   7.483   4.140  1.00 20.00     0.002 C 
HETATM    5  C6  UNL     1     -33.969   8.284   2.910  1.00 20.00     0.024 C 
HETATM    6  C7  UNL     1     -32.725   7.694   2.217  1.00 20.00     0.070 C 
HETATM    7  C8  UNL     1     -32.489   8.426   0.889  1.00 20.00     0.031 C 
HETATM    8  O9  UNL     1     -32.657   5.650   0.909  1.00 20.00    -0.297 OA
ENDROOT
BRANCH   6   9
HETATM    9  C2  UNL     1     -31.503   7.936   3.064  1.00 20.00     0.248 C 
HETATM   10  O10 UNL     1     -31.364   8.919   3.785  1.00 20.00    -0.306 OA
ENDBRANCH   6   9
TORSDOF 1
ENDMDL
MODEL 5
REMARK VINA RESULT:       1.1      2.149      3.824
REMARK  1 active torsions:
REMARK  status: ('A' for Active; 'I' for Inactive)
REMARK    1  A    between atoms: C2_2  and  C7_7 
ROOT
HETATM    1  C1  UNL     1     -32.312   8.335   3.239  1.00 20.00     0.141 C 
HETATM    2  C3  UNL     1     -33.674   7.957   3.784  1.00 20.00     0.079 C 
HETATM    3  C4  UNL     1     -33.952   6.480   3.558  1.00 20.00     0.007 C 
HETATM    4  C5  UNL     1     -33.777   6.095   2.092  1.00 20.00     0.002 C 
HETATM    5  C6  UNL     1     -32.371   6.442   1.597  1.00 20.00     0.024 C 
HETATM    6  C7  UNL     1     -32.015   7.928   1.793  1.00 20.00     0.070 C 
HETATM    7  C8  UNL     1     -30.531   8.142   1.469  1.00 20.00     0.031 C 
HETATM    8  O9  UNL     1     -31.535   9.012   3.911  1.00 20.00    -0.297 OA
ENDROOT
BRANCH   6   9
HETATM    9  C2  UNL     1     -32.794   8.774   0.819  1.00 20.00     0.248 C 
HETATM   10  O10 UNL     1     -32.636   9.985   0.700  1.00 20.00    -0.306 OA
ENDBRANCH   6   9
TORSDOF 1
ENDMDL
MODEL 6
REMARK VINA RESULT:       1.3      1.561      3.148
REMARK  1 active torsions:
REMARK  status: ('A' for Active; 'I' for Inactive)
REMARK    1  A    between atoms: C2_2  and  C7_7 
ROOT
HETATM    1  C1  UNL     1     -34.271   6.961   3.474  1.00 20.00     0.141 C 
HETATM    2  C3  UNL     1     -35.393   6.082   3.986  1.00 20.00     0.079 C 
HETATM    3  C4  UNL     1     -34.839   4.812   4.609  1.00 20.00     0.007 C 
HETATM    4  C5  UNL     1     -33.908   4.078   3.650  1.00 20.00     0.002 C 
HETATM    5  C6  UNL     1     -32.757   4.982   3.201  1.00 20.00     0.024 C 
HETATM    6  C7  UNL     1     -33.242   6.294   2.556  1.00 20.00     0.070 C 
HETATM    7  C8  UNL     1     -32.042   7.223   2.330  1.00 20.00     0.031 C 
HETATM    8  O9  UNL     1     -34.256   8.167   3.722  1.00 20.00    -0.297 OA
ENDROOT
BRANCH   6   9
HETATM    9  C2  UNL     1     -33.828   6.012   1.197  1.00 20.00     0.248 C 
HETATM   10  O10 UNL     1     -33.327   5.231   0.394  1.00 20.00    -0.306 OA
ENDBRANCH   6   9
TORSDOF 1
ENDMDL
MODEL 7
REMARK VINA RESULT:       1.4      1.548      2.729
REMARK  1 active torsions:
REMARK  status: ('A' for Active; 'I' for Inactive)
REMARK    1  A    between atoms: C2_2  and  C7_7 
ROOT
HETATM    1  C1  UNL     1     -32.916   6.156   1.965  1.00 20.00     0.141 C 
HETATM    2  C3  UNL     1     -32.466   7.477   1.375  1.00 20.00     0.079 C 
HETATM    3  C4  UNL     1     -31.803   8.340   2.436  1.00 20.00     0.007 C 
HETATM    4  C5  UNL     1     -32.701   8.516   3.657  1.00 20.00     0.002 C 
HETATM    5  C6  UNL     1     -33.087   7.160   4.255  1.00 20.00     0.024 C 
HETATM    6  C7  UNL     1     -33.767   6.227   3.236  1.00 20.00     0.070 C 
HETATM    7  C8  UNL     1     -33.928   4.832   3.853  1.00 20.00     0.031 C 
HETATM    8  O9  UNL     1     -32.675   5.097   1.385  1.00 20.00    -0.297 OA
ENDROOT
BRANCH   6   9
HETATM    9  C2  UNL     1     -35.157   6.725   2.932  1.00 20.00     0.248 C 
HETATM   10  O10 UNL     1     -36.136   6.458   3.623  1.00 20.00    -0.306 OA
ENDBRANCH   6   9
TORSDOF 1
ENDMDL
MODEL 8
REMARK VINA RESULT:       1.4      1.502      3.543
REMARK  1 active torsions:
REMARK  status: ('A' for Active; 'I' for Inactive)
REMARK    1  A    between atoms: C2_2  and  C7_7 
ROOT
HETATM    1  C1  UNL     1     -33.001   5.871   2.466  1.00 20.00     0.141 C 
HETATM    2  C3  UNL     1     -33.476   4.845   3.475  1.00 20.00     0.079 C 
HETATM    3  C4  UNL     1     -34.933   5.083   3.837  1.00 20.00     0.007 C 
HETATM    4  C5  UNL     1     -35.168   6.517   4.300  1.00 20.00     0.002 C 
HETATM    5  C6  UNL     1     -34.728   7.519   3.231  1.00 20.00     0.024 C 
HETATM    6  C7  UNL     1     -33.256   7.341   2.811  1.00 20.00     0.070 C 
HETATM    7  C8  UNL     1     -32.961   8.236   1.600  1.00 20.00     0.031 C 
HETATM    8  O9  UNL     1     -32.365   5.523   1.471  1.00 20.00    -0.297 OA
ENDROOT
BRANCH   6   9
HETATM    9  C2  UNL     1     -32.347   7.805   3.919  1.00 20.00     0.248 C 
HETATM   10  O10 UNL     1     -32.744   8.405   4.913  1.00 20.00    -0.306 OA
ENDBRANCH   6   9
TORSDOF 1
ENDMDL
MODEL 9
REMARK VINA RESULT:       1.8      1.339      2.642
REMARK  1 active torsions:
REMARK  status: ('A' for Active; 'I' for Inactive)
REMARK    1  A    between atoms: C2_2  and  C7_7 
ROOT
HETATM    1  C1  UNL     1     -33.506   5.663   3.107  1.00 20.00     0.141 C 
HETATM    2  C3  UNL     1     -33.071   5.506   1.664  1.00 20.00     0.079 C 
HETATM    3  C4  UNL     1     -31.987   6.513   1.318  1.00 20.00     0.007 C 
HETATM    4  C5  UNL     1     -32.420   7.938   1.650  1.00 20.00     0.002 C 
HETATM    5  C6  UNL     1     -32.798   8.067   3.128  1.00 20.00     0.024 C 
HETATM    6  C7  UNL     1     -33.895   7.075   3.556  1.00 20.00     0.070 C 
HETATM    7  C8  UNL     1     -34.061   7.127   5.080  1.00 20.00     0.031 C 
HETATM    8  O9  UNL     1     -33.621   4.679   3.837  1.00 20.00    -0.297 OA
ENDROOT
BRANCH   6   9
HETATM    9  C2  UNL     1     -35.219   7.488   2.965  1.00 20.00     0.248 C 
HETATM   10  O10 UNL     1     -36.244   6.821   3.072  1.00 20.00    -0.306 OA
ENDBRANCH   6   9
TORSDOF 1
ENDMDL
