MODEL 1
REMARK VINA RESULT:      -2.0      0.000      0.000
REMARK  1 active torsions:
REMARK  status: ('A' for Active; 'I' for Inactive)
REMARK    1  A    between atoms: C2_2  and  C3_3 
ROOT
HETATM    1  C1  UNL     1     -32.291   7.542   1.709  1.00 20.00    -0.077 C 
HETATM    2  C2  UNL     1     -32.026   8.287   0.626  1.00 20.00     0.044 C 
HETATM    3  C4  UNL     1     -32.189   6.038   1.701  1.00 20.00     0.034 C 
HETATM    4  C5  UNL     1     -32.733   8.145   3.017  1.00 20.00     0.034 C 
HETATM    5  C6  UNL     1     -33.492   5.405   2.190  1.00 20.00     0.004 C 
HETATM    6  C7  UNL     1     -34.034   7.500   3.499  1.00 20.00     0.004 C 
HETATM    7  C8  UNL     1     -33.932   5.975   3.539  1.00 20.00     0.001 C 
ENDROOT
BRANCH   2   8
HETATM    8  C3  UNL     1     -32.160   9.748   0.755  1.00 20.00     0.259 C 
HETATM    9  O9  UNL     1     -32.702  10.430  -0.107  1.00 20.00    -0.302 OA
ENDBRANCH   2   8
TORSDOF 1
ENDMDL
MODEL 2
REMARK VINA RESULT:      -1.9      2.790      4.351
REMARK  1 active torsions:
REMARK  status: ('A' for Active; 'I' for Inactive)
REMARK    1  A    between atoms: C2_2  and  C3_3 
ROOT
HETATM    1  C1  UNL     1     -33.583   6.878   3.379  1.00 20.00    -0.077 C 
HETATM    2  C2  UNL     1     -34.767   6.980   4.000  1.00 20.00     0.044 C 
HETATM    3  C4  UNL     1     -32.608   8.025   3.303  1.00 20.00     0.034 C 
HETATM    4  C5  UNL     1     -33.138   5.616   2.688  1.00 20.00     0.034 C 
HETATM    5  C6  UNL     1     -32.208   8.300   1.853  1.00 20.00     0.004 C 
HETATM    6  C7  UNL     1     -32.736   5.904   1.240  1.00 20.00     0.004 C 
HETATM    7  C8  UNL     1     -31.713   7.037   1.149  1.00 20.00     0.001 C 
ENDROOT
BRANCH   2   8
HETATM    8  C3  UNL     1     -35.636   5.790   4.010  1.00 20.00     0.259 C 
HETATM    9  O9  UNL     1     -35.393   4.812   4.707  1.00 20.00    -0.302 OA
ENDBRANCH   2   8
TORSDOF 1
ENDMDL
MODEL 3
REMARK VINA RESULT:      -1.6      3.242      4.558
REMARK  1 active torsions:
REMARK  status: ('A' for Active; 'I' for Inactive)
REMARK    1  A    between atoms: C2_2  and  C3_3 
ROOT
HETATM    1  C1  UNL     1     -33.449   5.497   2.766  1.00 20.00    -0.077 C 
HETATM    2  C2  UNL     1     -33.206   4.227   3.121  1.00 20.00     0.044 C 
HETATM    3  C4  UNL     1     -32.871   6.113   1.518  1.00 20.00     0.034 C 
HETATM    4  C5  UNL     1     -34.303   6.419   3.597  1.00 20.00     0.034 C 
HETATM    5  C6  UNL     1     -32.128   7.408   1.848  1.00 20.00     0.004 C 
HETATM    6  C7  UNL     1     -33.551   7.712   3.916  1.00 20.00     0.004 C 
HETATM    7  C8  UNL     1     -32.996   8.374   2.654  1.00 20.00     0.001 C 
ENDROOT
BRANCH   2   8
HETATM    8  C3  UNL     1     -33.827   3.735   4.363  1.00 20.00     0.259 C 
HETATM    9  O9  UNL     1     -33.303   2.869   5.053  1.00 20.00    -0.302 OA
ENDBRANCH   2   8
TORSDOF 1
ENDMDL
MODEL 4
REMARK VINA RESULT:      -1.3      2.862      4.261
REMARK  1 active torsions:
REMARK  status: ('A' for Active; 'I' for Inactive)
REMARK    1  A    between atoms: C2_2  and  C3_3 
ROOT
HETATM    1  C1  UNL     1     -33.549   5.733   2.713  1.00 20.00    -0.077 C 
HETATM    2  C2  UNL     1     -33.714   4.551   3.323  1.00 20.00     0.044 C 
HETATM    3  C4  UNL     1     -32.866   5.864   1.376  1.00 20.00     0.034 C 
HETATM    4  C5  UNL     1     -34.012   7.030   3.323  1.00 20.00     0.034 C 
HETATM    5  C6  UNL     1     -31.726   6.880   1.447  1.00 20.00     0.004 C 
HETATM    6  C7  UNL     1     -32.865   8.040   3.385  1.00 20.00     0.004 C 
HETATM    7  C8  UNL     1     -32.190   8.218   2.024  1.00 20.00     0.001 C 
ENDROOT
BRANCH   2   8
HETATM    8  C3  UNL     1     -34.397   4.547   4.628  1.00 20.00     0.259 C 
HETATM    9  O9  UNL     1     -35.611   4.675   4.727  1.00 20.00    -0.302 OA
ENDBRANCH   2   8
TORSDOF 1
ENDMDL
MODEL 5
REMARK VINA RESULT:      -0.8      1.441      2.726
REMARK  1 active torsions:
REMARK  status: ('A' for Active; 'I' for Inactive)
REMARK    1  A    between atoms: C2_2  and  C3_3 
ROOT
HETATM    1  C1  UNL     1     -33.883   6.696   3.014  1.00 20.00    -0.077 C 
HETATM    2  C2  UNL     1     -33.350   7.925   2.972  1.00 20.00     0.044 C 
HETATM    3  C4  UNL     1     -35.164   6.394   3.749  1.00 20.00     0.034 C 
HETATM    4  C5  UNL     1     -33.235   5.510   2.349  1.00 20.00     0.034 C 
HETATM    5  C6  UNL     1     -34.964   5.247   4.739  1.00 20.00     0.004 C 
HETATM    6  C7  UNL     1     -33.044   4.366   3.348  1.00 20.00     0.004 C 
HETATM    7  C8  UNL     1     -34.346   4.018   4.070  1.00 20.00     0.001 C 
ENDROOT
BRANCH   2   8
HETATM    8  C3  UNL     1     -32.094   8.098   2.222  1.00 20.00     0.259 C 
HETATM    9  O9  UNL     1     -32.058   8.660   1.134  1.00 20.00    -0.302 OA
ENDBRANCH   2   8
TORSDOF 1
ENDMDL
MODEL 6
REMARK VINA RESULT:      -0.6      1.471      2.076
REMARK  1 active torsions:
REMARK  status: ('A' for Active; 'I' for Inactive)
REMARK    1  A    between atoms: C2_2  and  C3_3 
ROOT
HETATM    1  C1  UNL     1     -33.142   6.173   2.899  1.00 20.00    -0.077 C 
HETATM    2  C2  UNL     1     -32.532   6.469   1.742  1.00 20.00     0.044 C 
HETATM    3  C4  UNL     1     -33.019   4.822   3.555  1.00 20.00     0.034 C 
HETATM    4  C5  UNL     1     -34.018   7.158   3.627  1.00 20.00     0.034 C 
HETATM    5  C6  UNL     1     -34.400   4.230   3.838  1.00 20.00     0.004 C 
HETATM    6  C7  UNL     1     -35.395   6.554   3.909  1.00 20.00     0.004 C 
HETATM    7  C8  UNL     1     -35.288   5.202   4.616  1.00 20.00     0.001 C 
ENDROOT
BRANCH   2   8
HETATM    8  C3  UNL     1     -32.725   7.824   1.197  1.00 20.00     0.259 C 
HETATM    9  O9  UNL     1     -31.890   8.709   1.341  1.00 20.00    -0.302 OA
ENDBRANCH   2   8
TORSDOF 1
ENDMDL
MODEL 7
REMARK VINA RESULT:       0.0      2.472      3.361
REMARK  1 active torsions:
REMARK  status: ('A' for Active; 'I' for Inactive)
REMARK    1  A    between atoms: C2_2  and  C3_3 
ROOT
HETATM    1  C1  UNL     1     -32.679   6.716   1.948  1.00 20.00    -0.077 C 
HETATM    2  C2  UNL     1     -31.736   6.029   1.287  1.00 20.00     0.044 C 
HETATM    3  C4  UNL     1     -32.432   8.093   2.509  1.00 20.00     0.034 C 
HETATM    4  C5  UNL     1     -34.055   6.161   2.202  1.00 20.00     0.034 C 
HETATM    5  C6  UNL     1     -32.781   8.142   3.997  1.00 20.00     0.004 C 
HETATM    6  C7  UNL     1     -34.396   6.220   3.692  1.00 20.00     0.004 C 
HETATM    7  C8  UNL     1     -34.194   7.622   4.267  1.00 20.00     0.001 C 
ENDROOT
BRANCH   2   8
HETATM    8  C3  UNL     1     -32.094   4.691   0.784  1.00 20.00     0.259 C 
HETATM    9  O9  UNL     1     -31.394   4.090  -0.022  1.00 20.00    -0.302 OA
ENDBRANCH   2   8
TORSDOF 1
ENDMDL
MODEL 8
REMARK VINA RESULT:       0.4      2.245      3.516
REMARK  1 active torsions:
REMARK  status: ('A' for Active; 'I' for Inactive)
REMARK    1  A    between atoms: C2_2  and  C3_3 
ROOT
HETATM    1  C1  UNL     1     -33.597   6.627   2.536  1.00 20.00    -0.077 C 
HETATM    2  C2  UNL     1     -34.248   6.396   3.685  1.00 20.00     0.044 C 
HETATM    3  C4  UNL     1     -33.292   5.534   1.545  1.00 20.00     0.034 C 
HETATM    4  C5  UNL     1     -33.097   7.995   2.151  1.00 20.00     0.034 C 
HETATM    5  C6  UNL     1     -31.800   5.504   1.213  1.00 20.00     0.004 C 
HETATM    6  C7  UNL     1     -31.605   7.952   1.817  1.00 20.00     0.004 C 
HETATM    7  C8  UNL     1     -31.285   6.876   0.778  1.00 20.00     0.001 C 
ENDROOT
BRANCH   2   8
HETATM    8  C3  UNL     1     -34.489   7.545   4.575  1.00 20.00     0.259 C 
HETATM    9  O9  UNL     1     -33.587   8.071   5.217  1.00 20.00    -0.302 OA
ENDBRANCH   2   8
TORSDOF 1
ENDMDL
