MODEL 1
REMARK VINA RESULT:      -1.6      0.000      0.000
REMARK  2 active torsions:
REMARK  status: ('A' for Active; 'I' for Inactive)
REMARK    1  A    between atoms: C1_1  and  C4_4 
REMARK    2  A    between atoms: C4_4  and  N5_5 
ROOT
HETATM    1  C4  UNL     1     -33.341   6.894   3.512  1.00 20.00     0.367 C 
ENDROOT
BRANCH   1   2
HETATM    2  C1  UNL     1     -34.594   6.072   3.738  1.00 20.00     0.247 C 
HETATM    3  O6  UNL     1     -35.731   6.521   3.625  1.00 20.00    -0.278 OA
HETATM    4 CL7  UNL     1     -34.200   4.429   4.171  1.00 20.00    -0.042 Cl
ENDBRANCH   1   2
BRANCH   1   5
HETATM    5  N5  UNL     1     -33.098   7.011   2.075  1.00 20.00     0.088 N 
HETATM    6  C2  UNL     1     -32.690   5.720   1.519  1.00 20.00     0.310 C 
HETATM    7  C3  UNL     1     -32.080   8.026   1.808  1.00 20.00     0.310 C 
ENDBRANCH   1   5
TORSDOF 2
ENDMDL
MODEL 2
REMARK VINA RESULT:      -1.4      1.479      1.968
REMARK  2 active torsions:
REMARK  status: ('A' for Active; 'I' for Inactive)
REMARK    1  A    between atoms: C1_1  and  C4_4 
REMARK    2  A    between atoms: C4_4  and  N5_5 
ROOT
HETATM    1  C4  UNL     1     -33.874   7.564   2.582  1.00 20.00     0.367 C 
ENDROOT
BRANCH   1   2
HETATM    2  C1  UNL     1     -34.195   7.294   4.039  1.00 20.00     0.247 C 
HETATM    3  O6  UNL     1     -33.679   7.901   4.972  1.00 20.00    -0.278 OA
HETATM    4 CL7  UNL     1     -35.382   6.026   4.197  1.00 20.00    -0.042 Cl
ENDBRANCH   1   2
BRANCH   1   5
HETATM    5  N5  UNL     1     -32.553   7.019   2.274  1.00 20.00     0.088 N 
HETATM    6  C2  UNL     1     -31.748   8.007   1.554  1.00 20.00     0.310 C 
HETATM    7  C3  UNL     1     -32.676   5.792   1.488  1.00 20.00     0.310 C 
ENDBRANCH   1   5
TORSDOF 2
ENDMDL
MODEL 3
REMARK VINA RESULT:      -1.4      1.512      1.512
REMARK  2 active torsions:
REMARK  status: ('A' for Active; 'I' for Inactive)
REMARK    1  A    between atoms: C1_1  and  C4_4 
REMARK    2  A    between atoms: C4_4  and  N5_5 
ROOT
HETATM    1  C4  UNL     1     -33.341   5.911   3.183  1.00 20.00     0.367 C 
ENDROOT
BRANCH   1   2
HETATM    2  C1  UNL     1     -34.475   6.696   3.811  1.00 20.00     0.247 C 
HETATM    3  O6  UNL     1     -35.659   6.405   3.675  1.00 20.00    -0.278 OA
HETATM    4 CL7  UNL     1     -33.870   8.043   4.739  1.00 20.00    -0.042 Cl
ENDBRANCH   1   2
BRANCH   1   5
HETATM    5  N5  UNL     1     -33.077   6.437   1.845  1.00 20.00     0.088 N 
HETATM    6  C2  UNL     1     -32.481   5.403   0.998  1.00 20.00     0.310 C 
HETATM    7  C3  UNL     1     -32.201   7.605   1.917  1.00 20.00     0.310 C 
ENDBRANCH   1   5
TORSDOF 2
ENDMDL
MODEL 4
REMARK VINA RESULT:      -1.3      2.639      3.498
REMARK  2 active torsions:
REMARK  status: ('A' for Active; 'I' for Inactive)
REMARK    1  A    between atoms: C1_1  and  C4_4 
REMARK    2  A    between atoms: C4_4  and  N5_5 
ROOT
HETATM    1  C4  UNL     1     -33.251   5.883   3.147  1.00 20.00     0.367 C 
ENDROOT
BRANCH   1   2
HETATM    2  C1  UNL     1     -32.786   6.172   1.734  1.00 20.00     0.247 C 
HETATM    3  O6  UNL     1     -32.987   5.420   0.786  1.00 20.00    -0.278 OA
HETATM    4 CL7  UNL     1     -31.948   7.699   1.647  1.00 20.00    -0.042 Cl
ENDBRANCH   1   2
BRANCH   1   5
HETATM    5  N5  UNL     1     -34.340   6.796   3.491  1.00 20.00     0.088 N 
HETATM    6  C2  UNL     1     -33.870   7.825   4.418  1.00 20.00     0.310 C 
HETATM    7  C3  UNL     1     -35.462   6.059   4.072  1.00 20.00     0.310 C 
ENDBRANCH   1   5
TORSDOF 2
ENDMDL
MODEL 5
REMARK VINA RESULT:      -1.1      2.727      3.596
REMARK  2 active torsions:
REMARK  status: ('A' for Active; 'I' for Inactive)
REMARK    1  A    between atoms: C1_1  and  C4_4 
REMARK    2  A    between atoms: C4_4  and  N5_5 
ROOT
HETATM    1  C4  UNL     1     -33.286   6.637   3.308  1.00 20.00     0.367 C 
ENDROOT
BRANCH   1   2
HETATM    2  C1  UNL     1     -32.672   6.582   1.923  1.00 20.00     0.247 C 
HETATM    3  O6  UNL     1     -32.686   5.581   1.214  1.00 20.00    -0.278 OA
HETATM    4 CL7  UNL     1     -31.960   8.113   1.489  1.00 20.00    -0.042 Cl
ENDBRANCH   1   2
BRANCH   1   5
HETATM    5  N5  UNL     1     -34.393   5.684   3.380  1.00 20.00     0.088 N 
HETATM    6  C2  UNL     1     -35.526   6.271   4.095  1.00 20.00     0.310 C 
HETATM    7  C3  UNL     1     -33.963   4.448   4.031  1.00 20.00     0.310 C 
ENDBRANCH   1   5
TORSDOF 2
ENDMDL
MODEL 6
REMARK VINA RESULT:      -1.1      1.290      1.290
REMARK  2 active torsions:
REMARK  status: ('A' for Active; 'I' for Inactive)
REMARK    1  A    between atoms: C1_1  and  C4_4 
REMARK    2  A    between atoms: C4_4  and  N5_5 
ROOT
HETATM    1  C4  UNL     1     -33.168   6.085   3.164  1.00 20.00     0.367 C 
ENDROOT
BRANCH   1   2
HETATM    2  C1  UNL     1     -34.269   6.873   3.846  1.00 20.00     0.247 C 
HETATM    3  O6  UNL     1     -34.175   8.062   4.134  1.00 20.00    -0.278 OA
HETATM    4 CL7  UNL     1     -35.662   5.870   4.154  1.00 20.00    -0.042 Cl
ENDBRANCH   1   2
BRANCH   1   5
HETATM    5  N5  UNL     1     -32.983   6.598   1.807  1.00 20.00     0.088 N 
HETATM    6  C2  UNL     1     -32.565   5.522   0.907  1.00 20.00     0.310 C 
HETATM    7  C3  UNL     1     -32.001   7.681   1.798  1.00 20.00     0.310 C 
ENDBRANCH   1   5
TORSDOF 2
ENDMDL
MODEL 7
REMARK VINA RESULT:      -1.1      0.818      1.448
REMARK  2 active torsions:
REMARK  status: ('A' for Active; 'I' for Inactive)
REMARK    1  A    between atoms: C1_1  and  C4_4 
REMARK    2  A    between atoms: C4_4  and  N5_5 
ROOT
HETATM    1  C4  UNL     1     -33.389   6.092   2.641  1.00 20.00     0.367 C 
ENDROOT
BRANCH   1   2
HETATM    2  C1  UNL     1     -34.444   5.635   3.628  1.00 20.00     0.247 C 
HETATM    3  O6  UNL     1     -35.435   6.298   3.918  1.00 20.00    -0.278 OA
HETATM    4 CL7  UNL     1     -34.060   4.062   4.277  1.00 20.00    -0.042 Cl
ENDBRANCH   1   2
BRANCH   1   5
HETATM    5  N5  UNL     1     -33.211   7.538   2.763  1.00 20.00     0.088 N 
HETATM    6  C2  UNL     1     -32.123   7.994   1.898  1.00 20.00     0.310 C 
HETATM    7  C3  UNL     1     -32.946   7.906   4.153  1.00 20.00     0.310 C 
ENDBRANCH   1   5
TORSDOF 2
ENDMDL
MODEL 8
REMARK VINA RESULT:      -1.1      2.758      3.400
REMARK  2 active torsions:
REMARK  status: ('A' for Active; 'I' for Inactive)
REMARK    1  A    between atoms: C1_1  and  C4_4 
REMARK    2  A    between atoms: C4_4  and  N5_5 
ROOT
HETATM    1  C4  UNL     1     -34.003   6.801   2.263  1.00 20.00     0.367 C 
ENDROOT
BRANCH   1   2
HETATM    2  C1  UNL     1     -32.609   6.489   1.756  1.00 20.00     0.247 C 
HETATM    3  O6  UNL     1     -32.227   5.358   1.473  1.00 20.00    -0.278 OA
HETATM    4 CL7  UNL     1     -31.645   7.938   1.630  1.00 20.00    -0.042 Cl
ENDBRANCH   1   2
BRANCH   1   5
HETATM    5  N5  UNL     1     -34.047   6.587   3.709  1.00 20.00     0.088 N 
HETATM    6  C2  UNL     1     -35.321   5.983   4.097  1.00 20.00     0.310 C 
HETATM    7  C3  UNL     1     -33.841   7.847   4.420  1.00 20.00     0.310 C 
ENDBRANCH   1   5
TORSDOF 2
ENDMDL
MODEL 9
REMARK VINA RESULT:      -1.1      2.535      3.232
REMARK  2 active torsions:
REMARK  status: ('A' for Active; 'I' for Inactive)
REMARK    1  A    between atoms: C1_1  and  C4_4 
REMARK    2  A    between atoms: C4_4  and  N5_5 
ROOT
HETATM    1  C4  UNL     1     -33.842   7.110   2.280  1.00 20.00     0.367 C 
ENDROOT
BRANCH   1   2
HETATM    2  C1  UNL     1     -32.403   6.966   1.828  1.00 20.00     0.247 C 
HETATM    3  O6  UNL     1     -31.593   7.888   1.837  1.00 20.00    -0.278 OA
HETATM    4 CL7  UNL     1     -32.066   5.336   1.308  1.00 20.00    -0.042 Cl
ENDBRANCH   1   2
BRANCH   1   5
HETATM    5  N5  UNL     1     -33.937   6.762   3.697  1.00 20.00     0.088 N 
HETATM    6  C2  UNL     1     -35.225   6.128   3.982  1.00 20.00     0.310 C 
HETATM    7  C3  UNL     1     -33.758   7.951   4.530  1.00 20.00     0.310 C 
ENDBRANCH   1   5
TORSDOF 2
ENDMDL
