MODEL 1
REMARK VINA RESULT:      -1.9      0.000      0.000
REMARK  3 active torsions:
REMARK  status: ('A' for Active; 'I' for Inactive)
REMARK    1  A    between atoms: C1_1  and  C4_4 
REMARK    2  A    between atoms: C2_2  and  C9_9 
REMARK    3  A    between atoms: C9_9  and  O10_10 
ROOT
HETATM    1  C3  UNL     1     -33.370   4.960   3.366  1.00 20.00    -0.011 C 
HETATM    2  C4  UNL     1     -33.729   6.222   3.113  1.00 20.00    -0.008 C 
HETATM    3  C5  UNL     1     -34.406   4.240   4.163  1.00 20.00     0.028 C 
HETATM    4  C6  UNL     1     -35.064   6.548   3.700  1.00 20.00     0.048 C 
HETATM    5  C7  UNL     1     -35.306   5.375   4.652  1.00 20.00     0.009 C 
ENDROOT
BRANCH   2   6
HETATM    6  C1  UNL     1     -32.945   7.131   2.364  1.00 20.00    -0.069 C 
HETATM    7  C2  UNL     1     -32.280   7.902   1.728  1.00 20.00    -0.075 C 
BRANCH   7   8
HETATM    8  C9  UNL     1     -31.469   8.840   0.952  1.00 20.00     0.261 C 
BRANCH   8   9
HETATM    9  O10 UNL     1     -32.260   9.426  -0.071  1.00 20.00    -0.384 OA
HETATM   10  C8  UNL     1     -32.757  10.700   0.318  1.00 20.00     0.202 C 
ENDBRANCH   8   9
ENDBRANCH   7   8
ENDBRANCH   2   6
TORSDOF 3
ENDMDL
MODEL 2
REMARK VINA RESULT:      -1.8      0.269      1.276
REMARK  3 active torsions:
REMARK  status: ('A' for Active; 'I' for Inactive)
REMARK    1  A    between atoms: C1_1  and  C4_4 
REMARK    2  A    between atoms: C2_2  and  C9_9 
REMARK    3  A    between atoms: C9_9  and  O10_10 
ROOT
HETATM    1  C3  UNL     1     -34.753   6.814   3.692  1.00 20.00    -0.011 C 
HETATM    2  C4  UNL     1     -33.625   6.427   3.087  1.00 20.00    -0.008 C 
HETATM    3  C5  UNL     1     -35.333   5.723   4.528  1.00 20.00     0.028 C 
HETATM    4  C6  UNL     1     -33.272   5.015   3.423  1.00 20.00     0.048 C 
HETATM    5  C7  UNL     1     -34.559   4.490   4.061  1.00 20.00     0.009 C 
ENDROOT
BRANCH   2   6
HETATM    6  C1  UNL     1     -32.854   7.264   2.246  1.00 20.00    -0.069 C 
HETATM    7  C2  UNL     1     -32.199   7.973   1.533  1.00 20.00    -0.075 C 
BRANCH   7   8
HETATM    8  C9  UNL     1     -31.402   8.838   0.663  1.00 20.00     0.261 C 
BRANCH   8   9
HETATM    9  O10 UNL     1     -32.261   9.593  -0.179  1.00 20.00    -0.384 OA
HETATM   10  C8  UNL     1     -32.811  10.712   0.505  1.00 20.00     0.202 C 
ENDBRANCH   8   9
ENDBRANCH   7   8
ENDBRANCH   2   6
TORSDOF 3
ENDMDL
MODEL 3
REMARK VINA RESULT:      -0.6      2.389      5.349
REMARK  3 active torsions:
REMARK  status: ('A' for Active; 'I' for Inactive)
REMARK    1  A    between atoms: C1_1  and  C4_4 
REMARK    2  A    between atoms: C2_2  and  C9_9 
REMARK    3  A    between atoms: C9_9  and  O10_10 
ROOT
HETATM    1  C3  UNL     1     -31.686   7.578   1.258  1.00 20.00    -0.011 C 
HETATM    2  C4  UNL     1     -32.762   8.071   1.879  1.00 20.00    -0.008 C 
HETATM    3  C5  UNL     1     -31.041   8.596   0.378  1.00 20.00     0.028 C 
HETATM    4  C6  UNL     1     -33.007   9.499   1.513  1.00 20.00     0.048 C 
HETATM    5  C7  UNL     1     -32.102   9.694   0.296  1.00 20.00     0.009 C 
ENDROOT
BRANCH   2   6
HETATM    6  C1  UNL     1     -33.558   7.333   2.786  1.00 20.00    -0.069 C 
HETATM    7  C2  UNL     1     -34.233   6.706   3.556  1.00 20.00    -0.075 C 
BRANCH   7   8
HETATM    8  C9  UNL     1     -35.055   5.943   4.495  1.00 20.00     0.261 C 
BRANCH   8   9
HETATM    9  O10 UNL     1     -35.066   4.574   4.120  1.00 20.00    -0.384 OA
HETATM   10  C8  UNL     1     -33.835   3.936   4.437  1.00 20.00     0.202 C 
ENDBRANCH   8   9
ENDBRANCH   7   8
ENDBRANCH   2   6
TORSDOF 3
ENDMDL
MODEL 4
REMARK VINA RESULT:      -0.1      2.548      5.570
REMARK  3 active torsions:
REMARK  status: ('A' for Active; 'I' for Inactive)
REMARK    1  A    between atoms: C1_1  and  C4_4 
REMARK    2  A    between atoms: C2_2  and  C9_9 
REMARK    3  A    between atoms: C9_9  and  O10_10 
ROOT
HETATM    1  C3  UNL     1     -33.205   8.850   1.825  1.00 20.00    -0.011 C 
HETATM    2  C4  UNL     1     -32.816   7.577   1.950  1.00 20.00    -0.008 C 
HETATM    3  C5  UNL     1     -32.356   9.594   0.849  1.00 20.00     0.028 C 
HETATM    4  C6  UNL     1     -31.644   7.267   1.076  1.00 20.00     0.048 C 
HETATM    5  C7  UNL     1     -31.164   8.657   0.654  1.00 20.00     0.009 C 
ENDROOT
BRANCH   2   6
HETATM    6  C1  UNL     1     -33.451   6.637   2.795  1.00 20.00    -0.069 C 
HETATM    7  C2  UNL     1     -33.990   5.839   3.512  1.00 20.00    -0.075 C 
BRANCH   7   8
HETATM    8  C9  UNL     1     -34.646   4.866   4.385  1.00 20.00     0.261 C 
BRANCH   8   9
HETATM    9  O10 UNL     1     -34.189   3.558   4.074  1.00 20.00    -0.384 OA
HETATM   10  C8  UNL     1     -33.102   3.173   4.906  1.00 20.00     0.202 C 
ENDBRANCH   8   9
ENDBRANCH   7   8
ENDBRANCH   2   6
TORSDOF 3
ENDMDL
MODEL 5
REMARK VINA RESULT:       0.4      2.395      5.130
REMARK  3 active torsions:
REMARK  status: ('A' for Active; 'I' for Inactive)
REMARK    1  A    between atoms: C1_1  and  C4_4 
REMARK    2  A    between atoms: C2_2  and  C9_9 
REMARK    3  A    between atoms: C9_9  and  O10_10 
ROOT
HETATM    1  C3  UNL     1     -31.560   7.564   0.736  1.00 20.00    -0.011 C 
HETATM    2  C4  UNL     1     -32.515   7.632   1.670  1.00 20.00    -0.008 C 
HETATM    3  C5  UNL     1     -31.255   8.907   0.161  1.00 20.00     0.028 C 
HETATM    4  C6  UNL     1     -32.998   9.032   1.869  1.00 20.00     0.048 C 
HETATM    5  C7  UNL     1     -32.424   9.760   0.653  1.00 20.00     0.009 C 
ENDROOT
BRANCH   2   6
HETATM    6  C1  UNL     1     -32.992   6.513   2.393  1.00 20.00    -0.069 C 
HETATM    7  C2  UNL     1     -33.397   5.564   3.007  1.00 20.00    -0.075 C 
BRANCH   7   8
HETATM    8  C9  UNL     1     -33.892   4.408   3.754  1.00 20.00     0.261 C 
BRANCH   8   9
HETATM    9  O10 UNL     1     -35.099   4.748   4.419  1.00 20.00    -0.384 OA
HETATM   10  C8  UNL     1     -35.470   6.099   4.171  1.00 20.00     0.202 C 
ENDBRANCH   8   9
ENDBRANCH   7   8
ENDBRANCH   2   6
TORSDOF 3
ENDMDL
MODEL 6
REMARK VINA RESULT:       0.8      2.436      5.274
REMARK  3 active torsions:
REMARK  status: ('A' for Active; 'I' for Inactive)
REMARK    1  A    between atoms: C1_1  and  C4_4 
REMARK    2  A    between atoms: C2_2  and  C9_9 
REMARK    3  A    between atoms: C9_9  and  O10_10 
ROOT
HETATM    1  C3  UNL     1     -33.054   8.725   1.787  1.00 20.00    -0.011 C 
HETATM    2  C4  UNL     1     -32.580   7.480   1.676  1.00 20.00    -0.008 C 
HETATM    3  C5  UNL     1     -32.381   9.659   0.838  1.00 20.00     0.028 C 
HETATM    4  C6  UNL     1     -31.515   7.384   0.632  1.00 20.00     0.048 C 
HETATM    5  C7  UNL     1     -31.173   8.851   0.365  1.00 20.00     0.009 C 
ENDROOT
BRANCH   2   6
HETATM    6  C1  UNL     1     -33.046   6.386   2.442  1.00 20.00    -0.069 C 
HETATM    7  C2  UNL     1     -33.442   5.458   3.092  1.00 20.00    -0.075 C 
BRANCH   7   8
HETATM    8  C9  UNL     1     -33.924   4.327   3.885  1.00 20.00     0.261 C 
BRANCH   8   9
HETATM    9  O10 UNL     1     -35.161   4.663   4.496  1.00 20.00    -0.384 OA
HETATM   10  C8  UNL     1     -35.517   6.017   4.246  1.00 20.00     0.202 C 
ENDBRANCH   8   9
ENDBRANCH   7   8
ENDBRANCH   2   6
TORSDOF 3
ENDMDL
