MODEL 1
REMARK VINA RESULT:      -1.1      0.000      0.000
REMARK  2 active torsions:
REMARK  status: ('A' for Active; 'I' for Inactive)
REMARK    1  A    between atoms: C2_2  and  C3_3 
REMARK    2  A    between atoms: C3_3  and  O11_11 
ROOT
HETATM    1  C1  UNL     1     -33.276   6.226   2.358  1.00 20.00    -0.074 C 
HETATM    2  C2  UNL     1     -32.114   6.670   1.860  1.00 20.00     0.085 C 
HETATM    3  C4  UNL     1     -33.619   4.760   2.425  1.00 20.00     0.034 C 
HETATM    4  C5  UNL     1     -34.325   7.154   2.913  1.00 20.00     0.034 C 
HETATM    5  C6  UNL     1     -34.014   4.361   3.848  1.00 20.00     0.004 C 
HETATM    6  C7  UNL     1     -34.717   6.742   4.333  1.00 20.00     0.004 C 
HETATM    7  C8  UNL     1     -35.112   5.267   4.410  1.00 20.00     0.001 C 
ENDROOT
BRANCH   2   8
HETATM    8  C3  UNL     1     -31.836   8.118   1.821  1.00 20.00     0.282 C 
HETATM    9  O10 UNL     1     -31.413   8.785   2.752  1.00 20.00    -0.260 OA
BRANCH   8  10
HETATM   10  O11 UNL     1     -32.136   8.558   0.569  1.00 20.00    -0.323 OA
HETATM   11  C9  UNL     1     -32.420   9.957   0.460  1.00 20.00     0.213 C 
ENDBRANCH   8  10
ENDBRANCH   2   8
TORSDOF 2
ENDMDL
MODEL 2
REMARK VINA RESULT:      -0.7      2.635      4.833
REMARK  2 active torsions:
REMARK  status: ('A' for Active; 'I' for Inactive)
REMARK    1  A    between atoms: C2_2  and  C3_3 
REMARK    2  A    between atoms: C3_3  and  O11_11 
ROOT
HETATM    1  C1  UNL     1     -33.701   6.782   2.957  1.00 20.00    -0.074 C 
HETATM    2  C2  UNL     1     -34.264   6.397   4.111  1.00 20.00     0.085 C 
HETATM    3  C4  UNL     1     -33.265   8.203   2.706  1.00 20.00     0.034 C 
HETATM    4  C5  UNL     1     -33.438   5.823   1.826  1.00 20.00     0.034 C 
HETATM    5  C6  UNL     1     -31.800   8.250   2.270  1.00 20.00     0.004 C 
HETATM    6  C7  UNL     1     -31.972   5.883   1.395  1.00 20.00     0.004 C 
HETATM    7  C8  UNL     1     -31.525   7.314   1.092  1.00 20.00     0.001 C 
ENDROOT
BRANCH   2   8
HETATM    8  C3  UNL     1     -34.671   4.992   4.297  1.00 20.00     0.282 C 
HETATM    9  O10 UNL     1     -35.752   4.616   4.721  1.00 20.00    -0.260 OA
BRANCH   8  10
HETATM   10  O11 UNL     1     -33.626   4.210   3.912  1.00 20.00    -0.323 OA
HETATM   11  C9  UNL     1     -33.376   3.067   4.737  1.00 20.00     0.213 C 
ENDBRANCH   8  10
ENDBRANCH   2   8
TORSDOF 2
ENDMDL
MODEL 3
REMARK VINA RESULT:      -0.4      1.339      2.332
REMARK  2 active torsions:
REMARK  status: ('A' for Active; 'I' for Inactive)
REMARK    1  A    between atoms: C2_2  and  C3_3 
REMARK    2  A    between atoms: C3_3  and  O11_11 
ROOT
HETATM    1  C1  UNL     1     -32.597   7.860   2.346  1.00 20.00    -0.074 C 
HETATM    2  C2  UNL     1     -32.438   9.012   1.679  1.00 20.00     0.085 C 
HETATM    3  C4  UNL     1     -33.212   7.799   3.720  1.00 20.00     0.034 C 
HETATM    4  C5  UNL     1     -32.195   6.529   1.766  1.00 20.00     0.034 C 
HETATM    5  C6  UNL     1     -34.377   6.809   3.749  1.00 20.00     0.004 C 
HETATM    6  C7  UNL     1     -33.366   5.545   1.806  1.00 20.00     0.004 C 
HETATM    7  C8  UNL     1     -33.973   5.437   3.205  1.00 20.00     0.001 C 
ENDROOT
BRANCH   2   8
HETATM    8  C3  UNL     1     -31.829   9.007   0.336  1.00 20.00     0.282 C 
HETATM    9  O10 UNL     1     -30.760   8.494   0.044  1.00 20.00    -0.260 OA
BRANCH   8  10
HETATM   10  O11 UNL     1     -32.674   9.671  -0.498  1.00 20.00    -0.323 OA
HETATM   11  C9  UNL     1     -33.179  10.914   0.001  1.00 20.00     0.213 C 
ENDBRANCH   8  10
ENDBRANCH   2   8
TORSDOF 2
ENDMDL
MODEL 4
REMARK VINA RESULT:       0.2      1.124      1.977
REMARK  2 active torsions:
REMARK  status: ('A' for Active; 'I' for Inactive)
REMARK    1  A    between atoms: C2_2  and  C3_3 
REMARK    2  A    between atoms: C3_3  and  O11_11 
ROOT
HETATM    1  C1  UNL     1     -33.455   6.935   3.250  1.00 20.00    -0.074 C 
HETATM    2  C2  UNL     1     -33.038   7.772   2.290  1.00 20.00     0.085 C 
HETATM    3  C4  UNL     1     -34.534   7.307   4.234  1.00 20.00     0.034 C 
HETATM    4  C5  UNL     1     -32.895   5.546   3.410  1.00 20.00     0.034 C 
HETATM    5  C6  UNL     1     -35.648   6.258   4.237  1.00 20.00     0.004 C 
HETATM    6  C7  UNL     1     -34.018   4.507   3.418  1.00 20.00     0.004 C 
HETATM    7  C8  UNL     1     -35.100   4.845   4.444  1.00 20.00     0.001 C 
ENDROOT
BRANCH   2   8
HETATM    8  C3  UNL     1     -31.977   7.351   1.357  1.00 20.00     0.282 C 
HETATM    9  O10 UNL     1     -31.661   6.196   1.116  1.00 20.00    -0.260 OA
BRANCH   8  10
HETATM   10  O11 UNL     1     -31.430   8.477   0.825  1.00 20.00    -0.323 OA
HETATM   11  C9  UNL     1     -32.360   9.509   0.478  1.00 20.00     0.213 C 
ENDBRANCH   8  10
ENDBRANCH   2   8
TORSDOF 2
ENDMDL
MODEL 5
REMARK VINA RESULT:       0.5      2.513      4.531
REMARK  2 active torsions:
REMARK  status: ('A' for Active; 'I' for Inactive)
REMARK    1  A    between atoms: C2_2  and  C3_3 
REMARK    2  A    between atoms: C3_3  and  O11_11 
ROOT
HETATM    1  C1  UNL     1     -32.978   6.222   2.548  1.00 20.00    -0.074 C 
HETATM    2  C2  UNL     1     -33.914   5.288   2.768  1.00 20.00     0.085 C 
HETATM    3  C4  UNL     1     -31.978   6.115   1.426  1.00 20.00     0.034 C 
HETATM    4  C5  UNL     1     -32.864   7.466   3.389  1.00 20.00     0.034 C 
HETATM    5  C6  UNL     1     -32.002   7.374   0.558  1.00 20.00     0.004 C 
HETATM    6  C7  UNL     1     -32.883   8.718   2.510  1.00 20.00     0.004 C 
HETATM    7  C8  UNL     1     -31.841   8.645   1.393  1.00 20.00     0.001 C 
ENDROOT
BRANCH   2   8
HETATM    8  C3  UNL     1     -34.865   5.449   3.883  1.00 20.00     0.282 C 
HETATM    9  O10 UNL     1     -35.543   6.441   4.100  1.00 20.00    -0.260 OA
BRANCH   8  10
HETATM   10  O11 UNL     1     -34.842   4.299   4.610  1.00 20.00    -0.323 OA
HETATM   11  C9  UNL     1     -33.672   3.490   4.443  1.00 20.00     0.213 C 
ENDBRANCH   8  10
ENDBRANCH   2   8
TORSDOF 2
ENDMDL
MODEL 6
REMARK VINA RESULT:       0.9      1.990      4.575
REMARK  2 active torsions:
REMARK  status: ('A' for Active; 'I' for Inactive)
REMARK    1  A    between atoms: C2_2  and  C3_3 
REMARK    2  A    between atoms: C3_3  and  O11_11 
ROOT
HETATM    1  C1  UNL     1     -32.327   8.189   1.835  1.00 20.00    -0.074 C 
HETATM    2  C2  UNL     1     -32.869   7.214   2.580  1.00 20.00     0.085 C 
HETATM    3  C4  UNL     1     -31.607   7.910   0.541  1.00 20.00     0.034 C 
HETATM    4  C5  UNL     1     -32.414   9.643   2.219  1.00 20.00     0.034 C 
HETATM    5  C6  UNL     1     -32.194   8.749  -0.595  1.00 20.00     0.004 C 
HETATM    6  C7  UNL     1     -32.995  10.472   1.073  1.00 20.00     0.004 C 
HETATM    7  C8  UNL     1     -32.246  10.235  -0.239  1.00 20.00     0.001 C 
ENDROOT
BRANCH   2   8
HETATM    8  C3  UNL     1     -33.561   7.550   3.838  1.00 20.00     0.282 C 
HETATM    9  O10 UNL     1     -33.039   8.041   4.827  1.00 20.00    -0.260 OA
BRANCH   8  10
HETATM   10  O11 UNL     1     -34.871   7.213   3.686  1.00 20.00    -0.323 OA
HETATM   11  C9  UNL     1     -35.224   5.901   4.136  1.00 20.00     0.213 C 
ENDBRANCH   8  10
ENDBRANCH   2   8
TORSDOF 2
ENDMDL
MODEL 7
REMARK VINA RESULT:       1.0      3.169      5.127
REMARK  2 active torsions:
REMARK  status: ('A' for Active; 'I' for Inactive)
REMARK    1  A    between atoms: C2_2  and  C3_3 
REMARK    2  A    between atoms: C3_3  and  O11_11 
ROOT
HETATM    1  C1  UNL     1     -34.179   5.164   3.765  1.00 20.00    -0.074 C 
HETATM    2  C2  UNL     1     -34.189   4.234   4.731  1.00 20.00     0.085 C 
HETATM    3  C4  UNL     1     -34.964   6.446   3.870  1.00 20.00     0.034 C 
HETATM    4  C5  UNL     1     -33.364   5.014   2.507  1.00 20.00     0.034 C 
HETATM    5  C6  UNL     1     -34.055   7.657   3.651  1.00 20.00     0.004 C 
HETATM    6  C7  UNL     1     -32.464   6.232   2.296  1.00 20.00     0.004 C 
HETATM    7  C8  UNL     1     -33.253   7.541   2.353  1.00 20.00     0.001 C 
ENDROOT
BRANCH   2   8
HETATM    8  C3  UNL     1     -33.400   2.999   4.570  1.00 20.00     0.282 C 
HETATM    9  O10 UNL     1     -33.763   1.997   3.975  1.00 20.00    -0.260 OA
BRANCH   8  10
HETATM   10  O11 UNL     1     -32.210   3.190   5.202  1.00 20.00    -0.323 OA
HETATM   11  C9  UNL     1     -32.288   3.360   6.621  1.00 20.00     0.213 C 
ENDBRANCH   8  10
ENDBRANCH   2   8
TORSDOF 2
ENDMDL
MODEL 8
REMARK VINA RESULT:       1.1      2.696      4.669
REMARK  2 active torsions:
REMARK  status: ('A' for Active; 'I' for Inactive)
REMARK    1  A    between atoms: C2_2  and  C3_3 
REMARK    2  A    between atoms: C3_3  and  O11_11 
ROOT
HETATM    1  C1  UNL     1     -33.658   7.432   3.241  1.00 20.00    -0.074 C 
HETATM    2  C2  UNL     1     -34.409   7.001   4.264  1.00 20.00     0.085 C 
HETATM    3  C4  UNL     1     -32.619   8.512   3.400  1.00 20.00     0.034 C 
HETATM    4  C5  UNL     1     -33.775   6.858   1.853  1.00 20.00     0.034 C 
HETATM    5  C6  UNL     1     -31.261   8.037   2.881  1.00 20.00     0.004 C 
HETATM    6  C7  UNL     1     -32.411   6.392   1.343  1.00 20.00     0.004 C 
HETATM    7  C8  UNL     1     -31.355   7.492   1.455  1.00 20.00     0.001 C 
ENDROOT
BRANCH   2   8
HETATM    8  C3  UNL     1     -35.410   5.940   4.045  1.00 20.00     0.282 C 
HETATM    9  O10 UNL     1     -36.432   6.055   3.388  1.00 20.00    -0.260 OA
BRANCH   8  10
HETATM   10  O11 UNL     1     -34.981   4.831   4.706  1.00 20.00    -0.323 OA
HETATM   11  C9  UNL     1     -33.974   4.067   4.035  1.00 20.00     0.213 C 
ENDBRANCH   8  10
ENDBRANCH   2   8
TORSDOF 2
ENDMDL
MODEL 9
REMARK VINA RESULT:       1.1      1.964      4.629
REMARK  2 active torsions:
REMARK  status: ('A' for Active; 'I' for Inactive)
REMARK    1  A    between atoms: C2_2  and  C3_3 
REMARK    2  A    between atoms: C3_3  and  O11_11 
ROOT
HETATM    1  C1  UNL     1     -32.307   7.576   1.553  1.00 20.00    -0.074 C 
HETATM    2  C2  UNL     1     -32.781   6.342   1.780  1.00 20.00     0.085 C 
HETATM    3  C4  UNL     1     -31.492   7.916   0.332  1.00 20.00     0.034 C 
HETATM    4  C5  UNL     1     -32.568   8.727   2.488  1.00 20.00     0.034 C 
HETATM    5  C6  UNL     1     -32.102   9.105  -0.411  1.00 20.00     0.004 C 
HETATM    6  C7  UNL     1     -33.172   9.912   1.733  1.00 20.00     0.004 C 
HETATM    7  C8  UNL     1     -32.332  10.300   0.516  1.00 20.00     0.001 C 
ENDROOT
BRANCH   2   8
HETATM    8  C3  UNL     1     -33.573   6.071   2.994  1.00 20.00     0.282 C 
HETATM    9  O10 UNL     1     -34.262   6.885   3.589  1.00 20.00    -0.260 OA
BRANCH   8  10
HETATM   10  O11 UNL     1     -33.389   4.762   3.317  1.00 20.00    -0.323 OA
HETATM   11  C9  UNL     1     -34.254   4.254   4.338  1.00 20.00     0.213 C 
ENDBRANCH   8  10
ENDBRANCH   2   8
TORSDOF 2
ENDMDL
