MODEL 1
REMARK VINA RESULT:      -1.5      0.000      0.000
REMARK  0 active torsions:
REMARK  status: ('A' for Active; 'I' for Inactive)
ROOT
HETATM    1  C1  UNL     1     -32.713  10.764   0.520  1.00 20.00     0.015 C 
HETATM    2  C2  UNL     1     -32.457   9.593   0.578  1.00 20.00    -0.082 C 
HETATM    3  C3  UNL     1     -34.246   6.133   3.590  1.00 20.00     0.000 C 
HETATM    4  C4  UNL     1     -34.084   7.656   3.593  1.00 20.00     0.003 C 
HETATM    5  C5  UNL     1     -33.794   5.520   2.261  1.00 20.00     0.003 C 
HETATM    6  C6  UNL     1     -32.651   8.065   3.250  1.00 20.00     0.042 C 
HETATM    7  C7  UNL     1     -32.363   5.929   1.914  1.00 20.00     0.042 C 
HETATM    8  C8  UNL     1     -32.151   8.199   0.647  1.00 20.00     0.235 A 
HETATM    9  C9  UNL     1     -32.235   7.427   1.952  1.00 20.00     0.099 A 
HETATM   10  O10 UNL     1     -30.989   7.915   1.441  1.00 20.00    -0.356 OA
ENDROOT
TORSDOF 0
ENDMDL
MODEL 2
REMARK VINA RESULT:       1.3      1.567      4.038
REMARK  0 active torsions:
REMARK  status: ('A' for Active; 'I' for Inactive)
ROOT
HETATM    1  C1  UNL     1     -35.601   5.571   4.206  1.00 20.00     0.015 C 
HETATM    2  C2  UNL     1     -34.933   6.554   4.038  1.00 20.00    -0.082 C 
HETATM    3  C3  UNL     1     -31.816   7.649   0.388  1.00 20.00     0.000 C 
HETATM    4  C4  UNL     1     -32.408   6.388   1.024  1.00 20.00     0.003 C 
HETATM    5  C5  UNL     1     -32.403   8.922   1.003  1.00 20.00     0.003 C 
HETATM    6  C6  UNL     1     -32.240   6.399   2.544  1.00 20.00     0.042 C 
HETATM    7  C7  UNL     1     -32.239   8.935   2.523  1.00 20.00     0.042 C 
HETATM    8  C8  UNL     1     -34.139   7.725   3.839  1.00 20.00     0.235 A 
HETATM    9  C9  UNL     1     -32.808   7.672   3.110  1.00 20.00     0.099 A 
HETATM   10  O10 UNL     1     -32.888   7.683   4.541  1.00 20.00    -0.356 OA
ENDROOT
TORSDOF 0
ENDMDL
MODEL 3
REMARK VINA RESULT:       1.4      2.069      4.334
REMARK  0 active torsions:
REMARK  status: ('A' for Active; 'I' for Inactive)
ROOT
HETATM    1  C1  UNL     1     -33.468   3.032   4.777  1.00 20.00     0.015 C 
HETATM    2  C2  UNL     1     -33.110   3.739   3.875  1.00 20.00    -0.082 C 
HETATM    3  C3  UNL     1     -33.209   8.647   3.504  1.00 20.00     0.000 C 
HETATM    4  C4  UNL     1     -33.948   7.562   4.292  1.00 20.00     0.003 C 
HETATM    5  C5  UNL     1     -32.084   8.058   2.649  1.00 20.00     0.003 C 
HETATM    6  C6  UNL     1     -34.470   6.460   3.369  1.00 20.00     0.042 C 
HETATM    7  C7  UNL     1     -32.602   6.955   1.726  1.00 20.00     0.042 C 
HETATM    8  C8  UNL     1     -32.686   4.580   2.801  1.00 20.00     0.235 A 
HETATM    9  C9  UNL     1     -33.343   5.922   2.530  1.00 20.00     0.099 A 
HETATM   10  O10 UNL     1     -33.687   4.746   1.786  1.00 20.00    -0.356 OA
ENDROOT
TORSDOF 0
ENDMDL
