MODEL 1
REMARK VINA RESULT:      -1.2      0.000      0.000
REMARK  1 active torsions:
REMARK  status: ('A' for Active; 'I' for Inactive)
REMARK    1  A    between atoms: C7_7  and  C8_8 
ROOT
HETATM    1  C1  UNL     1     -32.389   8.986   0.964  1.00 20.00     0.066 C 
HETATM    2  C4  UNL     1     -31.199   7.041   1.902  1.00 20.00     0.048 C 
HETATM    3  C5  UNL     1     -31.878   5.955   1.094  1.00 20.00     0.169 C 
HETATM    4  C6  UNL     1     -32.307   8.055   2.105  1.00 20.00     0.124 C 
HETATM    5  C8  UNL     1     -33.556   7.172   2.184  1.00 20.00     0.143 C 
HETATM    6  N9  UNL     1     -32.454   9.719   0.067  1.00 20.00    -0.197 NA
HETATM    7  O10 UNL     1     -33.252   5.942   1.499  1.00 20.00    -0.384 OA
ENDROOT
BRANCH   5   8
HETATM    8  C7  UNL     1     -33.941   6.848   3.599  1.00 20.00     0.016 A 
HETATM    9  C2  UNL     1     -35.374   6.548   3.945  1.00 20.00     0.007 A 
HETATM   10  C3  UNL     1     -34.348   5.449   3.972  1.00 20.00     0.007 A 
ENDBRANCH   5   8
TORSDOF 1
ENDMDL
MODEL 2
REMARK VINA RESULT:      -0.2      2.197      3.924
REMARK  1 active torsions:
REMARK  status: ('A' for Active; 'I' for Inactive)
REMARK    1  A    between atoms: C7_7  and  C8_8 
ROOT
HETATM    1  C1  UNL     1     -33.595   7.638   3.776  1.00 20.00     0.066 C 
HETATM    2  C4  UNL     1     -33.306   6.172   1.814  1.00 20.00     0.048 C 
HETATM    3  C5  UNL     1     -31.795   6.082   1.825  1.00 20.00     0.169 C 
HETATM    4  C6  UNL     1     -33.565   7.583   2.303  1.00 20.00     0.124 C 
HETATM    5  C8  UNL     1     -32.363   8.352   1.748  1.00 20.00     0.143 C 
HETATM    6  N9  UNL     1     -33.618   7.681   4.935  1.00 20.00    -0.197 NA
HETATM    7  O10 UNL     1     -31.305   7.397   1.540  1.00 20.00    -0.384 OA
ENDROOT
BRANCH   5   8
HETATM    8  C7  UNL     1     -32.664   9.023   0.438  1.00 20.00     0.016 A 
HETATM    9  C2  UNL     1     -32.635  10.523   0.330  1.00 20.00     0.007 A 
HETATM   10  C3  UNL     1     -31.567   9.699  -0.336  1.00 20.00     0.007 A 
ENDBRANCH   5   8
TORSDOF 1
ENDMDL
MODEL 3
REMARK VINA RESULT:       0.0      2.388      3.876
REMARK  1 active torsions:
REMARK  status: ('A' for Active; 'I' for Inactive)
REMARK    1  A    between atoms: C7_7  and  C8_8 
ROOT
HETATM    1  C1  UNL     1     -33.679   7.852   4.739  1.00 20.00     0.066 C 
HETATM    2  C4  UNL     1     -35.496   6.466   3.810  1.00 20.00     0.048 C 
HETATM    3  C5  UNL     1     -35.071   5.131   4.382  1.00 20.00     0.169 C 
HETATM    4  C6  UNL     1     -34.173   7.155   3.537  1.00 20.00     0.124 C 
HETATM    5  C8  UNL     1     -33.259   5.983   3.167  1.00 20.00     0.143 C 
HETATM    6  N9  UNL     1     -33.291   8.400   5.685  1.00 20.00    -0.197 NA
HETATM    7  O10 UNL     1     -33.823   4.798   3.762  1.00 20.00    -0.384 OA
ENDROOT
BRANCH   5   8
HETATM    8  C7  UNL     1     -33.166   5.773   1.682  1.00 20.00     0.016 A 
HETATM    9  C2  UNL     1     -32.091   6.460   0.886  1.00 20.00     0.007 A 
HETATM   10  C3  UNL     1     -32.034   4.973   1.101  1.00 20.00     0.007 A 
ENDBRANCH   5   8
TORSDOF 1
ENDMDL
MODEL 4
REMARK VINA RESULT:       0.8      2.121      2.651
REMARK  1 active torsions:
REMARK  status: ('A' for Active; 'I' for Inactive)
REMARK    1  A    between atoms: C7_7  and  C8_8 
ROOT
HETATM    1  C1  UNL     1     -32.011   5.414   1.078  1.00 20.00     0.066 C 
HETATM    2  C4  UNL     1     -32.568   7.771   0.609  1.00 20.00     0.048 C 
HETATM    3  C5  UNL     1     -31.574   8.424   1.545  1.00 20.00     0.169 C 
HETATM    4  C6  UNL     1     -32.958   6.511   1.355  1.00 20.00     0.124 C 
HETATM    5  C8  UNL     1     -32.875   6.952   2.819  1.00 20.00     0.143 C 
HETATM    6  N9  UNL     1     -31.267   4.552   0.861  1.00 20.00    -0.197 NA
HETATM    7  O10 UNL     1     -31.973   8.073   2.875  1.00 20.00    -0.384 OA
ENDROOT
BRANCH   5   8
HETATM    8  C7  UNL     1     -34.206   7.383   3.366  1.00 20.00     0.016 A 
HETATM    9  C2  UNL     1     -35.057   6.415   4.141  1.00 20.00     0.007 A 
HETATM   10  C3  UNL     1     -34.393   7.566   4.847  1.00 20.00     0.007 A 
ENDBRANCH   5   8
TORSDOF 1
ENDMDL
