MODEL 1
REMARK VINA RESULT:      -1.4      0.000      0.000
REMARK  3 active torsions:
REMARK  status: ('A' for Active; 'I' for Inactive)
REMARK    1  A    between atoms: C2_2  and  C8_8 
REMARK    2  A    between atoms: C6_6  and  C7_7 
REMARK    3  A    between atoms: C6_6  and  C8_8 
ROOT
HETATM    1  C1  UNL     1     -34.421   4.965   4.178  1.00 20.00     0.063 C 
HETATM    2  C4  UNL     1     -35.842   6.679   3.143  1.00 20.00     0.025 C 
HETATM    3  C7  UNL     1     -34.693   6.414   4.119  1.00 20.00     0.089 C 
HETATM    4  N9  UNL     1     -34.208   3.826   4.227  1.00 20.00    -0.197 NA
ENDROOT
BRANCH   3   5
HETATM    5  C6  UNL     1     -33.440   7.202   3.688  1.00 20.00     0.030 C 
BRANCH   5   6
HETATM    6  C8  UNL     1     -33.212   7.237   2.165  1.00 20.00     0.052 C 
HETATM    7  C5  UNL     1     -32.756   5.871   1.656  1.00 20.00     0.018 C 
BRANCH   6   8
HETATM    8  C2  UNL     1     -32.159   8.270   1.774  1.00 20.00     0.127 C 
HETATM    9  C3  UNL     1     -32.497   9.180   0.622  1.00 20.00     0.091 C 
HETATM   10  O10 UNL     1     -31.069   8.345   2.343  1.00 20.00    -0.298 OA
ENDBRANCH   6   8
ENDBRANCH   5   6
ENDBRANCH   3   5
TORSDOF 3
ENDMDL
MODEL 2
REMARK VINA RESULT:      -1.4      1.761      1.980
REMARK  3 active torsions:
REMARK  status: ('A' for Active; 'I' for Inactive)
REMARK    1  A    between atoms: C2_2  and  C8_8 
REMARK    2  A    between atoms: C6_6  and  C7_7 
REMARK    3  A    between atoms: C6_6  and  C8_8 
ROOT
HETATM    1  C1  UNL     1     -33.885   7.759   4.537  1.00 20.00     0.063 C 
HETATM    2  C4  UNL     1     -35.497   5.945   4.163  1.00 20.00     0.025 C 
HETATM    3  C7  UNL     1     -34.440   6.845   3.519  1.00 20.00     0.089 C 
HETATM    4  N9  UNL     1     -33.451   8.479   5.336  1.00 20.00    -0.197 NA
ENDROOT
BRANCH   3   5
HETATM    5  C6  UNL     1     -33.334   5.985   2.876  1.00 20.00     0.030 C 
BRANCH   5   6
HETATM    6  C8  UNL     1     -32.829   6.518   1.521  1.00 20.00     0.052 C 
HETATM    7  C5  UNL     1     -31.897   5.508   0.858  1.00 20.00     0.018 C 
BRANCH   6   8
HETATM    8  C2  UNL     1     -32.077   7.836   1.678  1.00 20.00     0.127 C 
HETATM    9  C3  UNL     1     -32.410   8.927   0.693  1.00 20.00     0.091 C 
HETATM   10  O10 UNL     1     -31.213   8.001   2.540  1.00 20.00    -0.298 OA
ENDBRANCH   6   8
ENDBRANCH   5   6
ENDBRANCH   3   5
TORSDOF 3
ENDMDL
MODEL 3
REMARK VINA RESULT:      -1.3      3.039      4.653
REMARK  3 active torsions:
REMARK  status: ('A' for Active; 'I' for Inactive)
REMARK    1  A    between atoms: C2_2  and  C8_8 
REMARK    2  A    between atoms: C6_6  and  C7_7 
REMARK    3  A    between atoms: C6_6  and  C8_8 
ROOT
HETATM    1  C1  UNL     1     -32.350   8.338   1.347  1.00 20.00     0.063 C 
HETATM    2  C4  UNL     1     -31.569   6.016   1.509  1.00 20.00     0.025 C 
HETATM    3  C7  UNL     1     -32.477   7.086   2.118  1.00 20.00     0.089 C 
HETATM    4  N9  UNL     1     -32.248   9.322   0.743  1.00 20.00    -0.197 NA
ENDROOT
BRANCH   3   5
HETATM    5  C6  UNL     1     -33.937   6.589   2.143  1.00 20.00     0.030 C 
BRANCH   5   6
HETATM    6  C8  UNL     1     -34.606   6.671   3.528  1.00 20.00     0.052 C 
HETATM    7  C5  UNL     1     -33.771   7.522   4.482  1.00 20.00     0.018 C 
BRANCH   6   8
HETATM    8  C2  UNL     1     -34.787   5.290   4.151  1.00 20.00     0.127 C 
HETATM    9  C3  UNL     1     -33.715   4.272   3.864  1.00 20.00     0.091 C 
HETATM   10  O10 UNL     1     -35.774   4.998   4.827  1.00 20.00    -0.298 OA
ENDBRANCH   6   8
ENDBRANCH   5   6
ENDBRANCH   3   5
TORSDOF 3
ENDMDL
MODEL 4
REMARK VINA RESULT:      -1.2      2.879      4.356
REMARK  3 active torsions:
REMARK  status: ('A' for Active; 'I' for Inactive)
REMARK    1  A    between atoms: C2_2  and  C8_8 
REMARK    2  A    between atoms: C6_6  and  C7_7 
REMARK    3  A    between atoms: C6_6  and  C8_8 
ROOT
HETATM    1  C1  UNL     1     -32.530   8.055   2.522  1.00 20.00     0.063 C 
HETATM    2  C4  UNL     1     -33.025   8.181   4.923  1.00 20.00     0.025 C 
HETATM    3  C7  UNL     1     -33.616   8.022   3.520  1.00 20.00     0.089 C 
HETATM    4  N9  UNL     1     -31.677   8.084   1.736  1.00 20.00    -0.197 NA
ENDROOT
BRANCH   3   5
HETATM    5  C6  UNL     1     -34.419   6.708   3.431  1.00 20.00     0.030 C 
BRANCH   5   6
HETATM    6  C8  UNL     1     -33.549   5.437   3.443  1.00 20.00     0.052 C 
HETATM    7  C5  UNL     1     -33.332   4.919   2.024  1.00 20.00     0.018 C 
BRANCH   6   8
HETATM    8  C2  UNL     1     -34.188   4.323   4.268  1.00 20.00     0.127 C 
HETATM    9  C3  UNL     1     -33.368   3.076   4.473  1.00 20.00     0.091 C 
HETATM   10  O10 UNL     1     -35.330   4.413   4.721  1.00 20.00    -0.298 OA
ENDBRANCH   6   8
ENDBRANCH   5   6
ENDBRANCH   3   5
TORSDOF 3
ENDMDL
MODEL 5
REMARK VINA RESULT:      -1.1      3.044      4.574
REMARK  3 active torsions:
REMARK  status: ('A' for Active; 'I' for Inactive)
REMARK    1  A    between atoms: C2_2  and  C8_8 
REMARK    2  A    between atoms: C6_6  and  C7_7 
REMARK    3  A    between atoms: C6_6  and  C8_8 
ROOT
HETATM    1  C1  UNL     1     -32.460   9.348   0.651  1.00 20.00     0.063 C 
HETATM    2  C4  UNL     1     -30.966   7.679   1.656  1.00 20.00     0.025 C 
HETATM    3  C7  UNL     1     -32.210   8.545   1.864  1.00 20.00     0.089 C 
HETATM    4  N9  UNL     1     -32.655   9.981  -0.301  1.00 20.00    -0.197 NA
ENDROOT
BRANCH   3   5
HETATM    5  C6  UNL     1     -33.422   7.655   2.206  1.00 20.00     0.030 C 
BRANCH   5   6
HETATM    6  C8  UNL     1     -33.068   6.175   2.449  1.00 20.00     0.052 C 
HETATM    7  C5  UNL     1     -33.112   5.389   1.141  1.00 20.00     0.018 C 
BRANCH   6   8
HETATM    8  C2  UNL     1     -34.029   5.519   3.436  1.00 20.00     0.127 C 
HETATM    9  C3  UNL     1     -35.152   6.376   3.960  1.00 20.00     0.091 C 
HETATM   10  O10 UNL     1     -33.884   4.358   3.820  1.00 20.00    -0.298 OA
ENDBRANCH   6   8
ENDBRANCH   5   6
ENDBRANCH   3   5
TORSDOF 3
ENDMDL
MODEL 6
REMARK VINA RESULT:      -1.1      2.817      4.278
REMARK  3 active torsions:
REMARK  status: ('A' for Active; 'I' for Inactive)
REMARK    1  A    between atoms: C2_2  and  C8_8 
REMARK    2  A    between atoms: C6_6  and  C7_7 
REMARK    3  A    between atoms: C6_6  and  C8_8 
ROOT
HETATM    1  C1  UNL     1     -31.920   7.280   1.425  1.00 20.00     0.063 C 
HETATM    2  C4  UNL     1     -31.474   5.072   0.447  1.00 20.00     0.025 C 
HETATM    3  C7  UNL     1     -31.941   5.829   1.693  1.00 20.00     0.089 C 
HETATM    4  N9  UNL     1     -31.902   8.420   1.215  1.00 20.00    -0.197 NA
ENDROOT
BRANCH   3   5
HETATM    5  C6  UNL     1     -33.350   5.354   2.102  1.00 20.00     0.030 C 
BRANCH   5   6
HETATM    6  C8  UNL     1     -33.612   5.397   3.620  1.00 20.00     0.052 C 
HETATM    7  C5  UNL     1     -34.092   4.038   4.123  1.00 20.00     0.018 C 
BRANCH   6   8
HETATM    8  C2  UNL     1     -34.663   6.442   3.982  1.00 20.00     0.127 C 
HETATM    9  C3  UNL     1     -34.172   7.848   4.208  1.00 20.00     0.091 C 
HETATM   10  O10 UNL     1     -35.853   6.156   4.121  1.00 20.00    -0.298 OA
ENDBRANCH   6   8
ENDBRANCH   5   6
ENDBRANCH   3   5
TORSDOF 3
ENDMDL
MODEL 7
REMARK VINA RESULT:      -0.9      2.933      4.750
REMARK  3 active torsions:
REMARK  status: ('A' for Active; 'I' for Inactive)
REMARK    1  A    between atoms: C2_2  and  C8_8 
REMARK    2  A    between atoms: C6_6  and  C7_7 
REMARK    3  A    between atoms: C6_6  and  C8_8 
ROOT
HETATM    1  C1  UNL     1     -32.505   9.191   0.717  1.00 20.00     0.063 C 
HETATM    2  C4  UNL     1     -30.788   7.948   1.955  1.00 20.00     0.025 C 
HETATM    3  C7  UNL     1     -32.265   8.346   1.903  1.00 20.00     0.089 C 
HETATM    4  N9  UNL     1     -32.694   9.857  -0.214  1.00 20.00    -0.197 NA
ENDROOT
BRANCH   3   5
HETATM    5  C6  UNL     1     -33.152   7.084   1.881  1.00 20.00     0.030 C 
BRANCH   5   6
HETATM    6  C8  UNL     1     -34.166   7.008   3.037  1.00 20.00     0.052 C 
HETATM    7  C5  UNL     1     -33.749   7.927   4.183  1.00 20.00     0.018 C 
BRANCH   6   8
HETATM    8  C2  UNL     1     -34.296   5.589   3.583  1.00 20.00     0.127 C 
HETATM    9  C3  UNL     1     -35.425   5.334   4.547  1.00 20.00     0.091 C 
HETATM   10  O10 UNL     1     -33.502   4.696   3.285  1.00 20.00    -0.298 OA
ENDBRANCH   6   8
ENDBRANCH   5   6
ENDBRANCH   3   5
TORSDOF 3
ENDMDL
MODEL 8
REMARK VINA RESULT:      -0.7      2.341      4.104
REMARK  3 active torsions:
REMARK  status: ('A' for Active; 'I' for Inactive)
REMARK    1  A    between atoms: C2_2  and  C8_8 
REMARK    2  A    between atoms: C6_6  and  C7_7 
REMARK    3  A    between atoms: C6_6  and  C8_8 
ROOT
HETATM    1  C1  UNL     1     -32.315   5.930   1.224  1.00 20.00     0.063 C 
HETATM    2  C4  UNL     1     -31.808   8.327   1.067  1.00 20.00     0.025 C 
HETATM    3  C7  UNL     1     -32.730   7.271   1.680  1.00 20.00     0.089 C 
HETATM    4  N9  UNL     1     -31.991   4.876   0.863  1.00 20.00    -0.197 NA
ENDROOT
BRANCH   3   5
HETATM    5  C6  UNL     1     -32.701   7.372   3.219  1.00 20.00     0.030 C 
BRANCH   5   6
HETATM    6  C8  UNL     1     -34.078   7.634   3.859  1.00 20.00     0.052 C 
HETATM    7  C5  UNL     1     -33.923   8.070   5.313  1.00 20.00     0.018 C 
BRANCH   6   8
HETATM    8  C2  UNL     1     -34.963   6.391   3.821  1.00 20.00     0.127 C 
HETATM    9  C3  UNL     1     -34.307   5.081   4.173  1.00 20.00     0.091 C 
HETATM   10  O10 UNL     1     -36.148   6.439   3.488  1.00 20.00    -0.298 OA
ENDBRANCH   6   8
ENDBRANCH   5   6
ENDBRANCH   3   5
TORSDOF 3
ENDMDL
MODEL 9
REMARK VINA RESULT:      -0.7      1.689      2.477
REMARK  3 active torsions:
REMARK  status: ('A' for Active; 'I' for Inactive)
REMARK    1  A    between atoms: C2_2  and  C8_8 
REMARK    2  A    between atoms: C6_6  and  C7_7 
REMARK    3  A    between atoms: C6_6  and  C8_8 
ROOT
HETATM    1  C1  UNL     1     -34.835   4.604   4.344  1.00 20.00     0.063 C 
HETATM    2  C4  UNL     1     -33.093   2.978   4.935  1.00 20.00     0.025 C 
HETATM    3  C7  UNL     1     -33.713   3.808   3.809  1.00 20.00     0.089 C 
HETATM    4  N9  UNL     1     -35.718   5.228   4.763  1.00 20.00    -0.197 NA
ENDROOT
BRANCH   3   5
HETATM    5  C6  UNL     1     -32.641   4.711   3.166  1.00 20.00     0.030 C 
BRANCH   5   6
HETATM    6  C8  UNL     1     -33.199   5.715   2.139  1.00 20.00     0.052 C 
HETATM    7  C5  UNL     1     -32.537   5.517   0.777  1.00 20.00     0.018 C 
BRANCH   6   8
HETATM    8  C2  UNL     1     -32.971   7.158   2.579  1.00 20.00     0.127 C 
HETATM    9  C3  UNL     1     -31.960   7.954   1.794  1.00 20.00     0.091 C 
HETATM   10  O10 UNL     1     -33.552   7.650   3.547  1.00 20.00    -0.298 OA
ENDBRANCH   6   8
ENDBRANCH   5   6
ENDBRANCH   3   5
TORSDOF 3
ENDMDL
