MODEL 1
REMARK VINA RESULT:      -2.0      0.000      0.000
REMARK  4 active torsions:
REMARK  status: ('A' for Active; 'I' for Inactive)
REMARK    1  A    between atoms: C2_2  and  C6_6 
REMARK    2  A    between atoms: C3_3  and  C7_7 
REMARK    3  A    between atoms: C3_3  and  O9_9 
REMARK    4  A    between atoms: C6_6  and  C8_8 
ROOT
HETATM    1  C1  UNL     1     -33.142   6.583   1.537  1.00 20.00     0.045 A 
HETATM    2  C2  UNL     1     -32.933   6.974   2.976  1.00 20.00     0.023 A 
HETATM    3  C3  UNL     1     -32.324   7.805   1.868  1.00 20.00     0.062 A 
ENDROOT
BRANCH   3   4
HETATM    4  C7  UNL     1     -32.835   9.163   1.517  1.00 20.00     0.034 C 
HETATM    5  C4  UNL     1     -32.338   9.650   0.180  1.00 20.00     0.008 C 
ENDBRANCH   3   4
BRANCH   3   6
HETATM    6  O9  UNL     1     -30.901   7.669   1.705  1.00 20.00    -0.389 OA
HETATM    7  H25 UNL     1     -30.509   8.403   2.196  1.00 20.00     0.210 HD
ENDBRANCH   3   6
BRANCH   2   8
HETATM    8  C6  UNL     1     -34.079   7.457   3.799  1.00 20.00     0.007 C 
BRANCH   8   9
HETATM    9  C8  UNL     1     -35.260   6.470   3.800  1.00 20.00    -0.004 C 
HETATM   10  C5  UNL     1     -34.881   5.107   4.354  1.00 20.00     0.005 C 
ENDBRANCH   8   9
ENDBRANCH   2   8
TORSDOF 4
ENDMDL
MODEL 2
REMARK VINA RESULT:      -1.9      2.510      4.523
REMARK  4 active torsions:
REMARK  status: ('A' for Active; 'I' for Inactive)
REMARK    1  A    between atoms: C2_2  and  C6_6 
REMARK    2  A    between atoms: C3_3  and  C7_7 
REMARK    3  A    between atoms: C3_3  and  O9_9 
REMARK    4  A    between atoms: C6_6  and  C8_8 
ROOT
HETATM    1  C1  UNL     1     -35.419   6.610   3.145  1.00 20.00     0.045 A 
HETATM    2  C2  UNL     1     -34.527   7.023   4.286  1.00 20.00     0.023 A 
HETATM    3  C3  UNL     1     -34.811   5.558   4.038  1.00 20.00     0.062 A 
ENDROOT
BRANCH   3   4
HETATM    4  C7  UNL     1     -33.778   4.625   3.498  1.00 20.00     0.034 C 
HETATM    5  C4  UNL     1     -33.584   3.403   4.358  1.00 20.00     0.008 C 
ENDBRANCH   3   4
BRANCH   3   6
HETATM    6  O9  UNL     1     -35.710   4.936   4.975  1.00 20.00    -0.389 OA
HETATM    7  H25 UNL     1     -36.308   4.394   4.445  1.00 20.00     0.210 HD
ENDBRANCH   3   6
BRANCH   2   8
HETATM    8  C6  UNL     1     -33.195   7.634   4.016  1.00 20.00     0.007 C 
BRANCH   8   9
HETATM    9  C8  UNL     1     -33.068   8.157   2.574  1.00 20.00    -0.004 C 
HETATM   10  C5  UNL     1     -31.873   7.568   1.843  1.00 20.00     0.005 C 
ENDBRANCH   8   9
ENDBRANCH   2   8
TORSDOF 4
ENDMDL
MODEL 3
REMARK VINA RESULT:      -1.6      1.276      4.172
REMARK  4 active torsions:
REMARK  status: ('A' for Active; 'I' for Inactive)
REMARK    1  A    between atoms: C2_2  and  C6_6 
REMARK    2  A    between atoms: C3_3  and  C7_7 
REMARK    3  A    between atoms: C3_3  and  O9_9 
REMARK    4  A    between atoms: C6_6  and  C8_8 
ROOT
HETATM    1  C1  UNL     1     -31.330   7.659   2.208  1.00 20.00     0.045 A 
HETATM    2  C2  UNL     1     -32.365   8.351   1.361  1.00 20.00     0.023 A 
HETATM    3  C3  UNL     1     -32.776   7.246   2.310  1.00 20.00     0.062 A 
ENDROOT
BRANCH   3   4
HETATM    4  C7  UNL     1     -33.543   7.516   3.562  1.00 20.00     0.034 C 
HETATM    5  C4  UNL     1     -34.698   6.568   3.758  1.00 20.00     0.008 C 
ENDBRANCH   3   4
BRANCH   3   6
HETATM    6  O9  UNL     1     -33.116   5.993   1.689  1.00 20.00    -0.389 OA
HETATM    7  H25 UNL     1     -33.875   5.654   2.181  1.00 20.00     0.210 HD
ENDBRANCH   3   6
BRANCH   2   8
HETATM    8  C6  UNL     1     -32.703   9.781   1.605  1.00 20.00     0.007 C 
BRANCH   8   9
HETATM    9  C8  UNL     1     -32.652  10.627   0.321  1.00 20.00    -0.004 C 
HETATM   10  C5  UNL     1     -32.612   9.775  -0.937  1.00 20.00     0.005 C 
ENDBRANCH   8   9
ENDBRANCH   2   8
TORSDOF 4
ENDMDL
MODEL 4
REMARK VINA RESULT:      -1.1      1.370      2.144
REMARK  4 active torsions:
REMARK  status: ('A' for Active; 'I' for Inactive)
REMARK    1  A    between atoms: C2_2  and  C6_6 
REMARK    2  A    between atoms: C3_3  and  C7_7 
REMARK    3  A    between atoms: C3_3  and  O9_9 
REMARK    4  A    between atoms: C6_6  and  C8_8 
ROOT
HETATM    1  C1  UNL     1     -31.534   8.555   3.012  1.00 20.00     0.045 A 
HETATM    2  C2  UNL     1     -33.014   8.282   3.053  1.00 20.00     0.023 A 
HETATM    3  C3  UNL     1     -32.182   7.774   1.897  1.00 20.00     0.062 A 
ENDROOT
BRANCH   3   4
HETATM    4  C7  UNL     1     -31.866   6.325   1.718  1.00 20.00     0.034 C 
HETATM    5  C4  UNL     1     -32.894   5.599   0.890  1.00 20.00     0.008 C 
ENDBRANCH   3   4
BRANCH   3   6
HETATM    6  O9  UNL     1     -32.353   8.480   0.655  1.00 20.00    -0.389 OA
HETATM    7  H25 UNL     1     -31.846   9.297   0.745  1.00 20.00     0.210 HD
ENDBRANCH   3   6
BRANCH   2   8
HETATM    8  C6  UNL     1     -33.583   7.374   4.088  1.00 20.00     0.007 C 
BRANCH   8   9
HETATM    9  C8  UNL     1     -34.976   6.843   3.706  1.00 20.00    -0.004 C 
HETATM   10  C5  UNL     1     -35.257   5.469   4.290  1.00 20.00     0.005 C 
ENDBRANCH   8   9
ENDBRANCH   2   8
TORSDOF 4
ENDMDL
MODEL 5
REMARK VINA RESULT:      -0.8      2.349      4.053
REMARK  4 active torsions:
REMARK  status: ('A' for Active; 'I' for Inactive)
REMARK    1  A    between atoms: C2_2  and  C6_6 
REMARK    2  A    between atoms: C3_3  and  C7_7 
REMARK    3  A    between atoms: C3_3  and  O9_9 
REMARK    4  A    between atoms: C6_6  and  C8_8 
ROOT
HETATM    1  C1  UNL     1     -33.220   5.199   3.894  1.00 20.00     0.045 A 
HETATM    2  C2  UNL     1     -33.953   5.237   2.579  1.00 20.00     0.023 A 
HETATM    3  C3  UNL     1     -34.561   5.883   3.805  1.00 20.00     0.062 A 
ENDROOT
BRANCH   3   4
HETATM    4  C7  UNL     1     -34.656   7.364   3.962  1.00 20.00     0.034 C 
HETATM    5  C4  UNL     1     -33.586   7.929   4.860  1.00 20.00     0.008 C 
ENDBRANCH   3   4
BRANCH   3   6
HETATM    6  O9  UNL     1     -35.667   5.173   4.392  1.00 20.00    -0.389 OA
HETATM    7  H25 UNL     1     -36.167   5.833   4.890  1.00 20.00     0.210 HD
ENDBRANCH   3   6
BRANCH   2   8
HETATM    8  C6  UNL     1     -33.414   6.035   1.441  1.00 20.00     0.007 C 
BRANCH   8   9
HETATM    9  C8  UNL     1     -31.958   6.480   1.670  1.00 20.00    -0.004 C 
HETATM   10  C5  UNL     1     -31.800   7.991   1.647  1.00 20.00     0.005 C 
ENDBRANCH   8   9
ENDBRANCH   2   8
TORSDOF 4
ENDMDL
MODEL 6
REMARK VINA RESULT:      -0.7      1.704      4.336
REMARK  4 active torsions:
REMARK  status: ('A' for Active; 'I' for Inactive)
REMARK    1  A    between atoms: C2_2  and  C6_6 
REMARK    2  A    between atoms: C3_3  and  C7_7 
REMARK    3  A    between atoms: C3_3  and  O9_9 
REMARK    4  A    between atoms: C6_6  and  C8_8 
ROOT
HETATM    1  C1  UNL     1     -34.016   8.791   2.968  1.00 20.00     0.045 A 
HETATM    2  C2  UNL     1     -32.591   8.321   2.838  1.00 20.00     0.023 A 
HETATM    3  C3  UNL     1     -33.543   7.609   3.774  1.00 20.00     0.062 A 
ENDROOT
BRANCH   3   4
HETATM    4  C7  UNL     1     -34.076   6.245   3.484  1.00 20.00     0.034 C 
HETATM    5  C4  UNL     1     -35.395   5.973   4.160  1.00 20.00     0.008 C 
ENDBRANCH   3   4
BRANCH   3   6
HETATM    6  O9  UNL     1     -33.328   7.852   5.176  1.00 20.00    -0.389 OA
HETATM    7  H25 UNL     1     -34.157   8.219   5.509  1.00 20.00     0.210 HD
ENDBRANCH   3   6
BRANCH   2   8
HETATM    8  C6  UNL     1     -32.115   7.708   1.566  1.00 20.00     0.007 C 
BRANCH   8   9
HETATM    9  C8  UNL     1     -31.483   8.740   0.615  1.00 20.00    -0.004 C 
HETATM   10  C5  UNL     1     -32.492   9.753   0.100  1.00 20.00     0.005 C 
ENDBRANCH   8   9
ENDBRANCH   2   8
TORSDOF 4
ENDMDL
MODEL 7
REMARK VINA RESULT:      -0.6      1.761      2.452
REMARK  4 active torsions:
REMARK  status: ('A' for Active; 'I' for Inactive)
REMARK    1  A    between atoms: C2_2  and  C6_6 
REMARK    2  A    between atoms: C3_3  and  C7_7 
REMARK    3  A    between atoms: C3_3  and  O9_9 
REMARK    4  A    between atoms: C6_6  and  C8_8 
ROOT
HETATM    1  C1  UNL     1     -33.524   7.407   4.586  1.00 20.00     0.045 A 
HETATM    2  C2  UNL     1     -34.295   6.565   3.604  1.00 20.00     0.023 A 
HETATM    3  C3  UNL     1     -33.493   7.752   3.119  1.00 20.00     0.062 A 
ENDROOT
BRANCH   3   4
HETATM    4  C7  UNL     1     -32.228   7.596   2.342  1.00 20.00     0.034 C 
HETATM    5  C4  UNL     1     -32.079   8.624   1.250  1.00 20.00     0.008 C 
ENDBRANCH   3   4
BRANCH   3   6
HETATM    6  O9  UNL     1     -34.266   8.902   2.729  1.00 20.00    -0.389 OA
HETATM    7  H25 UNL     1     -33.632   9.625   2.637  1.00 20.00     0.210 HD
ENDBRANCH   3   6
BRANCH   2   8
HETATM    8  C6  UNL     1     -33.883   5.159   3.333  1.00 20.00     0.007 C 
BRANCH   8   9
HETATM    9  C8  UNL     1     -34.265   4.202   4.476  1.00 20.00    -0.004 C 
HETATM   10  C5  UNL     1     -33.281   3.053   4.628  1.00 20.00     0.005 C 
ENDBRANCH   8   9
ENDBRANCH   2   8
TORSDOF 4
ENDMDL
MODEL 8
REMARK VINA RESULT:      -0.6      1.970      4.161
REMARK  4 active torsions:
REMARK  status: ('A' for Active; 'I' for Inactive)
REMARK    1  A    between atoms: C2_2  and  C6_6 
REMARK    2  A    between atoms: C3_3  and  C7_7 
REMARK    3  A    between atoms: C3_3  and  O9_9 
REMARK    4  A    between atoms: C6_6  and  C8_8 
ROOT
HETATM    1  C1  UNL     1     -32.734   5.943   2.227  1.00 20.00     0.045 A 
HETATM    2  C2  UNL     1     -33.015   7.295   1.627  1.00 20.00     0.023 A 
HETATM    3  C3  UNL     1     -33.497   6.970   3.023  1.00 20.00     0.062 A 
ENDROOT
BRANCH   3   4
HETATM    4  C7  UNL     1     -32.883   7.579   4.241  1.00 20.00     0.034 C 
HETATM    5  C4  UNL     1     -33.898   8.217   5.153  1.00 20.00     0.008 C 
ENDBRANCH   3   4
BRANCH   3   6
HETATM    6  O9  UNL     1     -34.913   6.740   3.151  1.00 20.00    -0.389 OA
HETATM    7  H25 UNL     1     -35.001   5.893   3.605  1.00 20.00     0.210 HD
ENDBRANCH   3   6
BRANCH   2   8
HETATM    8  C6  UNL     1     -31.901   8.249   1.368  1.00 20.00     0.007 C 
BRANCH   8   9
HETATM    9  C8  UNL     1     -32.120   9.080   0.092  1.00 20.00    -0.004 C 
HETATM   10  C5  UNL     1     -32.645  10.475   0.387  1.00 20.00     0.005 C 
ENDBRANCH   8   9
ENDBRANCH   2   8
TORSDOF 4
ENDMDL
MODEL 9
REMARK VINA RESULT:      -0.5      1.513      2.267
REMARK  4 active torsions:
REMARK  status: ('A' for Active; 'I' for Inactive)
REMARK    1  A    between atoms: C2_2  and  C6_6 
REMARK    2  A    between atoms: C3_3  and  C7_7 
REMARK    3  A    between atoms: C3_3  and  O9_9 
REMARK    4  A    between atoms: C6_6  and  C8_8 
ROOT
HETATM    1  C1  UNL     1     -32.832   7.205   3.852  1.00 20.00     0.045 A 
HETATM    2  C2  UNL     1     -34.211   7.546   3.350  1.00 20.00     0.023 A 
HETATM    3  C3  UNL     1     -33.072   7.358   2.371  1.00 20.00     0.062 A 
ENDROOT
BRANCH   3   4
HETATM    4  C7  UNL     1     -32.981   6.169   1.473  1.00 20.00     0.034 C 
HETATM    5  C4  UNL     1     -31.646   5.475   1.552  1.00 20.00     0.008 C 
ENDBRANCH   3   4
BRANCH   3   6
HETATM    6  O9  UNL     1     -32.564   8.566   1.776  1.00 20.00    -0.389 OA
HETATM    7  H25 UNL     1     -32.195   8.303   0.923  1.00 20.00     0.210 HD
ENDBRANCH   3   6
BRANCH   2   8
HETATM    8  C6  UNL     1     -35.322   6.562   3.480  1.00 20.00     0.007 C 
BRANCH   8   9
HETATM    9  C8  UNL     1     -35.086   5.551   4.616  1.00 20.00    -0.004 C 
HETATM   10  C5  UNL     1     -34.357   4.304   4.145  1.00 20.00     0.005 C 
ENDBRANCH   8   9
ENDBRANCH   2   8
TORSDOF 4
ENDMDL
