MODEL 1
REMARK VINA RESULT:      -1.5      0.000      0.000
REMARK  2 active torsions:
REMARK  status: ('A' for Active; 'I' for Inactive)
REMARK    1  A    between atoms: C4_4  and  O6_6 
REMARK    2  A    between atoms: C4_4  and  O7_7 
ROOT
HETATM    1  C1  UNL     1     -32.289   8.640   1.220  1.00 20.00     0.120 C 
HETATM    2  C4  UNL     1     -32.294   7.540   2.197  1.00 20.00     0.369 C 
HETATM    3  N5  UNL     1     -32.284   9.506   0.448  1.00 20.00    -0.192 NA
ENDROOT
BRANCH   2   4
HETATM    4  O6  UNL     1     -32.990   6.417   1.647  1.00 20.00    -0.354 OA
HETATM    5  C2  UNL     1     -32.114   5.386   1.210  1.00 20.00     0.206 C 
ENDBRANCH   2   4
BRANCH   2   6
HETATM    6  O7  UNL     1     -32.944   8.011   3.384  1.00 20.00    -0.354 OA
HETATM    7  C3  UNL     1     -34.094   7.243   3.711  1.00 20.00     0.206 C 
ENDBRANCH   2   6
TORSDOF 2
ENDMDL
MODEL 2
REMARK VINA RESULT:      -1.4      1.984      2.643
REMARK  2 active torsions:
REMARK  status: ('A' for Active; 'I' for Inactive)
REMARK    1  A    between atoms: C4_4  and  O6_6 
REMARK    2  A    between atoms: C4_4  and  O7_7 
ROOT
HETATM    1  C1  UNL     1     -32.655   6.223   1.623  1.00 20.00     0.120 C 
HETATM    2  C4  UNL     1     -32.982   7.605   2.004  1.00 20.00     0.369 C 
HETATM    3  N5  UNL     1     -32.397   5.133   1.320  1.00 20.00    -0.192 NA
ENDROOT
BRANCH   2   4
HETATM    4  O6  UNL     1     -31.917   8.474   1.608  1.00 20.00    -0.354 OA
HETATM    5  C2  UNL     1     -32.312   9.415   0.618  1.00 20.00     0.206 C 
ENDBRANCH   2   4
BRANCH   2   6
HETATM    6  O7  UNL     1     -33.163   7.637   3.425  1.00 20.00    -0.354 OA
HETATM    7  C3  UNL     1     -34.373   7.008   3.830  1.00 20.00     0.206 C 
ENDBRANCH   2   6
TORSDOF 2
ENDMDL
MODEL 3
REMARK VINA RESULT:      -1.4      3.221      3.719
REMARK  2 active torsions:
REMARK  status: ('A' for Active; 'I' for Inactive)
REMARK    1  A    between atoms: C4_4  and  O6_6 
REMARK    2  A    between atoms: C4_4  and  O7_7 
ROOT
HETATM    1  C1  UNL     1     -34.057   4.531   3.838  1.00 20.00     0.120 C 
HETATM    2  C4  UNL     1     -34.344   5.804   3.159  1.00 20.00     0.369 C 
HETATM    3  N5  UNL     1     -33.829   3.526   4.372  1.00 20.00    -0.192 NA
ENDROOT
BRANCH   2   4
HETATM    4  O6  UNL     1     -33.138   6.326   2.593  1.00 20.00    -0.354 OA
HETATM    5  C2  UNL     1     -32.781   5.689   1.374  1.00 20.00     0.206 C 
ENDBRANCH   2   4
BRANCH   2   6
HETATM    6  O7  UNL     1     -34.884   6.707   4.132  1.00 20.00    -0.354 OA
HETATM    7  C3  UNL     1     -34.022   7.810   4.382  1.00 20.00     0.206 C 
ENDBRANCH   2   6
TORSDOF 2
ENDMDL
MODEL 4
REMARK VINA RESULT:      -1.2      2.966      3.316
REMARK  2 active torsions:
REMARK  status: ('A' for Active; 'I' for Inactive)
REMARK    1  A    between atoms: C4_4  and  O6_6 
REMARK    2  A    between atoms: C4_4  and  O7_7 
ROOT
HETATM    1  C1  UNL     1     -33.232   5.501   2.448  1.00 20.00     0.120 C 
HETATM    2  C4  UNL     1     -33.790   5.286   3.791  1.00 20.00     0.369 C 
HETATM    3  N5  UNL     1     -32.790   5.669   1.388  1.00 20.00    -0.192 NA
ENDROOT
BRANCH   2   4
HETATM    4  O6  UNL     1     -34.241   3.933   3.910  1.00 20.00    -0.354 OA
HETATM    5  C2  UNL     1     -33.340   3.113   4.641  1.00 20.00     0.206 C 
ENDBRANCH   2   4
BRANCH   2   6
HETATM    6  O7  UNL     1     -34.877   6.203   3.966  1.00 20.00    -0.354 OA
HETATM    7  C3  UNL     1     -34.434   7.550   4.081  1.00 20.00     0.206 C 
ENDBRANCH   2   6
TORSDOF 2
ENDMDL
MODEL 5
REMARK VINA RESULT:      -1.2      2.076      3.062
REMARK  2 active torsions:
REMARK  status: ('A' for Active; 'I' for Inactive)
REMARK    1  A    between atoms: C4_4  and  O6_6 
REMARK    2  A    between atoms: C4_4  and  O7_7 
ROOT
HETATM    1  C1  UNL     1     -33.127   7.751   3.051  1.00 20.00     0.120 C 
HETATM    2  C4  UNL     1     -32.155   7.953   1.966  1.00 20.00     0.369 C 
HETATM    3  N5  UNL     1     -33.895   7.593   3.907  1.00 20.00    -0.192 NA
ENDROOT
BRANCH   2   4
HETATM    4  O6  UNL     1     -32.809   8.559   0.846  1.00 20.00    -0.354 OA
HETATM    5  C2  UNL     1     -32.246   9.816   0.493  1.00 20.00     0.206 C 
ENDBRANCH   2   4
BRANCH   2   6
HETATM    6  O7  UNL     1     -31.620   6.672   1.612  1.00 20.00    -0.354 OA
HETATM    7  C3  UNL     1     -32.638   5.728   1.305  1.00 20.00     0.206 C 
ENDBRANCH   2   6
TORSDOF 2
ENDMDL
MODEL 6
REMARK VINA RESULT:      -1.1      2.931      3.687
REMARK  2 active torsions:
REMARK  status: ('A' for Active; 'I' for Inactive)
REMARK    1  A    between atoms: C4_4  and  O6_6 
REMARK    2  A    between atoms: C4_4  and  O7_7 
ROOT
HETATM    1  C1  UNL     1     -34.309   6.661   3.858  1.00 20.00     0.120 C 
HETATM    2  C4  UNL     1     -34.316   5.299   3.303  1.00 20.00     0.369 C 
HETATM    3  N5  UNL     1     -34.306   7.736   4.296  1.00 20.00    -0.192 NA
ENDROOT
BRANCH   2   4
HETATM    4  O6  UNL     1     -34.558   4.358   4.354  1.00 20.00    -0.354 OA
HETATM    5  C2  UNL     1     -33.547   3.362   4.445  1.00 20.00     0.206 C 
ENDBRANCH   2   4
BRANCH   2   6
HETATM    6  O7  UNL     1     -33.040   5.067   2.695  1.00 20.00    -0.354 OA
HETATM    7  C3  UNL     1     -32.821   5.899   1.564  1.00 20.00     0.206 C 
ENDBRANCH   2   6
TORSDOF 2
ENDMDL
MODEL 7
REMARK VINA RESULT:      -1.1      0.573      2.372
REMARK  2 active torsions:
REMARK  status: ('A' for Active; 'I' for Inactive)
REMARK    1  A    between atoms: C4_4  and  O6_6 
REMARK    2  A    between atoms: C4_4  and  O7_7 
ROOT
HETATM    1  C1  UNL     1     -32.474   8.843   1.075  1.00 20.00     0.120 C 
HETATM    2  C4  UNL     1     -32.785   7.622   1.834  1.00 20.00     0.369 C 
HETATM    3  N5  UNL     1     -32.230   9.807   0.477  1.00 20.00    -0.192 NA
ENDROOT
BRANCH   2   4
HETATM    4  O6  UNL     1     -32.861   7.933   3.228  1.00 20.00    -0.354 OA
HETATM    5  C2  UNL     1     -34.028   7.409   3.847  1.00 20.00     0.206 C 
ENDBRANCH   2   4
BRANCH   2   6
HETATM    6  O7  UNL     1     -31.745   6.671   1.579  1.00 20.00    -0.354 OA
HETATM    7  C3  UNL     1     -32.256   5.380   1.273  1.00 20.00     0.206 C 
ENDBRANCH   2   6
TORSDOF 2
ENDMDL
MODEL 8
REMARK VINA RESULT:      -1.1      2.031      2.704
REMARK  2 active torsions:
REMARK  status: ('A' for Active; 'I' for Inactive)
REMARK    1  A    between atoms: C4_4  and  O6_6 
REMARK    2  A    between atoms: C4_4  and  O7_7 
ROOT
HETATM    1  C1  UNL     1     -33.428   7.522   2.989  1.00 20.00     0.120 C 
HETATM    2  C4  UNL     1     -32.728   7.608   1.699  1.00 20.00     0.369 C 
HETATM    3  N5  UNL     1     -33.982   7.453   4.007  1.00 20.00    -0.192 NA
ENDROOT
BRANCH   2   4
HETATM    4  O6  UNL     1     -31.779   6.541   1.599  1.00 20.00    -0.354 OA
HETATM    5  C2  UNL     1     -32.386   5.290   1.305  1.00 20.00     0.206 C 
ENDBRANCH   2   4
BRANCH   2   6
HETATM    6  O7  UNL     1     -32.072   8.880   1.640  1.00 20.00    -0.354 OA
HETATM    7  C3  UNL     1     -32.366   9.585   0.441  1.00 20.00     0.206 C 
ENDBRANCH   2   6
TORSDOF 2
ENDMDL
MODEL 9
REMARK VINA RESULT:      -1.1      2.221      3.413
REMARK  2 active torsions:
REMARK  status: ('A' for Active; 'I' for Inactive)
REMARK    1  A    between atoms: C4_4  and  O6_6 
REMARK    2  A    between atoms: C4_4  and  O7_7 
ROOT
HETATM    1  C1  UNL     1     -34.258   6.504   3.448  1.00 20.00     0.120 C 
HETATM    2  C4  UNL     1     -32.971   6.673   2.758  1.00 20.00     0.369 C 
HETATM    3  N5  UNL     1     -35.273   6.371   3.995  1.00 20.00    -0.192 NA
ENDROOT
BRANCH   2   4
HETATM    4  O6  UNL     1     -32.647   8.065   2.687  1.00 20.00    -0.354 OA
HETATM    5  C2  UNL     1     -32.034   8.427   1.457  1.00 20.00     0.206 C 
ENDBRANCH   2   4
BRANCH   2   6
HETATM    6  O7  UNL     1     -33.100   6.113   1.446  1.00 20.00    -0.354 OA
HETATM    7  C3  UNL     1     -32.192   5.041   1.224  1.00 20.00     0.206 C 
ENDBRANCH   2   6
TORSDOF 2
ENDMDL
