MODEL 1
REMARK VINA RESULT:      -3.1      0.000      0.000
REMARK  1 active torsions:
REMARK  status: ('A' for Active; 'I' for Inactive)
REMARK    1  A    between atoms: C3_3  and  C6_6 
ROOT
HETATM    1  C1  UNL     1     -33.805   3.819   4.277  1.00 20.00    -0.154 C 
HETATM    2  C5  UNL     1     -33.123   2.851   4.812  1.00 20.00     0.096 C 
HETATM    3  C6  UNL     1     -34.491   4.782   3.745  1.00 20.00     0.058 C 
ENDROOT
BRANCH   3   4
HETATM    4  C3  UNL     1     -33.885   6.021   3.350  1.00 20.00    -0.041 A 
HETATM    5  C2  UNL     1     -33.066   6.209   2.308  1.00 20.00    -0.009 A 
HETATM    6  C4  UNL     1     -32.721   7.644   2.332  1.00 20.00     0.156 A 
HETATM    7  C9  UNL     1     -32.531   5.288   1.276  1.00 20.00     0.052 C 
HETATM    8  C8  UNL     1     -33.384   8.361   3.470  1.00 20.00     0.088 A 
HETATM    9  O10 UNL     1     -31.982   8.178   1.517  1.00 20.00    -0.293 OA
HETATM   10  C7  UNL     1     -34.172   7.254   4.157  1.00 20.00     0.047 A 
ENDBRANCH   3   4
TORSDOF 1
ENDMDL
MODEL 2
REMARK VINA RESULT:      -3.0      2.033      4.293
REMARK  1 active torsions:
REMARK  status: ('A' for Active; 'I' for Inactive)
REMARK    1  A    between atoms: C3_3  and  C6_6 
ROOT
HETATM    1  C1  UNL     1     -32.260   9.291   0.698  1.00 20.00    -0.154 C 
HETATM    2  C5  UNL     1     -32.682  10.270  -0.044  1.00 20.00     0.096 C 
HETATM    3  C6  UNL     1     -31.831   8.316   1.438  1.00 20.00     0.058 C 
ENDROOT
BRANCH   3   4
HETATM    4  C3  UNL     1     -32.701   7.588   2.317  1.00 20.00    -0.041 A 
HETATM    5  C2  UNL     1     -32.984   6.281   2.252  1.00 20.00    -0.009 A 
HETATM    6  C4  UNL     1     -33.917   6.025   3.367  1.00 20.00     0.156 A 
HETATM    7  C9  UNL     1     -32.544   5.205   1.331  1.00 20.00     0.052 C 
HETATM    8  C8  UNL     1     -34.209   7.269   4.151  1.00 20.00     0.088 A 
HETATM    9  O10 UNL     1     -34.391   4.925   3.616  1.00 20.00    -0.293 OA
HETATM   10  C7  UNL     1     -33.380   8.326   3.433  1.00 20.00     0.047 A 
ENDBRANCH   3   4
TORSDOF 1
ENDMDL
MODEL 3
REMARK VINA RESULT:      -2.8      0.722      2.067
REMARK  1 active torsions:
REMARK  status: ('A' for Active; 'I' for Inactive)
REMARK    1  A    between atoms: C3_3  and  C6_6 
ROOT
HETATM    1  C1  UNL     1     -33.758   3.809   4.263  1.00 20.00    -0.154 C 
HETATM    2  C5  UNL     1     -33.209   2.763   4.802  1.00 20.00     0.096 C 
HETATM    3  C6  UNL     1     -34.312   4.853   3.728  1.00 20.00     0.058 C 
ENDROOT
BRANCH   3   4
HETATM    4  C3  UNL     1     -33.563   5.800   2.953  1.00 20.00    -0.041 A 
HETATM    5  C2  UNL     1     -33.440   7.109   3.201  1.00 20.00    -0.009 A 
HETATM    6  C4  UNL     1     -32.577   7.634   2.123  1.00 20.00     0.156 A 
HETATM    7  C9  UNL     1     -33.983   7.982   4.269  1.00 20.00     0.052 C 
HETATM    8  C8  UNL     1     -32.158   6.559   1.167  1.00 20.00     0.088 A 
HETATM    9  O10 UNL     1     -32.248   8.808   2.030  1.00 20.00    -0.293 OA
HETATM   10  C7  UNL     1     -32.830   5.316   1.736  1.00 20.00     0.047 A 
ENDBRANCH   3   4
TORSDOF 1
ENDMDL
MODEL 4
REMARK VINA RESULT:      -2.7      2.127      4.694
REMARK  1 active torsions:
REMARK  status: ('A' for Active; 'I' for Inactive)
REMARK    1  A    between atoms: C3_3  and  C6_6 
ROOT
HETATM    1  C1  UNL     1     -32.230   9.167   0.836  1.00 20.00    -0.154 C 
HETATM    2  C5  UNL     1     -32.579   9.938  -0.149  1.00 20.00     0.096 C 
HETATM    3  C6  UNL     1     -31.876   8.401   1.822  1.00 20.00     0.058 C 
ENDROOT
BRANCH   3   4
HETATM    4  C3  UNL     1     -32.664   7.275   2.232  1.00 20.00    -0.041 A 
HETATM    5  C2  UNL     1     -33.476   7.219   3.295  1.00 20.00    -0.009 A 
HETATM    6  C4  UNL     1     -34.050   5.858   3.280  1.00 20.00     0.156 A 
HETATM    7  C9  UNL     1     -33.826   8.208   4.342  1.00 20.00     0.052 C 
HETATM    8  C8  UNL     1     -33.542   5.048   2.124  1.00 20.00     0.088 A 
HETATM    9  O10 UNL     1     -34.845   5.448   4.114  1.00 20.00    -0.293 OA
HETATM   10  C7  UNL     1     -32.602   6.016   1.418  1.00 20.00     0.047 A 
ENDBRANCH   3   4
TORSDOF 1
ENDMDL
MODEL 5
REMARK VINA RESULT:      -0.8      2.046      3.955
REMARK  1 active torsions:
REMARK  status: ('A' for Active; 'I' for Inactive)
REMARK    1  A    between atoms: C3_3  and  C6_6 
ROOT
HETATM    1  C1  UNL     1     -32.168   8.579   1.430  1.00 20.00    -0.154 C 
HETATM    2  C5  UNL     1     -31.830   8.765   0.190  1.00 20.00     0.096 C 
HETATM    3  C6  UNL     1     -32.502   8.399   2.671  1.00 20.00     0.058 C 
ENDROOT
BRANCH   3   4
HETATM    4  C3  UNL     1     -33.291   7.278   3.092  1.00 20.00    -0.041 A 
HETATM    5  C2  UNL     1     -33.065   5.992   2.797  1.00 20.00    -0.009 A 
HETATM    6  C4  UNL     1     -34.149   5.240   3.461  1.00 20.00     0.156 A 
HETATM    7  C9  UNL     1     -32.014   5.317   1.998  1.00 20.00     0.052 C 
HETATM    8  C8  UNL     1     -35.085   6.145   4.205  1.00 20.00     0.088 A 
HETATM    9  O10 UNL     1     -34.262   4.023   3.407  1.00 20.00    -0.293 OA
HETATM   10  C7  UNL     1     -34.497   7.526   3.950  1.00 20.00     0.047 A 
ENDBRANCH   3   4
TORSDOF 1
ENDMDL
MODEL 6
REMARK VINA RESULT:      -0.5      2.015      3.113
REMARK  1 active torsions:
REMARK  status: ('A' for Active; 'I' for Inactive)
REMARK    1  A    between atoms: C3_3  and  C6_6 
ROOT
HETATM    1  C1  UNL     1     -32.289   4.887   0.768  1.00 20.00    -0.154 C 
HETATM    2  C5  UNL     1     -31.274   4.225   0.301  1.00 20.00     0.096 C 
HETATM    3  C6  UNL     1     -33.306   5.545   1.232  1.00 20.00     0.058 C 
ENDROOT
BRANCH   3   4
HETATM    4  C3  UNL     1     -33.163   6.569   2.226  1.00 20.00    -0.041 A 
HETATM    5  C2  UNL     1     -33.895   6.705   3.338  1.00 20.00    -0.009 A 
HETATM    6  C4  UNL     1     -33.359   7.901   4.018  1.00 20.00     0.156 A 
HETATM    7  C9  UNL     1     -35.022   5.920   3.898  1.00 20.00     0.052 C 
HETATM    8  C8  UNL     1     -32.225   8.519   3.256  1.00 20.00     0.088 A 
HETATM    9  O10 UNL     1     -33.792   8.329   5.079  1.00 20.00    -0.293 OA
HETATM   10  C7  UNL     1     -32.098   7.610   2.040  1.00 20.00     0.047 A 
ENDBRANCH   3   4
TORSDOF 1
ENDMDL
MODEL 7
REMARK VINA RESULT:      -0.3      2.203      4.268
REMARK  1 active torsions:
REMARK  status: ('A' for Active; 'I' for Inactive)
REMARK    1  A    between atoms: C3_3  and  C6_6 
ROOT
HETATM    1  C1  UNL     1     -32.268   7.247   1.741  1.00 20.00    -0.154 C 
HETATM    2  C5  UNL     1     -31.854   8.473   1.839  1.00 20.00     0.096 C 
HETATM    3  C6  UNL     1     -32.679   6.020   1.638  1.00 20.00     0.058 C 
ENDROOT
BRANCH   3   4
HETATM    4  C3  UNL     1     -33.349   5.348   2.714  1.00 20.00    -0.041 A 
HETATM    5  C2  UNL     1     -34.387   5.815   3.418  1.00 20.00    -0.009 A 
HETATM    6  C4  UNL     1     -34.704   4.758   4.399  1.00 20.00     0.156 A 
HETATM    7  C9  UNL     1     -35.153   7.083   3.353  1.00 20.00     0.052 C 
HETATM    8  C8  UNL     1     -33.790   3.577   4.266  1.00 20.00     0.088 A 
HETATM    9  O10 UNL     1     -35.609   4.842   5.218  1.00 20.00    -0.293 OA
HETATM   10  C7  UNL     1     -32.872   3.985   3.121  1.00 20.00     0.047 A 
ENDBRANCH   3   4
TORSDOF 1
ENDMDL
