MODEL 1
REMARK VINA RESULT:       0.8      0.000      0.000
REMARK  2 active torsions:
REMARK  status: ('A' for Active; 'I' for Inactive)
REMARK    1  A    between atoms: C6_6  and  C7_7 
REMARK    2  A    between atoms: C7_7  and  N8_8 
ROOT
HETATM    1  C7  UNL     1     -33.267   6.624   2.109  1.00 20.00     0.443 C 
HETATM    2  F9  UNL     1     -32.520   5.479   2.077  1.00 20.00    -0.172 F 
HETATM    3  F10 UNL     1     -34.053   6.562   0.995  1.00 20.00    -0.172 F 
ENDROOT
BRANCH   1   4
HETATM    4  C6  UNL     1     -34.172   6.553   3.373  1.00 20.00     0.046 C 
HETATM    5  C1  UNL     1     -35.647   6.840   3.045  1.00 20.00     0.023 C 
HETATM    6  C2  UNL     1     -34.081   5.135   3.971  1.00 20.00     0.023 C 
HETATM    7  C3  UNL     1     -33.692   7.560   4.436  1.00 20.00     0.023 C 
ENDBRANCH   1   4
BRANCH   1   8
HETATM    8  N8  UNL     1     -32.390   7.808   2.060  1.00 20.00     0.152 N 
HETATM    9  C4  UNL     1     -30.997   7.455   1.780  1.00 20.00     0.317 C 
HETATM   10  C5  UNL     1     -32.843   8.803   1.085  1.00 20.00     0.317 C 
ENDBRANCH   1   8
TORSDOF 2
ENDMDL
MODEL 2
REMARK VINA RESULT:       0.9      1.893      2.732
REMARK  2 active torsions:
REMARK  status: ('A' for Active; 'I' for Inactive)
REMARK    1  A    between atoms: C6_6  and  C7_7 
REMARK    2  A    between atoms: C7_7  and  N8_8 
ROOT
HETATM    1  C7  UNL     1     -32.201   7.889   1.797  1.00 20.00     0.443 C 
HETATM    2  F9  UNL     1     -32.756   8.507   2.885  1.00 20.00    -0.172 F 
HETATM    3  F10 UNL     1     -30.884   7.733   2.116  1.00 20.00    -0.172 F 
ENDROOT
BRANCH   1   4
HETATM    4  C6  UNL     1     -32.863   6.487   1.673  1.00 20.00     0.046 C 
HETATM    5  C1  UNL     1     -33.761   6.378   0.430  1.00 20.00     0.023 C 
HETATM    6  C2  UNL     1     -31.754   5.421   1.556  1.00 20.00     0.023 C 
HETATM    7  C3  UNL     1     -33.705   6.175   2.925  1.00 20.00     0.023 C 
ENDBRANCH   1   4
BRANCH   1   8
HETATM    8  N8  UNL     1     -32.349   8.735   0.599  1.00 20.00     0.152 N 
HETATM    9  C4  UNL     1     -32.787  10.092   0.928  1.00 20.00     0.317 C 
HETATM   10  C5  UNL     1     -31.121   8.801  -0.196  1.00 20.00     0.317 C 
ENDBRANCH   1   8
TORSDOF 2
ENDMDL
MODEL 3
REMARK VINA RESULT:       0.9      1.873      3.449
REMARK  2 active torsions:
REMARK  status: ('A' for Active; 'I' for Inactive)
REMARK    1  A    between atoms: C6_6  and  C7_7 
REMARK    2  A    between atoms: C7_7  and  N8_8 
ROOT
HETATM    1  C7  UNL     1     -33.476   7.551   3.268  1.00 20.00     0.443 C 
HETATM    2  F9  UNL     1     -32.819   7.657   4.463  1.00 20.00    -0.172 F 
HETATM    3  F10 UNL     1     -34.352   8.597   3.254  1.00 20.00    -0.172 F 
ENDROOT
BRANCH   1   4
HETATM    4  C6  UNL     1     -32.424   7.755   2.140  1.00 20.00     0.046 C 
HETATM    5  C1  UNL     1     -32.845   8.852   1.147  1.00 20.00     0.023 C 
HETATM    6  C2  UNL     1     -31.085   8.178   2.779  1.00 20.00     0.023 C 
HETATM    7  C3  UNL     1     -32.199   6.442   1.367  1.00 20.00     0.023 C 
ENDBRANCH   1   4
BRANCH   1   8
HETATM    8  N8  UNL     1     -34.198   6.268   3.194  1.00 20.00     0.152 N 
HETATM    9  C4  UNL     1     -33.394   5.150   3.692  1.00 20.00     0.317 C 
HETATM   10  C5  UNL     1     -35.476   6.301   3.907  1.00 20.00     0.317 C 
ENDBRANCH   1   8
TORSDOF 2
ENDMDL
MODEL 4
REMARK VINA RESULT:       0.9      1.877      3.450
REMARK  2 active torsions:
REMARK  status: ('A' for Active; 'I' for Inactive)
REMARK    1  A    between atoms: C6_6  and  C7_7 
REMARK    2  A    between atoms: C7_7  and  N8_8 
ROOT
HETATM    1  C7  UNL     1     -33.468   7.557   3.263  1.00 20.00     0.443 C 
HETATM    2  F9  UNL     1     -32.838   7.675   4.472  1.00 20.00    -0.172 F 
HETATM    3  F10 UNL     1     -34.339   8.607   3.217  1.00 20.00    -0.172 F 
ENDROOT
BRANCH   1   4
HETATM    4  C6  UNL     1     -32.390   7.744   2.157  1.00 20.00     0.046 C 
HETATM    5  C1  UNL     1     -32.154   6.453   1.355  1.00 20.00     0.023 C 
HETATM    6  C2  UNL     1     -32.864   8.837   1.178  1.00 20.00     0.023 C 
HETATM    7  C3  UNL     1     -31.054   8.195   2.778  1.00 20.00     0.023 C 
ENDBRANCH   1   4
BRANCH   1   8
HETATM    8  N8  UNL     1     -34.195   6.277   3.188  1.00 20.00     0.152 N 
HETATM    9  C4  UNL     1     -33.389   5.153   3.668  1.00 20.00     0.317 C 
HETATM   10  C5  UNL     1     -35.465   6.309   3.917  1.00 20.00     0.317 C 
ENDBRANCH   1   8
TORSDOF 2
ENDMDL
MODEL 5
REMARK VINA RESULT:       0.9      1.870      3.448
REMARK  2 active torsions:
REMARK  status: ('A' for Active; 'I' for Inactive)
REMARK    1  A    between atoms: C6_6  and  C7_7 
REMARK    2  A    between atoms: C7_7  and  N8_8 
ROOT
HETATM    1  C7  UNL     1     -33.473   7.566   3.269  1.00 20.00     0.443 C 
HETATM    2  F9  UNL     1     -32.830   7.678   4.472  1.00 20.00    -0.172 F 
HETATM    3  F10 UNL     1     -34.352   8.610   3.242  1.00 20.00    -0.172 F 
ENDROOT
BRANCH   1   4
HETATM    4  C6  UNL     1     -32.408   7.771   2.154  1.00 20.00     0.046 C 
HETATM    5  C1  UNL     1     -31.034   8.158   2.728  1.00 20.00     0.023 C 
HETATM    6  C2  UNL     1     -32.245   6.452   1.371  1.00 20.00     0.023 C 
HETATM    7  C3  UNL     1     -32.861   8.866   1.169  1.00 20.00     0.023 C 
ENDBRANCH   1   4
BRANCH   1   8
HETATM    8  N8  UNL     1     -34.190   6.281   3.190  1.00 20.00     0.152 N 
HETATM    9  C4  UNL     1     -33.381   5.163   3.679  1.00 20.00     0.317 C 
HETATM   10  C5  UNL     1     -35.467   6.306   3.907  1.00 20.00     0.317 C 
ENDBRANCH   1   8
TORSDOF 2
ENDMDL
MODEL 6
REMARK VINA RESULT:       1.2      1.166      3.410
REMARK  2 active torsions:
REMARK  status: ('A' for Active; 'I' for Inactive)
REMARK    1  A    between atoms: C6_6  and  C7_7 
REMARK    2  A    between atoms: C7_7  and  N8_8 
ROOT
HETATM    1  C7  UNL     1     -33.086   6.416   2.056  1.00 20.00     0.443 C 
HETATM    2  F9  UNL     1     -34.046   6.506   1.085  1.00 20.00    -0.172 F 
HETATM    3  F10 UNL     1     -32.268   5.402   1.648  1.00 20.00    -0.172 F 
ENDROOT
BRANCH   1   4
HETATM    4  C6  UNL     1     -32.285   7.750   2.041  1.00 20.00     0.046 C 
HETATM    5  C1  UNL     1     -32.184   8.381   3.440  1.00 20.00     0.023 C 
HETATM    6  C2  UNL     1     -30.854   7.467   1.539  1.00 20.00     0.023 C 
HETATM    7  C3  UNL     1     -32.942   8.763   1.085  1.00 20.00     0.023 C 
ENDBRANCH   1   4
BRANCH   1   8
HETATM    8  N8  UNL     1     -33.701   6.096   3.356  1.00 20.00     0.152 N 
HETATM    9  C4  UNL     1     -35.031   6.690   3.502  1.00 20.00     0.317 C 
HETATM   10  C5  UNL     1     -33.786   4.654   3.597  1.00 20.00     0.317 C 
ENDBRANCH   1   8
TORSDOF 2
ENDMDL
MODEL 7
REMARK VINA RESULT:       1.2      1.149      3.346
REMARK  2 active torsions:
REMARK  status: ('A' for Active; 'I' for Inactive)
REMARK    1  A    between atoms: C6_6  and  C7_7 
REMARK    2  A    between atoms: C7_7  and  N8_8 
ROOT
HETATM    1  C7  UNL     1     -33.094   6.411   2.045  1.00 20.00     0.443 C 
HETATM    2  F9  UNL     1     -34.052   6.491   1.071  1.00 20.00    -0.172 F 
HETATM    3  F10 UNL     1     -32.274   5.395   1.647  1.00 20.00    -0.172 F 
ENDROOT
BRANCH   1   4
HETATM    4  C6  UNL     1     -32.296   7.746   2.021  1.00 20.00     0.046 C 
HETATM    5  C1  UNL     1     -32.936   8.787   1.087  1.00 20.00     0.023 C 
HETATM    6  C2  UNL     1     -32.267   8.335   3.446  1.00 20.00     0.023 C 
HETATM    7  C3  UNL     1     -30.844   7.498   1.569  1.00 20.00     0.023 C 
ENDBRANCH   1   4
BRANCH   1   8
HETATM    8  N8  UNL     1     -33.712   6.100   3.346  1.00 20.00     0.152 N 
HETATM    9  C4  UNL     1     -35.051   6.676   3.476  1.00 20.00     0.317 C 
HETATM   10  C5  UNL     1     -33.777   4.660   3.607  1.00 20.00     0.317 C 
ENDBRANCH   1   8
TORSDOF 2
ENDMDL
MODEL 8
REMARK VINA RESULT:       1.3      1.819      3.878
REMARK  2 active torsions:
REMARK  status: ('A' for Active; 'I' for Inactive)
REMARK    1  A    between atoms: C6_6  and  C7_7 
REMARK    2  A    between atoms: C7_7  and  N8_8 
ROOT
HETATM    1  C7  UNL     1     -32.014   8.007   1.824  1.00 20.00     0.443 C 
HETATM    2  F9  UNL     1     -30.917   7.236   1.552  1.00 20.00    -0.172 F 
HETATM    3  F10 UNL     1     -31.697   8.676   2.970  1.00 20.00    -0.172 F 
ENDROOT
BRANCH   1   4
HETATM    4  C6  UNL     1     -32.159   9.032   0.662  1.00 20.00     0.046 C 
HETATM    5  C1  UNL     1     -32.692  10.390   1.150  1.00 20.00     0.023 C 
HETATM    6  C2  UNL     1     -30.774   9.263   0.024  1.00 20.00     0.023 C 
HETATM    7  C3  UNL     1     -33.107   8.486  -0.423  1.00 20.00     0.023 C 
ENDBRANCH   1   4
BRANCH   1   8
HETATM    8  N8  UNL     1     -33.199   7.156   2.030  1.00 20.00     0.152 N 
HETATM    9  C4  UNL     1     -32.927   5.747   1.739  1.00 20.00     0.317 C 
HETATM   10  C5  UNL     1     -33.747   7.275   3.383  1.00 20.00     0.317 C 
ENDBRANCH   1   8
TORSDOF 2
ENDMDL
MODEL 9
REMARK VINA RESULT:       1.6      1.052      1.980
REMARK  2 active torsions:
REMARK  status: ('A' for Active; 'I' for Inactive)
REMARK    1  A    between atoms: C6_6  and  C7_7 
REMARK    2  A    between atoms: C7_7  and  N8_8 
ROOT
HETATM    1  C7  UNL     1     -33.542   6.929   2.192  1.00 20.00     0.443 C 
HETATM    2  F9  UNL     1     -34.272   6.341   1.195  1.00 20.00    -0.172 F 
HETATM    3  F10 UNL     1     -33.713   8.270   2.007  1.00 20.00    -0.172 F 
ENDROOT
BRANCH   1   4
HETATM    4  C6  UNL     1     -34.189   6.516   3.545  1.00 20.00     0.046 C 
HETATM    5  C1  UNL     1     -33.790   5.092   3.967  1.00 20.00     0.023 C 
HETATM    6  C2  UNL     1     -33.713   7.491   4.642  1.00 20.00     0.023 C 
HETATM    7  C3  UNL     1     -35.724   6.598   3.457  1.00 20.00     0.023 C 
ENDBRANCH   1   4
BRANCH   1   8
HETATM    8  N8  UNL     1     -32.119   6.565   2.066  1.00 20.00     0.152 N 
HETATM    9  C4  UNL     1     -31.910   5.461   1.128  1.00 20.00     0.317 C 
HETATM   10  C5  UNL     1     -31.282   7.701   1.674  1.00 20.00     0.317 C 
ENDBRANCH   1   8
TORSDOF 2
ENDMDL
