MODEL 1
REMARK VINA RESULT:      -0.7      0.000      0.000
REMARK  1 active torsions:
REMARK  status: ('A' for Active; 'I' for Inactive)
REMARK    1  A    between atoms: C1_1  and  C6_6 
ROOT
HETATM    1  C1  UNL     1     -32.905   7.324   2.569  1.00 20.00     0.149 C 
HETATM    2  C2  UNL     1     -33.923   7.450   4.502  1.00 20.00     0.209 C 
HETATM    3  C3  UNL     1     -34.540   6.360   3.633  1.00 20.00     0.070 C 
HETATM    4  C4  UNL     1     -34.613   5.019   4.357  1.00 20.00     0.042 C 
HETATM    5  C5  UNL     1     -35.921   6.763   3.107  1.00 20.00     0.042 C 
HETATM    6  N7  UNL     1     -33.621   6.249   2.482  1.00 20.00    -0.257 NA
HETATM    7  O8  UNL     1     -33.075   8.165   3.613  1.00 20.00    -0.335 OA
ENDROOT
BRANCH   1   8
HETATM    8  C6  UNL     1     -31.864   7.740   1.595  1.00 20.00     0.200 C 
HETATM    9 CL9  UNL     1     -32.418   9.238   0.839  1.00 20.00    -0.122 Cl
ENDBRANCH   1   8
TORSDOF 1
ENDMDL
MODEL 2
REMARK VINA RESULT:      -0.6      2.520      3.909
REMARK  1 active torsions:
REMARK  status: ('A' for Active; 'I' for Inactive)
REMARK    1  A    between atoms: C1_1  and  C6_6 
ROOT
HETATM    1  C1  UNL     1     -33.790   6.761   2.994  1.00 20.00     0.149 C 
HETATM    2  C2  UNL     1     -32.128   6.476   1.598  1.00 20.00     0.209 C 
HETATM    3  C3  UNL     1     -32.190   7.920   2.081  1.00 20.00     0.070 C 
HETATM    4  C4  UNL     1     -30.853   8.398   2.639  1.00 20.00     0.042 C 
HETATM    5  C5  UNL     1     -32.685   8.868   0.985  1.00 20.00     0.042 C 
HETATM    6  N7  UNL     1     -33.196   7.899   3.162  1.00 20.00    -0.257 NA
HETATM    7  O8  UNL     1     -33.355   5.909   2.039  1.00 20.00    -0.335 OA
ENDROOT
BRANCH   1   8
HETATM    8  C6  UNL     1     -34.947   6.274   3.786  1.00 20.00     0.200 C 
HETATM    9 CL9  UNL     1     -34.588   4.617   4.282  1.00 20.00    -0.122 Cl
ENDBRANCH   1   8
TORSDOF 1
ENDMDL
MODEL 3
REMARK VINA RESULT:       0.1      2.261      3.766
REMARK  1 active torsions:
REMARK  status: ('A' for Active; 'I' for Inactive)
REMARK    1  A    between atoms: C1_1  and  C6_6 
ROOT
HETATM    1  C1  UNL     1     -33.894   7.083   3.361  1.00 20.00     0.149 C 
HETATM    2  C2  UNL     1     -32.182   8.447   3.383  1.00 20.00     0.209 C 
HETATM    3  C3  UNL     1     -32.397   7.867   1.989  1.00 20.00     0.070 C 
HETATM    4  C4  UNL     1     -32.486   8.954   0.922  1.00 20.00     0.042 C 
HETATM    5  C5  UNL     1     -31.319   6.843   1.625  1.00 20.00     0.042 C 
HETATM    6  N7  UNL     1     -33.691   7.163   2.085  1.00 20.00    -0.257 NA
HETATM    7  O8  UNL     1     -33.027   7.666   4.219  1.00 20.00    -0.335 OA
ENDROOT
BRANCH   1   8
HETATM    8  C6  UNL     1     -35.037   6.389   4.004  1.00 20.00     0.200 C 
HETATM    9 CL9  UNL     1     -34.579   4.695   4.209  1.00 20.00    -0.122 Cl
ENDBRANCH   1   8
TORSDOF 1
ENDMDL
MODEL 4
REMARK VINA RESULT:       0.3      1.549      2.098
REMARK  1 active torsions:
REMARK  status: ('A' for Active; 'I' for Inactive)
REMARK    1  A    between atoms: C1_1  and  C6_6 
ROOT
HETATM    1  C1  UNL     1     -32.478   7.951   1.706  1.00 20.00     0.149 C 
HETATM    2  C2  UNL     1     -32.995   6.074   2.706  1.00 20.00     0.209 C 
HETATM    3  C3  UNL     1     -33.694   7.255   3.371  1.00 20.00     0.070 C 
HETATM    4  C4  UNL     1     -35.199   7.038   3.492  1.00 20.00     0.042 C 
HETATM    5  C5  UNL     1     -33.087   7.582   4.738  1.00 20.00     0.042 C 
HETATM    6  N7  UNL     1     -33.431   8.390   2.464  1.00 20.00    -0.257 NA
HETATM    7  O8  UNL     1     -32.046   6.677   1.837  1.00 20.00    -0.335 OA
ENDROOT
BRANCH   1   8
HETATM    8  C6  UNL     1     -31.787   8.741   0.656  1.00 20.00     0.200 C 
HETATM    9 CL9  UNL     1     -32.686  10.249   0.453  1.00 20.00    -0.122 Cl
ENDBRANCH   1   8
TORSDOF 1
ENDMDL
MODEL 5
REMARK VINA RESULT:       0.3      3.104      4.030
REMARK  1 active torsions:
REMARK  status: ('A' for Active; 'I' for Inactive)
REMARK    1  A    between atoms: C1_1  and  C6_6 
ROOT
HETATM    1  C1  UNL     1     -34.061   4.572   4.070  1.00 20.00     0.149 C 
HETATM    2  C2  UNL     1     -35.482   6.221   3.843  1.00 20.00     0.209 C 
HETATM    3  C3  UNL     1     -34.055   6.693   3.585  1.00 20.00     0.070 C 
HETATM    4  C4  UNL     1     -33.922   7.417   2.249  1.00 20.00     0.042 C 
HETATM    5  C5  UNL     1     -33.530   7.570   4.726  1.00 20.00     0.042 C 
HETATM    6  N7  UNL     1     -33.261   5.450   3.554  1.00 20.00    -0.257 NA
HETATM    7  O8  UNL     1     -35.323   4.924   4.402  1.00 20.00    -0.335 OA
ENDROOT
BRANCH   1   8
HETATM    8  C6  UNL     1     -33.717   3.153   4.338  1.00 20.00     0.200 C 
HETATM    9 CL9  UNL     1     -32.544   3.135   5.660  1.00 20.00    -0.122 Cl
ENDBRANCH   1   8
TORSDOF 1
ENDMDL
MODEL 6
REMARK VINA RESULT:       0.4      1.414      1.989
REMARK  1 active torsions:
REMARK  status: ('A' for Active; 'I' for Inactive)
REMARK    1  A    between atoms: C1_1  and  C6_6 
ROOT
HETATM    1  C1  UNL     1     -32.605   7.261   2.311  1.00 20.00     0.149 C 
HETATM    2  C2  UNL     1     -33.998   5.649   1.810  1.00 20.00     0.209 C 
HETATM    3  C3  UNL     1     -34.076   5.993   3.293  1.00 20.00     0.070 C 
HETATM    4  C4  UNL     1     -35.505   6.278   3.743  1.00 20.00     0.042 C 
HETATM    5  C5  UNL     1     -33.445   4.904   4.165  1.00 20.00     0.042 C 
HETATM    6  N7  UNL     1     -33.264   7.219   3.424  1.00 20.00    -0.257 NA
HETATM    7  O8  UNL     1     -32.840   6.336   1.354  1.00 20.00    -0.335 OA
ENDROOT
BRANCH   1   8
HETATM    8  C6  UNL     1     -31.576   8.274   1.963  1.00 20.00     0.200 C 
HETATM    9 CL9  UNL     1     -32.259   9.309   0.704  1.00 20.00    -0.122 Cl
ENDBRANCH   1   8
TORSDOF 1
ENDMDL
MODEL 7
REMARK VINA RESULT:       0.4      3.085      3.809
REMARK  1 active torsions:
REMARK  status: ('A' for Active; 'I' for Inactive)
REMARK    1  A    between atoms: C1_1  and  C6_6 
ROOT
HETATM    1  C1  UNL     1     -33.751   4.552   3.664  1.00 20.00     0.149 C 
HETATM    2  C2  UNL     1     -33.421   6.389   2.520  1.00 20.00     0.209 C 
HETATM    3  C3  UNL     1     -34.398   6.630   3.665  1.00 20.00     0.070 C 
HETATM    4  C4  UNL     1     -33.982   7.810   4.537  1.00 20.00     0.042 C 
HETATM    5  C5  UNL     1     -35.833   6.813   3.161  1.00 20.00     0.042 C 
HETATM    6  N7  UNL     1     -34.343   5.386   4.458  1.00 20.00    -0.257 NA
HETATM    7  O8  UNL     1     -33.293   4.973   2.464  1.00 20.00    -0.335 OA
ENDROOT
BRANCH   1   8
HETATM    8  C6  UNL     1     -33.510   3.117   3.957  1.00 20.00     0.200 C 
HETATM    9 CL9  UNL     1     -32.761   3.023   5.555  1.00 20.00    -0.122 Cl
ENDBRANCH   1   8
TORSDOF 1
ENDMDL
MODEL 8
REMARK VINA RESULT:       0.5      2.510      3.578
REMARK  1 active torsions:
REMARK  status: ('A' for Active; 'I' for Inactive)
REMARK    1  A    between atoms: C1_1  and  C6_6 
ROOT
HETATM    1  C1  UNL     1     -33.464   6.939   3.045  1.00 20.00     0.149 C 
HETATM    2  C2  UNL     1     -32.188   7.302   1.304  1.00 20.00     0.209 C 
HETATM    3  C3  UNL     1     -32.582   5.831   1.393  1.00 20.00     0.070 C 
HETATM    4  C4  UNL     1     -33.189   5.319   0.091  1.00 20.00     0.042 C 
HETATM    5  C5  UNL     1     -31.404   4.950   1.820  1.00 20.00     0.042 C 
HETATM    6  N7  UNL     1     -33.600   5.792   2.461  1.00 20.00    -0.257 NA
HETATM    7  O8  UNL     1     -32.588   7.845   2.556  1.00 20.00    -0.335 OA
ENDROOT
BRANCH   1   8
HETATM    8  C6  UNL     1     -34.212   7.381   4.249  1.00 20.00     0.200 C 
HETATM    9 CL9  UNL     1     -35.527   6.228   4.504  1.00 20.00    -0.122 Cl
ENDBRANCH   1   8
TORSDOF 1
ENDMDL
MODEL 9
REMARK VINA RESULT:       1.0      1.952      2.503
REMARK  1 active torsions:
REMARK  status: ('A' for Active; 'I' for Inactive)
REMARK    1  A    between atoms: C1_1  and  C6_6 
ROOT
HETATM    1  C1  UNL     1     -32.382   7.934   1.795  1.00 20.00     0.149 C 
HETATM    2  C2  UNL     1     -33.234   6.198   2.821  1.00 20.00     0.209 C 
HETATM    3  C3  UNL     1     -32.552   5.782   1.523  1.00 20.00     0.070 C 
HETATM    4  C4  UNL     1     -31.541   4.660   1.738  1.00 20.00     0.042 C 
HETATM    5  C5  UNL     1     -33.568   5.390   0.445  1.00 20.00     0.042 C 
HETATM    6  N7  UNL     1     -31.849   7.000   1.074  1.00 20.00    -0.257 NA
HETATM    7  O8  UNL     1     -33.291   7.617   2.744  1.00 20.00    -0.335 OA
ENDROOT
BRANCH   1   8
HETATM    8  C6  UNL     1     -32.076   9.382   1.682  1.00 20.00     0.200 C 
HETATM    9 CL9  UNL     1     -32.474   9.878   0.033  1.00 20.00    -0.122 Cl
ENDBRANCH   1   8
TORSDOF 1
ENDMDL
