MODEL 1
REMARK VINA RESULT:       0.2      0.000      0.000
REMARK  0 active torsions:
REMARK  status: ('A' for Active; 'I' for Inactive)
ROOT
HETATM    1  C1  UNL     1     -31.949   7.641   1.770  1.00 20.00     0.097 C 
HETATM    2  C2  UNL     1     -34.981   4.359   4.634  1.00 20.00     0.008 C 
HETATM    3  C3  UNL     1     -35.494   5.599   4.630  1.00 20.00     0.029 C 
HETATM    4  C4  UNL     1     -33.128   4.882   3.142  1.00 20.00    -0.004 C 
HETATM    5  C5  UNL     1     -33.534   8.318   3.493  1.00 20.00     0.136 C 
HETATM    6  C6  UNL     1     -33.017   7.404   2.664  1.00 20.00     0.053 C 
HETATM    7  C7  UNL     1     -33.699   4.029   4.015  1.00 20.00    -0.065 C 
HETATM    8  C8  UNL     1     -34.670   6.604   3.934  1.00 20.00     0.047 C 
HETATM    9  C9  UNL     1     -33.819   6.150   2.756  1.00 20.00     0.106 C 
HETATM   10  C10 UNL     1     -33.085   2.715   4.389  1.00 20.00     0.048 C 
HETATM   11  N11 UNL     1     -31.072   7.838   1.036  1.00 20.00    -0.192 NA
HETATM   12  N12 UNL     1     -34.561   7.852   4.271  1.00 20.00    -0.263 NA
ENDROOT
TORSDOF 0
ENDMDL
MODEL 2
REMARK VINA RESULT:       1.5      1.697      2.688
REMARK  0 active torsions:
REMARK  status: ('A' for Active; 'I' for Inactive)
ROOT
HETATM    1  C1  UNL     1     -31.581   4.923   0.557  1.00 20.00     0.097 C 
HETATM    2  C2  UNL     1     -34.794   7.101   4.177  1.00 20.00     0.008 C 
HETATM    3  C3  UNL     1     -34.078   8.045   3.547  1.00 20.00     0.029 C 
HETATM    4  C4  UNL     1     -33.919   5.246   2.863  1.00 20.00    -0.004 C 
HETATM    5  C5  UNL     1     -31.292   7.122   1.568  1.00 20.00     0.136 C 
HETATM    6  C6  UNL     1     -32.024   6.030   1.316  1.00 20.00     0.053 C 
HETATM    7  C7  UNL     1     -34.600   5.671   3.945  1.00 20.00    -0.065 C 
HETATM    8  C8  UNL     1     -33.088   7.527   2.585  1.00 20.00     0.047 C 
HETATM    9  C9  UNL     1     -33.398   6.224   1.860  1.00 20.00     0.106 C 
HETATM   10  C10 UNL     1     -35.201   4.735   4.948  1.00 20.00     0.048 C 
HETATM   11  N11 UNL     1     -31.216   4.015  -0.066  1.00 20.00    -0.192 NA
HETATM   12  N12 UNL     1     -31.932   8.061   2.333  1.00 20.00    -0.263 NA
ENDROOT
TORSDOF 0
ENDMDL
MODEL 3
REMARK VINA RESULT:       2.6      1.941      4.020
REMARK  0 active torsions:
REMARK  status: ('A' for Active; 'I' for Inactive)
ROOT
HETATM    1  C1  UNL     1     -33.716   3.264   4.285  1.00 20.00     0.097 C 
HETATM    2  C2  UNL     1     -33.130   8.159   2.320  1.00 20.00     0.008 C 
HETATM    3  C3  UNL     1     -34.074   8.138   3.273  1.00 20.00     0.029 C 
HETATM    4  C4  UNL     1     -32.531   5.809   2.552  1.00 20.00    -0.004 C 
HETATM    5  C5  UNL     1     -35.371   5.048   4.409  1.00 20.00     0.136 C 
HETATM    6  C6  UNL     1     -34.131   4.609   4.164  1.00 20.00     0.053 C 
HETATM    7  C7  UNL     1     -32.460   6.952   1.841  1.00 20.00    -0.065 C 
HETATM    8  C8  UNL     1     -34.372   6.801   3.815  1.00 20.00     0.047 C 
HETATM    9  C9  UNL     1     -33.250   5.773   3.862  1.00 20.00     0.106 C 
HETATM   10  C10 UNL     1     -31.699   7.064   0.556  1.00 20.00     0.048 C 
HETATM   11  N11 UNL     1     -33.376   2.159   4.385  1.00 20.00    -0.192 NA
HETATM   12  N12 UNL     1     -35.538   6.394   4.216  1.00 20.00    -0.263 NA
ENDROOT
TORSDOF 0
ENDMDL
MODEL 4
REMARK VINA RESULT:       2.6      1.870      3.036
REMARK  0 active torsions:
REMARK  status: ('A' for Active; 'I' for Inactive)
ROOT
HETATM    1  C1  UNL     1     -32.377   9.269   1.025  1.00 20.00     0.097 C 
HETATM    2  C2  UNL     1     -33.828   4.929   3.715  1.00 20.00     0.008 C 
HETATM    3  C3  UNL     1     -32.754   4.678   2.950  1.00 20.00     0.029 C 
HETATM    4  C4  UNL     1     -33.960   7.293   3.141  1.00 20.00    -0.004 C 
HETATM    5  C5  UNL     1     -31.803   6.976   0.431  1.00 20.00     0.136 C 
HETATM    6  C6  UNL     1     -32.278   7.884   1.291  1.00 20.00     0.053 C 
HETATM    7  C7  UNL     1     -34.537   6.207   3.692  1.00 20.00    -0.065 C 
HETATM    8  C8  UNL     1     -32.332   5.802   2.094  1.00 20.00     0.047 C 
HETATM    9  C9  UNL     1     -32.571   7.220   2.593  1.00 20.00     0.106 C 
HETATM   10  C10 UNL     1     -35.899   6.236   4.314  1.00 20.00     0.048 C 
HETATM   11  N11 UNL     1     -32.457  10.405   0.806  1.00 20.00    -0.192 NA
HETATM   12  N12 UNL     1     -31.812   5.692   0.910  1.00 20.00    -0.263 NA
ENDROOT
TORSDOF 0
ENDMDL
MODEL 5
REMARK VINA RESULT:       3.1      1.735      3.907
REMARK  0 active torsions:
REMARK  status: ('A' for Active; 'I' for Inactive)
ROOT
HETATM    1  C1  UNL     1     -35.277   5.497   4.520  1.00 20.00     0.097 C 
HETATM    2  C2  UNL     1     -31.472   6.901   1.098  1.00 20.00     0.008 C 
HETATM    3  C3  UNL     1     -31.889   7.961   1.807  1.00 20.00     0.029 C 
HETATM    4  C4  UNL     1     -32.893   5.292   2.249  1.00 20.00    -0.004 C 
HETATM    5  C5  UNL     1     -34.871   7.756   3.702  1.00 20.00     0.136 C 
HETATM    6  C6  UNL     1     -34.505   6.478   3.859  1.00 20.00     0.053 C 
HETATM    7  C7  UNL     1     -32.089   5.581   1.206  1.00 20.00    -0.065 C 
HETATM    8  C8  UNL     1     -33.012   7.686   2.722  1.00 20.00     0.047 C 
HETATM    9  C9  UNL     1     -33.123   6.296   3.333  1.00 20.00     0.106 C 
HETATM   10  C10 UNL     1     -31.770   4.594   0.126  1.00 20.00     0.048 C 
HETATM   11  N11 UNL     1     -35.912   4.691   5.063  1.00 20.00    -0.192 NA
HETATM   12  N12 UNL     1     -33.961   8.520   3.020  1.00 20.00    -0.263 NA
ENDROOT
TORSDOF 0
ENDMDL
