MODEL 1
REMARK VINA RESULT:      -2.0      0.000      0.000
REMARK  1 active torsions:
REMARK  status: ('A' for Active; 'I' for Inactive)
REMARK    1  A    between atoms: C4_4  and  C6_6 
ROOT
HETATM    1  C1  UNL     1     -31.697   7.045   1.303  1.00 20.00     0.135 A 
HETATM    2  C2  UNL     1     -32.142   8.039   2.147  1.00 20.00     0.136 A 
HETATM    3  C3  UNL     1     -33.294   5.631   2.128  1.00 20.00     0.149 A 
HETATM    4  C4  UNL     1     -33.738   6.625   2.972  1.00 20.00     0.122 A 
HETATM    5  N7  UNL     1     -32.266   5.824   1.278  1.00 20.00    -0.269 NA
HETATM    6  N8  UNL     1     -33.169   7.847   2.996  1.00 20.00    -0.256 NA
ENDROOT
BRANCH   4   7
HETATM    7  C6  UNL     1     -34.877   6.377   3.898  1.00 20.00     0.285 C 
HETATM    8  C5  UNL     1     -34.890   4.941   4.419  1.00 20.00     0.097 C 
HETATM    9  F9  UNL     1     -36.102   6.603   3.319  1.00 20.00    -0.200 F 
HETATM   10  F10 UNL     1     -34.867   7.199   4.996  1.00 20.00    -0.200 F 
ENDBRANCH   4   7
TORSDOF 1
ENDMDL
MODEL 2
REMARK VINA RESULT:      -2.0      0.854      1.507
REMARK  1 active torsions:
REMARK  status: ('A' for Active; 'I' for Inactive)
REMARK    1  A    between atoms: C4_4  and  C6_6 
ROOT
HETATM    1  C1  UNL     1     -31.722   7.097   1.306  1.00 20.00     0.135 A 
HETATM    2  C2  UNL     1     -32.361   5.877   1.318  1.00 20.00     0.136 A 
HETATM    3  C3  UNL     1     -33.115   7.842   2.960  1.00 20.00     0.149 A 
HETATM    4  C4  UNL     1     -33.754   6.622   2.970  1.00 20.00     0.122 A 
HETATM    5  N7  UNL     1     -32.087   8.101   2.127  1.00 20.00    -0.269 NA
HETATM    6  N8  UNL     1     -33.389   5.618   2.149  1.00 20.00    -0.256 NA
ENDROOT
BRANCH   4   7
HETATM    7  C6  UNL     1     -34.887   6.371   3.904  1.00 20.00     0.285 C 
HETATM    8  C5  UNL     1     -34.892   4.936   4.427  1.00 20.00     0.097 C 
HETATM    9  F9  UNL     1     -36.116   6.591   3.332  1.00 20.00    -0.200 F 
HETATM   10  F10 UNL     1     -34.874   7.196   5.000  1.00 20.00    -0.200 F 
ENDBRANCH   4   7
TORSDOF 1
ENDMDL
MODEL 3
REMARK VINA RESULT:      -1.4      2.573      3.777
REMARK  1 active torsions:
REMARK  status: ('A' for Active; 'I' for Inactive)
REMARK    1  A    between atoms: C4_4  and  C6_6 
ROOT
HETATM    1  C1  UNL     1     -35.189   5.016   4.734  1.00 20.00     0.135 A 
HETATM    2  C2  UNL     1     -35.246   6.286   4.204  1.00 20.00     0.136 A 
HETATM    3  C3  UNL     1     -33.522   4.478   3.264  1.00 20.00     0.149 A 
HETATM    4  C4  UNL     1     -33.579   5.747   2.734  1.00 20.00     0.122 A 
HETATM    5  N7  UNL     1     -34.326   4.089   4.274  1.00 20.00    -0.269 NA
HETATM    6  N8  UNL     1     -34.443   6.674   3.195  1.00 20.00    -0.256 NA
ENDROOT
BRANCH   4   7
HETATM    7  C6  UNL     1     -32.675   6.142   1.618  1.00 20.00     0.285 C 
HETATM    8  C5  UNL     1     -32.123   7.555   1.800  1.00 20.00     0.097 C 
HETATM    9  F9  UNL     1     -33.289   6.108   0.390  1.00 20.00    -0.200 F 
HETATM   10  F10 UNL     1     -31.596   5.307   1.478  1.00 20.00    -0.200 F 
ENDBRANCH   4   7
TORSDOF 1
ENDMDL
MODEL 4
REMARK VINA RESULT:      -1.2      2.536      4.032
REMARK  1 active torsions:
REMARK  status: ('A' for Active; 'I' for Inactive)
REMARK    1  A    between atoms: C4_4  and  C6_6 
ROOT
HETATM    1  C1  UNL     1     -34.975   6.110   4.138  1.00 20.00     0.135 A 
HETATM    2  C2  UNL     1     -34.254   5.400   3.204  1.00 20.00     0.136 A 
HETATM    3  C3  UNL     1     -33.740   7.977   3.670  1.00 20.00     0.149 A 
HETATM    4  C4  UNL     1     -33.019   7.266   2.736  1.00 20.00     0.122 A 
HETATM    5  N7  UNL     1     -34.731   7.412   4.387  1.00 20.00    -0.269 NA
HETATM    6  N8  UNL     1     -33.263   5.964   2.487  1.00 20.00    -0.256 NA
ENDROOT
BRANCH   4   7
HETATM    7  C6  UNL     1     -31.930   7.924   1.962  1.00 20.00     0.285 C 
HETATM    8  C5  UNL     1     -32.468   8.987   1.006  1.00 20.00     0.097 C 
HETATM    9  F9  UNL     1     -31.198   7.042   1.205  1.00 20.00    -0.200 F 
HETATM   10  F10 UNL     1     -30.998   8.539   2.758  1.00 20.00    -0.200 F 
ENDBRANCH   4   7
TORSDOF 1
ENDMDL
MODEL 5
REMARK VINA RESULT:      -1.2      2.472      4.004
REMARK  1 active torsions:
REMARK  status: ('A' for Active; 'I' for Inactive)
REMARK    1  A    between atoms: C4_4  and  C6_6 
ROOT
HETATM    1  C1  UNL     1     -35.149   5.025   4.727  1.00 20.00     0.135 A 
HETATM    2  C2  UNL     1     -34.201   4.167   4.214  1.00 20.00     0.136 A 
HETATM    3  C3  UNL     1     -34.494   6.635   3.240  1.00 20.00     0.149 A 
HETATM    4  C4  UNL     1     -33.546   5.777   2.728  1.00 20.00     0.122 A 
HETATM    5  N7  UNL     1     -35.313   6.274   4.249  1.00 20.00    -0.269 NA
HETATM    6  N8  UNL     1     -33.383   4.527   3.207  1.00 20.00    -0.256 NA
ENDROOT
BRANCH   4   7
HETATM    7  C6  UNL     1     -32.659   6.209   1.614  1.00 20.00     0.285 C 
HETATM    8  C5  UNL     1     -32.111   7.619   1.831  1.00 20.00     0.097 C 
HETATM    9  F9  UNL     1     -33.287   6.209   0.393  1.00 20.00    -0.200 F 
HETATM   10  F10 UNL     1     -31.577   5.384   1.435  1.00 20.00    -0.200 F 
ENDBRANCH   4   7
TORSDOF 1
ENDMDL
MODEL 6
REMARK VINA RESULT:      -1.1      2.555      3.757
REMARK  1 active torsions:
REMARK  status: ('A' for Active; 'I' for Inactive)
REMARK    1  A    between atoms: C4_4  and  C6_6 
ROOT
HETATM    1  C1  UNL     1     -34.904   6.069   4.086  1.00 20.00     0.135 A 
HETATM    2  C2  UNL     1     -34.616   7.407   4.245  1.00 20.00     0.136 A 
HETATM    3  C3  UNL     1     -33.272   5.907   2.493  1.00 20.00     0.149 A 
HETATM    4  C4  UNL     1     -32.984   7.245   2.652  1.00 20.00     0.122 A 
HETATM    5  N7  UNL     1     -34.237   5.295   3.208  1.00 20.00    -0.269 NA
HETATM    6  N8  UNL     1     -33.651   8.018   3.531  1.00 20.00    -0.256 NA
ENDROOT
BRANCH   4   7
HETATM    7  C6  UNL     1     -31.911   7.888   1.844  1.00 20.00     0.285 C 
HETATM    8  C5  UNL     1     -32.451   9.018   0.969  1.00 20.00     0.097 C 
HETATM    9  F9  UNL     1     -31.266   7.010   1.009  1.00 20.00    -0.200 F 
HETATM   10  F10 UNL     1     -30.907   8.422   2.611  1.00 20.00    -0.200 F 
ENDBRANCH   4   7
TORSDOF 1
ENDMDL
MODEL 7
REMARK VINA RESULT:      -0.9      1.039      1.087
REMARK  1 active torsions:
REMARK  status: ('A' for Active; 'I' for Inactive)
REMARK    1  A    between atoms: C4_4  and  C6_6 
ROOT
HETATM    1  C1  UNL     1     -31.640   6.420   0.976  1.00 20.00     0.135 A 
HETATM    2  C2  UNL     1     -31.658   7.682   1.529  1.00 20.00     0.136 A 
HETATM    3  C3  UNL     1     -33.359   5.795   2.349  1.00 20.00     0.149 A 
HETATM    4  C4  UNL     1     -33.376   7.056   2.902  1.00 20.00     0.122 A 
HETATM    5  N7  UNL     1     -32.490   5.454   1.376  1.00 20.00    -0.269 NA
HETATM    6  N8  UNL     1     -32.526   8.022   2.501  1.00 20.00    -0.256 NA
ENDROOT
BRANCH   4   7
HETATM    7  C6  UNL     1     -34.350   7.398   3.976  1.00 20.00     0.285 C 
HETATM    8  C5  UNL     1     -35.284   6.232   4.294  1.00 20.00     0.097 C 
HETATM    9  F9  UNL     1     -35.145   8.472   3.661  1.00 20.00    -0.200 F 
HETATM   10  F10 UNL     1     -33.747   7.759   5.154  1.00 20.00    -0.200 F 
ENDBRANCH   4   7
TORSDOF 1
ENDMDL
MODEL 8
REMARK VINA RESULT:      -0.8      1.209      1.962
REMARK  1 active torsions:
REMARK  status: ('A' for Active; 'I' for Inactive)
REMARK    1  A    between atoms: C4_4  and  C6_6 
ROOT
HETATM    1  C1  UNL     1     -31.638   7.204   1.346  1.00 20.00     0.135 A 
HETATM    2  C2  UNL     1     -32.273   5.982   1.316  1.00 20.00     0.136 A 
HETATM    3  C3  UNL     1     -33.058   7.899   2.999  1.00 20.00     0.149 A 
HETATM    4  C4  UNL     1     -33.692   6.677   2.968  1.00 20.00     0.122 A 
HETATM    5  N7  UNL     1     -32.019   8.184   2.188  1.00 20.00    -0.269 NA
HETATM    6  N8  UNL     1     -33.311   5.697   2.125  1.00 20.00    -0.256 NA
ENDROOT
BRANCH   4   7
HETATM    7  C6  UNL     1     -34.837   6.397   3.878  1.00 20.00     0.285 C 
HETATM    8  C5  UNL     1     -36.183   6.639   3.197  1.00 20.00     0.097 C 
HETATM    9  F9  UNL     1     -34.822   7.167   5.015  1.00 20.00    -0.200 F 
HETATM   10  F10 UNL     1     -34.852   5.107   4.344  1.00 20.00    -0.200 F 
ENDBRANCH   4   7
TORSDOF 1
ENDMDL
MODEL 9
REMARK VINA RESULT:      -0.6      2.274      3.907
REMARK  1 active torsions:
REMARK  status: ('A' for Active; 'I' for Inactive)
REMARK    1  A    between atoms: C4_4  and  C6_6 
ROOT
HETATM    1  C1  UNL     1     -34.957   5.538   4.118  1.00 20.00     0.135 A 
HETATM    2  C2  UNL     1     -34.058   5.024   3.210  1.00 20.00     0.136 A 
HETATM    3  C3  UNL     1     -34.096   7.631   3.783  1.00 20.00     0.149 A 
HETATM    4  C4  UNL     1     -33.197   7.115   2.876  1.00 20.00     0.122 A 
HETATM    5  N7  UNL     1     -34.993   6.851   4.420  1.00 20.00    -0.269 NA
HETATM    6  N8  UNL     1     -33.162   5.802   2.574  1.00 20.00    -0.256 NA
ENDROOT
BRANCH   4   7
HETATM    7  C6  UNL     1     -32.220   8.007   2.192  1.00 20.00     0.285 C 
HETATM    8  C5  UNL     1     -31.413   7.263   1.128  1.00 20.00     0.097 C 
HETATM    9  F9  UNL     1     -31.315   8.577   3.053  1.00 20.00    -0.200 F 
HETATM   10  F10 UNL     1     -32.812   9.076   1.569  1.00 20.00    -0.200 F 
ENDBRANCH   4   7
TORSDOF 1
ENDMDL
