MODEL 1
REMARK VINA RESULT:      -2.0      0.000      0.000
REMARK  3 active torsions:
REMARK  status: ('A' for Active; 'I' for Inactive)
REMARK    1  A    between atoms: C3_3  and  C7_7 
REMARK    2  A    between atoms: C7_7  and  C8_8 
REMARK    3  A    between atoms: C8_8  and  C9_9 
ROOT
HETATM    1  C1  UNL     1     -34.866   6.191   4.054  1.00 20.00     0.088 C 
HETATM    2  C2  UNL     1     -33.965   7.234   3.706  1.00 20.00     0.096 C 
HETATM    3  C3  UNL     1     -33.066   7.151   2.709  1.00 20.00    -0.074 C 
HETATM    4  C4  UNL     1     -32.970   5.897   1.880  1.00 20.00     0.044 C 
HETATM    5  N10 UNL     1     -35.603   5.343   4.345  1.00 20.00    -0.192 NA
ENDROOT
BRANCH   3   6
HETATM    6  C7  UNL     1     -32.083   8.247   2.347  1.00 20.00     0.034 C 
BRANCH   6   7
HETATM    7  C8  UNL     1     -31.885   8.367   0.831  1.00 20.00     0.008 C 
BRANCH   7   8
HETATM    8  C9  UNL     1     -32.086   9.800   0.300  1.00 20.00    -0.023 C 
HETATM    9  C5  UNL     1     -32.853  10.632   1.332  1.00 20.00     0.009 C 
HETATM   10  C6  UNL     1     -32.826   9.828  -1.038  1.00 20.00     0.009 C 
ENDBRANCH   7   8
ENDBRANCH   6   7
ENDBRANCH   3   6
TORSDOF 3
ENDMDL
MODEL 2
REMARK VINA RESULT:      -1.9      2.603      5.028
REMARK  3 active torsions:
REMARK  status: ('A' for Active; 'I' for Inactive)
REMARK    1  A    between atoms: C3_3  and  C7_7 
REMARK    2  A    between atoms: C7_7  and  C8_8 
REMARK    3  A    between atoms: C8_8  and  C9_9 
ROOT
HETATM    1  C1  UNL     1     -32.393   9.832   0.416  1.00 20.00     0.088 C 
HETATM    2  C2  UNL     1     -32.371   8.413   0.514  1.00 20.00     0.096 C 
HETATM    3  C3  UNL     1     -32.092   7.741   1.646  1.00 20.00    -0.074 C 
HETATM    4  C4  UNL     1     -31.777   8.492   2.913  1.00 20.00     0.044 C 
HETATM    5  N10 UNL     1     -32.412  10.988   0.328  1.00 20.00    -0.192 NA
ENDROOT
BRANCH   3   6
HETATM    6  C7  UNL     1     -32.040   6.230   1.754  1.00 20.00     0.034 C 
BRANCH   6   7
HETATM    7  C8  UNL     1     -33.421   5.624   2.031  1.00 20.00     0.008 C 
BRANCH   7   8
HETATM    8  C9  UNL     1     -33.799   5.622   3.525  1.00 20.00    -0.023 C 
HETATM    9  C5  UNL     1     -34.041   4.186   3.997  1.00 20.00     0.009 C 
HETATM   10  C6  UNL     1     -35.033   6.476   3.816  1.00 20.00     0.009 C 
ENDBRANCH   7   8
ENDBRANCH   6   7
ENDBRANCH   3   6
TORSDOF 3
ENDMDL
MODEL 3
REMARK VINA RESULT:      -1.4      2.642      4.797
REMARK  3 active torsions:
REMARK  status: ('A' for Active; 'I' for Inactive)
REMARK    1  A    between atoms: C3_3  and  C7_7 
REMARK    2  A    between atoms: C7_7  and  C8_8 
REMARK    3  A    between atoms: C8_8  and  C9_9 
ROOT
HETATM    1  C1  UNL     1     -32.448   9.851   0.254  1.00 20.00     0.088 C 
HETATM    2  C2  UNL     1     -32.833   8.496   0.453  1.00 20.00     0.096 C 
HETATM    3  C3  UNL     1     -32.336   7.706   1.422  1.00 20.00    -0.074 C 
HETATM    4  C4  UNL     1     -31.306   8.244   2.382  1.00 20.00     0.044 C 
HETATM    5  N10 UNL     1     -32.138  10.956   0.085  1.00 20.00    -0.192 NA
ENDROOT
BRANCH   3   6
HETATM    6  C7  UNL     1     -32.720   6.254   1.625  1.00 20.00     0.034 C 
BRANCH   6   7
HETATM    7  C8  UNL     1     -33.148   5.967   3.070  1.00 20.00     0.008 C 
BRANCH   7   8
HETATM    8  C9  UNL     1     -34.381   6.778   3.513  1.00 20.00    -0.023 C 
HETATM    9  C5  UNL     1     -33.968   7.820   4.556  1.00 20.00     0.009 C 
HETATM   10  C6  UNL     1     -35.490   5.892   4.080  1.00 20.00     0.009 C 
ENDBRANCH   7   8
ENDBRANCH   6   7
ENDBRANCH   3   6
TORSDOF 3
ENDMDL
MODEL 4
REMARK VINA RESULT:      -1.2      1.693      2.766
REMARK  3 active torsions:
REMARK  status: ('A' for Active; 'I' for Inactive)
REMARK    1  A    between atoms: C3_3  and  C7_7 
REMARK    2  A    between atoms: C7_7  and  C8_8 
REMARK    3  A    between atoms: C8_8  and  C9_9 
ROOT
HETATM    1  C1  UNL     1     -33.547   3.712   4.140  1.00 20.00     0.088 C 
HETATM    2  C2  UNL     1     -33.386   4.981   3.517  1.00 20.00     0.096 C 
HETATM    3  C3  UNL     1     -34.272   5.988   3.621  1.00 20.00    -0.074 C 
HETATM    4  C4  UNL     1     -35.526   5.811   4.437  1.00 20.00     0.044 C 
HETATM    5  N10 UNL     1     -33.672   2.675   4.644  1.00 20.00    -0.192 NA
ENDROOT
BRANCH   3   6
HETATM    6  C7  UNL     1     -34.123   7.334   2.940  1.00 20.00     0.034 C 
BRANCH   6   7
HETATM    7  C8  UNL     1     -32.719   7.922   3.126  1.00 20.00     0.008 C 
BRANCH   7   8
HETATM    8  C9  UNL     1     -31.887   7.938   1.829  1.00 20.00    -0.023 C 
HETATM    9  C5  UNL     1     -32.342   9.095   0.935  1.00 20.00     0.009 C 
HETATM   10  C6  UNL     1     -31.982   6.622   1.058  1.00 20.00     0.009 C 
ENDBRANCH   7   8
ENDBRANCH   6   7
ENDBRANCH   3   6
TORSDOF 3
ENDMDL
MODEL 5
REMARK VINA RESULT:      -1.2      1.807      2.723
REMARK  3 active torsions:
REMARK  status: ('A' for Active; 'I' for Inactive)
REMARK    1  A    between atoms: C3_3  and  C7_7 
REMARK    2  A    between atoms: C7_7  and  C8_8 
REMARK    3  A    between atoms: C8_8  and  C9_9 
ROOT
HETATM    1  C1  UNL     1     -33.455   3.412   4.227  1.00 20.00     0.088 C 
HETATM    2  C2  UNL     1     -33.261   4.652   3.559  1.00 20.00     0.096 C 
HETATM    3  C3  UNL     1     -34.135   5.674   3.601  1.00 20.00    -0.074 C 
HETATM    4  C4  UNL     1     -35.411   5.546   4.391  1.00 20.00     0.044 C 
HETATM    5  N10 UNL     1     -33.606   2.397   4.768  1.00 20.00    -0.192 NA
ENDROOT
BRANCH   3   6
HETATM    6  C7  UNL     1     -33.950   6.990   2.872  1.00 20.00     0.034 C 
BRANCH   6   7
HETATM    7  C8  UNL     1     -32.962   6.870   1.705  1.00 20.00     0.008 C 
BRANCH   7   8
HETATM    8  C9  UNL     1     -31.891   7.977   1.696  1.00 20.00    -0.023 C 
HETATM    9  C5  UNL     1     -31.693   8.519   3.114  1.00 20.00     0.009 C 
HETATM   10  C6  UNL     1     -32.245   9.124   0.750  1.00 20.00     0.009 C 
ENDBRANCH   7   8
ENDBRANCH   6   7
ENDBRANCH   3   6
TORSDOF 3
ENDMDL
MODEL 6
REMARK VINA RESULT:      -1.1      1.003      1.717
REMARK  3 active torsions:
REMARK  status: ('A' for Active; 'I' for Inactive)
REMARK    1  A    between atoms: C3_3  and  C7_7 
REMARK    2  A    between atoms: C7_7  and  C8_8 
REMARK    3  A    between atoms: C8_8  and  C9_9 
ROOT
HETATM    1  C1  UNL     1     -34.631   4.950   4.002  1.00 20.00     0.088 C 
HETATM    2  C2  UNL     1     -33.694   5.325   3.000  1.00 20.00     0.096 C 
HETATM    3  C3  UNL     1     -33.275   6.587   2.795  1.00 20.00    -0.074 C 
HETATM    4  C4  UNL     1     -33.801   7.708   3.654  1.00 20.00     0.044 C 
HETATM    5  N10 UNL     1     -35.395   4.637   4.816  1.00 20.00    -0.192 NA
ENDROOT
BRANCH   3   6
HETATM    6  C7  UNL     1     -32.298   7.001   1.713  1.00 20.00     0.034 C 
BRANCH   6   7
HETATM    7  C8  UNL     1     -32.015   8.508   1.736  1.00 20.00     0.008 C 
BRANCH   7   8
HETATM    8  C9  UNL     1     -32.390   9.220   0.422  1.00 20.00    -0.023 C 
HETATM    9  C5  UNL     1     -31.233   9.110  -0.576  1.00 20.00     0.009 C 
HETATM   10  C6  UNL     1     -32.749  10.690   0.636  1.00 20.00     0.009 C 
ENDBRANCH   7   8
ENDBRANCH   6   7
ENDBRANCH   3   6
TORSDOF 3
ENDMDL
MODEL 7
REMARK VINA RESULT:      -1.0      2.645      4.808
REMARK  3 active torsions:
REMARK  status: ('A' for Active; 'I' for Inactive)
REMARK    1  A    between atoms: C3_3  and  C7_7 
REMARK    2  A    between atoms: C7_7  and  C8_8 
REMARK    3  A    between atoms: C8_8  and  C9_9 
ROOT
HETATM    1  C1  UNL     1     -32.658   9.747   0.134  1.00 20.00     0.088 C 
HETATM    2  C2  UNL     1     -32.701   9.427   1.519  1.00 20.00     0.096 C 
HETATM    3  C3  UNL     1     -32.271   8.261   2.036  1.00 20.00    -0.074 C 
HETATM    4  C4  UNL     1     -31.702   7.198   1.133  1.00 20.00     0.044 C 
HETATM    5  N10 UNL     1     -32.629  10.015  -0.994  1.00 20.00    -0.192 NA
ENDROOT
BRANCH   3   6
HETATM    6  C7  UNL     1     -32.336   7.900   3.507  1.00 20.00     0.034 C 
BRANCH   6   7
HETATM    7  C8  UNL     1     -33.776   7.661   3.979  1.00 20.00     0.008 C 
BRANCH   7   8
HETATM    8  C9  UNL     1     -34.398   6.370   3.413  1.00 20.00    -0.023 C 
HETATM    9  C5  UNL     1     -35.673   6.026   4.187  1.00 20.00     0.009 C 
HETATM   10  C6  UNL     1     -33.432   5.187   3.458  1.00 20.00     0.009 C 
ENDBRANCH   7   8
ENDBRANCH   6   7
ENDBRANCH   3   6
TORSDOF 3
ENDMDL
MODEL 8
REMARK VINA RESULT:      -0.9      3.075      5.904
REMARK  3 active torsions:
REMARK  status: ('A' for Active; 'I' for Inactive)
REMARK    1  A    between atoms: C3_3  and  C7_7 
REMARK    2  A    between atoms: C7_7  and  C8_8 
REMARK    3  A    between atoms: C8_8  and  C9_9 
ROOT
HETATM    1  C1  UNL     1     -32.462   7.550   1.833  1.00 20.00     0.088 C 
HETATM    2  C2  UNL     1     -33.110   6.405   2.373  1.00 20.00     0.096 C 
HETATM    3  C3  UNL     1     -33.903   6.432   3.460  1.00 20.00    -0.074 C 
HETATM    4  C4  UNL     1     -34.152   7.730   4.183  1.00 20.00     0.044 C 
HETATM    5  N10 UNL     1     -31.929   8.478   1.387  1.00 20.00    -0.192 NA
ENDROOT
BRANCH   3   6
HETATM    6  C7  UNL     1     -34.577   5.213   4.059  1.00 20.00     0.034 C 
BRANCH   6   7
HETATM    7  C8  UNL     1     -33.848   3.913   3.696  1.00 20.00     0.008 C 
BRANCH   7   8
HETATM    8  C9  UNL     1     -33.583   3.003   4.911  1.00 20.00    -0.023 C 
HETATM    9  C5  UNL     1     -32.411   3.556   5.727  1.00 20.00     0.009 C 
HETATM   10  C6  UNL     1     -33.291   1.558   4.505  1.00 20.00     0.009 C 
ENDBRANCH   7   8
ENDBRANCH   6   7
ENDBRANCH   3   6
TORSDOF 3
ENDMDL
MODEL 9
REMARK VINA RESULT:      -0.9      2.661      5.127
REMARK  3 active torsions:
REMARK  status: ('A' for Active; 'I' for Inactive)
REMARK    1  A    between atoms: C3_3  and  C7_7 
REMARK    2  A    between atoms: C7_7  and  C8_8 
REMARK    3  A    between atoms: C8_8  and  C9_9 
ROOT
HETATM    1  C1  UNL     1     -32.446   9.863   0.322  1.00 20.00     0.088 C 
HETATM    2  C2  UNL     1     -32.689   8.462   0.346  1.00 20.00     0.096 C 
HETATM    3  C3  UNL     1     -32.498   7.683   1.426  1.00 20.00    -0.074 C 
HETATM    4  C4  UNL     1     -31.997   8.285   2.713  1.00 20.00     0.044 C 
HETATM    5  N10 UNL     1     -32.249  11.006   0.294  1.00 20.00    -0.192 NA
ENDROOT
BRANCH   3   6
HETATM    6  C7  UNL     1     -32.728   6.185   1.454  1.00 20.00     0.034 C 
BRANCH   6   7
HETATM    7  C8  UNL     1     -32.764   5.633   2.885  1.00 20.00     0.008 C 
BRANCH   7   8
HETATM    8  C9  UNL     1     -34.171   5.197   3.336  1.00 20.00    -0.023 C 
HETATM    9  C5  UNL     1     -34.911   6.389   3.950  1.00 20.00     0.009 C 
HETATM   10  C6  UNL     1     -34.132   4.043   4.337  1.00 20.00     0.009 C 
ENDBRANCH   7   8
ENDBRANCH   6   7
ENDBRANCH   3   6
TORSDOF 3
ENDMDL
