MODEL 1
REMARK VINA RESULT:       0.9      0.000      0.000
REMARK  3 active torsions:
REMARK  status: ('A' for Active; 'I' for Inactive)
REMARK    1  A    between atoms: C6_6  and  C8_8 
REMARK    2  A    between atoms: C7_7  and  O11_11 
REMARK    3  A    between atoms: C9_9  and  C10_10 
ROOT
HETATM    1  C1  UNL     1     -35.477   6.610   3.965  1.00 20.00    -0.023 C 
HETATM    2  C2  UNL     1     -35.344   5.318   4.347  1.00 20.00     0.001 C 
HETATM    3  C6  UNL     1     -34.118   7.108   3.635  1.00 20.00     0.019 C 
HETATM    4  C7  UNL     1     -33.921   4.809   4.111  1.00 20.00     0.145 C 
HETATM    5  C10 UNL     1     -33.574   5.807   3.030  1.00 20.00     0.030 C 
ENDROOT
BRANCH   4   6
HETATM    6  O11 UNL     1     -33.934   3.489   3.608  1.00 20.00    -0.391 OA
HETATM    7  H25 UNL     1     -33.143   3.385   3.050  1.00 20.00     0.210 HD
ENDBRANCH   4   6
BRANCH   5   8
HETATM    8  C9  UNL     1     -32.235   6.253   2.418  1.00 20.00    -0.007 C 
HETATM    9  C4  UNL     1     -31.780   5.042   1.558  1.00 20.00     0.005 C 
HETATM   10  C3  UNL     1     -32.925   4.930   0.516  1.00 20.00     0.005 C 
HETATM   11  C8  UNL     1     -33.729   6.233   0.716  1.00 20.00    -0.006 C 
HETATM   12  C5  UNL     1     -32.622   7.181   1.251  1.00 20.00     0.010 C 
ENDBRANCH   5   8
TORSDOF 3
ENDMDL
MODEL 2
REMARK VINA RESULT:       1.7      2.060      2.899
REMARK  3 active torsions:
REMARK  status: ('A' for Active; 'I' for Inactive)
REMARK    1  A    between atoms: C6_6  and  C8_8 
REMARK    2  A    between atoms: C7_7  and  O11_11 
REMARK    3  A    between atoms: C9_9  and  C10_10 
ROOT
HETATM    1  C1  UNL     1     -34.165   7.343   3.720  1.00 20.00    -0.023 C 
HETATM    2  C2  UNL     1     -34.132   6.225   2.958  1.00 20.00     0.001 C 
HETATM    3  C6  UNL     1     -32.851   8.016   3.562  1.00 20.00     0.019 C 
HETATM    4  C7  UNL     1     -32.873   6.177   2.089  1.00 20.00     0.145 C 
HETATM    5  C10 UNL     1     -32.628   7.669   2.084  1.00 20.00     0.030 C 
ENDROOT
BRANCH   4   6
HETATM    6  O11 UNL     1     -33.171   5.700   0.794  1.00 20.00    -0.391 OA
HETATM    7  H25 UNL     1     -32.364   5.277   0.450  1.00 20.00     0.210 HD
ENDBRANCH   4   6
BRANCH   5   8
HETATM    8  C9  UNL     1     -31.401   8.521   1.718  1.00 20.00    -0.007 C 
HETATM    9  C4  UNL     1     -31.286   8.391   0.175  1.00 20.00     0.005 C 
HETATM   10  C3  UNL     1     -32.626   9.007  -0.308  1.00 20.00     0.005 C 
HETATM   11  C8  UNL     1     -33.205   9.662   0.965  1.00 20.00    -0.006 C 
HETATM   12  C5  UNL     1     -31.904   9.976   1.751  1.00 20.00     0.010 C 
ENDBRANCH   5   8
TORSDOF 3
ENDMDL
MODEL 3
REMARK VINA RESULT:       1.8      3.009      4.844
REMARK  3 active torsions:
REMARK  status: ('A' for Active; 'I' for Inactive)
REMARK    1  A    between atoms: C6_6  and  C8_8 
REMARK    2  A    between atoms: C7_7  and  O11_11 
REMARK    3  A    between atoms: C9_9  and  C10_10 
ROOT
HETATM    1  C1  UNL     1     -32.103   9.127  -1.100  1.00 20.00    -0.023 C 
HETATM    2  C2  UNL     1     -32.789  10.155  -0.548  1.00 20.00     0.001 C 
HETATM    3  C6  UNL     1     -31.267   8.535  -0.026  1.00 20.00     0.019 C 
HETATM    4  C7  UNL     1     -32.608  10.195   0.971  1.00 20.00     0.145 C 
HETATM    5  C10 UNL     1     -32.260   8.733   1.127  1.00 20.00     0.030 C 
ENDROOT
BRANCH   4   6
HETATM    6  O11 UNL     1     -33.826  10.506   1.616  1.00 20.00    -0.391 OA
HETATM    7  H25 UNL     1     -34.323   9.674   1.710  1.00 20.00     0.210 HD
ENDBRANCH   4   6
BRANCH   5   8
HETATM    8  C9  UNL     1     -31.613   7.935   2.272  1.00 20.00    -0.007 C 
HETATM    9  C4  UNL     1     -32.675   7.953   3.405  1.00 20.00     0.005 C 
HETATM   10  C3  UNL     1     -33.873   7.219   2.746  1.00 20.00     0.005 C 
HETATM   11  C8  UNL     1     -33.271   6.628   1.453  1.00 20.00    -0.006 C 
HETATM   12  C5  UNL     1     -31.785   6.457   1.873  1.00 20.00     0.010 C 
ENDBRANCH   5   8
TORSDOF 3
ENDMDL
MODEL 4
REMARK VINA RESULT:       1.9      1.769      2.330
REMARK  3 active torsions:
REMARK  status: ('A' for Active; 'I' for Inactive)
REMARK    1  A    between atoms: C6_6  and  C8_8 
REMARK    2  A    between atoms: C7_7  and  O11_11 
REMARK    3  A    between atoms: C9_9  and  C10_10 
ROOT
HETATM    1  C1  UNL     1     -34.965   6.924   3.827  1.00 20.00    -0.023 C 
HETATM    2  C2  UNL     1     -34.525   5.815   3.188  1.00 20.00     0.001 C 
HETATM    3  C6  UNL     1     -33.780   7.785   4.068  1.00 20.00     0.019 C 
HETATM    4  C7  UNL     1     -33.055   5.947   2.785  1.00 20.00     0.145 C 
HETATM    5  C10 UNL     1     -33.032   7.458   2.768  1.00 20.00     0.030 C 
ENDROOT
BRANCH   4   6
HETATM    6  O11 UNL     1     -32.835   5.415   1.496  1.00 20.00    -0.391 OA
HETATM    7  H25 UNL     1     -32.211   6.008   1.041  1.00 20.00     0.210 HD
ENDBRANCH   4   6
BRANCH   5   8
HETATM    8  C9  UNL     1     -31.882   8.481   2.773  1.00 20.00    -0.007 C 
HETATM    9  C4  UNL     1     -30.918   7.984   1.662  1.00 20.00     0.005 C 
HETATM   10  C3  UNL     1     -31.807   8.067   0.393  1.00 20.00     0.005 C 
HETATM   11  C8  UNL     1     -33.048   8.854   0.868  1.00 20.00    -0.006 C 
HETATM   12  C5  UNL     1     -32.435   9.702   2.015  1.00 20.00     0.010 C 
ENDBRANCH   5   8
TORSDOF 3
ENDMDL
MODEL 5
REMARK VINA RESULT:       2.2      1.953      3.959
REMARK  3 active torsions:
REMARK  status: ('A' for Active; 'I' for Inactive)
REMARK    1  A    between atoms: C6_6  and  C8_8 
REMARK    2  A    between atoms: C7_7  and  O11_11 
REMARK    3  A    between atoms: C9_9  and  C10_10 
ROOT
HETATM    1  C1  UNL     1     -32.836   5.164   0.849  1.00 20.00    -0.023 C 
HETATM    2  C2  UNL     1     -32.198   6.343   0.665  1.00 20.00     0.001 C 
HETATM    3  C6  UNL     1     -32.978   4.969   2.313  1.00 20.00     0.019 C 
HETATM    4  C7  UNL     1     -32.045   7.107   1.982  1.00 20.00     0.145 C 
HETATM    5  C10 UNL     1     -33.204   6.440   2.686  1.00 20.00     0.030 C 
ENDROOT
BRANCH   4   6
HETATM    6  O11 UNL     1     -32.281   8.487   1.795  1.00 20.00    -0.391 OA
HETATM    7  H25 UNL     1     -32.607   8.603   0.885  1.00 20.00     0.210 HD
ENDBRANCH   4   6
BRANCH   5   8
HETATM    8  C9  UNL     1     -33.612   6.355   4.167  1.00 20.00    -0.007 C 
HETATM    9  C4  UNL     1     -33.837   7.832   4.592  1.00 20.00     0.005 C 
HETATM   10  C3  UNL     1     -34.998   8.270   3.660  1.00 20.00     0.005 C 
HETATM   11  C8  UNL     1     -35.482   6.944   3.033  1.00 20.00    -0.006 C 
HETATM   12  C5  UNL     1     -35.093   5.934   4.148  1.00 20.00     0.010 C 
ENDBRANCH   5   8
TORSDOF 3
ENDMDL
MODEL 6
REMARK VINA RESULT:       2.5      1.859      2.518
REMARK  3 active torsions:
REMARK  status: ('A' for Active; 'I' for Inactive)
REMARK    1  A    between atoms: C6_6  and  C8_8 
REMARK    2  A    between atoms: C7_7  and  O11_11 
REMARK    3  A    between atoms: C9_9  and  C10_10 
ROOT
HETATM    1  C1  UNL     1     -35.189   6.100   4.171  1.00 20.00    -0.023 C 
HETATM    2  C2  UNL     1     -34.519   6.943   4.991  1.00 20.00     0.001 C 
HETATM    3  C6  UNL     1     -35.104   6.667   2.802  1.00 20.00     0.019 C 
HETATM    4  C7  UNL     1     -33.777   8.022   4.200  1.00 20.00     0.145 C 
HETATM    5  C10 UNL     1     -33.683   7.235   2.912  1.00 20.00     0.030 C 
ENDROOT
BRANCH   4   6
HETATM    6  O11 UNL     1     -32.499   8.263   4.750  1.00 20.00    -0.391 OA
HETATM    7  H25 UNL     1     -31.958   7.471   4.580  1.00 20.00     0.210 HD
ENDBRANCH   4   6
BRANCH   5   8
HETATM    8  C9  UNL     1     -33.369   7.646   1.463  1.00 20.00    -0.007 C 
HETATM    9  C4  UNL     1     -31.853   7.981   1.475  1.00 20.00     0.005 C 
HETATM   10  C3  UNL     1     -31.219   6.623   1.880  1.00 20.00     0.005 C 
HETATM   11  C8  UNL     1     -32.393   5.626   1.770  1.00 20.00    -0.006 C 
HETATM   12  C5  UNL     1     -33.265   6.319   0.689  1.00 20.00     0.010 C 
ENDBRANCH   5   8
TORSDOF 3
ENDMDL
MODEL 7
REMARK VINA RESULT:       2.6      1.544      2.576
REMARK  3 active torsions:
REMARK  status: ('A' for Active; 'I' for Inactive)
REMARK    1  A    between atoms: C6_6  and  C8_8 
REMARK    2  A    between atoms: C7_7  and  O11_11 
REMARK    3  A    between atoms: C9_9  and  C10_10 
ROOT
HETATM    1  C1  UNL     1     -33.914   4.160   4.074  1.00 20.00    -0.023 C 
HETATM    2  C2  UNL     1     -34.530   5.219   4.649  1.00 20.00     0.001 C 
HETATM    3  C6  UNL     1     -33.901   4.406   2.610  1.00 20.00     0.019 C 
HETATM    4  C7  UNL     1     -34.794   6.332   3.632  1.00 20.00     0.145 C 
HETATM    5  C10 UNL     1     -33.703   5.927   2.668  1.00 20.00     0.030 C 
ENDROOT
BRANCH   4   6
HETATM    6  O11 UNL     1     -34.537   7.601   4.195  1.00 20.00    -0.391 OA
HETATM    7  H25 UNL     1     -33.704   7.925   3.810  1.00 20.00     0.210 HD
ENDBRANCH   4   6
BRANCH   5   8
HETATM    8  C9  UNL     1     -33.426   6.288   1.198  1.00 20.00    -0.007 C 
HETATM    9  C4  UNL     1     -33.017   7.786   1.238  1.00 20.00     0.005 C 
HETATM   10  C3  UNL     1     -31.736   7.754   2.114  1.00 20.00     0.005 C 
HETATM   11  C8  UNL     1     -31.409   6.249   2.227  1.00 20.00    -0.006 C 
HETATM   12  C5  UNL     1     -32.026   5.716   0.906  1.00 20.00     0.010 C 
ENDBRANCH   5   8
TORSDOF 3
ENDMDL
MODEL 8
REMARK VINA RESULT:       2.7      1.596      3.085
REMARK  3 active torsions:
REMARK  status: ('A' for Active; 'I' for Inactive)
REMARK    1  A    between atoms: C6_6  and  C8_8 
REMARK    2  A    between atoms: C7_7  and  O11_11 
REMARK    3  A    between atoms: C9_9  and  C10_10 
ROOT
HETATM    1  C1  UNL     1     -32.369   3.603   4.189  1.00 20.00    -0.023 C 
HETATM    2  C2  UNL     1     -33.597   3.396   4.719  1.00 20.00     0.001 C 
HETATM    3  C6  UNL     1     -32.553   4.442   2.979  1.00 20.00     0.019 C 
HETATM    4  C7  UNL     1     -34.660   4.242   4.014  1.00 20.00     0.145 C 
HETATM    5  C10 UNL     1     -33.708   5.302   3.510  1.00 20.00     0.030 C 
ENDROOT
BRANCH   4   6
HETATM    6  O11 UNL     1     -35.579   4.775   4.945  1.00 20.00    -0.391 OA
HETATM    7  H25 UNL     1     -36.470   4.657   4.570  1.00 20.00     0.210 HD
ENDBRANCH   4   6
BRANCH   5   8
HETATM    8  C9  UNL     1     -33.842   6.392   2.433  1.00 20.00    -0.007 C 
HETATM    9  C4  UNL     1     -35.002   7.294   2.936  1.00 20.00     0.005 C 
HETATM   10  C3  UNL     1     -34.444   7.827   4.283  1.00 20.00     0.005 C 
HETATM   11  C8  UNL     1     -32.958   7.411   4.252  1.00 20.00    -0.006 C 
HETATM   12  C5  UNL     1     -32.695   7.378   2.722  1.00 20.00     0.010 C 
ENDBRANCH   5   8
TORSDOF 3
ENDMDL
MODEL 9
REMARK VINA RESULT:       2.7      1.300      3.695
REMARK  3 active torsions:
REMARK  status: ('A' for Active; 'I' for Inactive)
REMARK    1  A    between atoms: C6_6  and  C8_8 
REMARK    2  A    between atoms: C7_7  and  O11_11 
REMARK    3  A    between atoms: C9_9  and  C10_10 
ROOT
HETATM    1  C1  UNL     1     -31.304   7.645   1.536  1.00 20.00    -0.023 C 
HETATM    2  C2  UNL     1     -31.589   6.364   1.203  1.00 20.00     0.001 C 
HETATM    3  C6  UNL     1     -32.593   8.311   1.847  1.00 20.00     0.019 C 
HETATM    4  C7  UNL     1     -33.062   6.036   1.457  1.00 20.00     0.145 C 
HETATM    5  C10 UNL     1     -33.284   7.107   2.500  1.00 20.00     0.030 C 
ENDROOT
BRANCH   4   6
HETATM    6  O11 UNL     1     -33.202   4.743   2.010  1.00 20.00    -0.391 OA
HETATM    7  H25 UNL     1     -32.692   4.727   2.839  1.00 20.00     0.210 HD
ENDBRANCH   4   6
BRANCH   5   8
HETATM    8  C9  UNL     1     -34.559   7.731   3.095  1.00 20.00    -0.007 C 
HETATM    9  C4  UNL     1     -35.465   6.515   3.430  1.00 20.00     0.005 C 
HETATM   10  C3  UNL     1     -34.612   5.746   4.475  1.00 20.00     0.005 C 
HETATM   11  C8  UNL     1     -33.480   6.738   4.821  1.00 20.00    -0.006 C 
HETATM   12  C5  UNL     1     -34.183   8.094   4.544  1.00 20.00     0.010 C 
ENDBRANCH   5   8
TORSDOF 3
ENDMDL
