MODEL 1
REMARK VINA RESULT:      -2.0      0.000      0.000
REMARK  2 active torsions:
REMARK  status: ('A' for Active; 'I' for Inactive)
REMARK    1  A    between atoms: C1_1  and  C4_4 
REMARK    2  A    between atoms: C2_2  and  C3_3 
ROOT
HETATM    1  C1  UNL     1     -33.482   6.082   2.625  1.00 20.00     0.015 C 
HETATM    2  C3  UNL     1     -32.453   6.407   1.828  1.00 20.00     0.069 C 
HETATM    3 CL6  UNL     1     -31.691   5.322   0.736  1.00 20.00    -0.081 Cl
ENDROOT
BRANCH   2   4
HETATM    4  C2  UNL     1     -31.934   7.794   1.877  1.00 20.00     0.282 C 
HETATM    5  O5  UNL     1     -32.244   8.660   1.066  1.00 20.00    -0.301 OA
ENDBRANCH   2   4
BRANCH   1   6
HETATM    6  C4  UNL     1     -34.190   6.983   3.588  1.00 20.00     0.143 C 
HETATM    7 CL7  UNL     1     -35.565   6.123   4.316  1.00 20.00    -0.126 Cl
ENDBRANCH   1   6
TORSDOF 2
ENDMDL
MODEL 2
REMARK VINA RESULT:      -2.0      2.071      2.286
REMARK  2 active torsions:
REMARK  status: ('A' for Active; 'I' for Inactive)
REMARK    1  A    between atoms: C1_1  and  C4_4 
REMARK    2  A    between atoms: C2_2  and  C3_3 
ROOT
HETATM    1  C1  UNL     1     -34.055   7.164   3.646  1.00 20.00     0.015 C 
HETATM    2  C3  UNL     1     -33.139   7.100   2.669  1.00 20.00     0.069 C 
HETATM    3 CL6  UNL     1     -31.885   8.251   2.436  1.00 20.00    -0.081 Cl
ENDROOT
BRANCH   2   4
HETATM    4  C2  UNL     1     -33.195   5.959   1.724  1.00 20.00     0.282 C 
HETATM    5  O5  UNL     1     -32.199   5.385   1.298  1.00 20.00    -0.301 OA
ENDBRANCH   2   4
BRANCH   1   6
HETATM    6  C4  UNL     1     -35.162   6.190   3.903  1.00 20.00     0.143 C 
HETATM    7 CL7  UNL     1     -34.482   4.621   4.386  1.00 20.00    -0.126 Cl
ENDBRANCH   1   6
TORSDOF 2
ENDMDL
MODEL 3
REMARK VINA RESULT:      -1.9      2.367      3.677
REMARK  2 active torsions:
REMARK  status: ('A' for Active; 'I' for Inactive)
REMARK    1  A    between atoms: C1_1  and  C4_4 
REMARK    2  A    between atoms: C2_2  and  C3_3 
ROOT
HETATM    1  C1  UNL     1     -32.670   8.086   2.227  1.00 20.00     0.015 C 
HETATM    2  C3  UNL     1     -33.214   6.871   2.393  1.00 20.00     0.069 C 
HETATM    3 CL6  UNL     1     -34.291   6.455   3.664  1.00 20.00    -0.081 Cl
ENDROOT
BRANCH   2   4
HETATM    4  C2  UNL     1     -32.879   5.810   1.414  1.00 20.00     0.282 C 
HETATM    5  O5  UNL     1     -31.811   5.208   1.409  1.00 20.00    -0.301 OA
ENDBRANCH   2   4
BRANCH   1   6
HETATM    6  C4  UNL     1     -31.736   8.509   1.138  1.00 20.00     0.143 C 
HETATM    7 CL7  UNL     1     -32.438   9.874   0.240  1.00 20.00    -0.126 Cl
ENDBRANCH   1   6
TORSDOF 2
ENDMDL
MODEL 4
REMARK VINA RESULT:      -1.8      2.573      2.911
REMARK  2 active torsions:
REMARK  status: ('A' for Active; 'I' for Inactive)
REMARK    1  A    between atoms: C1_1  and  C4_4 
REMARK    2  A    between atoms: C2_2  and  C3_3 
ROOT
HETATM    1  C1  UNL     1     -33.454   5.092   3.160  1.00 20.00     0.015 C 
HETATM    2  C3  UNL     1     -33.469   6.423   2.997  1.00 20.00     0.069 C 
HETATM    3 CL6  UNL     1     -32.555   7.266   1.812  1.00 20.00    -0.081 Cl
ENDROOT
BRANCH   2   4
HETATM    4  C2  UNL     1     -34.336   7.233   3.886  1.00 20.00     0.282 C 
HETATM    5  O5  UNL     1     -33.902   7.993   4.743  1.00 20.00    -0.301 OA
ENDBRANCH   2   4
BRANCH   1   6
HETATM    6  C4  UNL     1     -34.232   4.303   4.166  1.00 20.00     0.143 C 
HETATM    7 CL7  UNL     1     -33.237   2.962   4.777  1.00 20.00    -0.126 Cl
ENDBRANCH   1   6
TORSDOF 2
ENDMDL
MODEL 5
REMARK VINA RESULT:      -1.8      2.319      3.137
REMARK  2 active torsions:
REMARK  status: ('A' for Active; 'I' for Inactive)
REMARK    1  A    between atoms: C1_1  and  C4_4 
REMARK    2  A    between atoms: C2_2  and  C3_3 
ROOT
HETATM    1  C1  UNL     1     -34.231   5.095   4.130  1.00 20.00     0.015 C 
HETATM    2  C3  UNL     1     -33.943   6.224   3.466  1.00 20.00     0.069 C 
HETATM    3 CL6  UNL     1     -34.396   7.798   3.986  1.00 20.00    -0.081 Cl
ENDROOT
BRANCH   2   4
HETATM    4  C2  UNL     1     -33.176   6.123   2.202  1.00 20.00     0.282 C 
HETATM    5  O5  UNL     1     -32.451   7.016   1.778  1.00 20.00    -0.301 OA
ENDBRANCH   2   4
BRANCH   1   6
HETATM    6  C4  UNL     1     -33.858   3.702   3.733  1.00 20.00     0.143 C 
HETATM    7 CL7  UNL     1     -32.986   2.910   5.065  1.00 20.00    -0.126 Cl
ENDBRANCH   1   6
TORSDOF 2
ENDMDL
MODEL 6
REMARK VINA RESULT:      -1.8      2.256      3.445
REMARK  2 active torsions:
REMARK  status: ('A' for Active; 'I' for Inactive)
REMARK    1  A    between atoms: C1_1  and  C4_4 
REMARK    2  A    between atoms: C2_2  and  C3_3 
ROOT
HETATM    1  C1  UNL     1     -33.059   5.610   2.232  1.00 20.00     0.015 C 
HETATM    2  C3  UNL     1     -33.858   5.451   3.297  1.00 20.00     0.069 C 
HETATM    3 CL6  UNL     1     -33.966   4.009   4.224  1.00 20.00    -0.081 Cl
ENDROOT
BRANCH   2   4
HETATM    4  C2  UNL     1     -34.704   6.593   3.720  1.00 20.00     0.282 C 
HETATM    5  O5  UNL     1     -34.282   7.543   4.369  1.00 20.00    -0.301 OA
ENDBRANCH   2   4
BRANCH   1   6
HETATM    6  C4  UNL     1     -32.916   6.841   1.393  1.00 20.00     0.143 C 
HETATM    7 CL7  UNL     1     -31.690   7.913   2.104  1.00 20.00    -0.126 Cl
ENDBRANCH   1   6
TORSDOF 2
ENDMDL
MODEL 7
REMARK VINA RESULT:      -1.8      2.551      3.548
REMARK  2 active torsions:
REMARK  status: ('A' for Active; 'I' for Inactive)
REMARK    1  A    between atoms: C1_1  and  C4_4 
REMARK    2  A    between atoms: C2_2  and  C3_3 
ROOT
HETATM    1  C1  UNL     1     -32.011   7.936   1.021  1.00 20.00     0.015 C 
HETATM    2  C3  UNL     1     -32.494   6.975   1.823  1.00 20.00     0.069 C 
HETATM    3 CL6  UNL     1     -32.241   5.294   1.583  1.00 20.00    -0.081 Cl
ENDROOT
BRANCH   2   4
HETATM    4  C2  UNL     1     -33.294   7.379   3.004  1.00 20.00     0.282 C 
HETATM    5  O5  UNL     1     -34.137   6.659   3.527  1.00 20.00    -0.301 OA
ENDBRANCH   2   4
BRANCH   1   6
HETATM    6  C4  UNL     1     -32.190   9.413   1.183  1.00 20.00     0.143 C 
HETATM    7 CL7  UNL     1     -32.716  10.127  -0.358  1.00 20.00    -0.126 Cl
ENDBRANCH   1   6
TORSDOF 2
ENDMDL
MODEL 8
REMARK VINA RESULT:      -1.7      2.746      4.246
REMARK  2 active torsions:
REMARK  status: ('A' for Active; 'I' for Inactive)
REMARK    1  A    between atoms: C1_1  and  C4_4 
REMARK    2  A    between atoms: C2_2  and  C3_3 
ROOT
HETATM    1  C1  UNL     1     -33.634   6.664   2.627  1.00 20.00     0.015 C 
HETATM    2  C3  UNL     1     -34.214   5.766   3.436  1.00 20.00     0.069 C 
HETATM    3 CL6  UNL     1     -35.623   6.069   4.371  1.00 20.00    -0.081 Cl
ENDROOT
BRANCH   2   4
HETATM    4  C2  UNL     1     -33.616   4.413   3.532  1.00 20.00     0.282 C 
HETATM    5  O5  UNL     1     -33.970   3.574   4.353  1.00 20.00    -0.301 OA
ENDBRANCH   2   4
BRANCH   1   6
HETATM    6  C4  UNL     1     -32.415   6.457   1.785  1.00 20.00     0.143 C 
HETATM    7 CL7  UNL     1     -31.624   8.019   1.477  1.00 20.00    -0.126 Cl
ENDBRANCH   1   6
TORSDOF 2
ENDMDL
MODEL 9
REMARK VINA RESULT:      -1.6      2.006      2.174
REMARK  2 active torsions:
REMARK  status: ('A' for Active; 'I' for Inactive)
REMARK    1  A    between atoms: C1_1  and  C4_4 
REMARK    2  A    between atoms: C2_2  and  C3_3 
ROOT
HETATM    1  C1  UNL     1     -33.272   8.131   3.052  1.00 20.00     0.015 C 
HETATM    2  C3  UNL     1     -32.541   7.847   1.964  1.00 20.00     0.069 C 
HETATM    3 CL6  UNL     1     -32.108   8.992   0.759  1.00 20.00    -0.081 Cl
ENDROOT
BRANCH   2   4
HETATM    4  C2  UNL     1     -32.060   6.457   1.782  1.00 20.00     0.282 C 
HETATM    5  O5  UNL     1     -32.756   5.555   1.330  1.00 20.00    -0.301 OA
ENDBRANCH   2   4
BRANCH   1   6
HETATM    6  C4  UNL     1     -33.672   7.182   4.137  1.00 20.00     0.143 C 
HETATM    7 CL7  UNL     1     -35.271   6.494   3.774  1.00 20.00    -0.126 Cl
ENDBRANCH   1   6
TORSDOF 2
ENDMDL
