MODEL 1
REMARK VINA RESULT:      -0.2      0.000      0.000
REMARK  4 active torsions:
REMARK  status: ('A' for Active; 'I' for Inactive)
REMARK    1  A    between atoms: C7_7  and  C9_9 
REMARK    2  A    between atoms: C9_9  and  C11_11 
REMARK    3  A    between atoms: C10_10  and  C12_12 
REMARK    4  A    between atoms: C11_11  and  C12_12 
ROOT
HETATM    1  C1  UNL     1     -34.296   4.463   4.592  1.00 20.00     0.004 C 
HETATM    2  C2  UNL     1     -35.505   5.349   4.309  1.00 20.00     0.008 C 
HETATM    3  C3  UNL     1     -33.422   4.634   3.359  1.00 20.00     0.038 C 
HETATM    4  C4  UNL     1     -34.861   7.817   4.085  1.00 20.00     0.034 C 
HETATM    5  C5  UNL     1     -33.500   7.724   4.735  1.00 20.00     0.169 C 
HETATM    6  C6  UNL     1     -35.009   6.480   3.392  1.00 20.00     0.022 C 
HETATM    7  C7  UNL     1     -33.564   6.119   3.027  1.00 20.00     0.064 C 
HETATM    8  O13 UNL     1     -32.701   6.890   3.889  1.00 20.00    -0.380 OA
ENDROOT
BRANCH   7   9
HETATM    9  C9  UNL     1     -33.192   6.438   1.587  1.00 20.00     0.038 C 
BRANCH   9  10
HETATM   10  C11 UNL     1     -31.840   7.145   1.503  1.00 20.00     0.003 C 
BRANCH  10  11
HETATM   11  C12 UNL     1     -32.009   8.665   1.473  1.00 20.00    -0.000 C 
BRANCH  11  12
HETATM   12  C10 UNL     1     -32.086   9.188   0.039  1.00 20.00    -0.005 C 
HETATM   13  C8  UNL     1     -32.765  10.546  -0.024  1.00 20.00     0.005 C 
ENDBRANCH  11  12
ENDBRANCH  10  11
ENDBRANCH   9  10
ENDBRANCH   7   9
TORSDOF 4
ENDMDL
MODEL 2
REMARK VINA RESULT:       1.2      1.356      4.684
REMARK  4 active torsions:
REMARK  status: ('A' for Active; 'I' for Inactive)
REMARK    1  A    between atoms: C7_7  and  C9_9 
REMARK    2  A    between atoms: C9_9  and  C11_11 
REMARK    3  A    between atoms: C10_10  and  C12_12 
REMARK    4  A    between atoms: C11_11  and  C12_12 
ROOT
HETATM    1  C1  UNL     1     -32.972   5.494   0.377  1.00 20.00     0.004 C 
HETATM    2  C2  UNL     1     -31.648   5.539   1.131  1.00 20.00     0.008 C 
HETATM    3  C3  UNL     1     -34.007   5.841   1.437  1.00 20.00     0.038 C 
HETATM    4  C4  UNL     1     -31.139   7.871   2.055  1.00 20.00     0.034 C 
HETATM    5  C5  UNL     1     -32.119   8.639   1.198  1.00 20.00     0.169 C 
HETATM    6  C6  UNL     1     -31.834   6.546   2.278  1.00 20.00     0.022 C 
HETATM    7  C7  UNL     1     -33.319   6.929   2.262  1.00 20.00     0.064 C 
HETATM    8  O13 UNL     1     -33.426   8.193   1.576  1.00 20.00    -0.380 OA
ENDROOT
BRANCH   7   9
HETATM    9  C9  UNL     1     -33.931   7.093   3.645  1.00 20.00     0.038 C 
BRANCH   9  10
HETATM   10  C11 UNL     1     -35.160   6.203   3.821  1.00 20.00     0.003 C 
BRANCH  10  11
HETATM   11  C12 UNL     1     -34.849   4.991   4.700  1.00 20.00    -0.000 C 
BRANCH  11  12
HETATM   12  C10 UNL     1     -33.996   3.966   3.951  1.00 20.00    -0.005 C 
HETATM   13  C8  UNL     1     -33.196   3.101   4.910  1.00 20.00     0.005 C 
ENDBRANCH  11  12
ENDBRANCH  10  11
ENDBRANCH   9  10
ENDBRANCH   7   9
TORSDOF 4
ENDMDL
MODEL 3
REMARK VINA RESULT:       1.2      1.276      2.433
REMARK  4 active torsions:
REMARK  status: ('A' for Active; 'I' for Inactive)
REMARK    1  A    between atoms: C7_7  and  C9_9 
REMARK    2  A    between atoms: C9_9  and  C11_11 
REMARK    3  A    between atoms: C10_10  and  C12_12 
REMARK    4  A    between atoms: C11_11  and  C12_12 
ROOT
HETATM    1  C1  UNL     1     -35.011   5.420   3.826  1.00 20.00     0.004 C 
HETATM    2  C2  UNL     1     -33.696   4.650   3.807  1.00 20.00     0.008 C 
HETATM    3  C3  UNL     1     -34.586   6.873   3.671  1.00 20.00     0.038 C 
HETATM    4  C4  UNL     1     -32.450   4.917   1.586  1.00 20.00     0.034 C 
HETATM    5  C5  UNL     1     -33.615   5.428   0.769  1.00 20.00     0.169 C 
HETATM    6  C6  UNL     1     -32.716   5.484   2.964  1.00 20.00     0.022 C 
HETATM    7  C7  UNL     1     -33.440   6.801   2.662  1.00 20.00     0.064 C 
HETATM    8  O13 UNL     1     -33.979   6.695   1.328  1.00 20.00    -0.380 OA
ENDROOT
BRANCH   7   9
HETATM    9  C9  UNL     1     -32.540   8.026   2.706  1.00 20.00     0.038 C 
BRANCH   9  10
HETATM   10  C11 UNL     1     -31.336   7.868   1.779  1.00 20.00     0.003 C 
BRANCH  10  11
HETATM   11  C12 UNL     1     -31.534   8.643   0.475  1.00 20.00    -0.000 C 
BRANCH  11  12
HETATM   12  C10 UNL     1     -32.362   9.908   0.700  1.00 20.00    -0.005 C 
HETATM   13  C8  UNL     1     -33.016  10.383  -0.588  1.00 20.00     0.005 C 
ENDBRANCH  11  12
ENDBRANCH  10  11
ENDBRANCH   9  10
ENDBRANCH   7   9
TORSDOF 4
ENDMDL
MODEL 4
REMARK VINA RESULT:       1.6      1.265      4.935
REMARK  4 active torsions:
REMARK  status: ('A' for Active; 'I' for Inactive)
REMARK    1  A    between atoms: C7_7  and  C9_9 
REMARK    2  A    between atoms: C9_9  and  C11_11 
REMARK    3  A    between atoms: C10_10  and  C12_12 
REMARK    4  A    between atoms: C11_11  and  C12_12 
ROOT
HETATM    1  C1  UNL     1     -31.353   8.628   1.058  1.00 20.00     0.004 C 
HETATM    2  C2  UNL     1     -32.659   8.369   0.315  1.00 20.00     0.008 C 
HETATM    3  C3  UNL     1     -31.717   8.413   2.520  1.00 20.00     0.038 C 
HETATM    4  C4  UNL     1     -33.485   5.965   0.620  1.00 20.00     0.034 C 
HETATM    5  C5  UNL     1     -32.184   5.373   1.110  1.00 20.00     0.169 C 
HETATM    6  C6  UNL     1     -33.458   7.373   1.174  1.00 20.00     0.022 C 
HETATM    7  C7  UNL     1     -32.666   7.216   2.477  1.00 20.00     0.064 C 
HETATM    8  O13 UNL     1     -31.901   5.999   2.367  1.00 20.00    -0.380 OA
ENDROOT
BRANCH   7   9
HETATM    9  C9  UNL     1     -33.536   7.112   3.720  1.00 20.00     0.038 C 
BRANCH   9  10
HETATM   10  C11 UNL     1     -34.745   6.208   3.481  1.00 20.00     0.003 C 
BRANCH  10  11
HETATM   11  C12 UNL     1     -34.738   5.008   4.429  1.00 20.00    -0.000 C 
BRANCH  11  12
HETATM   12  C10 UNL     1     -33.920   3.851   3.854  1.00 20.00    -0.005 C 
HETATM   13  C8  UNL     1     -33.207   3.075   4.950  1.00 20.00     0.005 C 
ENDBRANCH  11  12
ENDBRANCH  10  11
ENDBRANCH   9  10
ENDBRANCH   7   9
TORSDOF 4
ENDMDL
MODEL 5
REMARK VINA RESULT:       2.3      1.517      4.849
REMARK  4 active torsions:
REMARK  status: ('A' for Active; 'I' for Inactive)
REMARK    1  A    between atoms: C7_7  and  C9_9 
REMARK    2  A    between atoms: C9_9  and  C11_11 
REMARK    3  A    between atoms: C10_10  and  C12_12 
REMARK    4  A    between atoms: C11_11  and  C12_12 
ROOT
HETATM    1  C1  UNL     1     -32.420   8.252   1.452  1.00 20.00     0.004 C 
HETATM    2  C2  UNL     1     -32.058   8.499   2.912  1.00 20.00     0.008 C 
HETATM    3  C3  UNL     1     -32.540   6.738   1.357  1.00 20.00     0.038 C 
HETATM    4  C4  UNL     1     -33.897   7.711   4.511  1.00 20.00     0.034 C 
HETATM    5  C5  UNL     1     -35.012   7.618   3.495  1.00 20.00     0.169 C 
HETATM    6  C6  UNL     1     -32.666   7.335   3.714  1.00 20.00     0.022 C 
HETATM    7  C7  UNL     1     -33.216   6.353   2.672  1.00 20.00     0.064 C 
HETATM    8  O13 UNL     1     -34.636   6.589   2.572  1.00 20.00    -0.380 OA
ENDROOT
BRANCH   7   9
HETATM    9  C9  UNL     1     -33.010   4.890   3.033  1.00 20.00     0.038 C 
BRANCH   9  10
HETATM   10  C11 UNL     1     -34.132   4.373   3.933  1.00 20.00     0.003 C 
BRANCH  10  11
HETATM   11  C12 UNL     1     -33.762   3.031   4.567  1.00 20.00    -0.000 C 
BRANCH  11  12
HETATM   12  C10 UNL     1     -32.339   3.054   5.125  1.00 20.00    -0.005 C 
HETATM   13  C8  UNL     1     -32.331   3.321   6.622  1.00 20.00     0.005 C 
ENDBRANCH  11  12
ENDBRANCH  10  11
ENDBRANCH   9  10
ENDBRANCH   7   9
TORSDOF 4
ENDMDL
MODEL 6
REMARK VINA RESULT:       2.5      1.183      5.009
REMARK  4 active torsions:
REMARK  status: ('A' for Active; 'I' for Inactive)
REMARK    1  A    between atoms: C7_7  and  C9_9 
REMARK    2  A    between atoms: C9_9  and  C11_11 
REMARK    3  A    between atoms: C10_10  and  C12_12 
REMARK    4  A    between atoms: C11_11  and  C12_12 
ROOT
HETATM    1  C1  UNL     1     -32.217   9.902   0.195  1.00 20.00     0.004 C 
HETATM    2  C2  UNL     1     -32.744   8.574  -0.336  1.00 20.00     0.008 C 
HETATM    3  C3  UNL     1     -32.877  10.037   1.560  1.00 20.00     0.038 C 
HETATM    4  C4  UNL     1     -32.036   6.596   1.128  1.00 20.00     0.034 C 
HETATM    5  C5  UNL     1     -30.920   7.294   1.871  1.00 20.00     0.169 C 
HETATM    6  C6  UNL     1     -33.043   7.701   0.895  1.00 20.00     0.022 C 
HETATM    7  C7  UNL     1     -32.845   8.612   2.112  1.00 20.00     0.064 C 
HETATM    8  O13 UNL     1     -31.534   8.332   2.644  1.00 20.00    -0.380 OA
ENDROOT
BRANCH   7   9
HETATM    9  C9  UNL     1     -33.859   8.389   3.223  1.00 20.00     0.038 C 
BRANCH   9  10
HETATM   10  C11 UNL     1     -33.828   6.947   3.725  1.00 20.00     0.003 C 
BRANCH  10  11
HETATM   11  C12 UNL     1     -35.241   6.394   3.918  1.00 20.00    -0.000 C 
BRANCH  11  12
HETATM   12  C10 UNL     1     -35.212   4.988   4.515  1.00 20.00    -0.005 C 
HETATM   13  C8  UNL     1     -33.990   4.211   4.052  1.00 20.00     0.005 C 
ENDBRANCH  11  12
ENDBRANCH  10  11
ENDBRANCH   9  10
ENDBRANCH   7   9
TORSDOF 4
ENDMDL
