MODEL 1
REMARK VINA RESULT:      -1.3      0.000      0.000
REMARK  0 active torsions:
REMARK  status: ('A' for Active; 'I' for Inactive)
ROOT
HETATM    1  C1  UNL     1     -31.937   6.556   1.108  1.00 20.00     0.002 C 
HETATM    2  C2  UNL     1     -32.660   5.633   1.762  1.00 20.00     0.030 C 
HETATM    3  C3  UNL     1     -31.980   7.970   1.447  1.00 20.00    -0.001 C 
HETATM    4  C4  UNL     1     -32.500   8.390   2.614  1.00 20.00     0.006 C 
HETATM    5  C5  UNL     1     -35.024   6.756   4.141  1.00 20.00     0.228 C 
HETATM    6  C6  UNL     1     -33.472   6.171   2.862  1.00 20.00     0.064 C 
HETATM    7  C7  UNL     1     -33.002   7.394   3.604  1.00 20.00     0.184 C 
HETATM    8  N8  UNL     1     -34.230   7.769   4.326  1.00 20.00    -0.268 NA
HETATM    9  N9  UNL     1     -34.617   5.762   3.284  1.00 20.00    -0.244 NA
ENDROOT
TORSDOF 0
ENDMDL
MODEL 2
REMARK VINA RESULT:      -0.9      0.670      2.049
REMARK  0 active torsions:
REMARK  status: ('A' for Active; 'I' for Inactive)
ROOT
HETATM    1  C1  UNL     1     -31.588   7.308   1.349  1.00 20.00     0.002 C 
HETATM    2  C2  UNL     1     -32.187   8.208   2.146  1.00 20.00     0.030 C 
HETATM    3  C3  UNL     1     -31.963   5.903   1.334  1.00 20.00    -0.001 C 
HETATM    4  C4  UNL     1     -33.118   5.484   1.881  1.00 20.00     0.006 C 
HETATM    5  C5  UNL     1     -34.494   7.019   4.550  1.00 20.00     0.228 C 
HETATM    6  C6  UNL     1     -33.267   7.654   2.977  1.00 20.00     0.064 C 
HETATM    7  C7  UNL     1     -34.060   6.476   2.476  1.00 20.00     0.184 C 
HETATM    8  N8  UNL     1     -34.739   6.054   3.713  1.00 20.00    -0.268 NA
HETATM    9  N9  UNL     1     -33.629   8.012   4.158  1.00 20.00    -0.244 NA
ENDROOT
TORSDOF 0
ENDMDL
MODEL 3
REMARK VINA RESULT:      -0.9      1.575      3.549
REMARK  0 active torsions:
REMARK  status: ('A' for Active; 'I' for Inactive)
ROOT
HETATM    1  C1  UNL     1     -34.569   7.537   4.560  1.00 20.00     0.002 C 
HETATM    2  C2  UNL     1     -33.460   8.133   4.093  1.00 20.00     0.030 C 
HETATM    3  C3  UNL     1     -35.117   6.327   3.968  1.00 20.00    -0.001 C 
HETATM    4  C4  UNL     1     -34.388   5.571   3.128  1.00 20.00     0.006 C 
HETATM    5  C5  UNL     1     -32.058   6.906   1.087  1.00 20.00     0.228 C 
HETATM    6  C6  UNL     1     -32.838   7.442   2.954  1.00 20.00     0.064 C 
HETATM    7  C7  UNL     1     -32.976   5.948   2.826  1.00 20.00     0.184 C 
HETATM    8  N8  UNL     1     -32.542   5.749   1.433  1.00 20.00    -0.268 NA
HETATM    9  N9  UNL     1     -32.194   7.954   1.965  1.00 20.00    -0.244 NA
ENDROOT
TORSDOF 0
ENDMDL
MODEL 4
REMARK VINA RESULT:      -0.7      1.658      2.985
REMARK  0 active torsions:
REMARK  status: ('A' for Active; 'I' for Inactive)
ROOT
HETATM    1  C1  UNL     1     -34.605   7.033   4.454  1.00 20.00     0.002 C 
HETATM    2  C2  UNL     1     -34.640   6.238   3.372  1.00 20.00     0.030 C 
HETATM    3  C3  UNL     1     -33.527   7.979   4.695  1.00 20.00    -0.001 C 
HETATM    4  C4  UNL     1     -32.675   8.329   3.715  1.00 20.00     0.006 C 
HETATM    5  C5  UNL     1     -31.813   6.198   1.247  1.00 20.00     0.228 C 
HETATM    6  C6  UNL     1     -33.514   6.427   2.447  1.00 20.00     0.064 C 
HETATM    7  C7  UNL     1     -32.857   7.778   2.341  1.00 20.00     0.184 C 
HETATM    8  N8  UNL     1     -31.622   7.430   1.619  1.00 20.00    -0.268 NA
HETATM    9  N9  UNL     1     -32.937   5.551   1.702  1.00 20.00    -0.244 NA
ENDROOT
TORSDOF 0
ENDMDL
MODEL 5
REMARK VINA RESULT:      -0.2      1.989      3.481
REMARK  0 active torsions:
REMARK  status: ('A' for Active; 'I' for Inactive)
ROOT
HETATM    1  C1  UNL     1     -34.097   6.431   3.557  1.00 20.00     0.002 C 
HETATM    2  C2  UNL     1     -33.729   7.722   3.622  1.00 20.00     0.030 C 
HETATM    3  C3  UNL     1     -33.689   5.555   2.470  1.00 20.00    -0.001 C 
HETATM    4  C4  UNL     1     -32.685   5.893   1.642  1.00 20.00     0.006 C 
HETATM    5  C5  UNL     1     -32.023   9.103   0.849  1.00 20.00     0.228 C 
HETATM    6  C6  UNL     1     -32.862   8.158   2.519  1.00 20.00     0.064 C 
HETATM    7  C7  UNL     1     -31.939   7.166   1.861  1.00 20.00     0.184 C 
HETATM    8  N8  UNL     1     -31.559   7.905   0.645  1.00 20.00    -0.268 NA
HETATM    9  N9  UNL     1     -32.799   9.317   1.963  1.00 20.00    -0.244 NA
ENDROOT
TORSDOF 0
ENDMDL
MODEL 6
REMARK VINA RESULT:       0.4      1.808      3.042
REMARK  0 active torsions:
REMARK  status: ('A' for Active; 'I' for Inactive)
ROOT
HETATM    1  C1  UNL     1     -34.645   7.607   3.722  1.00 20.00     0.002 C 
HETATM    2  C2  UNL     1     -35.294   6.527   4.187  1.00 20.00     0.030 C 
HETATM    3  C3  UNL     1     -33.342   7.522   3.082  1.00 20.00    -0.001 C 
HETATM    4  C4  UNL     1     -32.855   6.347   2.647  1.00 20.00     0.006 C 
HETATM    5  C5  UNL     1     -33.584   3.432   4.177  1.00 20.00     0.228 C 
HETATM    6  C6  UNL     1     -34.587   5.258   3.968  1.00 20.00     0.064 C 
HETATM    7  C7  UNL     1     -33.677   5.109   2.777  1.00 20.00     0.184 C 
HETATM    8  N8  UNL     1     -32.943   3.885   3.140  1.00 20.00    -0.268 NA
HETATM    9  N9  UNL     1     -34.588   4.206   4.708  1.00 20.00    -0.244 NA
ENDROOT
TORSDOF 0
ENDMDL
MODEL 7
REMARK VINA RESULT:       0.8      1.459      2.714
REMARK  0 active torsions:
REMARK  status: ('A' for Active; 'I' for Inactive)
ROOT
HETATM    1  C1  UNL     1     -33.205   4.287   2.429  1.00 20.00     0.002 C 
HETATM    2  C2  UNL     1     -32.935   5.516   1.958  1.00 20.00     0.030 C 
HETATM    3  C3  UNL     1     -33.893   4.066   3.691  1.00 20.00    -0.001 C 
HETATM    4  C4  UNL     1     -34.563   5.059   4.302  1.00 20.00     0.006 C 
HETATM    5  C5  UNL     1     -33.601   8.282   4.059  1.00 20.00     0.228 C 
HETATM    6  C6  UNL     1     -33.419   6.609   2.813  1.00 20.00     0.064 C 
HETATM    7  C7  UNL     1     -34.647   6.403   3.660  1.00 20.00     0.184 C 
HETATM    8  N8  UNL     1     -34.552   7.556   4.571  1.00 20.00    -0.268 NA
HETATM    9  N9  UNL     1     -32.897   7.771   2.995  1.00 20.00    -0.244 NA
ENDROOT
TORSDOF 0
ENDMDL
