MODEL 1
REMARK VINA RESULT:      -1.7      0.000      0.000
REMARK  2 active torsions:
REMARK  status: ('A' for Active; 'I' for Inactive)
REMARK    1  A    between atoms: C1_1  and  C5_5 
REMARK    2  A    between atoms: C1_1  and  C6_6 
ROOT
HETATM    1  C2  UNL     1     -34.810   6.106   4.095  1.00 20.00     0.029 C 
HETATM    2  C3  UNL     1     -34.199   7.471   3.897  1.00 20.00     0.042 C 
HETATM    3  C4  UNL     1     -33.814   5.215   3.387  1.00 20.00     0.168 C 
HETATM    4  C5  UNL     1     -33.593   7.357   2.511  1.00 20.00     0.192 C 
HETATM    5  O8  UNL     1     -33.321   5.972   2.275  1.00 20.00    -0.378 OA
ENDROOT
BRANCH   4   6
HETATM    6  C1  UNL     1     -32.285   8.065   2.392  1.00 20.00     0.169 C 
HETATM    7  O7  UNL     1     -31.664   8.409   3.397  1.00 20.00    -0.294 OA
BRANCH   6   8
HETATM    8  C6  UNL     1     -31.803   8.320   0.982  1.00 20.00     0.195 C 
HETATM    9 CL9  UNL     1     -32.437   9.856   0.373  1.00 20.00    -0.122 Cl
ENDBRANCH   6   8
ENDBRANCH   4   6
TORSDOF 2
ENDMDL
MODEL 2
REMARK VINA RESULT:      -1.5      1.342      1.419
REMARK  2 active torsions:
REMARK  status: ('A' for Active; 'I' for Inactive)
REMARK    1  A    between atoms: C1_1  and  C5_5 
REMARK    2  A    between atoms: C1_1  and  C6_6 
ROOT
HETATM    1  C2  UNL     1     -35.047   6.171   4.291  1.00 20.00     0.029 C 
HETATM    2  C3  UNL     1     -34.234   7.180   3.519  1.00 20.00     0.042 C 
HETATM    3  C4  UNL     1     -34.284   4.892   4.031  1.00 20.00     0.168 C 
HETATM    4  C5  UNL     1     -33.781   6.377   2.314  1.00 20.00     0.192 C 
HETATM    5  O8  UNL     1     -33.770   4.998   2.698  1.00 20.00    -0.378 OA
ENDROOT
BRANCH   4   6
HETATM    6  C1  UNL     1     -32.387   6.704   1.892  1.00 20.00     0.169 C 
HETATM    7  O7  UNL     1     -31.662   5.840   1.402  1.00 20.00    -0.294 OA
BRANCH   6   8
HETATM    8  C6  UNL     1     -31.953   8.135   2.113  1.00 20.00     0.195 C 
HETATM    9 CL9  UNL     1     -32.267   9.112   0.672  1.00 20.00    -0.122 Cl
ENDBRANCH   6   8
ENDBRANCH   4   6
TORSDOF 2
ENDMDL
MODEL 3
REMARK VINA RESULT:      -1.5      3.276      4.465
REMARK  2 active torsions:
REMARK  status: ('A' for Active; 'I' for Inactive)
REMARK    1  A    between atoms: C1_1  and  C5_5 
REMARK    2  A    between atoms: C1_1  and  C6_6 
ROOT
HETATM    1  C2  UNL     1     -32.663   7.607   2.365  1.00 20.00     0.029 C 
HETATM    2  C3  UNL     1     -33.119   6.173   2.269  1.00 20.00     0.042 C 
HETATM    3  C4  UNL     1     -33.023   7.953   3.792  1.00 20.00     0.168 C 
HETATM    4  C5  UNL     1     -34.363   6.169   3.136  1.00 20.00     0.192 C 
HETATM    5  O8  UNL     1     -34.227   7.232   4.085  1.00 20.00    -0.378 OA
ENDROOT
BRANCH   4   6
HETATM    6  C1  UNL     1     -34.511   4.915   3.932  1.00 20.00     0.169 C 
HETATM    7  O7  UNL     1     -35.434   4.788   4.735  1.00 20.00    -0.294 OA
BRANCH   6   8
HETATM    8  C6  UNL     1     -33.466   3.852   3.682  1.00 20.00     0.195 C 
HETATM    9 CL9  UNL     1     -33.139   2.938   5.161  1.00 20.00    -0.122 Cl
ENDBRANCH   6   8
ENDBRANCH   4   6
TORSDOF 2
ENDMDL
MODEL 4
REMARK VINA RESULT:      -1.4      2.740      3.867
REMARK  2 active torsions:
REMARK  status: ('A' for Active; 'I' for Inactive)
REMARK    1  A    between atoms: C1_1  and  C5_5 
REMARK    2  A    between atoms: C1_1  and  C6_6 
ROOT
HETATM    1  C2  UNL     1     -31.938   6.360   1.124  1.00 20.00     0.029 C 
HETATM    2  C3  UNL     1     -33.062   5.840   1.985  1.00 20.00     0.042 C 
HETATM    3  C4  UNL     1     -31.550   7.627   1.851  1.00 20.00     0.168 C 
HETATM    4  C5  UNL     1     -33.742   7.119   2.436  1.00 20.00     0.192 C 
HETATM    5  O8  UNL     1     -32.763   8.162   2.395  1.00 20.00    -0.378 OA
ENDROOT
BRANCH   4   6
HETATM    6  C1  UNL     1     -34.222   7.052   3.848  1.00 20.00     0.169 C 
HETATM    7  O7  UNL     1     -33.756   7.802   4.704  1.00 20.00    -0.294 OA
BRANCH   6   8
HETATM    8  C6  UNL     1     -35.288   6.019   4.130  1.00 20.00     0.195 C 
HETATM    9 CL9  UNL     1     -34.558   4.444   4.474  1.00 20.00    -0.122 Cl
ENDBRANCH   6   8
ENDBRANCH   4   6
TORSDOF 2
ENDMDL
MODEL 5
REMARK VINA RESULT:      -1.3      1.355      1.999
REMARK  2 active torsions:
REMARK  status: ('A' for Active; 'I' for Inactive)
REMARK    1  A    between atoms: C1_1  and  C5_5 
REMARK    2  A    between atoms: C1_1  and  C6_6 
ROOT
HETATM    1  C2  UNL     1     -34.925   5.083   4.318  1.00 20.00     0.029 C 
HETATM    2  C3  UNL     1     -33.772   4.926   3.359  1.00 20.00     0.042 C 
HETATM    3  C4  UNL     1     -35.406   6.480   4.001  1.00 20.00     0.168 C 
HETATM    4  C5  UNL     1     -33.187   6.325   3.324  1.00 20.00     0.192 C 
HETATM    5  O8  UNL     1     -34.237   7.237   3.662  1.00 20.00    -0.378 OA
ENDROOT
BRANCH   4   6
HETATM    6  C1  UNL     1     -32.712   6.720   1.966  1.00 20.00     0.169 C 
HETATM    7  O7  UNL     1     -33.025   6.060   0.976  1.00 20.00    -0.294 OA
BRANCH   6   8
HETATM    8  C6  UNL     1     -31.840   7.954   1.907  1.00 20.00     0.195 C 
HETATM    9 CL9  UNL     1     -32.380   9.040   0.618  1.00 20.00    -0.122 Cl
ENDBRANCH   6   8
ENDBRANCH   4   6
TORSDOF 2
ENDMDL
MODEL 6
REMARK VINA RESULT:      -1.1      2.850      4.080
REMARK  2 active torsions:
REMARK  status: ('A' for Active; 'I' for Inactive)
REMARK    1  A    between atoms: C1_1  and  C5_5 
REMARK    2  A    between atoms: C1_1  and  C6_6 
ROOT
HETATM    1  C2  UNL     1     -32.151   7.942   2.231  1.00 20.00     0.029 C 
HETATM    2  C3  UNL     1     -33.116   7.829   3.385  1.00 20.00     0.042 C 
HETATM    3  C4  UNL     1     -32.674   6.887   1.283  1.00 20.00     0.168 C 
HETATM    4  C5  UNL     1     -33.402   6.339   3.423  1.00 20.00     0.192 C 
HETATM    5  O8  UNL     1     -33.177   5.826   2.105  1.00 20.00    -0.378 OA
ENDROOT
BRANCH   4   6
HETATM    6  C1  UNL     1     -34.824   6.031   3.753  1.00 20.00     0.169 C 
HETATM    7  O7  UNL     1     -35.731   6.767   3.367  1.00 20.00    -0.294 OA
BRANCH   6   8
HETATM    8  C6  UNL     1     -35.052   4.785   4.578  1.00 20.00     0.195 C 
HETATM    9 CL9  UNL     1     -33.755   3.611   4.306  1.00 20.00    -0.122 Cl
ENDBRANCH   6   8
ENDBRANCH   4   6
TORSDOF 2
ENDMDL
MODEL 7
REMARK VINA RESULT:      -0.8      2.378      4.023
REMARK  2 active torsions:
REMARK  status: ('A' for Active; 'I' for Inactive)
REMARK    1  A    between atoms: C1_1  and  C5_5 
REMARK    2  A    between atoms: C1_1  and  C6_6 
ROOT
HETATM    1  C2  UNL     1     -32.459  10.303   0.391  1.00 20.00     0.029 C 
HETATM    2  C3  UNL     1     -33.032   9.705   1.651  1.00 20.00     0.042 C 
HETATM    3  C4  UNL     1     -32.050   9.068  -0.380  1.00 20.00     0.168 C 
HETATM    4  C5  UNL     1     -32.141   8.498   1.873  1.00 20.00     0.192 C 
HETATM    5  O8  UNL     1     -31.617   8.113   0.597  1.00 20.00    -0.378 OA
ENDROOT
BRANCH   4   6
HETATM    6  C1  UNL     1     -32.888   7.315   2.392  1.00 20.00     0.169 C 
HETATM    7  O7  UNL     1     -32.893   6.254   1.768  1.00 20.00    -0.294 OA
BRANCH   6   8
HETATM    8  C6  UNL     1     -33.615   7.520   3.700  1.00 20.00     0.195 C 
HETATM    9 CL9  UNL     1     -35.019   6.448   3.809  1.00 20.00    -0.122 Cl
ENDBRANCH   6   8
ENDBRANCH   4   6
TORSDOF 2
ENDMDL
MODEL 8
REMARK VINA RESULT:      -0.7      1.319      1.788
REMARK  2 active torsions:
REMARK  status: ('A' for Active; 'I' for Inactive)
REMARK    1  A    between atoms: C1_1  and  C5_5 
REMARK    2  A    between atoms: C1_1  and  C6_6 
ROOT
HETATM    1  C2  UNL     1     -34.485   6.081   3.587  1.00 20.00     0.029 C 
HETATM    2  C3  UNL     1     -33.555   6.105   2.400  1.00 20.00     0.042 C 
HETATM    3  C4  UNL     1     -34.484   7.533   4.011  1.00 20.00     0.168 C 
HETATM    4  C5  UNL     1     -32.530   7.144   2.812  1.00 20.00     0.192 C 
HETATM    5  O8  UNL     1     -33.164   8.024   3.746  1.00 20.00    -0.378 OA
ENDROOT
BRANCH   4   6
HETATM    6  C1  UNL     1     -32.081   7.997   1.673  1.00 20.00     0.169 C 
HETATM    7  O7  UNL     1     -31.165   7.630   0.938  1.00 20.00    -0.294 OA
BRANCH   6   8
HETATM    8  C6  UNL     1     -32.816   9.307   1.504  1.00 20.00     0.195 C 
HETATM    9 CL9  UNL     1     -32.549   9.968  -0.116  1.00 20.00    -0.122 Cl
ENDBRANCH   6   8
ENDBRANCH   4   6
TORSDOF 2
ENDMDL
MODEL 9
REMARK VINA RESULT:      -0.6      2.243      2.560
REMARK  2 active torsions:
REMARK  status: ('A' for Active; 'I' for Inactive)
REMARK    1  A    between atoms: C1_1  and  C5_5 
REMARK    2  A    between atoms: C1_1  and  C6_6 
ROOT
HETATM    1  C2  UNL     1     -35.025   5.089   4.363  1.00 20.00     0.029 C 
HETATM    2  C3  UNL     1     -33.814   4.968   3.473  1.00 20.00     0.042 C 
HETATM    3  C4  UNL     1     -35.550   6.457   3.990  1.00 20.00     0.168 C 
HETATM    4  C5  UNL     1     -33.291   6.392   3.442  1.00 20.00     0.192 C 
HETATM    5  O8  UNL     1     -34.399   7.260   3.702  1.00 20.00    -0.378 OA
ENDROOT
BRANCH   4   6
HETATM    6  C1  UNL     1     -32.758   6.783   2.105  1.00 20.00     0.169 C 
HETATM    7  O7  UNL     1     -32.258   7.894   1.930  1.00 20.00    -0.294 OA
BRANCH   6   8
HETATM    8  C6  UNL     1     -32.882   5.741   1.017  1.00 20.00     0.195 C 
HETATM    9 CL9  UNL     1     -31.395   4.788   0.893  1.00 20.00    -0.122 Cl
ENDBRANCH   6   8
ENDBRANCH   4   6
TORSDOF 2
ENDMDL
