MODEL 1
REMARK VINA RESULT:      -0.7      0.000      0.000
REMARK  1 active torsions:
REMARK  status: ('A' for Active; 'I' for Inactive)
REMARK    1  A    between atoms: C7_7  and  N8_8 
ROOT
HETATM    1  C1  UNL     1     -32.623  10.240  -0.085  1.00 20.00     0.013 C 
HETATM    2  C2  UNL     1     -32.236   9.407   0.689  1.00 20.00    -0.087 C 
HETATM    3  C7  UNL     1     -31.758   8.393   1.632  1.00 20.00     0.364 C 
ENDROOT
BRANCH   3   4
HETATM    4  N8  UNL     1     -32.842   7.454   1.979  1.00 20.00     0.100 N 
HETATM    5  C3  UNL     1     -32.372   6.080   1.748  1.00 20.00     0.283 C 
HETATM    6  C5  UNL     1     -33.475   5.045   1.957  1.00 20.00     0.104 C 
HETATM    7  S9  UNL     1     -34.088   5.055   3.664  1.00 20.00    -0.166 SA
HETATM    8  C6  UNL     1     -34.435   6.830   3.790  1.00 20.00     0.104 C 
HETATM    9  C4  UNL     1     -33.227   7.671   3.381  1.00 20.00     0.283 C 
ENDBRANCH   3   4
TORSDOF 1
ENDMDL
MODEL 2
REMARK VINA RESULT:      -0.7      2.403      4.546
REMARK  1 active torsions:
REMARK  status: ('A' for Active; 'I' for Inactive)
REMARK    1  A    between atoms: C7_7  and  N8_8 
ROOT
HETATM    1  C1  UNL     1     -33.270   2.751   4.811  1.00 20.00     0.013 C 
HETATM    2  C2  UNL     1     -33.773   3.732   4.335  1.00 20.00    -0.087 C 
HETATM    3  C7  UNL     1     -34.391   4.927   3.754  1.00 20.00     0.364 C 
ENDROOT
BRANCH   3   4
HETATM    4  N8  UNL     1     -33.360   5.880   3.302  1.00 20.00     0.100 N 
HETATM    5  C3  UNL     1     -33.127   5.681   1.865  1.00 20.00     0.283 C 
HETATM    6  C5  UNL     1     -31.977   6.537   1.338  1.00 20.00     0.104 C 
HETATM    7  S9  UNL     1     -32.324   8.308   1.520  1.00 20.00    -0.166 SA
HETATM    8  C6  UNL     1     -32.748   8.295   3.283  1.00 20.00     0.104 C 
HETATM    9  C4  UNL     1     -33.813   7.246   3.598  1.00 20.00     0.283 C 
ENDBRANCH   3   4
TORSDOF 1
ENDMDL
MODEL 3
REMARK VINA RESULT:      -0.6      2.319      4.792
REMARK  1 active torsions:
REMARK  status: ('A' for Active; 'I' for Inactive)
REMARK    1  A    between atoms: C7_7  and  N8_8 
ROOT
HETATM    1  C1  UNL     1     -33.232   2.961   4.628  1.00 20.00     0.013 C 
HETATM    2  C2  UNL     1     -33.965   3.900   4.475  1.00 20.00    -0.087 C 
HETATM    3  C7  UNL     1     -34.863   5.043   4.291  1.00 20.00     0.364 C 
ENDROOT
BRANCH   3   4
HETATM    4  N8  UNL     1     -34.320   5.975   3.285  1.00 20.00     0.100 N 
HETATM    5  C3  UNL     1     -33.840   7.185   3.968  1.00 20.00     0.283 C 
HETATM    6  C5  UNL     1     -33.380   8.263   2.988  1.00 20.00     0.104 C 
HETATM    7  S9  UNL     1     -31.979   7.700   1.984  1.00 20.00    -0.166 SA
HETATM    8  C6  UNL     1     -32.709   6.148   1.393  1.00 20.00     0.104 C 
HETATM    9  C4  UNL     1     -33.242   5.301   2.547  1.00 20.00     0.283 C 
ENDBRANCH   3   4
TORSDOF 1
ENDMDL
MODEL 4
REMARK VINA RESULT:      -0.5      0.901      1.870
REMARK  1 active torsions:
REMARK  status: ('A' for Active; 'I' for Inactive)
REMARK    1  A    between atoms: C7_7  and  N8_8 
ROOT
HETATM    1  C1  UNL     1     -32.686  10.129   0.426  1.00 20.00     0.013 C 
HETATM    2  C2  UNL     1     -32.166   9.106   0.779  1.00 20.00    -0.087 C 
HETATM    3  C7  UNL     1     -31.528   7.858   1.204  1.00 20.00     0.364 C 
ENDROOT
BRANCH   3   4
HETATM    4  N8  UNL     1     -32.269   7.251   2.327  1.00 20.00     0.100 N 
HETATM    5  C3  UNL     1     -33.151   8.268   2.918  1.00 20.00     0.283 C 
HETATM    6  C5  UNL     1     -33.861   7.763   4.173  1.00 20.00     0.104 C 
HETATM    7  S9  UNL     1     -34.941   6.352   3.809  1.00 20.00    -0.166 SA
HETATM    8  C6  UNL     1     -33.721   5.324   2.947  1.00 20.00     0.104 C 
HETATM    9  C4  UNL     1     -33.026   6.095   1.826  1.00 20.00     0.283 C 
ENDBRANCH   3   4
TORSDOF 1
ENDMDL
MODEL 5
REMARK VINA RESULT:       1.7      1.047      1.960
REMARK  1 active torsions:
REMARK  status: ('A' for Active; 'I' for Inactive)
REMARK    1  A    between atoms: C7_7  and  N8_8 
ROOT
HETATM    1  C1  UNL     1     -32.534   9.787  -0.664  1.00 20.00     0.013 C 
HETATM    2  C2  UNL     1     -32.310   9.650   0.508  1.00 20.00    -0.087 C 
HETATM    3  C7  UNL     1     -32.035   9.490   1.938  1.00 20.00     0.364 C 
ENDROOT
BRANCH   3   4
HETATM    4  N8  UNL     1     -32.250   8.091   2.355  1.00 20.00     0.100 N 
HETATM    5  C3  UNL     1     -33.652   7.929   2.768  1.00 20.00     0.283 C 
HETATM    6  C5  UNL     1     -33.932   6.541   3.341  1.00 20.00     0.104 C 
HETATM    7  S9  UNL     1     -33.647   5.239   2.111  1.00 20.00    -0.166 SA
HETATM    8  C6  UNL     1     -31.971   5.727   1.621  1.00 20.00     0.104 C 
HETATM    9  C4  UNL     1     -31.904   7.204   1.236  1.00 20.00     0.283 C 
ENDBRANCH   3   4
TORSDOF 1
ENDMDL
MODEL 6
REMARK VINA RESULT:       2.1      1.913      3.548
REMARK  1 active torsions:
REMARK  status: ('A' for Active; 'I' for Inactive)
REMARK    1  A    between atoms: C7_7  and  N8_8 
ROOT
HETATM    1  C1  UNL     1     -34.126   3.902  -0.655  1.00 20.00     0.013 C 
HETATM    2  C2  UNL     1     -33.333   4.449   0.063  1.00 20.00    -0.087 C 
HETATM    3  C7  UNL     1     -32.363   5.112   0.937  1.00 20.00     0.364 C 
ENDROOT
BRANCH   3   4
HETATM    4  N8  UNL     1     -33.000   6.219   1.676  1.00 20.00     0.100 N 
HETATM    5  C3  UNL     1     -33.606   5.685   2.904  1.00 20.00     0.283 C 
HETATM    6  C5  UNL     1     -34.402   6.741   3.667  1.00 20.00     0.104 C 
HETATM    7  S9  UNL     1     -33.345   8.108   4.217  1.00 20.00    -0.166 SA
HETATM    8  C6  UNL     1     -32.582   8.488   2.617  1.00 20.00     0.104 C 
HETATM    9  C4  UNL     1     -31.984   7.241   1.968  1.00 20.00     0.283 C 
ENDBRANCH   3   4
TORSDOF 1
ENDMDL
