MODEL 1
REMARK VINA RESULT:       1.0      0.000      0.000
REMARK  1 active torsions:
REMARK  status: ('A' for Active; 'I' for Inactive)
REMARK    1  A    between atoms: C6_6  and  N12_12 
ROOT
HETATM    1  C1  UNL     1     -32.604   4.947   1.601  1.00 20.00     0.026 A 
HETATM    2  C2  UNL     1     -31.964   6.047   1.065  1.00 20.00     0.097 A 
HETATM    3  C3  UNL     1     -33.446   5.417   2.639  1.00 20.00    -0.034 A 
HETATM    4  C4  UNL     1     -33.286   6.786   2.704  1.00 20.00     0.022 A 
HETATM    5  C7  UNL     1     -34.349   4.671   3.559  1.00 20.00     0.040 C 
HETATM    6  C8  UNL     1     -33.989   7.711   3.630  1.00 20.00     0.058 C 
HETATM    7  C9  UNL     1     -35.333   5.627   4.263  1.00 20.00     0.005 C 
HETATM    8  C10 UNL     1     -34.640   6.907   4.771  1.00 20.00     0.006 C 
HETATM    9  N12 UNL     1     -32.388   7.162   1.745  1.00 20.00    -0.330 N 
ENDROOT
BRANCH   9  10
HETATM   10  C6  UNL     1     -31.965   8.452   1.476  1.00 20.00     0.003 C 
HETATM   11  C5  UNL     1     -31.159   9.173   2.282  1.00 20.00     0.038 C 
HETATM   12  C11 UNL     1     -32.423   9.121   0.197  1.00 20.00     0.068 C 
ENDBRANCH   9  10
TORSDOF 1
ENDMDL
MODEL 2
REMARK VINA RESULT:       1.6      1.071      2.973
REMARK  1 active torsions:
REMARK  status: ('A' for Active; 'I' for Inactive)
REMARK    1  A    between atoms: C6_6  and  N12_12 
ROOT
HETATM    1  C1  UNL     1     -32.059   8.303   2.105  1.00 20.00     0.026 A 
HETATM    2  C2  UNL     1     -31.696   7.339   1.186  1.00 20.00     0.097 A 
HETATM    3  C3  UNL     1     -33.040   7.728   2.950  1.00 20.00    -0.034 A 
HETATM    4  C4  UNL     1     -33.246   6.436   2.513  1.00 20.00     0.022 A 
HETATM    5  C7  UNL     1     -33.787   8.314   4.097  1.00 20.00     0.040 C 
HETATM    6  C8  UNL     1     -34.173   5.441   3.113  1.00 20.00     0.058 C 
HETATM    7  C9  UNL     1     -34.467   7.213   4.936  1.00 20.00     0.005 C 
HETATM    8  C10 UNL     1     -35.160   6.155   4.055  1.00 20.00     0.006 C 
HETATM    9  N12 UNL     1     -32.426   6.205   1.445  1.00 20.00    -0.330 N 
ENDROOT
BRANCH   9  10
HETATM   10  C6  UNL     1     -32.322   5.026   0.727  1.00 20.00     0.003 C 
HETATM   11  C5  UNL     1     -31.218   4.254   0.686  1.00 20.00     0.038 C 
HETATM   12  C11 UNL     1     -33.516   4.550  -0.074  1.00 20.00     0.068 C 
ENDBRANCH   9  10
TORSDOF 1
ENDMDL
MODEL 3
REMARK VINA RESULT:       1.7      1.202      4.616
REMARK  1 active torsions:
REMARK  status: ('A' for Active; 'I' for Inactive)
REMARK    1  A    between atoms: C6_6  and  N12_12 
ROOT
HETATM    1  C1  UNL     1     -33.425   8.413   3.914  1.00 20.00     0.026 A 
HETATM    2  C2  UNL     1     -34.146   7.437   4.572  1.00 20.00     0.097 A 
HETATM    3  C3  UNL     1     -32.845   7.808   2.772  1.00 20.00    -0.034 A 
HETATM    4  C4  UNL     1     -33.228   6.482   2.777  1.00 20.00     0.022 A 
HETATM    5  C7  UNL     1     -31.962   8.383   1.721  1.00 20.00     0.040 C 
HETATM    6  C8  UNL     1     -32.876   5.461   1.756  1.00 20.00     0.058 C 
HETATM    7  C9  UNL     1     -31.888   7.456   0.492  1.00 20.00     0.005 C 
HETATM    8  C10 UNL     1     -31.712   5.976   0.888  1.00 20.00     0.006 C 
HETATM    9  N12 UNL     1     -34.018   6.265   3.870  1.00 20.00    -0.330 N 
ENDROOT
BRANCH   9  10
HETATM   10  C6  UNL     1     -34.614   5.068   4.228  1.00 20.00     0.003 C 
HETATM   11  C5  UNL     1     -35.895   4.944   4.629  1.00 20.00     0.038 C 
HETATM   12  C11 UNL     1     -33.792   3.797   4.175  1.00 20.00     0.068 C 
ENDBRANCH   9  10
TORSDOF 1
ENDMDL
MODEL 4
REMARK VINA RESULT:       1.8      1.215      3.999
REMARK  1 active torsions:
REMARK  status: ('A' for Active; 'I' for Inactive)
REMARK    1  A    between atoms: C6_6  and  N12_12 
ROOT
HETATM    1  C1  UNL     1     -31.978   5.872   1.281  1.00 20.00     0.026 A 
HETATM    2  C2  UNL     1     -32.780   5.683   2.390  1.00 20.00     0.097 A 
HETATM    3  C3  UNL     1     -31.988   7.258   0.989  1.00 20.00    -0.034 A 
HETATM    4  C4  UNL     1     -32.800   7.865   1.926  1.00 20.00     0.022 A 
HETATM    5  C7  UNL     1     -31.315   8.018  -0.100  1.00 20.00     0.040 C 
HETATM    6  C8  UNL     1     -33.090   9.319   2.028  1.00 20.00     0.058 C 
HETATM    7  C9  UNL     1     -31.311   9.530   0.200  1.00 20.00     0.005 C 
HETATM    8  C10 UNL     1     -32.674  10.024   0.723  1.00 20.00     0.006 C 
HETATM    9  N12 UNL     1     -33.274   6.905   2.773  1.00 20.00    -0.330 N 
ENDROOT
BRANCH   9  10
HETATM   10  C6  UNL     1     -34.112   7.105   3.857  1.00 20.00     0.003 C 
HETATM   11  C5  UNL     1     -33.859   7.961   4.867  1.00 20.00     0.038 C 
HETATM   12  C11 UNL     1     -35.406   6.323   3.936  1.00 20.00     0.068 C 
ENDBRANCH   9  10
TORSDOF 1
ENDMDL
MODEL 5
REMARK VINA RESULT:       2.0      0.979      2.464
REMARK  1 active torsions:
REMARK  status: ('A' for Active; 'I' for Inactive)
REMARK    1  A    between atoms: C6_6  and  N12_12 
ROOT
HETATM    1  C1  UNL     1     -34.618   7.705   4.250  1.00 20.00     0.026 A 
HETATM    2  C2  UNL     1     -33.855   8.531   3.449  1.00 20.00     0.097 A 
HETATM    3  C3  UNL     1     -34.313   6.370   3.888  1.00 20.00    -0.034 A 
HETATM    4  C4  UNL     1     -33.377   6.428   2.875  1.00 20.00     0.022 A 
HETATM    5  C7  UNL     1     -34.849   5.083   4.410  1.00 20.00     0.040 C 
HETATM    6  C8  UNL     1     -32.743   5.268   2.196  1.00 20.00     0.058 C 
HETATM    7  C9  UNL     1     -33.960   3.899   3.983  1.00 20.00     0.005 C 
HETATM    8  C10 UNL     1     -33.542   3.987   2.502  1.00 20.00     0.006 C 
HETATM    9  N12 UNL     1     -33.102   7.741   2.615  1.00 20.00    -0.330 N 
ENDROOT
BRANCH   9  10
HETATM   10  C6  UNL     1     -32.207   8.223   1.676  1.00 20.00     0.003 C 
HETATM   11  C5  UNL     1     -30.954   7.755   1.507  1.00 20.00     0.038 C 
HETATM   12  C11 UNL     1     -32.641   9.352   0.765  1.00 20.00     0.068 C 
ENDBRANCH   9  10
TORSDOF 1
ENDMDL
MODEL 6
REMARK VINA RESULT:       2.0      1.217      3.999
REMARK  1 active torsions:
REMARK  status: ('A' for Active; 'I' for Inactive)
REMARK    1  A    between atoms: C6_6  and  N12_12 
ROOT
HETATM    1  C1  UNL     1     -32.172   5.389   1.155  1.00 20.00     0.026 A 
HETATM    2  C2  UNL     1     -32.742   4.422   1.959  1.00 20.00     0.097 A 
HETATM    3  C3  UNL     1     -32.479   6.646   1.730  1.00 20.00    -0.034 A 
HETATM    4  C4  UNL     1     -33.231   6.403   2.861  1.00 20.00     0.022 A 
HETATM    5  C7  UNL     1     -32.135   8.022   1.278  1.00 20.00     0.040 C 
HETATM    6  C8  UNL     1     -33.761   7.424   3.802  1.00 20.00     0.058 C 
HETATM    7  C9  UNL     1     -32.359   9.048   2.407  1.00 20.00     0.005 C 
HETATM    8  C10 UNL     1     -33.690   8.817   3.148  1.00 20.00     0.006 C 
HETATM    9  N12 UNL     1     -33.385   5.052   2.996  1.00 20.00    -0.330 N 
ENDROOT
BRANCH   9  10
HETATM   10  C6  UNL     1     -34.065   4.399   4.009  1.00 20.00     0.003 C 
HETATM   11  C5  UNL     1     -35.227   4.824   4.543  1.00 20.00     0.038 C 
HETATM   12  C11 UNL     1     -33.484   3.118   4.572  1.00 20.00     0.068 C 
ENDBRANCH   9  10
TORSDOF 1
ENDMDL
MODEL 7
REMARK VINA RESULT:       2.8      1.220      4.641
REMARK  1 active torsions:
REMARK  status: ('A' for Active; 'I' for Inactive)
REMARK    1  A    between atoms: C6_6  and  N12_12 
ROOT
HETATM    1  C1  UNL     1     -33.988   8.241   3.708  1.00 20.00     0.026 A 
HETATM    2  C2  UNL     1     -34.570   7.192   4.392  1.00 20.00     0.097 A 
HETATM    3  C3  UNL     1     -33.212   7.682   2.664  1.00 20.00    -0.034 A 
HETATM    4  C4  UNL     1     -33.342   6.311   2.750  1.00 20.00     0.022 A 
HETATM    5  C7  UNL     1     -32.363   8.342   1.634  1.00 20.00     0.040 C 
HETATM    6  C8  UNL     1     -32.723   5.309   1.844  1.00 20.00     0.058 C 
HETATM    7  C9  UNL     1     -32.016   7.365   0.493  1.00 20.00     0.005 C 
HETATM    8  C10 UNL     1     -31.604   5.976   1.021  1.00 20.00     0.006 C 
HETATM    9  N12 UNL     1     -34.169   6.021   3.798  1.00 20.00    -0.330 N 
ENDROOT
BRANCH   9  10
HETATM   10  C6  UNL     1     -34.563   4.759   4.210  1.00 20.00     0.003 C 
HETATM   11  C5  UNL     1     -33.877   3.626   3.956  1.00 20.00     0.038 C 
HETATM   12  C11 UNL     1     -35.846   4.615   5.002  1.00 20.00     0.068 C 
ENDBRANCH   9  10
TORSDOF 1
ENDMDL
MODEL 8
REMARK VINA RESULT:       3.6      1.365      4.591
REMARK  1 active torsions:
REMARK  status: ('A' for Active; 'I' for Inactive)
REMARK    1  A    between atoms: C6_6  and  N12_12 
ROOT
HETATM    1  C1  UNL     1     -34.614   7.615   4.062  1.00 20.00     0.026 A 
HETATM    2  C2  UNL     1     -34.770   6.278   4.367  1.00 20.00     0.097 A 
HETATM    3  C3  UNL     1     -33.607   7.704   3.069  1.00 20.00    -0.034 A 
HETATM    4  C4  UNL     1     -33.180   6.418   2.808  1.00 20.00     0.022 A 
HETATM    5  C7  UNL     1     -33.027   8.894   2.388  1.00 20.00     0.040 C 
HETATM    6  C8  UNL     1     -32.148   6.017   1.816  1.00 20.00     0.058 C 
HETATM    7  C9  UNL     1     -32.237   8.482   1.130  1.00 20.00     0.005 C 
HETATM    8  C10 UNL     1     -31.339   7.254   1.382  1.00 20.00     0.006 C 
HETATM    9  N12 UNL     1     -33.891   5.558   3.596  1.00 20.00    -0.330 N 
ENDROOT
BRANCH   9  10
HETATM   10  C6  UNL     1     -33.770   4.179   3.626  1.00 20.00     0.003 C 
HETATM   11  C5  UNL     1     -33.854   3.383   2.541  1.00 20.00     0.038 C 
HETATM   12  C11 UNL     1     -33.529   3.495   4.956  1.00 20.00     0.068 C 
ENDBRANCH   9  10
TORSDOF 1
ENDMDL
MODEL 9
REMARK VINA RESULT:       3.7      1.998      4.903
REMARK  1 active torsions:
REMARK  status: ('A' for Active; 'I' for Inactive)
REMARK    1  A    between atoms: C6_6  and  N12_12 
ROOT
HETATM    1  C1  UNL     1     -35.273   6.123   4.090  1.00 20.00     0.026 A 
HETATM    2  C2  UNL     1     -35.050   4.951   4.785  1.00 20.00     0.097 A 
HETATM    3  C3  UNL     1     -34.229   6.252   3.141  1.00 20.00    -0.034 A 
HETATM    4  C4  UNL     1     -33.403   5.157   3.295  1.00 20.00     0.022 A 
HETATM    5  C7  UNL     1     -33.961   7.324   2.143  1.00 20.00     0.040 C 
HETATM    6  C8  UNL     1     -32.186   4.854   2.497  1.00 20.00     0.058 C 
HETATM    7  C9  UNL     1     -32.937   6.856   1.090  1.00 20.00     0.005 C 
HETATM    8  C10 UNL     1     -31.746   6.112   1.725  1.00 20.00     0.006 C 
HETATM    9  N12 UNL     1     -33.908   4.371   4.291  1.00 20.00    -0.330 N 
ENDROOT
BRANCH   9  10
HETATM   10  C6  UNL     1     -33.379   3.175   4.743  1.00 20.00     0.003 C 
HETATM   11  C5  UNL     1     -33.522   1.992   4.113  1.00 20.00     0.038 C 
HETATM   12  C11 UNL     1     -32.581   3.168   6.031  1.00 20.00     0.068 C 
ENDBRANCH   9  10
TORSDOF 1
ENDMDL
