MODEL 1
REMARK VINA RESULT:       1.7      0.000      0.000
REMARK  1 active torsions:
REMARK  status: ('A' for Active; 'I' for Inactive)
REMARK    1  A    between atoms: C3_3  and  C7_7 
ROOT
HETATM    1  C1  UNL     1     -31.297   6.842   1.731  1.00 20.00    -0.025 C 
HETATM    2  C2  UNL     1     -32.523   6.470   1.330  1.00 20.00    -0.024 C 
HETATM    3  C4  UNL     1     -32.182   8.284   3.485  1.00 20.00     0.021 C 
HETATM    4  C5  UNL     1     -31.391   8.296   2.149  1.00 20.00     0.017 C 
HETATM    5  C6  UNL     1     -33.432   7.678   1.497  1.00 20.00     0.027 C 
HETATM    6  C7  UNL     1     -33.619   7.890   3.026  1.00 20.00     0.056 C 
HETATM    7  C8  UNL     1     -32.435   8.811   1.121  1.00 20.00    -0.033 C 
HETATM    8  C9  UNL     1     -31.959   8.782  -0.351  1.00 20.00     0.016 C 
HETATM    9  C10 UNL     1     -32.942  10.243   1.377  1.00 20.00     0.016 C 
ENDROOT
BRANCH   6  10
HETATM   10  C3  UNL     1     -34.152   6.684   3.740  1.00 20.00     0.236 C 
HETATM   11  O11 UNL     1     -35.348   6.454   3.878  1.00 20.00    -0.306 OA
ENDBRANCH   6  10
TORSDOF 1
ENDMDL
MODEL 2
REMARK VINA RESULT:       2.7      2.117      3.641
REMARK  1 active torsions:
REMARK  status: ('A' for Active; 'I' for Inactive)
REMARK    1  A    between atoms: C3_3  and  C7_7 
ROOT
HETATM    1  C1  UNL     1     -33.209   8.086   3.720  1.00 20.00    -0.025 C 
HETATM    2  C2  UNL     1     -34.093   8.225   2.721  1.00 20.00    -0.024 C 
HETATM    3  C4  UNL     1     -31.303   8.183   2.203  1.00 20.00     0.021 C 
HETATM    4  C5  UNL     1     -32.064   7.250   3.185  1.00 20.00     0.017 C 
HETATM    5  C6  UNL     1     -33.524   7.489   1.517  1.00 20.00     0.027 C 
HETATM    6  C7  UNL     1     -32.308   8.319   1.018  1.00 20.00     0.056 C 
HETATM    7  C8  UNL     1     -32.839   6.294   2.238  1.00 20.00    -0.033 C 
HETATM    8  C9  UNL     1     -33.818   5.333   2.956  1.00 20.00     0.016 C 
HETATM    9  C10 UNL     1     -31.951   5.408   1.345  1.00 20.00     0.016 C 
ENDROOT
BRANCH   6  10
HETATM   10  C3  UNL     1     -32.644   9.745   0.697  1.00 20.00     0.236 C 
HETATM   11  O11 UNL     1     -32.812  10.159  -0.444  1.00 20.00    -0.306 OA
ENDBRANCH   6  10
TORSDOF 1
ENDMDL
MODEL 3
REMARK VINA RESULT:       2.9      2.149      3.805
REMARK  1 active torsions:
REMARK  status: ('A' for Active; 'I' for Inactive)
REMARK    1  A    between atoms: C3_3  and  C7_7 
ROOT
HETATM    1  C1  UNL     1     -32.428   5.114   1.035  1.00 20.00    -0.025 C 
HETATM    2  C2  UNL     1     -31.564   5.739   1.850  1.00 20.00    -0.024 C 
HETATM    3  C4  UNL     1     -33.852   7.083   0.842  1.00 20.00     0.021 C 
HETATM    4  C5  UNL     1     -33.812   5.626   1.380  1.00 20.00     0.017 C 
HETATM    5  C6  UNL     1     -32.380   6.677   2.728  1.00 20.00     0.027 C 
HETATM    6  C7  UNL     1     -32.880   7.828   1.809  1.00 20.00     0.056 C 
HETATM    7  C8  UNL     1     -33.661   5.816   2.913  1.00 20.00    -0.033 C 
HETATM    8  C9  UNL     1     -33.442   4.505   3.707  1.00 20.00     0.016 C 
HETATM    9  C10 UNL     1     -34.842   6.534   3.595  1.00 20.00     0.016 C 
ENDROOT
BRANCH   6  10
HETATM   10  C3  UNL     1     -31.778   8.546   1.090  1.00 20.00     0.236 C 
HETATM   11  O11 UNL     1     -31.973   9.452   0.287  1.00 20.00    -0.306 OA
ENDBRANCH   6  10
TORSDOF 1
ENDMDL
MODEL 4
REMARK VINA RESULT:       3.1      1.186      1.901
REMARK  1 active torsions:
REMARK  status: ('A' for Active; 'I' for Inactive)
REMARK    1  A    between atoms: C3_3  and  C7_7 
ROOT
HETATM    1  C1  UNL     1     -33.133   5.660   0.979  1.00 20.00    -0.025 C 
HETATM    2  C2  UNL     1     -34.152   6.527   1.076  1.00 20.00    -0.024 C 
HETATM    3  C4  UNL     1     -32.761   5.647   3.388  1.00 20.00     0.021 C 
HETATM    4  C5  UNL     1     -32.117   6.051   2.034  1.00 20.00     0.017 C 
HETATM    5  C6  UNL     1     -33.814   7.487   2.208  1.00 20.00     0.027 C 
HETATM    6  C7  UNL     1     -33.925   6.676   3.530  1.00 20.00     0.056 C 
HETATM    7  C8  UNL     1     -32.276   7.595   2.010  1.00 20.00    -0.033 C 
HETATM    8  C9  UNL     1     -31.847   8.267   0.683  1.00 20.00     0.016 C 
HETATM    9  C10 UNL     1     -31.521   8.340   3.128  1.00 20.00     0.016 C 
ENDROOT
BRANCH   6  10
HETATM   10  C3  UNL     1     -35.261   6.024   3.726  1.00 20.00     0.236 C 
HETATM   11  O11 UNL     1     -35.447   5.077   4.482  1.00 20.00    -0.306 OA
ENDBRANCH   6  10
TORSDOF 1
ENDMDL
MODEL 5
REMARK VINA RESULT:       3.2      1.797      3.141
REMARK  1 active torsions:
REMARK  status: ('A' for Active; 'I' for Inactive)
REMARK    1  A    between atoms: C3_3  and  C7_7 
ROOT
HETATM    1  C1  UNL     1     -33.906   7.876   4.402  1.00 20.00    -0.025 C 
HETATM    2  C2  UNL     1     -32.943   6.959   4.586  1.00 20.00    -0.024 C 
HETATM    3  C4  UNL     1     -35.332   6.307   3.199  1.00 20.00     0.021 C 
HETATM    4  C5  UNL     1     -34.510   7.614   3.036  1.00 20.00     0.017 C 
HETATM    5  C6  UNL     1     -32.921   6.080   3.344  1.00 20.00     0.027 C 
HETATM    6  C7  UNL     1     -34.220   5.227   3.375  1.00 20.00     0.056 C 
HETATM    7  C8  UNL     1     -33.248   7.147   2.261  1.00 20.00    -0.033 C 
HETATM    8  C9  UNL     1     -32.161   8.235   2.086  1.00 20.00     0.016 C 
HETATM    9  C10 UNL     1     -33.525   6.590   0.852  1.00 20.00     0.016 C 
ENDROOT
BRANCH   6  10
HETATM   10  C3  UNL     1     -34.381   4.422   4.630  1.00 20.00     0.236 C 
HETATM   11  O11 UNL     1     -33.850   3.331   4.805  1.00 20.00    -0.306 OA
ENDBRANCH   6  10
TORSDOF 1
ENDMDL
MODEL 6
REMARK VINA RESULT:       3.4      2.309      3.779
REMARK  1 active torsions:
REMARK  status: ('A' for Active; 'I' for Inactive)
REMARK    1  A    between atoms: C3_3  and  C7_7 
ROOT
HETATM    1  C1  UNL     1     -35.758   6.306   3.229  1.00 20.00    -0.025 C 
HETATM    2  C2  UNL     1     -35.299   5.997   4.452  1.00 20.00    -0.024 C 
HETATM    3  C4  UNL     1     -33.821   5.319   2.126  1.00 20.00     0.021 C 
HETATM    4  C5  UNL     1     -34.553   6.665   2.383  1.00 20.00     0.017 C 
HETATM    5  C6  UNL     1     -33.785   6.139   4.410  1.00 20.00     0.027 C 
HETATM    6  C7  UNL     1     -33.250   4.970   3.536  1.00 20.00     0.056 C 
HETATM    7  C8  UNL     1     -33.662   7.357   3.450  1.00 20.00    -0.033 C 
HETATM    8  C9  UNL     1     -34.241   8.677   4.014  1.00 20.00     0.016 C 
HETATM    9  C10 UNL     1     -32.230   7.684   2.984  1.00 20.00     0.016 C 
ENDROOT
BRANCH   6  10
HETATM   10  C3  UNL     1     -33.674   3.615   4.019  1.00 20.00     0.236 C 
HETATM   11  O11 UNL     1     -33.057   2.976   4.863  1.00 20.00    -0.306 OA
ENDBRANCH   6  10
TORSDOF 1
ENDMDL
MODEL 7
REMARK VINA RESULT:       4.4      2.111      3.547
REMARK  1 active torsions:
REMARK  status: ('A' for Active; 'I' for Inactive)
REMARK    1  A    between atoms: C3_3  and  C7_7 
ROOT
HETATM    1  C1  UNL     1     -35.140   6.662   3.307  1.00 20.00    -0.025 C 
HETATM    2  C2  UNL     1     -34.304   5.709   3.748  1.00 20.00    -0.024 C 
HETATM    3  C4  UNL     1     -33.647   7.293   1.487  1.00 20.00     0.021 C 
HETATM    4  C5  UNL     1     -34.281   7.807   2.808  1.00 20.00     0.017 C 
HETATM    5  C6  UNL     1     -32.888   6.220   3.527  1.00 20.00     0.027 C 
HETATM    6  C7  UNL     1     -32.644   6.210   1.991  1.00 20.00     0.056 C 
HETATM    7  C8  UNL     1     -33.106   7.732   3.820  1.00 20.00    -0.033 C 
HETATM    8  C9  UNL     1     -33.495   8.050   5.284  1.00 20.00     0.016 C 
HETATM    9  C10 UNL     1     -31.909   8.644   3.490  1.00 20.00     0.016 C 
ENDROOT
BRANCH   6  10
HETATM   10  C3  UNL     1     -32.863   4.869   1.356  1.00 20.00     0.236 C 
HETATM   11  O11 UNL     1     -33.122   4.719   0.167  1.00 20.00    -0.306 OA
ENDBRANCH   6  10
TORSDOF 1
ENDMDL
MODEL 8
REMARK VINA RESULT:       4.7      1.709      3.125
REMARK  1 active torsions:
REMARK  status: ('A' for Active; 'I' for Inactive)
REMARK    1  A    between atoms: C3_3  and  C7_7 
ROOT
HETATM    1  C1  UNL     1     -32.942   7.968   1.251  1.00 20.00    -0.025 C 
HETATM    2  C2  UNL     1     -32.048   7.947   2.251  1.00 20.00    -0.024 C 
HETATM    3  C4  UNL     1     -34.730   7.122   2.676  1.00 20.00     0.021 C 
HETATM    4  C5  UNL     1     -33.850   6.770   1.445  1.00 20.00     0.017 C 
HETATM    5  C6  UNL     1     -32.374   6.739   3.116  1.00 20.00     0.027 C 
HETATM    6  C7  UNL     1     -33.706   7.062   3.852  1.00 20.00     0.056 C 
HETATM    7  C8  UNL     1     -32.835   5.743   2.014  1.00 20.00    -0.033 C 
HETATM    8  C9  UNL     1     -31.720   5.324   1.025  1.00 20.00     0.016 C 
HETATM    9  C10 UNL     1     -33.460   4.434   2.531  1.00 20.00     0.016 C 
ENDROOT
BRANCH   6  10
HETATM   10  C3  UNL     1     -33.659   8.330   4.651  1.00 20.00     0.236 C 
HETATM   11  O11 UNL     1     -32.895   8.506   5.594  1.00 20.00    -0.306 OA
ENDBRANCH   6  10
TORSDOF 1
ENDMDL
