MODEL 1
REMARK VINA RESULT:      -2.1      0.000      0.000
REMARK  2 active torsions:
REMARK  status: ('A' for Active; 'I' for Inactive)
REMARK    1  A    between atoms: C5_5  and  C6_6 
REMARK    2  A    between atoms: C6_6  and  N7_7 
ROOT
HETATM    1  C1  UNL     1     -32.655  10.217  -0.015  1.00 20.00     0.012 C 
HETATM    2  C2  UNL     1     -32.230   9.293   0.622  1.00 20.00    -0.116 C 
HETATM    3  C5  UNL     1     -31.704   8.161   1.400  1.00 20.00     0.123 C 
ENDROOT
BRANCH   3   4
HETATM    4  C6  UNL     1     -32.549   7.877   2.639  1.00 20.00     0.283 C 
BRANCH   4   5
HETATM    5  N7  UNL     1     -33.540   6.837   2.366  1.00 20.00     0.080 N 
HETATM    6  C3  UNL     1     -34.221   6.444   3.599  1.00 20.00     0.309 C 
HETATM    7  C4  UNL     1     -32.903   5.677   1.742  1.00 20.00     0.309 C 
ENDBRANCH   4   5
ENDBRANCH   3   4
TORSDOF 2
ENDMDL
MODEL 2
REMARK VINA RESULT:      -2.1      0.345      1.329
REMARK  2 active torsions:
REMARK  status: ('A' for Active; 'I' for Inactive)
REMARK    1  A    between atoms: C5_5  and  C6_6 
REMARK    2  A    between atoms: C6_6  and  N7_7 
ROOT
HETATM    1  C1  UNL     1     -32.587  10.270   0.052  1.00 20.00     0.012 C 
HETATM    2  C2  UNL     1     -32.281   9.289   0.673  1.00 20.00    -0.116 C 
HETATM    3  C5  UNL     1     -31.902   8.086   1.432  1.00 20.00     0.123 C 
ENDROOT
BRANCH   3   4
HETATM    4  C6  UNL     1     -32.676   7.969   2.741  1.00 20.00     0.283 C 
BRANCH   4   5
HETATM    5  N7  UNL     1     -33.118   6.594   2.964  1.00 20.00     0.080 N 
HETATM    6  C3  UNL     1     -33.077   5.835   1.715  1.00 20.00     0.309 C 
HETATM    7  C4  UNL     1     -34.468   6.576   3.528  1.00 20.00     0.309 C 
ENDBRANCH   4   5
ENDBRANCH   3   4
TORSDOF 2
ENDMDL
MODEL 3
REMARK VINA RESULT:      -1.9      1.024      1.535
REMARK  2 active torsions:
REMARK  status: ('A' for Active; 'I' for Inactive)
REMARK    1  A    between atoms: C5_5  and  C6_6 
REMARK    2  A    between atoms: C6_6  and  N7_7 
ROOT
HETATM    1  C1  UNL     1     -32.525   9.833   0.170  1.00 20.00     0.012 C 
HETATM    2  C2  UNL     1     -32.236   8.988   0.972  1.00 20.00    -0.116 C 
HETATM    3  C5  UNL     1     -31.878   7.956   1.958  1.00 20.00     0.123 C 
ENDROOT
BRANCH   3   4
HETATM    4  C6  UNL     1     -33.043   7.014   2.247  1.00 20.00     0.283 C 
BRANCH   4   5
HETATM    5  N7  UNL     1     -33.854   7.515   3.356  1.00 20.00     0.080 N 
HETATM    6  C3  UNL     1     -32.998   7.964   4.453  1.00 20.00     0.309 C 
HETATM    7  C4  UNL     1     -34.778   6.480   3.820  1.00 20.00     0.309 C 
ENDBRANCH   4   5
ENDBRANCH   3   4
TORSDOF 2
ENDMDL
MODEL 4
REMARK VINA RESULT:      -1.8      1.147      1.650
REMARK  2 active torsions:
REMARK  status: ('A' for Active; 'I' for Inactive)
REMARK    1  A    between atoms: C5_5  and  C6_6 
REMARK    2  A    between atoms: C6_6  and  N7_7 
ROOT
HETATM    1  C1  UNL     1     -32.362   9.700   0.299  1.00 20.00     0.012 C 
HETATM    2  C2  UNL     1     -32.256   8.799   1.085  1.00 20.00    -0.116 C 
HETATM    3  C5  UNL     1     -32.123   7.697   2.051  1.00 20.00     0.123 C 
ENDROOT
BRANCH   3   4
HETATM    4  C6  UNL     1     -33.427   6.923   2.219  1.00 20.00     0.283 C 
BRANCH   4   5
HETATM    5  N7  UNL     1     -33.773   6.786   3.633  1.00 20.00     0.080 N 
HETATM    6  C3  UNL     1     -35.128   6.256   3.779  1.00 20.00     0.309 C 
HETATM    7  C4  UNL     1     -33.653   8.074   4.315  1.00 20.00     0.309 C 
ENDBRANCH   4   5
ENDBRANCH   3   4
TORSDOF 2
ENDMDL
MODEL 5
REMARK VINA RESULT:      -1.8      1.256      3.951
REMARK  2 active torsions:
REMARK  status: ('A' for Active; 'I' for Inactive)
REMARK    1  A    between atoms: C5_5  and  C6_6 
REMARK    2  A    between atoms: C6_6  and  N7_7 
ROOT
HETATM    1  C1  UNL     1     -35.450   5.296   4.360  1.00 20.00     0.012 C 
HETATM    2  C2  UNL     1     -34.927   6.354   4.136  1.00 20.00    -0.116 C 
HETATM    3  C5  UNL     1     -34.291   7.652   3.865  1.00 20.00     0.123 C 
ENDROOT
BRANCH   3   4
HETATM    4  C6  UNL     1     -32.857   7.493   3.368  1.00 20.00     0.283 C 
BRANCH   4   5
HETATM    5  N7  UNL     1     -32.825   7.335   1.915  1.00 20.00     0.080 N 
HETATM    6  C3  UNL     1     -32.543   5.945   1.557  1.00 20.00     0.309 C 
HETATM    7  C4  UNL     1     -31.825   8.226   1.326  1.00 20.00     0.309 C 
ENDBRANCH   4   5
ENDBRANCH   3   4
TORSDOF 2
ENDMDL
MODEL 6
REMARK VINA RESULT:      -1.7      2.027      4.922
REMARK  2 active torsions:
REMARK  status: ('A' for Active; 'I' for Inactive)
REMARK    1  A    between atoms: C5_5  and  C6_6 
REMARK    2  A    between atoms: C6_6  and  N7_7 
ROOT
HETATM    1  C1  UNL     1     -33.195   2.785   4.759  1.00 20.00     0.012 C 
HETATM    2  C2  UNL     1     -33.695   3.777   4.304  1.00 20.00    -0.116 C 
HETATM    3  C5  UNL     1     -34.311   4.993   3.750  1.00 20.00     0.123 C 
ENDROOT
BRANCH   3   4
HETATM    4  C6  UNL     1     -33.453   5.619   2.655  1.00 20.00     0.283 C 
BRANCH   4   5
HETATM    5  N7  UNL     1     -33.570   7.076   2.671  1.00 20.00     0.080 N 
HETATM    6  C3  UNL     1     -32.307   7.695   2.270  1.00 20.00     0.309 C 
HETATM    7  C4  UNL     1     -33.967   7.542   4.000  1.00 20.00     0.309 C 
ENDBRANCH   4   5
ENDBRANCH   3   4
TORSDOF 2
ENDMDL
MODEL 7
REMARK VINA RESULT:      -1.7      1.423      4.409
REMARK  2 active torsions:
REMARK  status: ('A' for Active; 'I' for Inactive)
REMARK    1  A    between atoms: C5_5  and  C6_6 
REMARK    2  A    between atoms: C6_6  and  N7_7 
ROOT
HETATM    1  C1  UNL     1     -33.823   3.616   4.441  1.00 20.00     0.012 C 
HETATM    2  C2  UNL     1     -34.184   4.700   4.074  1.00 20.00    -0.116 C 
HETATM    3  C5  UNL     1     -34.631   6.029   3.627  1.00 20.00     0.123 C 
ENDROOT
BRANCH   3   4
HETATM    4  C6  UNL     1     -33.462   6.991   3.437  1.00 20.00     0.283 C 
BRANCH   4   5
HETATM    5  N7  UNL     1     -33.083   7.079   2.028  1.00 20.00     0.080 N 
HETATM    6  C3  UNL     1     -32.647   5.774   1.532  1.00 20.00     0.309 C 
HETATM    7  C4  UNL     1     -32.026   8.074   1.844  1.00 20.00     0.309 C 
ENDBRANCH   4   5
ENDBRANCH   3   4
TORSDOF 2
ENDMDL
MODEL 8
REMARK VINA RESULT:      -1.6      1.355      2.361
REMARK  2 active torsions:
REMARK  status: ('A' for Active; 'I' for Inactive)
REMARK    1  A    between atoms: C5_5  and  C6_6 
REMARK    2  A    between atoms: C6_6  and  N7_7 
ROOT
HETATM    1  C1  UNL     1     -31.778   8.425   1.391  1.00 20.00     0.012 C 
HETATM    2  C2  UNL     1     -32.272   7.340   1.529  1.00 20.00    -0.116 C 
HETATM    3  C5  UNL     1     -32.875   6.008   1.694  1.00 20.00     0.123 C 
ENDROOT
BRANCH   3   4
HETATM    4  C6  UNL     1     -33.327   5.760   3.130  1.00 20.00     0.283 C 
BRANCH   4   5
HETATM    5  N7  UNL     1     -34.408   6.671   3.500  1.00 20.00     0.080 N 
HETATM    6  C3  UNL     1     -33.910   7.724   4.384  1.00 20.00     0.309 C 
HETATM    7  C4  UNL     1     -35.496   5.936   4.146  1.00 20.00     0.309 C 
ENDBRANCH   4   5
ENDBRANCH   3   4
TORSDOF 2
ENDMDL
MODEL 9
REMARK VINA RESULT:      -1.3      1.317      3.938
REMARK  2 active torsions:
REMARK  status: ('A' for Active; 'I' for Inactive)
REMARK    1  A    between atoms: C5_5  and  C6_6 
REMARK    2  A    between atoms: C6_6  and  N7_7 
ROOT
HETATM    1  C1  UNL     1     -35.424   5.795   4.214  1.00 20.00     0.012 C 
HETATM    2  C2  UNL     1     -34.571   6.553   3.843  1.00 20.00    -0.116 C 
HETATM    3  C5  UNL     1     -33.524   7.485   3.393  1.00 20.00     0.123 C 
ENDROOT
BRANCH   3   4
HETATM    4  C6  UNL     1     -32.971   7.103   2.023  1.00 20.00     0.283 C 
BRANCH   4   5
HETATM    5  N7  UNL     1     -31.867   7.983   1.644  1.00 20.00     0.080 N 
HETATM    6  C3  UNL     1     -31.248   8.568   2.832  1.00 20.00     0.309 C 
HETATM    7  C4  UNL     1     -32.339   9.036   0.744  1.00 20.00     0.309 C 
ENDBRANCH   4   5
ENDBRANCH   3   4
TORSDOF 2
ENDMDL
