MODEL 1
REMARK VINA RESULT:      -0.2      0.000      0.000
REMARK  0 active torsions:
REMARK  status: ('A' for Active; 'I' for Inactive)
ROOT
HETATM    1  C1  UNL     1     -33.938   6.674   3.095  1.00 20.00     0.131 C 
HETATM    2  C2  UNL     1     -31.626   6.555   1.693  1.00 20.00     0.059 C 
HETATM    3  C3  UNL     1     -32.776   5.678   1.240  1.00 20.00     0.179 C 
HETATM    4  C4  UNL     1     -32.149   7.917   2.158  1.00 20.00     0.051 C 
HETATM    5  C5  UNL     1     -35.056   6.440   4.060  1.00 20.00     0.099 C 
HETATM    6  C6  UNL     1     -31.018   8.689   2.850  1.00 20.00     0.040 C 
HETATM    7  C7  UNL     1     -32.694   8.761   0.997  1.00 20.00     0.040 C 
HETATM    8  N8  UNL     1     -33.223   7.742   3.142  1.00 20.00    -0.261 NA
HETATM    9  O9  UNL     1     -33.812   5.632   2.233  1.00 20.00    -0.338 OA
ENDROOT
TORSDOF 0
ENDMDL
MODEL 2
REMARK VINA RESULT:       0.0      2.153      3.238
REMARK  0 active torsions:
REMARK  status: ('A' for Active; 'I' for Inactive)
ROOT
HETATM    1  C1  UNL     1     -33.878   4.368   4.122  1.00 20.00     0.131 C 
HETATM    2  C2  UNL     1     -35.148   6.510   3.060  1.00 20.00     0.059 C 
HETATM    3  C3  UNL     1     -35.712   5.910   4.332  1.00 20.00     0.179 C 
HETATM    4  C4  UNL     1     -33.618   6.492   3.099  1.00 20.00     0.051 C 
HETATM    5  C5  UNL     1     -33.437   2.989   4.495  1.00 20.00     0.099 C 
HETATM    6  C6  UNL     1     -33.067   6.856   1.714  1.00 20.00     0.040 C 
HETATM    7  C7  UNL     1     -33.048   7.469   4.137  1.00 20.00     0.040 C 
HETATM    8  N8  UNL     1     -33.131   5.146   3.421  1.00 20.00    -0.261 NA
HETATM    9  O9  UNL     1     -35.120   4.631   4.606  1.00 20.00    -0.338 OA
ENDROOT
TORSDOF 0
ENDMDL
MODEL 3
REMARK VINA RESULT:       0.3      1.798      3.647
REMARK  0 active torsions:
REMARK  status: ('A' for Active; 'I' for Inactive)
ROOT
HETATM    1  C1  UNL     1     -32.970   6.274   2.142  1.00 20.00     0.131 C 
HETATM    2  C2  UNL     1     -33.946   7.339   4.432  1.00 20.00     0.059 C 
HETATM    3  C3  UNL     1     -33.296   8.276   3.434  1.00 20.00     0.179 C 
HETATM    4  C4  UNL     1     -34.759   6.267   3.699  1.00 20.00     0.051 C 
HETATM    5  C5  UNL     1     -32.102   5.670   1.085  1.00 20.00     0.099 C 
HETATM    6  C6  UNL     1     -35.192   5.184   4.696  1.00 20.00     0.040 C 
HETATM    7  C7  UNL     1     -36.006   6.845   3.015  1.00 20.00     0.040 C 
HETATM    8  N8  UNL     1     -33.936   5.613   2.676  1.00 20.00    -0.261 NA
HETATM    9  O9  UNL     1     -32.580   7.543   2.428  1.00 20.00    -0.338 OA
ENDROOT
TORSDOF 0
ENDMDL
MODEL 4
REMARK VINA RESULT:       0.5      1.428      2.753
REMARK  0 active torsions:
REMARK  status: ('A' for Active; 'I' for Inactive)
ROOT
HETATM    1  C1  UNL     1     -33.660   6.959   3.251  1.00 20.00     0.131 C 
HETATM    2  C2  UNL     1     -32.337   7.264   0.908  1.00 20.00     0.059 C 
HETATM    3  C3  UNL     1     -31.872   8.081   2.098  1.00 20.00     0.179 C 
HETATM    4  C4  UNL     1     -32.747   5.859   1.359  1.00 20.00     0.051 C 
HETATM    5  C5  UNL     1     -34.594   7.095   4.410  1.00 20.00     0.099 C 
HETATM    6  C6  UNL     1     -33.454   5.139   0.203  1.00 20.00     0.040 C 
HETATM    7  C7  UNL     1     -31.546   5.018   1.813  1.00 20.00     0.040 C 
HETATM    8  N8  UNL     1     -33.700   5.937   2.471  1.00 20.00    -0.261 NA
HETATM    9  O9  UNL     1     -32.832   8.033   3.164  1.00 20.00    -0.338 OA
ENDROOT
TORSDOF 0
ENDMDL
MODEL 5
REMARK VINA RESULT:       0.6      1.956      2.781
REMARK  0 active torsions:
REMARK  status: ('A' for Active; 'I' for Inactive)
ROOT
HETATM    1  C1  UNL     1     -33.626   4.505   3.715  1.00 20.00     0.131 C 
HETATM    2  C2  UNL     1     -33.159   6.937   2.623  1.00 20.00     0.059 C 
HETATM    3  C3  UNL     1     -33.167   5.735   1.700  1.00 20.00     0.179 C 
HETATM    4  C4  UNL     1     -34.247   6.794   3.690  1.00 20.00     0.051 C 
HETATM    5  C5  UNL     1     -33.495   3.151   4.336  1.00 20.00     0.099 C 
HETATM    6  C6  UNL     1     -34.059   7.876   4.761  1.00 20.00     0.040 C 
HETATM    7  C7  UNL     1     -35.661   6.911   3.103  1.00 20.00     0.040 C 
HETATM    8  N8  UNL     1     -34.136   5.494   4.361  1.00 20.00    -0.261 NA
HETATM    9  O9  UNL     1     -33.136   4.510   2.448  1.00 20.00    -0.338 OA
ENDROOT
TORSDOF 0
ENDMDL
MODEL 6
REMARK VINA RESULT:       0.8      1.112      2.560
REMARK  0 active torsions:
REMARK  status: ('A' for Active; 'I' for Inactive)
ROOT
HETATM    1  C1  UNL     1     -32.553   5.893   1.602  1.00 20.00     0.131 C 
HETATM    2  C2  UNL     1     -33.697   8.121   2.631  1.00 20.00     0.059 C 
HETATM    3  C3  UNL     1     -33.779   6.843   3.441  1.00 20.00     0.179 C 
HETATM    4  C4  UNL     1     -32.330   8.229   1.949  1.00 20.00     0.051 C 
HETATM    5  C5  UNL     1     -32.281   4.604   0.897  1.00 20.00     0.099 C 
HETATM    6  C6  UNL     1     -32.355   9.381   0.935  1.00 20.00     0.040 C 
HETATM    7  C7  UNL     1     -31.193   8.469   2.952  1.00 20.00     0.040 C 
HETATM    8  N8  UNL     1     -32.033   7.000   1.204  1.00 20.00    -0.261 NA
HETATM    9  O9  UNL     1     -33.395   5.706   2.652  1.00 20.00    -0.338 OA
ENDROOT
TORSDOF 0
ENDMDL
MODEL 7
REMARK VINA RESULT:       1.0      1.833      3.131
REMARK  0 active torsions:
REMARK  status: ('A' for Active; 'I' for Inactive)
ROOT
HETATM    1  C1  UNL     1     -33.036   5.894   2.345  1.00 20.00     0.131 C 
HETATM    2  C2  UNL     1     -35.124   6.408   3.990  1.00 20.00     0.059 C 
HETATM    3  C3  UNL     1     -34.451   5.055   4.099  1.00 20.00     0.179 C 
HETATM    4  C4  UNL     1     -34.080   7.501   3.743  1.00 20.00     0.051 C 
HETATM    5  C5  UNL     1     -32.163   5.458   1.212  1.00 20.00     0.099 C 
HETATM    6  C6  UNL     1     -34.789   8.811   3.377  1.00 20.00     0.040 C 
HETATM    7  C7  UNL     1     -33.184   7.740   4.967  1.00 20.00     0.040 C 
HETATM    8  N8  UNL     1     -33.221   7.139   2.610  1.00 20.00    -0.261 NA
HETATM    9  O9  UNL     1     -33.571   4.824   2.988  1.00 20.00    -0.338 OA
ENDROOT
TORSDOF 0
ENDMDL
MODEL 8
REMARK VINA RESULT:       1.3      1.494      3.175
REMARK  0 active torsions:
REMARK  status: ('A' for Active; 'I' for Inactive)
ROOT
HETATM    1  C1  UNL     1     -32.582   8.552   1.396  1.00 20.00     0.131 C 
HETATM    2  C2  UNL     1     -33.120   6.106   2.423  1.00 20.00     0.059 C 
HETATM    3  C3  UNL     1     -31.738   6.346   1.851  1.00 20.00     0.179 C 
HETATM    4  C4  UNL     1     -33.610   7.353   3.165  1.00 20.00     0.051 C 
HETATM    5  C5  UNL     1     -32.396   9.732   0.497  1.00 20.00     0.099 C 
HETATM    6  C6  UNL     1     -35.096   7.191   3.510  1.00 20.00     0.040 C 
HETATM    7  C7  UNL     1     -32.822   7.613   4.457  1.00 20.00     0.040 C 
HETATM    8  N8  UNL     1     -33.489   8.537   2.308  1.00 20.00    -0.261 NA
HETATM    9  O9  UNL     1     -31.697   7.566   1.095  1.00 20.00    -0.338 OA
ENDROOT
TORSDOF 0
ENDMDL
MODEL 9
REMARK VINA RESULT:       1.4      1.409      3.049
REMARK  0 active torsions:
REMARK  status: ('A' for Active; 'I' for Inactive)
ROOT
HETATM    1  C1  UNL     1     -32.382   7.769   2.560  1.00 20.00     0.131 C 
HETATM    2  C2  UNL     1     -33.455   5.296   2.798  1.00 20.00     0.059 C 
HETATM    3  C3  UNL     1     -34.215   6.460   3.402  1.00 20.00     0.179 C 
HETATM    4  C4  UNL     1     -32.820   5.711   1.468  1.00 20.00     0.051 C 
HETATM    5  C5  UNL     1     -31.638   9.048   2.778  1.00 20.00     0.099 C 
HETATM    6  C6  UNL     1     -31.849   4.618   1.002  1.00 20.00     0.040 C 
HETATM    7  C7  UNL     1     -33.866   5.952   0.370  1.00 20.00     0.040 C 
HETATM    8  N8  UNL     1     -32.041   6.942   1.637  1.00 20.00    -0.261 NA
HETATM    9  O9  UNL     1     -33.398   7.639   3.453  1.00 20.00    -0.338 OA
ENDROOT
TORSDOF 0
ENDMDL
