MODEL 1
REMARK VINA RESULT:       0.8      0.000      0.000
REMARK  1 active torsions:
REMARK  status: ('A' for Active; 'I' for Inactive)
REMARK    1  A    between atoms: C4_4  and  C10_10 
ROOT
HETATM    1  C1  UNL     1     -33.322   7.582   3.741  1.00 20.00     0.092 C 
HETATM    2  C2  UNL     1     -32.258   6.468   1.427  1.00 20.00     0.029 C 
HETATM    3  C3  UNL     1     -33.707   6.116   1.726  1.00 20.00     0.016 C 
HETATM    4  C4  UNL     1     -31.960   7.917   1.803  1.00 20.00     0.110 C 
HETATM    5  C5  UNL     1     -34.029   6.351   3.206  1.00 20.00    -0.014 C 
HETATM    6  C6  UNL     1     -35.540   6.544   3.385  1.00 20.00     0.020 C 
HETATM    7  C7  UNL     1     -33.569   5.160   4.062  1.00 20.00     0.020 C 
HETATM    8  N11 UNL     1     -32.402   8.263   3.154  1.00 20.00    -0.299 NA
ENDROOT
BRANCH   4   9
HETATM    9  C10 UNL     1     -32.570   8.924   0.828  1.00 20.00     0.002 C 
HETATM   10  C8  UNL     1     -32.696  10.298   1.482  1.00 20.00     0.011 C 
HETATM   11  C9  UNL     1     -31.734   9.012  -0.448  1.00 20.00     0.011 C 
ENDBRANCH   4   9
TORSDOF 1
ENDMDL
MODEL 2
REMARK VINA RESULT:       2.1      1.208      4.233
REMARK  1 active torsions:
REMARK  status: ('A' for Active; 'I' for Inactive)
REMARK    1  A    between atoms: C4_4  and  C10_10 
ROOT
HETATM    1  C1  UNL     1     -33.449   8.132   2.935  1.00 20.00     0.092 C 
HETATM    2  C2  UNL     1     -33.241   5.712   1.582  1.00 20.00     0.029 C 
HETATM    3  C3  UNL     1     -31.927   6.405   1.906  1.00 20.00     0.016 C 
HETATM    4  C4  UNL     1     -34.244   5.885   2.720  1.00 20.00     0.110 C 
HETATM    5  C5  UNL     1     -32.151   7.895   2.184  1.00 20.00    -0.014 C 
HETATM    6  C6  UNL     1     -30.995   8.447   3.028  1.00 20.00     0.020 C 
HETATM    7  C7  UNL     1     -32.241   8.690   0.872  1.00 20.00     0.020 C 
HETATM    8  N11 UNL     1     -34.382   7.275   3.158  1.00 20.00    -0.299 NA
ENDROOT
BRANCH   4   9
HETATM    9  C10 UNL     1     -33.912   5.029   3.942  1.00 20.00     0.002 C 
HETATM   10  C8  UNL     1     -35.122   4.923   4.869  1.00 20.00     0.011 C 
HETATM   11  C9  UNL     1     -33.442   3.640   3.514  1.00 20.00     0.011 C 
ENDBRANCH   4   9
TORSDOF 1
ENDMDL
MODEL 3
REMARK VINA RESULT:       2.3      1.393      4.197
REMARK  1 active torsions:
REMARK  status: ('A' for Active; 'I' for Inactive)
REMARK    1  A    between atoms: C4_4  and  C10_10 
ROOT
HETATM    1  C1  UNL     1     -32.880   7.504   0.557  1.00 20.00     0.092 C 
HETATM    2  C2  UNL     1     -31.688   8.152   2.984  1.00 20.00     0.029 C 
HETATM    3  C3  UNL     1     -32.008   9.324   2.070  1.00 20.00     0.016 C 
HETATM    4  C4  UNL     1     -32.782   7.089   2.912  1.00 20.00     0.110 C 
HETATM    5  C5  UNL     1     -32.185   8.852   0.622  1.00 20.00    -0.014 C 
HETATM    6  C6  UNL     1     -33.028   9.869  -0.158  1.00 20.00     0.020 C 
HETATM    7  C7  UNL     1     -30.823   8.689  -0.072  1.00 20.00     0.020 C 
HETATM    8  N11 UNL     1     -33.127   6.712   1.541  1.00 20.00    -0.299 NA
ENDROOT
BRANCH   4   9
HETATM    9  C10 UNL     1     -34.065   7.505   3.632  1.00 20.00     0.002 C 
HETATM   10  C8  UNL     1     -35.005   6.311   3.787  1.00 20.00     0.011 C 
HETATM   11  C9  UNL     1     -33.744   8.115   4.995  1.00 20.00     0.011 C 
ENDBRANCH   4   9
TORSDOF 1
ENDMDL
MODEL 4
REMARK VINA RESULT:       3.4      1.332      4.388
REMARK  1 active torsions:
REMARK  status: ('A' for Active; 'I' for Inactive)
REMARK    1  A    between atoms: C4_4  and  C10_10 
ROOT
HETATM    1  C1  UNL     1     -31.402   8.834   0.299  1.00 20.00     0.092 C 
HETATM    2  C2  UNL     1     -32.810   8.835   2.696  1.00 20.00     0.029 C 
HETATM    3  C3  UNL     1     -33.480   9.551   1.534  1.00 20.00     0.016 C 
HETATM    4  C4  UNL     1     -32.085   7.579   2.218  1.00 20.00     0.110 C 
HETATM    5  C5  UNL     1     -32.454   9.917   0.456  1.00 20.00    -0.014 C 
HETATM    6  C6  UNL     1     -33.161  10.104  -0.892  1.00 20.00     0.020 C 
HETATM    7  C7  UNL     1     -31.714  11.213   0.821  1.00 20.00     0.020 C 
HETATM    8  N11 UNL     1     -31.212   7.822   1.070  1.00 20.00    -0.299 NA
ENDROOT
BRANCH   4   9
HETATM    9  C10 UNL     1     -33.040   6.440   1.861  1.00 20.00     0.002 C 
HETATM   10  C8  UNL     1     -32.272   5.260   1.270  1.00 20.00     0.011 C 
HETATM   11  C9  UNL     1     -33.836   6.000   3.090  1.00 20.00     0.011 C 
ENDBRANCH   4   9
TORSDOF 1
ENDMDL
MODEL 5
REMARK VINA RESULT:       3.6      1.634      3.454
REMARK  1 active torsions:
REMARK  status: ('A' for Active; 'I' for Inactive)
REMARK    1  A    between atoms: C4_4  and  C10_10 
ROOT
HETATM    1  C1  UNL     1     -32.315   7.024   1.293  1.00 20.00     0.092 C 
HETATM    2  C2  UNL     1     -34.342   6.457   3.110  1.00 20.00     0.029 C 
HETATM    3  C3  UNL     1     -33.379   5.317   2.815  1.00 20.00     0.016 C 
HETATM    4  C4  UNL     1     -33.606   7.794   3.155  1.00 20.00     0.110 C 
HETATM    5  C5  UNL     1     -32.644   5.555   1.491  1.00 20.00    -0.014 C 
HETATM    6  C6  UNL     1     -31.334   4.758   1.472  1.00 20.00     0.020 C 
HETATM    7  C7  UNL     1     -33.512   5.125   0.297  1.00 20.00     0.020 C 
HETATM    8  N11 UNL     1     -32.743   8.014   1.993  1.00 20.00    -0.299 NA
ENDROOT
BRANCH   4   9
HETATM    9  C10 UNL     1     -32.763   7.969   4.418  1.00 20.00     0.002 C 
HETATM   10  C8  UNL     1     -31.653   8.992   4.186  1.00 20.00     0.011 C 
HETATM   11  C9  UNL     1     -33.640   8.387   5.597  1.00 20.00     0.011 C 
ENDBRANCH   4   9
TORSDOF 1
ENDMDL
MODEL 6
REMARK VINA RESULT:       3.7      1.921      3.680
REMARK  1 active torsions:
REMARK  status: ('A' for Active; 'I' for Inactive)
REMARK    1  A    between atoms: C4_4  and  C10_10 
ROOT
HETATM    1  C1  UNL     1     -33.228   4.729   2.201  1.00 20.00     0.092 C 
HETATM    2  C2  UNL     1     -32.160   7.292   2.345  1.00 20.00     0.029 C 
HETATM    3  C3  UNL     1     -32.800   6.914   1.019  1.00 20.00     0.016 C 
HETATM    4  C4  UNL     1     -32.947   6.709   3.516  1.00 20.00     0.110 C 
HETATM    5  C5  UNL     1     -32.899   5.391   0.876  1.00 20.00    -0.014 C 
HETATM    6  C6  UNL     1     -34.000   5.034  -0.130  1.00 20.00     0.020 C 
HETATM    7  C7  UNL     1     -31.565   4.797   0.396  1.00 20.00     0.020 C 
HETATM    8  N11 UNL     1     -33.231   5.281   3.363  1.00 20.00    -0.299 NA
ENDROOT
BRANCH   4   9
HETATM    9  C10 UNL     1     -34.268   7.436   3.766  1.00 20.00     0.002 C 
HETATM   10  C8  UNL     1     -35.401   6.434   3.984  1.00 20.00     0.011 C 
HETATM   11  C9  UNL     1     -34.147   8.376   4.965  1.00 20.00     0.011 C 
ENDBRANCH   4   9
TORSDOF 1
ENDMDL
