MODEL 1
REMARK VINA RESULT:      -1.0      0.000      0.000
REMARK  0 active torsions:
REMARK  status: ('A' for Active; 'I' for Inactive)
ROOT
HETATM    1  C1  UNL     1     -32.364   5.426   1.730  1.00 20.00     0.011 A 
HETATM    2  C2  UNL     1     -31.912   6.620   1.168  1.00 20.00     0.024 A 
HETATM    3  C3  UNL     1     -33.375   7.868   2.629  1.00 20.00     0.031 A 
HETATM    4  C4  UNL     1     -33.321   5.446   2.752  1.00 20.00    -0.028 A 
HETATM    5  C5  UNL     1     -33.842   6.675   3.191  1.00 20.00    -0.046 A 
HETATM    6  C6  UNL     1     -32.415   7.839   1.618  1.00 20.00     0.034 A 
HETATM    7  C7  UNL     1     -34.853   6.703   4.308  1.00 20.00     0.065 C 
HETATM    8  C8  UNL     1     -33.830   4.153   3.336  1.00 20.00     0.206 C 
HETATM    9  C9  UNL     1     -35.529   5.346   4.468  1.00 20.00     0.172 C 
HETATM   10  O10 UNL     1     -34.528   4.334   4.574  1.00 20.00    -0.386 OA
HETATM   11 CL11 UNL     1     -31.850   9.311   0.927  1.00 20.00    -0.084 Cl
ENDROOT
TORSDOF 0
ENDMDL
MODEL 2
REMARK VINA RESULT:       0.3      0.775      2.131
REMARK  0 active torsions:
REMARK  status: ('A' for Active; 'I' for Inactive)
ROOT
HETATM    1  C1  UNL     1     -34.028   8.006   3.478  1.00 20.00     0.011 A 
HETATM    2  C2  UNL     1     -33.155   8.580   2.553  1.00 20.00     0.024 A 
HETATM    3  C3  UNL     1     -32.432   6.381   1.864  1.00 20.00     0.031 A 
HETATM    4  C4  UNL     1     -34.114   6.614   3.597  1.00 20.00    -0.028 A 
HETATM    5  C5  UNL     1     -33.296   5.797   2.796  1.00 20.00    -0.046 A 
HETATM    6  C6  UNL     1     -32.360   7.769   1.746  1.00 20.00     0.034 A 
HETATM    7  C7  UNL     1     -33.404   4.298   2.903  1.00 20.00     0.065 C 
HETATM    8  C8  UNL     1     -35.035   5.998   4.618  1.00 20.00     0.206 C 
HETATM    9  C9  UNL     1     -34.043   3.888   4.224  1.00 20.00     0.172 C 
HETATM   10  O10 UNL     1     -35.267   4.603   4.394  1.00 20.00    -0.386 OA
HETATM   11 CL11 UNL     1     -31.289   8.479   0.601  1.00 20.00    -0.084 Cl
ENDROOT
TORSDOF 0
ENDMDL
MODEL 3
REMARK VINA RESULT:       1.4      2.927      4.502
REMARK  0 active torsions:
REMARK  status: ('A' for Active; 'I' for Inactive)
ROOT
HETATM    1  C1  UNL     1     -33.832   8.040   3.820  1.00 20.00     0.011 A 
HETATM    2  C2  UNL     1     -34.693   7.164   4.483  1.00 20.00     0.024 A 
HETATM    3  C3  UNL     1     -33.928   5.348   3.087  1.00 20.00     0.031 A 
HETATM    4  C4  UNL     1     -33.007   7.573   2.790  1.00 20.00    -0.028 A 
HETATM    5  C5  UNL     1     -33.069   6.221   2.409  1.00 20.00    -0.046 A 
HETATM    6  C6  UNL     1     -34.739   5.821   4.118  1.00 20.00     0.034 A 
HETATM    7  C7  UNL     1     -32.165   5.709   1.319  1.00 20.00     0.065 C 
HETATM    8  C8  UNL     1     -32.101   8.527   2.056  1.00 20.00     0.206 C 
HETATM    9  C9  UNL     1     -31.657   6.851   0.448  1.00 20.00     0.172 C 
HETATM   10  O10 UNL     1     -31.094   7.862   1.284  1.00 20.00    -0.386 OA
HETATM   11 CL11 UNL     1     -35.797   4.741   4.943  1.00 20.00    -0.084 Cl
ENDROOT
TORSDOF 0
ENDMDL
MODEL 4
REMARK VINA RESULT:       1.5      2.981      4.573
REMARK  0 active torsions:
REMARK  status: ('A' for Active; 'I' for Inactive)
ROOT
HETATM    1  C1  UNL     1     -34.400   7.418   3.746  1.00 20.00     0.011 A 
HETATM    2  C2  UNL     1     -34.544   6.100   4.179  1.00 20.00     0.024 A 
HETATM    3  C3  UNL     1     -32.849   5.396   2.609  1.00 20.00     0.031 A 
HETATM    4  C4  UNL     1     -33.474   7.735   2.746  1.00 20.00    -0.028 A 
HETATM    5  C5  UNL     1     -32.706   6.713   2.161  1.00 20.00    -0.046 A 
HETATM    6  C6  UNL     1     -33.768   5.090   3.613  1.00 20.00     0.034 A 
HETATM    7  C7  UNL     1     -31.689   7.053   1.103  1.00 20.00     0.065 C 
HETATM    8  C8  UNL     1     -33.343   9.156   2.259  1.00 20.00     0.206 C 
HETATM    9  C9  UNL     1     -31.990   8.407   0.470  1.00 20.00     0.172 C 
HETATM   10  O10 UNL     1     -32.148   9.381   1.502  1.00 20.00    -0.386 OA
HETATM   11 CL11 UNL     1     -33.942   3.465   4.154  1.00 20.00    -0.084 Cl
ENDROOT
TORSDOF 0
ENDMDL
