MODEL 1
REMARK VINA RESULT:      -2.7      0.000      0.000
REMARK  2 active torsions:
REMARK  status: ('A' for Active; 'I' for Inactive)
REMARK    1  A    between atoms: C1_1  and  C5_5 
REMARK    2  A    between atoms: C3_3  and  C6_6 
ROOT
HETATM    1  C1  UNL     1     -33.786   4.531   3.734  1.00 20.00    -0.053 C 
HETATM    2  C2  UNL     1     -33.616   3.501   4.326  1.00 20.00     0.106 C 
HETATM    3  F9  UNL     1     -33.427   2.353   4.984  1.00 20.00    -0.144 F 
ENDROOT
BRANCH   1   4
HETATM    4  C5  UNL     1     -33.984   5.742   3.039  1.00 20.00     0.114 A 
HETATM    5  C6  UNL     1     -33.367   6.998   3.314  1.00 20.00     0.108 A 
HETATM    6  C7  UNL     1     -34.757   6.726   3.490  1.00 20.00     0.186 A 
HETATM    7  F10 UNL     1     -35.342   6.632   4.699  1.00 20.00    -0.235 F 
BRANCH   5   8
HETATM    8  C3  UNL     1     -32.934   7.779   2.374  1.00 20.00    -0.080 C 
HETATM    9  C4  UNL     1     -32.533   8.501   1.503  1.00 20.00     0.272 C 
HETATM   10  O8  UNL     1     -32.141   9.210   0.650  1.00 20.00    -0.274 OA
ENDBRANCH   5   8
ENDBRANCH   1   4
TORSDOF 2
ENDMDL
MODEL 2
REMARK VINA RESULT:      -2.5      3.261      4.898
REMARK  2 active torsions:
REMARK  status: ('A' for Active; 'I' for Inactive)
REMARK    1  A    between atoms: C1_1  and  C5_5 
REMARK    2  A    between atoms: C3_3  and  C6_6 
ROOT
HETATM    1  C1  UNL     1     -32.565   7.942   2.077  1.00 20.00    -0.053 C 
HETATM    2  C2  UNL     1     -32.251   8.663   1.170  1.00 20.00     0.106 C 
HETATM    3  F9  UNL     1     -31.902   9.465   0.159  1.00 20.00    -0.144 F 
ENDROOT
BRANCH   1   4
HETATM    4  C5  UNL     1     -32.934   7.097   3.142  1.00 20.00     0.114 A 
HETATM    5  C6  UNL     1     -34.019   6.171   3.165  1.00 20.00     0.108 A 
HETATM    6  C7  UNL     1     -33.949   7.354   3.963  1.00 20.00     0.186 A 
HETATM    7  F10 UNL     1     -34.734   8.428   3.758  1.00 20.00    -0.235 F 
BRANCH   5   8
HETATM    8  C3  UNL     1     -33.911   4.988   3.682  1.00 20.00    -0.080 C 
HETATM    9  C4  UNL     1     -33.809   3.891   4.161  1.00 20.00     0.272 C 
HETATM   10  O8  UNL     1     -33.710   2.817   4.629  1.00 20.00    -0.274 OA
ENDBRANCH   5   8
ENDBRANCH   1   4
TORSDOF 2
ENDMDL
MODEL 3
REMARK VINA RESULT:      -2.2      3.595      5.368
REMARK  2 active torsions:
REMARK  status: ('A' for Active; 'I' for Inactive)
REMARK    1  A    between atoms: C1_1  and  C5_5 
REMARK    2  A    between atoms: C3_3  and  C6_6 
ROOT
HETATM    1  C1  UNL     1     -32.543   8.827   1.153  1.00 20.00    -0.053 C 
HETATM    2  C2  UNL     1     -32.403   9.683   0.323  1.00 20.00     0.106 C 
HETATM    3  F9  UNL     1     -32.248  10.636  -0.602  1.00 20.00    -0.144 F 
ENDROOT
BRANCH   1   4
HETATM    4  C5  UNL     1     -32.707   7.822   2.128  1.00 20.00     0.114 A 
HETATM    5  C6  UNL     1     -33.514   7.892   3.302  1.00 20.00     0.108 A 
HETATM    6  C7  UNL     1     -32.087   7.836   3.305  1.00 20.00     0.186 A 
HETATM    7  F10 UNL     1     -31.309   8.879   3.651  1.00 20.00    -0.235 F 
BRANCH   5   8
HETATM    8  C3  UNL     1     -34.241   6.897   3.705  1.00 20.00    -0.080 C 
HETATM    9  C4  UNL     1     -34.914   5.976   4.078  1.00 20.00     0.272 C 
HETATM   10  O8  UNL     1     -35.572   5.073   4.443  1.00 20.00    -0.274 OA
ENDBRANCH   5   8
ENDBRANCH   1   4
TORSDOF 2
ENDMDL
MODEL 4
REMARK VINA RESULT:      -2.2      1.904      2.890
REMARK  2 active torsions:
REMARK  status: ('A' for Active; 'I' for Inactive)
REMARK    1  A    between atoms: C1_1  and  C5_5 
REMARK    2  A    between atoms: C3_3  and  C6_6 
ROOT
HETATM    1  C1  UNL     1     -33.873   6.784   3.282  1.00 20.00    -0.053 C 
HETATM    2  C2  UNL     1     -34.692   6.144   3.882  1.00 20.00     0.106 C 
HETATM    3  F9  UNL     1     -35.605   5.434   4.552  1.00 20.00    -0.144 F 
ENDROOT
BRANCH   1   4
HETATM    4  C5  UNL     1     -32.911   7.534   2.576  1.00 20.00     0.114 A 
HETATM    5  C6  UNL     1     -32.923   7.849   1.184  1.00 20.00     0.108 A 
HETATM    6  C7  UNL     1     -31.972   6.985   1.808  1.00 20.00     0.186 A 
HETATM    7  F10 UNL     1     -31.948   5.653   1.613  1.00 20.00    -0.235 F 
BRANCH   5   8
HETATM    8  C3  UNL     1     -32.594   9.019   0.735  1.00 20.00    -0.080 C 
HETATM    9  C4  UNL     1     -32.290  10.104   0.320  1.00 20.00     0.272 C 
HETATM   10  O8  UNL     1     -31.992  11.166  -0.088  1.00 20.00    -0.274 OA
ENDBRANCH   5   8
ENDBRANCH   1   4
TORSDOF 2
ENDMDL
MODEL 5
REMARK VINA RESULT:      -2.1      3.683      5.589
REMARK  2 active torsions:
REMARK  status: ('A' for Active; 'I' for Inactive)
REMARK    1  A    between atoms: C1_1  and  C5_5 
REMARK    2  A    between atoms: C3_3  and  C6_6 
ROOT
HETATM    1  C1  UNL     1     -32.578   9.161   0.771  1.00 20.00    -0.053 C 
HETATM    2  C2  UNL     1     -32.306  10.187   0.212  1.00 20.00     0.106 C 
HETATM    3  F9  UNL     1     -32.002  11.331  -0.410  1.00 20.00    -0.144 F 
ENDROOT
BRANCH   1   4
HETATM    4  C5  UNL     1     -32.897   7.955   1.427  1.00 20.00     0.114 A 
HETATM    5  C6  UNL     1     -32.950   7.734   2.836  1.00 20.00     0.108 A 
HETATM    6  C7  UNL     1     -31.984   7.148   1.962  1.00 20.00     0.186 A 
HETATM    7  F10 UNL     1     -30.684   7.498   1.961  1.00 20.00    -0.235 F 
BRANCH   5   8
HETATM    8  C3  UNL     1     -33.887   7.031   3.392  1.00 20.00    -0.080 C 
HETATM    9  C4  UNL     1     -34.754   6.381   3.908  1.00 20.00     0.272 C 
HETATM   10  O8  UNL     1     -35.603   5.743   4.413  1.00 20.00    -0.274 OA
ENDBRANCH   5   8
ENDBRANCH   1   4
TORSDOF 2
ENDMDL
MODEL 6
REMARK VINA RESULT:      -0.3      3.693      5.244
REMARK  2 active torsions:
REMARK  status: ('A' for Active; 'I' for Inactive)
REMARK    1  A    between atoms: C1_1  and  C5_5 
REMARK    2  A    between atoms: C3_3  and  C6_6 
ROOT
HETATM    1  C1  UNL     1     -32.614   7.956   1.139  1.00 20.00    -0.053 C 
HETATM    2  C2  UNL     1     -32.002   8.927   0.785  1.00 20.00     0.106 C 
HETATM    3  F9  UNL     1     -31.323  10.008   0.391  1.00 20.00    -0.144 F 
ENDROOT
BRANCH   1   4
HETATM    4  C5  UNL     1     -33.331   6.817   1.554  1.00 20.00     0.114 A 
HETATM    5  C6  UNL     1     -33.082   6.023   2.714  1.00 20.00     0.108 A 
HETATM    6  C7  UNL     1     -32.898   5.572   1.371  1.00 20.00     0.186 A 
HETATM    7  F10 UNL     1     -31.687   5.346   0.829  1.00 20.00    -0.235 F 
BRANCH   5   8
HETATM    8  C3  UNL     1     -34.037   5.572   3.464  1.00 20.00    -0.080 C 
HETATM    9  C4  UNL     1     -34.923   5.155   4.159  1.00 20.00     0.272 C 
HETATM   10  O8  UNL     1     -35.790   4.747   4.841  1.00 20.00    -0.274 OA
ENDBRANCH   5   8
ENDBRANCH   1   4
TORSDOF 2
ENDMDL
MODEL 7
REMARK VINA RESULT:       0.0      3.296      4.213
REMARK  2 active torsions:
REMARK  status: ('A' for Active; 'I' for Inactive)
REMARK    1  A    between atoms: C1_1  and  C5_5 
REMARK    2  A    between atoms: C3_3  and  C6_6 
ROOT
HETATM    1  C1  UNL     1     -33.532   7.516   3.413  1.00 20.00    -0.053 C 
HETATM    2  C2  UNL     1     -33.705   7.919   4.530  1.00 20.00     0.106 C 
HETATM    3  F9  UNL     1     -33.897   8.369   5.774  1.00 20.00    -0.144 F 
ENDROOT
BRANCH   1   4
HETATM    4  C5  UNL     1     -33.329   7.042   2.101  1.00 20.00     0.114 A 
HETATM    5  C6  UNL     1     -32.613   5.870   1.714  1.00 20.00     0.108 A 
HETATM    6  C7  UNL     1     -32.191   7.205   1.431  1.00 20.00     0.186 A 
HETATM    7  F10 UNL     1     -31.130   7.784   2.024  1.00 20.00    -0.235 F 
BRANCH   5   8
HETATM    8  C3  UNL     1     -33.038   5.073   0.785  1.00 20.00    -0.080 C 
HETATM    9  C4  UNL     1     -33.431   4.335  -0.077  1.00 20.00     0.272 C 
HETATM   10  O8  UNL     1     -33.817   3.612  -0.920  1.00 20.00    -0.274 OA
ENDBRANCH   5   8
ENDBRANCH   1   4
TORSDOF 2
ENDMDL
MODEL 8
REMARK VINA RESULT:       0.1      3.924      4.324
REMARK  2 active torsions:
REMARK  status: ('A' for Active; 'I' for Inactive)
REMARK    1  A    between atoms: C1_1  and  C5_5 
REMARK    2  A    between atoms: C3_3  and  C6_6 
ROOT
HETATM    1  C1  UNL     1     -31.515   4.783   0.842  1.00 20.00    -0.053 C 
HETATM    2  C2  UNL     1     -31.073   4.081  -0.025  1.00 20.00     0.106 C 
HETATM    3  F9  UNL     1     -30.581   3.299  -0.992  1.00 20.00    -0.144 F 
ENDROOT
BRANCH   1   4
HETATM    4  C5  UNL     1     -32.034   5.608   1.860  1.00 20.00     0.114 A 
HETATM    5  C6  UNL     1     -33.261   6.335   1.832  1.00 20.00     0.108 A 
HETATM    6  C7  UNL     1     -31.966   6.937   1.832  1.00 20.00     0.186 A 
HETATM    7  F10 UNL     1     -31.447   7.568   0.762  1.00 20.00    -0.235 F 
BRANCH   5   8
HETATM    8  C3  UNL     1     -34.050   6.404   2.858  1.00 20.00    -0.080 C 
HETATM    9  C4  UNL     1     -34.780   6.469   3.809  1.00 20.00     0.272 C 
HETATM   10  O8  UNL     1     -35.495   6.532   4.741  1.00 20.00    -0.274 OA
ENDBRANCH   5   8
ENDBRANCH   1   4
TORSDOF 2
ENDMDL
