MODEL 1
REMARK VINA RESULT:      -0.9      0.000      0.000
REMARK  1 active torsions:
REMARK  status: ('A' for Active; 'I' for Inactive)
REMARK    1  A    between atoms: C1_1  and  C2_2 
ROOT
HETATM    1  C2  UNL     1     -32.811   8.148   1.234  1.00 20.00     0.084 A 
HETATM    2  C3  UNL     1     -32.065   6.909   1.667  1.00 20.00     0.018 A 
HETATM    3  C4  UNL     1     -32.549   7.894   2.711  1.00 20.00     0.048 A 
HETATM    4  C6  UNL     1     -32.680   5.564   1.474  1.00 20.00     0.012 C 
HETATM    5  C7  UNL     1     -31.524   8.701   3.455  1.00 20.00     0.034 C 
HETATM    6 CL9  UNL     1     -33.975   7.483   3.695  1.00 20.00    -0.118 Cl
ENDROOT
BRANCH   1   7
HETATM    7  C1  UNL     1     -32.087   9.204   0.515  1.00 20.00     0.129 C 
HETATM    8  C5  UNL     1     -32.767  10.544   0.417  1.00 20.00     0.091 C 
HETATM    9  O8  UNL     1     -30.980   9.005   0.018  1.00 20.00    -0.298 OA
ENDBRANCH   1   7
TORSDOF 1
ENDMDL
MODEL 2
REMARK VINA RESULT:      -0.6      3.659      4.992
REMARK  1 active torsions:
REMARK  status: ('A' for Active; 'I' for Inactive)
REMARK    1  A    between atoms: C1_1  and  C2_2 
ROOT
HETATM    1  C2  UNL     1     -33.216   5.174   3.602  1.00 20.00     0.084 A 
HETATM    2  C3  UNL     1     -33.611   5.549   2.195  1.00 20.00     0.018 A 
HETATM    3  C4  UNL     1     -33.855   6.526   3.325  1.00 20.00     0.048 A 
HETATM    4  C6  UNL     1     -32.560   5.755   1.156  1.00 20.00     0.012 C 
HETATM    5  C7  UNL     1     -35.275   6.799   3.734  1.00 20.00     0.034 C 
HETATM    6 CL9  UNL     1     -32.788   7.941   3.494  1.00 20.00    -0.118 Cl
ENDROOT
BRANCH   1   7
HETATM    7  C1  UNL     1     -33.964   4.119   4.299  1.00 20.00     0.129 C 
HETATM    8  C5  UNL     1     -33.208   2.861   4.634  1.00 20.00     0.091 C 
HETATM    9  O8  UNL     1     -35.150   4.258   4.596  1.00 20.00    -0.298 OA
ENDBRANCH   1   7
TORSDOF 1
ENDMDL
MODEL 3
REMARK VINA RESULT:      -0.4      2.482      3.198
REMARK  1 active torsions:
REMARK  status: ('A' for Active; 'I' for Inactive)
REMARK    1  A    between atoms: C1_1  and  C2_2 
ROOT
HETATM    1  C2  UNL     1     -33.639   5.694   2.383  1.00 20.00     0.084 A 
HETATM    2  C3  UNL     1     -33.403   5.152   3.771  1.00 20.00     0.018 A 
HETATM    3  C4  UNL     1     -34.204   6.425   3.591  1.00 20.00     0.048 A 
HETATM    4  C6  UNL     1     -34.018   3.857   4.181  1.00 20.00     0.012 C 
HETATM    5  C7  UNL     1     -33.596   7.719   4.055  1.00 20.00     0.034 C 
HETATM    6 CL9  UNL     1     -35.973   6.369   3.779  1.00 20.00    -0.118 Cl
ENDROOT
BRANCH   1   7
HETATM    7  C1  UNL     1     -32.509   6.251   1.629  1.00 20.00     0.129 C 
HETATM    8  C5  UNL     1     -31.604   5.267   0.938  1.00 20.00     0.091 C 
HETATM    9  O8  UNL     1     -32.312   7.464   1.563  1.00 20.00    -0.298 OA
ENDBRANCH   1   7
TORSDOF 1
ENDMDL
MODEL 4
REMARK VINA RESULT:      -0.4      2.977      4.003
REMARK  1 active torsions:
REMARK  status: ('A' for Active; 'I' for Inactive)
REMARK    1  A    between atoms: C1_1  and  C2_2 
ROOT
HETATM    1  C2  UNL     1     -33.880   7.014   2.505  1.00 20.00     0.084 A 
HETATM    2  C3  UNL     1     -32.390   7.182   2.331  1.00 20.00     0.018 A 
HETATM    3  C4  UNL     1     -33.034   5.846   2.020  1.00 20.00     0.048 A 
HETATM    4  C6  UNL     1     -31.862   8.094   1.275  1.00 20.00     0.012 C 
HETATM    5  C7  UNL     1     -32.739   4.687   2.928  1.00 20.00     0.034 C 
HETATM    6 CL9  UNL     1     -33.266   5.371   0.320  1.00 20.00    -0.118 Cl
ENDROOT
BRANCH   1   7
HETATM    7  C1  UNL     1     -34.448   7.017   3.860  1.00 20.00     0.129 C 
HETATM    8  C5  UNL     1     -33.789   7.920   4.868  1.00 20.00     0.091 C 
HETATM    9  O8  UNL     1     -35.416   6.318   4.156  1.00 20.00    -0.298 OA
ENDBRANCH   1   7
TORSDOF 1
ENDMDL
MODEL 5
REMARK VINA RESULT:       0.1      2.711      3.561
REMARK  1 active torsions:
REMARK  status: ('A' for Active; 'I' for Inactive)
REMARK    1  A    between atoms: C1_1  and  C2_2 
ROOT
HETATM    1  C2  UNL     1     -32.898   6.885   3.107  1.00 20.00     0.084 A 
HETATM    2  C3  UNL     1     -33.130   6.455   1.678  1.00 20.00     0.018 A 
HETATM    3  C4  UNL     1     -32.443   7.776   1.960  1.00 20.00     0.048 A 
HETATM    4  C6  UNL     1     -32.412   5.267   1.132  1.00 20.00     0.012 C 
HETATM    5  C7  UNL     1     -33.182   9.043   1.638  1.00 20.00     0.034 C 
HETATM    6 CL9  UNL     1     -30.683   7.905   1.725  1.00 20.00    -0.118 Cl
ENDROOT
BRANCH   1   7
HETATM    7  C1  UNL     1     -34.049   7.260   3.938  1.00 20.00     0.129 C 
HETATM    8  C5  UNL     1     -35.304   6.448   3.763  1.00 20.00     0.091 C 
HETATM    9  O8  UNL     1     -33.990   8.192   4.739  1.00 20.00    -0.298 OA
ENDBRANCH   1   7
TORSDOF 1
ENDMDL
MODEL 6
REMARK VINA RESULT:       0.3      1.843      2.779
REMARK  1 active torsions:
REMARK  status: ('A' for Active; 'I' for Inactive)
REMARK    1  A    between atoms: C1_1  and  C2_2 
ROOT
HETATM    1  C2  UNL     1     -32.683   7.085   2.836  1.00 20.00     0.084 A 
HETATM    2  C3  UNL     1     -34.187   6.973   2.772  1.00 20.00     0.018 A 
HETATM    3  C4  UNL     1     -33.332   5.778   2.404  1.00 20.00     0.048 A 
HETATM    4  C6  UNL     1     -34.993   7.040   4.026  1.00 20.00     0.012 C 
HETATM    5  C7  UNL     1     -33.297   5.346   0.966  1.00 20.00     0.034 C 
HETATM    6 CL9  UNL     1     -33.195   4.424   3.552  1.00 20.00    -0.118 Cl
ENDROOT
BRANCH   1   7
HETATM    7  C1  UNL     1     -31.986   7.934   1.861  1.00 20.00     0.129 C 
HETATM    8  C5  UNL     1     -32.756   9.104   1.310  1.00 20.00     0.091 C 
HETATM    9  O8  UNL     1     -30.829   7.702   1.515  1.00 20.00    -0.298 OA
ENDBRANCH   1   7
TORSDOF 1
ENDMDL
MODEL 7
REMARK VINA RESULT:       0.4      1.876      3.402
REMARK  1 active torsions:
REMARK  status: ('A' for Active; 'I' for Inactive)
REMARK    1  A    between atoms: C1_1  and  C2_2 
ROOT
HETATM    1  C2  UNL     1     -31.924   7.166   1.556  1.00 20.00     0.084 A 
HETATM    2  C3  UNL     1     -32.812   8.346   1.248  1.00 20.00     0.018 A 
HETATM    3  C4  UNL     1     -32.589   7.934   2.688  1.00 20.00     0.048 A 
HETATM    4  C6  UNL     1     -32.227   9.585   0.658  1.00 20.00     0.012 C 
HETATM    5  C7  UNL     1     -33.742   7.337   3.443  1.00 20.00     0.034 C 
HETATM    6 CL9  UNL     1     -31.504   8.908   3.710  1.00 20.00    -0.118 Cl
ENDROOT
BRANCH   1   7
HETATM    7  C1  UNL     1     -32.377   5.815   1.198  1.00 20.00     0.129 C 
HETATM    8  C5  UNL     1     -31.407   4.690   1.438  1.00 20.00     0.091 C 
HETATM    9  O8  UNL     1     -33.496   5.614   0.727  1.00 20.00    -0.298 OA
ENDBRANCH   1   7
TORSDOF 1
ENDMDL
MODEL 8
REMARK VINA RESULT:       0.6      2.123      3.388
REMARK  1 active torsions:
REMARK  status: ('A' for Active; 'I' for Inactive)
REMARK    1  A    between atoms: C1_1  and  C2_2 
ROOT
HETATM    1  C2  UNL     1     -32.158   6.970   1.878  1.00 20.00     0.084 A 
HETATM    2  C3  UNL     1     -32.880   8.211   1.413  1.00 20.00     0.018 A 
HETATM    3  C4  UNL     1     -32.723   7.950   2.897  1.00 20.00     0.048 A 
HETATM    4  C6  UNL     1     -32.133   9.283   0.694  1.00 20.00     0.012 C 
HETATM    5  C7  UNL     1     -33.950   7.603   3.691  1.00 20.00     0.034 C 
HETATM    6 CL9  UNL     1     -31.526   8.890   3.820  1.00 20.00    -0.118 Cl
ENDROOT
BRANCH   1   7
HETATM    7  C1  UNL     1     -32.784   5.658   1.672  1.00 20.00     0.129 C 
HETATM    8  C5  UNL     1     -33.391   5.402   0.319  1.00 20.00     0.091 C 
HETATM    9  O8  UNL     1     -32.808   4.808   2.562  1.00 20.00    -0.298 OA
ENDBRANCH   1   7
TORSDOF 1
ENDMDL
MODEL 9
REMARK VINA RESULT:       0.6      2.571      3.511
REMARK  1 active torsions:
REMARK  status: ('A' for Active; 'I' for Inactive)
REMARK    1  A    between atoms: C1_1  and  C2_2 
ROOT
HETATM    1  C2  UNL     1     -33.334   6.487   3.297  1.00 20.00     0.084 A 
HETATM    2  C3  UNL     1     -33.902   7.691   4.007  1.00 20.00     0.018 A 
HETATM    3  C4  UNL     1     -34.819   6.549   3.621  1.00 20.00     0.048 A 
HETATM    4  C6  UNL     1     -33.511   7.977   5.418  1.00 20.00     0.012 C 
HETATM    5  C7  UNL     1     -35.830   6.785   2.535  1.00 20.00     0.034 C 
HETATM    6 CL9  UNL     1     -35.388   5.429   4.883  1.00 20.00    -0.118 Cl
ENDROOT
BRANCH   1   7
HETATM    7  C1  UNL     1     -32.862   6.629   1.913  1.00 20.00     0.129 C 
HETATM    8  C5  UNL     1     -32.194   7.929   1.555  1.00 20.00     0.091 C 
HETATM    9  O8  UNL     1     -33.004   5.728   1.088  1.00 20.00    -0.298 OA
ENDBRANCH   1   7
TORSDOF 1
ENDMDL
