MODEL 1
REMARK VINA RESULT:       1.4      0.000      0.000
REMARK  1 active torsions:
REMARK  status: ('A' for Active; 'I' for Inactive)
REMARK    1  A    between atoms: C3_3  and  C9_9 
ROOT
HETATM    1  C1  UNL     1     -34.632   4.907   4.513  1.00 20.00    -0.030 C 
HETATM    2  C2  UNL     1     -35.505   5.873   4.155  1.00 20.00    -0.029 C 
HETATM    3  C4  UNL     1     -33.346   4.608   3.766  1.00 20.00     0.032 C 
HETATM    4  C5  UNL     1     -35.295   6.820   2.986  1.00 20.00     0.044 C 
HETATM    5  C6  UNL     1     -32.308   5.810   1.493  1.00 20.00     0.007 C 
HETATM    6  C7  UNL     1     -33.263   7.007   1.174  1.00 20.00     0.018 C 
HETATM    7  C8  UNL     1     -33.436   5.319   2.429  1.00 20.00     0.005 C 
HETATM    8  C9  UNL     1     -33.803   6.829   2.636  1.00 20.00     0.027 C 
ENDROOT
BRANCH   8   9
HETATM    9  C3  UNL     1     -32.991   7.684   3.680  1.00 20.00     0.132 C 
HETATM   10  C10 UNL     1     -33.688   8.014   4.973  1.00 20.00     0.091 C 
HETATM   11  O11 UNL     1     -31.842   8.061   3.453  1.00 20.00    -0.298 OA
ENDBRANCH   8   9
TORSDOF 1
ENDMDL
MODEL 2
REMARK VINA RESULT:       1.5      0.797      1.019
REMARK  1 active torsions:
REMARK  status: ('A' for Active; 'I' for Inactive)
REMARK    1  A    between atoms: C3_3  and  C9_9 
ROOT
HETATM    1  C1  UNL     1     -34.735   4.943   4.541  1.00 20.00    -0.030 C 
HETATM    2  C2  UNL     1     -35.580   5.922   4.153  1.00 20.00    -0.029 C 
HETATM    3  C4  UNL     1     -33.426   4.628   3.843  1.00 20.00     0.032 C 
HETATM    4  C5  UNL     1     -35.312   6.869   2.995  1.00 20.00     0.044 C 
HETATM    5  C6  UNL     1     -32.285   5.821   1.614  1.00 20.00     0.007 C 
HETATM    6  C7  UNL     1     -33.210   7.032   1.263  1.00 20.00     0.018 C 
HETATM    7  C8  UNL     1     -33.455   5.343   2.505  1.00 20.00     0.005 C 
HETATM    8  C9  UNL     1     -33.808   6.858   2.703  1.00 20.00     0.027 C 
ENDROOT
BRANCH   8   9
HETATM    9  C3  UNL     1     -33.024   7.698   3.780  1.00 20.00     0.132 C 
HETATM   10  C10 UNL     1     -31.774   8.397   3.316  1.00 20.00     0.091 C 
HETATM   11  O11 UNL     1     -33.416   7.783   4.944  1.00 20.00    -0.298 OA
ENDBRANCH   8   9
TORSDOF 1
ENDMDL
MODEL 3
REMARK VINA RESULT:       1.9      1.499      3.579
REMARK  1 active torsions:
REMARK  status: ('A' for Active; 'I' for Inactive)
REMARK    1  A    between atoms: C3_3  and  C9_9 
ROOT
HETATM    1  C1  UNL     1     -31.641   8.330   2.943  1.00 20.00    -0.030 C 
HETATM    2  C2  UNL     1     -32.110   8.152   1.690  1.00 20.00    -0.029 C 
HETATM    3  C4  UNL     1     -32.410   7.962   4.196  1.00 20.00     0.032 C 
HETATM    4  C5  UNL     1     -33.451   7.517   1.365  1.00 20.00     0.044 C 
HETATM    5  C6  UNL     1     -34.943   6.861   4.448  1.00 20.00     0.007 C 
HETATM    6  C7  UNL     1     -35.413   6.542   2.991  1.00 20.00     0.018 C 
HETATM    7  C8  UNL     1     -33.848   7.721   3.777  1.00 20.00     0.005 C 
HETATM    8  C9  UNL     1     -33.907   6.706   2.583  1.00 20.00     0.027 C 
ENDROOT
BRANCH   8   9
HETATM    9  C3  UNL     1     -33.110   5.352   2.681  1.00 20.00     0.132 C 
HETATM   10  C10 UNL     1     -32.147   5.050   1.564  1.00 20.00     0.091 C 
HETATM   11  O11 UNL     1     -33.264   4.579   3.626  1.00 20.00    -0.298 OA
ENDBRANCH   8   9
TORSDOF 1
ENDMDL
MODEL 4
REMARK VINA RESULT:       2.1      1.391      3.433
REMARK  1 active torsions:
REMARK  status: ('A' for Active; 'I' for Inactive)
REMARK    1  A    between atoms: C3_3  and  C9_9 
ROOT
HETATM    1  C1  UNL     1     -31.767   7.613   1.872  1.00 20.00    -0.030 C 
HETATM    2  C2  UNL     1     -32.565   6.999   0.973  1.00 20.00    -0.029 C 
HETATM    3  C4  UNL     1     -32.151   7.860   3.318  1.00 20.00     0.032 C 
HETATM    4  C5  UNL     1     -33.937   6.433   1.300  1.00 20.00     0.044 C 
HETATM    5  C6  UNL     1     -34.500   7.226   4.649  1.00 20.00     0.007 C 
HETATM    6  C7  UNL     1     -35.354   6.402   3.631  1.00 20.00     0.018 C 
HETATM    7  C8  UNL     1     -33.646   7.625   3.424  1.00 20.00     0.005 C 
HETATM    8  C9  UNL     1     -34.025   6.230   2.816  1.00 20.00     0.027 C 
ENDROOT
BRANCH   8   9
HETATM    9  C3  UNL     1     -33.216   4.952   3.256  1.00 20.00     0.132 C 
HETATM   10  C10 UNL     1     -33.864   4.061   4.283  1.00 20.00     0.091 C 
HETATM   11  O11 UNL     1     -32.111   4.692   2.783  1.00 20.00    -0.298 OA
ENDBRANCH   8   9
TORSDOF 1
ENDMDL
MODEL 5
REMARK VINA RESULT:       2.3      1.771      3.151
REMARK  1 active torsions:
REMARK  status: ('A' for Active; 'I' for Inactive)
REMARK    1  A    between atoms: C3_3  and  C9_9 
ROOT
HETATM    1  C1  UNL     1     -34.920   5.831   3.797  1.00 20.00    -0.030 C 
HETATM    2  C2  UNL     1     -34.052   4.798   3.750  1.00 20.00    -0.029 C 
HETATM    3  C4  UNL     1     -34.642   7.199   3.206  1.00 20.00     0.032 C 
HETATM    4  C5  UNL     1     -32.700   4.854   3.060  1.00 20.00     0.044 C 
HETATM    5  C6  UNL     1     -32.385   8.122   1.885  1.00 20.00     0.007 C 
HETATM    6  C7  UNL     1     -31.450   6.879   1.726  1.00 20.00     0.018 C 
HETATM    7  C8  UNL     1     -33.155   7.259   2.910  1.00 20.00     0.005 C 
HETATM    8  C9  UNL     1     -32.716   6.016   2.061  1.00 20.00     0.027 C 
ENDROOT
BRANCH   8   9
HETATM    9  C3  UNL     1     -33.537   5.633   0.773  1.00 20.00     0.132 C 
HETATM   10  C10 UNL     1     -33.201   4.318   0.123  1.00 20.00     0.091 C 
HETATM   11  O11 UNL     1     -34.412   6.371   0.322  1.00 20.00    -0.298 OA
ENDBRANCH   8   9
TORSDOF 1
ENDMDL
MODEL 6
REMARK VINA RESULT:       2.7      1.768      2.832
REMARK  1 active torsions:
REMARK  status: ('A' for Active; 'I' for Inactive)
REMARK    1  A    between atoms: C3_3  and  C9_9 
ROOT
HETATM    1  C1  UNL     1     -32.244   4.555   0.864  1.00 20.00    -0.030 C 
HETATM    2  C2  UNL     1     -33.430   4.993   0.390  1.00 20.00    -0.029 C 
HETATM    3  C4  UNL     1     -31.261   5.426   1.622  1.00 20.00     0.032 C 
HETATM    4  C5  UNL     1     -33.960   6.402   0.592  1.00 20.00     0.044 C 
HETATM    5  C6  UNL     1     -31.443   8.109   2.300  1.00 20.00     0.007 C 
HETATM    6  C7  UNL     1     -32.875   8.560   1.861  1.00 20.00     0.018 C 
HETATM    7  C8  UNL     1     -31.697   6.865   1.419  1.00 20.00     0.005 C 
HETATM    8  C9  UNL     1     -33.215   7.031   1.775  1.00 20.00     0.027 C 
ENDROOT
BRANCH   8   9
HETATM    9  C3  UNL     1     -33.754   6.462   3.140  1.00 20.00     0.132 C 
HETATM   10  C10 UNL     1     -34.263   7.466   4.139  1.00 20.00     0.091 C 
HETATM   11  O11 UNL     1     -33.762   5.254   3.379  1.00 20.00    -0.298 OA
ENDBRANCH   8   9
TORSDOF 1
ENDMDL
MODEL 7
REMARK VINA RESULT:       2.8      1.775      3.561
REMARK  1 active torsions:
REMARK  status: ('A' for Active; 'I' for Inactive)
REMARK    1  A    between atoms: C3_3  and  C9_9 
ROOT
HETATM    1  C1  UNL     1     -33.321   5.752   1.334  1.00 20.00    -0.030 C 
HETATM    2  C2  UNL     1     -32.014   5.973   1.075  1.00 20.00    -0.029 C 
HETATM    3  C4  UNL     1     -34.105   6.475   2.412  1.00 20.00     0.032 C 
HETATM    4  C5  UNL     1     -31.166   7.006   1.796  1.00 20.00     0.044 C 
HETATM    5  C6  UNL     1     -33.258   8.411   4.208  1.00 20.00     0.007 C 
HETATM    6  C7  UNL     1     -31.784   8.746   3.805  1.00 20.00     0.018 C 
HETATM    7  C8  UNL     1     -33.093   7.167   3.306  1.00 20.00     0.005 C 
HETATM    8  C9  UNL     1     -32.104   8.029   2.447  1.00 20.00     0.027 C 
ENDROOT
BRANCH   8   9
HETATM    9  C3  UNL     1     -32.682   9.021   1.370  1.00 20.00     0.132 C 
HETATM   10  C10 UNL     1     -31.988   9.050   0.034  1.00 20.00     0.091 C 
HETATM   11  O11 UNL     1     -33.656   9.735   1.606  1.00 20.00    -0.298 OA
ENDBRANCH   8   9
TORSDOF 1
ENDMDL
MODEL 8
REMARK VINA RESULT:       3.6      1.859      3.530
REMARK  1 active torsions:
REMARK  status: ('A' for Active; 'I' for Inactive)
REMARK    1  A    between atoms: C3_3  and  C9_9 
ROOT
HETATM    1  C1  UNL     1     -32.621   9.254   0.754  1.00 20.00    -0.030 C 
HETATM    2  C2  UNL     1     -31.768   9.246   1.800  1.00 20.00    -0.029 C 
HETATM    3  C4  UNL     1     -33.236   8.005   0.152  1.00 20.00     0.032 C 
HETATM    4  C5  UNL     1     -31.345   7.991   2.544  1.00 20.00     0.044 C 
HETATM    5  C6  UNL     1     -32.887   5.349   0.870  1.00 20.00     0.007 C 
HETATM    6  C7  UNL     1     -32.005   5.372   2.160  1.00 20.00     0.018 C 
HETATM    7  C8  UNL     1     -32.456   6.823   0.695  1.00 20.00     0.005 C 
HETATM    8  C9  UNL     1     -32.375   6.893   2.260  1.00 20.00     0.027 C 
ENDROOT
BRANCH   8   9
HETATM    9  C3  UNL     1     -33.691   7.134   3.090  1.00 20.00     0.132 C 
HETATM   10  C10 UNL     1     -33.583   8.049   4.280  1.00 20.00     0.091 C 
HETATM   11  O11 UNL     1     -34.757   6.603   2.779  1.00 20.00    -0.298 OA
ENDBRANCH   8   9
TORSDOF 1
ENDMDL
MODEL 9
REMARK VINA RESULT:       4.0      1.437      2.883
REMARK  1 active torsions:
REMARK  status: ('A' for Active; 'I' for Inactive)
REMARK    1  A    between atoms: C3_3  and  C9_9 
ROOT
HETATM    1  C1  UNL     1     -35.416   5.020   3.741  1.00 20.00    -0.030 C 
HETATM    2  C2  UNL     1     -34.218   4.487   4.062  1.00 20.00    -0.029 C 
HETATM    3  C4  UNL     1     -35.676   6.509   3.623  1.00 20.00     0.032 C 
HETATM    4  C5  UNL     1     -32.960   5.303   4.303  1.00 20.00     0.044 C 
HETATM    5  C6  UNL     1     -33.939   8.637   4.007  1.00 20.00     0.007 C 
HETATM    6  C7  UNL     1     -32.533   7.997   4.247  1.00 20.00     0.018 C 
HETATM    7  C8  UNL     1     -34.494   7.217   4.258  1.00 20.00     0.005 C 
HETATM    8  C9  UNL     1     -33.148   6.680   3.658  1.00 20.00     0.027 C 
ENDROOT
BRANCH   8   9
HETATM    9  C3  UNL     1     -32.983   6.591   2.094  1.00 20.00     0.132 C 
HETATM   10  C10 UNL     1     -32.327   7.764   1.415  1.00 20.00     0.091 C 
HETATM   11  O11 UNL     1     -33.368   5.611   1.459  1.00 20.00    -0.298 OA
ENDBRANCH   8   9
TORSDOF 1
ENDMDL
