MODEL 1
REMARK VINA RESULT:      -1.2      0.000      0.000
REMARK  1 active torsions:
REMARK  status: ('A' for Active; 'I' for Inactive)
REMARK    1  A    between atoms: C1_1  and  C3_3 
ROOT
HETATM    1  C2  UNL     1     -35.445   6.544   3.378  1.00 20.00     0.103 A 
HETATM    2  C3  UNL     1     -33.985   6.879   3.555  1.00 20.00     0.073 A 
HETATM    3  C5  UNL     1     -33.628   7.905   4.597  1.00 20.00     0.036 C 
HETATM    4  S7  UNL     1     -34.517   5.334   4.170  1.00 20.00    -0.149 SA
ENDROOT
BRANCH   2   5
HETATM    5  C1  UNL     1     -33.115   6.780   2.366  1.00 20.00     0.142 C 
HETATM    6  C4  UNL     1     -32.214   7.952   2.085  1.00 20.00     0.092 C 
HETATM    7  O6  UNL     1     -33.125   5.786   1.641  1.00 20.00    -0.297 OA
ENDBRANCH   2   5
TORSDOF 1
ENDMDL
MODEL 2
REMARK VINA RESULT:      -1.0      2.380      3.099
REMARK  1 active torsions:
REMARK  status: ('A' for Active; 'I' for Inactive)
REMARK    1  A    between atoms: C1_1  and  C3_3 
ROOT
HETATM    1  C2  UNL     1     -35.213   7.080   3.278  1.00 20.00     0.103 A 
HETATM    2  C3  UNL     1     -34.180   5.985   3.390  1.00 20.00     0.073 A 
HETATM    3  C5  UNL     1     -33.235   5.800   2.233  1.00 20.00     0.036 C 
HETATM    4  S7  UNL     1     -33.917   7.415   4.356  1.00 20.00    -0.149 SA
ENDROOT
BRANCH   2   5
HETATM    5  C1  UNL     1     -34.539   4.790   4.180  1.00 20.00     0.142 C 
HETATM    6  C4  UNL     1     -33.541   3.664   4.196  1.00 20.00     0.092 C 
HETATM    7  O6  UNL     1     -35.601   4.719   4.797  1.00 20.00    -0.297 OA
ENDBRANCH   2   5
TORSDOF 1
ENDMDL
MODEL 3
REMARK VINA RESULT:      -0.9      1.239      1.651
REMARK  1 active torsions:
REMARK  status: ('A' for Active; 'I' for Inactive)
REMARK    1  A    between atoms: C1_1  and  C3_3 
ROOT
HETATM    1  C2  UNL     1     -34.101   7.267   4.289  1.00 20.00     0.103 A 
HETATM    2  C3  UNL     1     -33.886   6.121   3.331  1.00 20.00     0.073 A 
HETATM    3  C5  UNL     1     -33.871   4.729   3.904  1.00 20.00     0.036 C 
HETATM    4  S7  UNL     1     -35.448   6.900   3.287  1.00 20.00    -0.149 SA
ENDROOT
BRANCH   2   5
HETATM    5  C1  UNL     1     -33.057   6.379   2.136  1.00 20.00     0.142 C 
HETATM    6  C4  UNL     1     -32.352   7.708   2.076  1.00 20.00     0.092 C 
HETATM    7  O6  UNL     1     -32.946   5.549   1.236  1.00 20.00    -0.297 OA
ENDBRANCH   2   5
TORSDOF 1
ENDMDL
MODEL 4
REMARK VINA RESULT:      -0.8      1.882      2.881
REMARK  1 active torsions:
REMARK  status: ('A' for Active; 'I' for Inactive)
REMARK    1  A    between atoms: C1_1  and  C3_3 
ROOT
HETATM    1  C2  UNL     1     -31.964   5.295   1.604  1.00 20.00     0.103 A 
HETATM    2  C3  UNL     1     -32.797   6.469   2.057  1.00 20.00     0.073 A 
HETATM    3  C5  UNL     1     -32.230   7.847   1.843  1.00 20.00     0.036 C 
HETATM    4  S7  UNL     1     -33.326   5.640   0.614  1.00 20.00    -0.149 SA
ENDROOT
BRANCH   2   5
HETATM    5  C1  UNL     1     -33.684   6.265   3.220  1.00 20.00     0.142 C 
HETATM    6  C4  UNL     1     -34.172   7.502   3.925  1.00 20.00     0.092 C 
HETATM    7  O6  UNL     1     -34.010   5.139   3.593  1.00 20.00    -0.297 OA
ENDBRANCH   2   5
TORSDOF 1
ENDMDL
MODEL 5
REMARK VINA RESULT:      -0.8      2.303      3.339
REMARK  1 active torsions:
REMARK  status: ('A' for Active; 'I' for Inactive)
REMARK    1  A    between atoms: C1_1  and  C3_3 
ROOT
HETATM    1  C2  UNL     1     -32.911   8.352   1.375  1.00 20.00     0.103 A 
HETATM    2  C3  UNL     1     -32.937   7.150   2.287  1.00 20.00     0.073 A 
HETATM    3  C5  UNL     1     -32.876   5.790   1.646  1.00 20.00     0.036 C 
HETATM    4  S7  UNL     1     -31.455   8.071   2.244  1.00 20.00    -0.149 SA
ENDROOT
BRANCH   2   5
HETATM    5  C1  UNL     1     -33.681   7.277   3.557  1.00 20.00     0.142 C 
HETATM    6  C4  UNL     1     -34.911   6.424   3.710  1.00 20.00     0.092 C 
HETATM    7  O6  UNL     1     -33.311   8.040   4.448  1.00 20.00    -0.297 OA
ENDBRANCH   2   5
TORSDOF 1
ENDMDL
MODEL 6
REMARK VINA RESULT:      -0.7      1.585      2.064
REMARK  1 active torsions:
REMARK  status: ('A' for Active; 'I' for Inactive)
REMARK    1  A    between atoms: C1_1  and  C3_3 
ROOT
HETATM    1  C2  UNL     1     -34.188   7.199   4.430  1.00 20.00     0.103 A 
HETATM    2  C3  UNL     1     -33.889   6.158   3.379  1.00 20.00     0.073 A 
HETATM    3  C5  UNL     1     -33.845   4.719   3.819  1.00 20.00     0.036 C 
HETATM    4  S7  UNL     1     -35.476   6.885   3.337  1.00 20.00    -0.149 SA
ENDROOT
BRANCH   2   5
HETATM    5  C1  UNL     1     -33.020   6.558   2.254  1.00 20.00     0.142 C 
HETATM    6  C4  UNL     1     -32.718   5.503   1.223  1.00 20.00     0.092 C 
HETATM    7  O6  UNL     1     -32.567   7.698   2.162  1.00 20.00    -0.297 OA
ENDBRANCH   2   5
TORSDOF 1
ENDMDL
MODEL 7
REMARK VINA RESULT:      -0.4      2.114      3.076
REMARK  1 active torsions:
REMARK  status: ('A' for Active; 'I' for Inactive)
REMARK    1  A    between atoms: C1_1  and  C3_3 
ROOT
HETATM    1  C2  UNL     1     -31.237   7.893   1.396  1.00 20.00     0.103 A 
HETATM    2  C3  UNL     1     -32.352   7.859   2.413  1.00 20.00     0.073 A 
HETATM    3  C5  UNL     1     -32.122   8.569   3.720  1.00 20.00     0.036 C 
HETATM    4  S7  UNL     1     -32.586   8.892   1.025  1.00 20.00    -0.149 SA
ENDROOT
BRANCH   2   5
HETATM    5  C1  UNL     1     -33.226   6.669   2.424  1.00 20.00     0.142 C 
HETATM    6  C4  UNL     1     -34.324   6.644   3.454  1.00 20.00     0.092 C 
HETATM    7  O6  UNL     1     -33.067   5.744   1.629  1.00 20.00    -0.297 OA
ENDBRANCH   2   5
TORSDOF 1
ENDMDL
MODEL 8
REMARK VINA RESULT:      -0.4      2.059      2.581
REMARK  1 active torsions:
REMARK  status: ('A' for Active; 'I' for Inactive)
REMARK    1  A    between atoms: C1_1  and  C3_3 
ROOT
HETATM    1  C2  UNL     1     -33.307   6.118   0.821  1.00 20.00     0.103 A 
HETATM    2  C3  UNL     1     -32.958   6.799   2.122  1.00 20.00     0.073 A 
HETATM    3  C5  UNL     1     -33.925   6.652   3.266  1.00 20.00     0.036 C 
HETATM    4  S7  UNL     1     -32.047   5.366   1.716  1.00 20.00    -0.149 SA
ENDROOT
BRANCH   2   5
HETATM    5  C1  UNL     1     -32.171   8.047   2.046  1.00 20.00     0.142 C 
HETATM    6  C4  UNL     1     -32.246   8.818   0.755  1.00 20.00     0.092 C 
HETATM    7  O6  UNL     1     -31.489   8.438   2.992  1.00 20.00    -0.297 OA
ENDBRANCH   2   5
TORSDOF 1
ENDMDL
MODEL 9
REMARK VINA RESULT:      -0.1      2.435      3.123
REMARK  1 active torsions:
REMARK  status: ('A' for Active; 'I' for Inactive)
REMARK    1  A    between atoms: C1_1  and  C3_3 
ROOT
HETATM    1  C2  UNL     1     -31.194   7.907   1.447  1.00 20.00     0.103 A 
HETATM    2  C3  UNL     1     -32.340   7.830   2.425  1.00 20.00     0.073 A 
HETATM    3  C5  UNL     1     -32.176   8.537   3.744  1.00 20.00     0.036 C 
HETATM    4  S7  UNL     1     -32.561   8.866   1.038  1.00 20.00    -0.149 SA
ENDROOT
BRANCH   2   5
HETATM    5  C1  UNL     1     -33.175   6.612   2.400  1.00 20.00     0.142 C 
HETATM    6  C4  UNL     1     -32.814   5.564   1.381  1.00 20.00     0.092 C 
HETATM    7  O6  UNL     1     -34.119   6.461   3.174  1.00 20.00    -0.297 OA
ENDBRANCH   2   5
TORSDOF 1
ENDMDL
