MODEL 1
REMARK VINA RESULT:      -1.4      0.000      0.000
REMARK  1 active torsions:
REMARK  status: ('A' for Active; 'I' for Inactive)
REMARK    1  A    between atoms: C3_3  and  C7_7 
ROOT
HETATM    1  C1  UNL     1     -31.771   6.598   1.521  1.00 20.00    -0.030 C 
HETATM    2  C2  UNL     1     -31.876   7.782   2.133  1.00 20.00    -0.026 C 
HETATM    3  C4  UNL     1     -33.030   5.787   1.569  1.00 20.00     0.033 C 
HETATM    4  C5  UNL     1     -33.416   7.432   4.143  1.00 20.00     0.021 C 
HETATM    5  C6  UNL     1     -33.226   7.946   2.698  1.00 20.00     0.013 C 
HETATM    6  C7  UNL     1     -34.588   6.553   3.651  1.00 20.00     0.060 C 
HETATM    7  C8  UNL     1     -34.062   6.735   2.198  1.00 20.00     0.008 C 
ENDROOT
BRANCH   6   8
HETATM    8  C3  UNL     1     -34.713   5.134   4.209  1.00 20.00     0.127 C 
HETATM    9  C9  UNL     1     -33.538   4.218   4.000  1.00 20.00     0.091 C 
HETATM   10  O10 UNL     1     -35.725   4.762   4.802  1.00 20.00    -0.298 OA
ENDBRANCH   6   8
TORSDOF 1
ENDMDL
MODEL 2
REMARK VINA RESULT:      -0.7      0.908      1.100
REMARK  1 active torsions:
REMARK  status: ('A' for Active; 'I' for Inactive)
REMARK    1  A    between atoms: C3_3  and  C7_7 
ROOT
HETATM    1  C1  UNL     1     -31.518   6.791   1.429  1.00 20.00    -0.030 C 
HETATM    2  C2  UNL     1     -31.731   7.980   2.001  1.00 20.00    -0.026 C 
HETATM    3  C4  UNL     1     -32.716   5.891   1.458  1.00 20.00     0.033 C 
HETATM    4  C5  UNL     1     -33.316   7.575   3.965  1.00 20.00     0.021 C 
HETATM    5  C6  UNL     1     -33.110   8.060   2.513  1.00 20.00     0.013 C 
HETATM    6  C7  UNL     1     -34.402   6.599   3.459  1.00 20.00     0.060 C 
HETATM    7  C8  UNL     1     -33.836   6.778   2.021  1.00 20.00     0.008 C 
ENDROOT
BRANCH   6   8
HETATM    8  C3  UNL     1     -34.445   5.191   4.056  1.00 20.00     0.127 C 
HETATM    9  C9  UNL     1     -35.614   4.867   4.945  1.00 20.00     0.091 C 
HETATM   10  O10 UNL     1     -33.566   4.363   3.819  1.00 20.00    -0.298 OA
ENDBRANCH   6   8
TORSDOF 1
ENDMDL
MODEL 3
REMARK VINA RESULT:      -0.6      2.132      4.035
REMARK  1 active torsions:
REMARK  status: ('A' for Active; 'I' for Inactive)
REMARK    1  A    between atoms: C3_3  and  C7_7 
ROOT
HETATM    1  C1  UNL     1     -34.270   5.667   4.219  1.00 20.00    -0.030 C 
HETATM    2  C2  UNL     1     -33.762   4.639   3.534  1.00 20.00    -0.026 C 
HETATM    3  C4  UNL     1     -34.378   6.927   3.415  1.00 20.00     0.033 C 
HETATM    4  C5  UNL     1     -32.015   5.613   1.941  1.00 20.00     0.021 C 
HETATM    5  C6  UNL     1     -33.439   5.054   2.158  1.00 20.00     0.013 C 
HETATM    6  C7  UNL     1     -32.636   6.894   1.338  1.00 20.00     0.060 C 
HETATM    7  C8  UNL     1     -33.990   6.497   1.993  1.00 20.00     0.008 C 
ENDROOT
BRANCH   6   8
HETATM    8  C3  UNL     1     -32.015   8.242   1.708  1.00 20.00     0.127 C 
HETATM    9  C9  UNL     1     -32.182   9.359   0.714  1.00 20.00     0.091 C 
HETATM   10  O10 UNL     1     -31.409   8.405   2.766  1.00 20.00    -0.298 OA
ENDBRANCH   6   8
TORSDOF 1
ENDMDL
MODEL 4
REMARK VINA RESULT:      -0.6      1.775      2.793
REMARK  1 active torsions:
REMARK  status: ('A' for Active; 'I' for Inactive)
REMARK    1  A    between atoms: C3_3  and  C7_7 
ROOT
HETATM    1  C1  UNL     1     -32.453   9.495   0.633  1.00 20.00    -0.030 C 
HETATM    2  C2  UNL     1     -32.035   8.339   0.109  1.00 20.00    -0.026 C 
HETATM    3  C4  UNL     1     -32.541   9.475   2.130  1.00 20.00     0.033 C 
HETATM    4  C5  UNL     1     -32.991   6.479   1.579  1.00 20.00     0.021 C 
HETATM    5  C6  UNL     1     -31.784   7.356   1.176  1.00 20.00     0.013 C 
HETATM    6  C7  UNL     1     -32.804   6.937   3.044  1.00 20.00     0.060 C 
HETATM    7  C8  UNL     1     -31.937   8.119   2.521  1.00 20.00     0.008 C 
ENDROOT
BRANCH   6   8
HETATM    8  C3  UNL     1     -34.053   7.256   3.867  1.00 20.00     0.127 C 
HETATM    9  C9  UNL     1     -35.225   6.327   3.707  1.00 20.00     0.091 C 
HETATM   10  O10 UNL     1     -34.095   8.225   4.625  1.00 20.00    -0.298 OA
ENDBRANCH   6   8
TORSDOF 1
ENDMDL
MODEL 5
REMARK VINA RESULT:      -0.3      1.699      2.931
REMARK  1 active torsions:
REMARK  status: ('A' for Active; 'I' for Inactive)
REMARK    1  A    between atoms: C3_3  and  C7_7 
ROOT
HETATM    1  C1  UNL     1     -32.566   9.673   0.453  1.00 20.00    -0.030 C 
HETATM    2  C2  UNL     1     -32.000   8.577  -0.061  1.00 20.00    -0.026 C 
HETATM    3  C4  UNL     1     -32.676   9.645   1.947  1.00 20.00     0.033 C 
HETATM    4  C5  UNL     1     -32.744   6.615   1.400  1.00 20.00     0.021 C 
HETATM    5  C6  UNL     1     -31.647   7.634   1.014  1.00 20.00     0.013 C 
HETATM    6  C7  UNL     1     -32.639   7.094   2.865  1.00 20.00     0.060 C 
HETATM    7  C8  UNL     1     -31.916   8.374   2.353  1.00 20.00     0.008 C 
ENDROOT
BRANCH   6   8
HETATM    8  C3  UNL     1     -33.931   7.259   3.667  1.00 20.00     0.127 C 
HETATM    9  C9  UNL     1     -33.842   8.057   4.940  1.00 20.00     0.091 C 
HETATM   10  O10 UNL     1     -34.992   6.764   3.289  1.00 20.00    -0.298 OA
ENDBRANCH   6   8
TORSDOF 1
ENDMDL
MODEL 6
REMARK VINA RESULT:      -0.1      1.978      3.319
REMARK  1 active torsions:
REMARK  status: ('A' for Active; 'I' for Inactive)
REMARK    1  A    between atoms: C3_3  and  C7_7 
ROOT
HETATM    1  C1  UNL     1     -35.250   6.460   3.978  1.00 20.00    -0.030 C 
HETATM    2  C2  UNL     1     -34.600   7.626   4.038  1.00 20.00    -0.026 C 
HETATM    3  C4  UNL     1     -34.407   5.331   3.467  1.00 20.00     0.033 C 
HETATM    4  C5  UNL     1     -32.993   7.670   2.049  1.00 20.00     0.021 C 
HETATM    5  C6  UNL     1     -33.215   7.462   3.564  1.00 20.00     0.013 C 
HETATM    6  C7  UNL     1     -32.347   6.268   1.975  1.00 20.00     0.060 C 
HETATM    7  C8  UNL     1     -33.002   5.938   3.347  1.00 20.00     0.008 C 
ENDROOT
BRANCH   6   8
HETATM    8  C3  UNL     1     -32.681   5.380   0.775  1.00 20.00     0.127 C 
HETATM    9  C9  UNL     1     -31.632   4.385   0.357  1.00 20.00     0.091 C 
HETATM   10  O10 UNL     1     -33.755   5.474   0.183  1.00 20.00    -0.298 OA
ENDBRANCH   6   8
TORSDOF 1
ENDMDL
MODEL 7
REMARK VINA RESULT:       0.1      2.946      4.421
REMARK  1 active torsions:
REMARK  status: ('A' for Active; 'I' for Inactive)
REMARK    1  A    between atoms: C3_3  and  C7_7 
ROOT
HETATM    1  C1  UNL     1     -33.401   5.540   1.876  1.00 20.00    -0.030 C 
HETATM    2  C2  UNL     1     -33.850   6.231   2.928  1.00 20.00    -0.026 C 
HETATM    3  C4  UNL     1     -32.180   6.139   1.244  1.00 20.00     0.033 C 
HETATM    4  C5  UNL     1     -33.423   8.700   2.419  1.00 20.00     0.021 C 
HETATM    5  C6  UNL     1     -33.002   7.412   3.162  1.00 20.00     0.013 C 
HETATM    6  C7  UNL     1     -32.005   8.784   1.810  1.00 20.00     0.060 C 
HETATM    7  C8  UNL     1     -31.798   7.289   2.187  1.00 20.00     0.008 C 
ENDROOT
BRANCH   6   8
HETATM    8  C3  UNL     1     -31.870   9.192   0.342  1.00 20.00     0.127 C 
HETATM    9  C9  UNL     1     -32.900  10.151  -0.192  1.00 20.00     0.091 C 
HETATM   10  O10 UNL     1     -30.964   8.757  -0.367  1.00 20.00    -0.298 OA
ENDBRANCH   6   8
TORSDOF 1
ENDMDL
MODEL 8
REMARK VINA RESULT:       0.1      2.211      3.846
REMARK  1 active torsions:
REMARK  status: ('A' for Active; 'I' for Inactive)
REMARK    1  A    between atoms: C3_3  and  C7_7 
ROOT
HETATM    1  C1  UNL     1     -34.773   5.356   3.509  1.00 20.00    -0.030 C 
HETATM    2  C2  UNL     1     -35.335   6.404   4.121  1.00 20.00    -0.026 C 
HETATM    3  C4  UNL     1     -33.327   5.564   3.174  1.00 20.00     0.033 C 
HETATM    4  C5  UNL     1     -34.263   8.497   3.119  1.00 20.00     0.021 C 
HETATM    5  C6  UNL     1     -34.349   7.486   4.284  1.00 20.00     0.013 C 
HETATM    6  C7  UNL     1     -32.749   8.207   3.012  1.00 20.00     0.060 C 
HETATM    7  C8  UNL     1     -32.980   6.907   3.833  1.00 20.00     0.008 C 
ENDROOT
BRANCH   6   8
HETATM    8  C3  UNL     1     -32.131   8.089   1.617  1.00 20.00     0.127 C 
HETATM    9  C9  UNL     1     -32.329   9.255   0.687  1.00 20.00     0.091 C 
HETATM   10  O10 UNL     1     -31.502   7.089   1.274  1.00 20.00    -0.298 OA
ENDBRANCH   6   8
TORSDOF 1
ENDMDL
MODEL 9
REMARK VINA RESULT:       0.2      1.603      2.187
REMARK  1 active torsions:
REMARK  status: ('A' for Active; 'I' for Inactive)
REMARK    1  A    between atoms: C3_3  and  C7_7 
ROOT
HETATM    1  C1  UNL     1     -31.873   5.111   1.369  1.00 20.00    -0.030 C 
HETATM    2  C2  UNL     1     -31.193   6.214   1.043  1.00 20.00    -0.026 C 
HETATM    3  C4  UNL     1     -33.268   5.385   1.843  1.00 20.00     0.033 C 
HETATM    4  C5  UNL     1     -31.945   8.041   2.666  1.00 20.00     0.021 C 
HETATM    5  C6  UNL     1     -32.028   7.409   1.259  1.00 20.00     0.013 C 
HETATM    6  C7  UNL     1     -33.481   7.918   2.786  1.00 20.00     0.060 C 
HETATM    7  C8  UNL     1     -33.450   6.893   1.615  1.00 20.00     0.008 C 
ENDROOT
BRANCH   6   8
HETATM    8  C3  UNL     1     -34.070   7.476   4.127  1.00 20.00     0.127 C 
HETATM    9  C9  UNL     1     -35.181   6.463   4.077  1.00 20.00     0.091 C 
HETATM   10  O10 UNL     1     -33.653   7.926   5.193  1.00 20.00    -0.298 OA
ENDBRANCH   6   8
TORSDOF 1
ENDMDL
