MODEL 1
REMARK VINA RESULT:       6.0      0.000      0.000
REMARK  0 active torsions:
REMARK  status: ('A' for Active; 'I' for Inactive)
ROOT
HETATM    1  C1  UNL     1     -32.360   8.153   3.922  1.00 20.00     0.037 C 
HETATM    2  C2  UNL     1     -33.829   7.698   4.007  1.00 20.00     0.019 C 
HETATM    3  C3  UNL     1     -31.135   6.791   2.080  1.00 20.00     0.051 C 
HETATM    4  C4  UNL     1     -33.147   6.169   0.705  1.00 20.00     0.052 C 
HETATM    5  C5  UNL     1     -31.807   8.139   2.478  1.00 20.00     0.224 C 
HETATM    6  C6  UNL     1     -33.834   7.314   1.465  1.00 20.00     0.237 C 
HETATM    7  C7  UNL     1     -34.197   6.738   2.875  1.00 20.00     0.081 C 
HETATM    8  C8  UNL     1     -32.104   5.657   1.688  1.00 20.00     0.052 C 
HETATM    9  C9  UNL     1     -32.527   9.088   0.344  1.00 20.00     0.310 C 
HETATM   10  N10 UNL     1     -32.937   8.482   1.604  1.00 20.00     0.094 N 
HETATM   11  S11 UNL     1     -33.186   5.224   3.073  1.00 20.00    -0.157 SA
ENDROOT
TORSDOF 0
ENDMDL
MODEL 2
REMARK VINA RESULT:       7.0      1.899      3.204
REMARK  0 active torsions:
REMARK  status: ('A' for Active; 'I' for Inactive)
ROOT
HETATM    1  C1  UNL     1     -34.298   7.817   4.244  1.00 20.00     0.037 C 
HETATM    2  C2  UNL     1     -32.780   8.078   4.204  1.00 20.00     0.019 C 
HETATM    3  C3  UNL     1     -35.026   6.603   2.065  1.00 20.00     0.051 C 
HETATM    4  C4  UNL     1     -32.806   5.577   1.476  1.00 20.00     0.052 C 
HETATM    5  C5  UNL     1     -34.695   6.476   3.583  1.00 20.00     0.224 C 
HETATM    6  C6  UNL     1     -32.453   5.862   2.943  1.00 20.00     0.237 C 
HETATM    7  C7  UNL     1     -32.112   7.389   3.014  1.00 20.00     0.081 C 
HETATM    8  C8  UNL     1     -33.805   6.669   1.124  1.00 20.00     0.052 C 
HETATM    9  C9  UNL     1     -33.993   4.150   3.839  1.00 20.00     0.310 C 
HETATM   10  N10 UNL     1     -33.587   5.548   3.840  1.00 20.00     0.094 N 
HETATM   11  S11 UNL     1     -32.793   8.126   1.482  1.00 20.00    -0.157 SA
ENDROOT
TORSDOF 0
ENDMDL
MODEL 3
REMARK VINA RESULT:       7.6      1.786      2.989
REMARK  0 active torsions:
REMARK  status: ('A' for Active; 'I' for Inactive)
ROOT
HETATM    1  C1  UNL     1     -34.097   6.764   2.915  1.00 20.00     0.037 C 
HETATM    2  C2  UNL     1     -33.158   7.663   3.741  1.00 20.00     0.019 C 
HETATM    3  C3  UNL     1     -33.628   7.114   0.384  1.00 20.00     0.051 C 
HETATM    4  C4  UNL     1     -31.259   7.937   0.576  1.00 20.00     0.052 C 
HETATM    5  C5  UNL     1     -33.428   6.208   1.637  1.00 20.00     0.224 C 
HETATM    6  C6  UNL     1     -31.316   7.320   1.981  1.00 20.00     0.237 C 
HETATM    7  C7  UNL     1     -32.102   8.343   2.869  1.00 20.00     0.081 C 
HETATM    8  C8  UNL     1     -32.699   8.343   0.299  1.00 20.00     0.052 C 
HETATM    9  C9  UNL     1     -31.364   4.991   1.157  1.00 20.00     0.310 C 
HETATM   10  N10 UNL     1     -32.010   6.014   1.967  1.00 20.00     0.094 N 
HETATM   11  S11 UNL     1     -32.970   9.455   1.701  1.00 20.00    -0.157 SA
ENDROOT
TORSDOF 0
ENDMDL
MODEL 4
REMARK VINA RESULT:       8.2      1.563      2.775
REMARK  0 active torsions:
REMARK  status: ('A' for Active; 'I' for Inactive)
ROOT
HETATM    1  C1  UNL     1     -31.241   6.354   1.858  1.00 20.00     0.037 C 
HETATM    2  C2  UNL     1     -31.591   7.854   1.832  1.00 20.00     0.019 C 
HETATM    3  C3  UNL     1     -33.139   5.042   3.053  1.00 20.00     0.051 C 
HETATM    4  C4  UNL     1     -35.004   6.683   2.657  1.00 20.00     0.052 C 
HETATM    5  C5  UNL     1     -32.481   5.444   1.698  1.00 20.00     0.224 C 
HETATM    6  C6  UNL     1     -34.076   7.249   1.571  1.00 20.00     0.237 C 
HETATM    7  C7  UNL     1     -33.014   8.119   2.325  1.00 20.00     0.081 C 
HETATM    8  C8  UNL     1     -34.046   6.113   3.693  1.00 20.00     0.052 C 
HETATM    9  C9  UNL     1     -34.313   5.287   0.087  1.00 20.00     0.310 C 
HETATM   10  N10 UNL     1     -33.409   6.166   0.816  1.00 20.00     0.094 N 
HETATM   11  S11 UNL     1     -33.104   7.609   4.082  1.00 20.00    -0.157 SA
ENDROOT
TORSDOF 0
ENDMDL
MODEL 5
REMARK VINA RESULT:       8.3      1.405      3.038
REMARK  0 active torsions:
REMARK  status: ('A' for Active; 'I' for Inactive)
ROOT
HETATM    1  C1  UNL     1     -33.280   5.096   1.387  1.00 20.00     0.037 C 
HETATM    2  C2  UNL     1     -32.612   4.561   2.668  1.00 20.00     0.019 C 
HETATM    3  C3  UNL     1     -35.063   6.877   2.019  1.00 20.00     0.051 C 
HETATM    4  C4  UNL     1     -34.107   7.558   4.244  1.00 20.00     0.052 C 
HETATM    5  C5  UNL     1     -33.630   6.600   1.474  1.00 20.00     0.224 C 
HETATM    6  C6  UNL     1     -32.822   6.894   3.727  1.00 20.00     0.237 C 
HETATM    7  C7  UNL     1     -33.032   5.353   3.906  1.00 20.00     0.081 C 
HETATM    8  C8  UNL     1     -35.219   6.784   3.551  1.00 20.00     0.052 C 
HETATM    9  C9  UNL     1     -32.390   8.632   2.024  1.00 20.00     0.310 C 
HETATM   10  N10 UNL     1     -32.586   7.216   2.302  1.00 20.00     0.094 N 
HETATM   11  S11 UNL     1     -34.833   5.116   4.139  1.00 20.00    -0.157 SA
ENDROOT
TORSDOF 0
ENDMDL
MODEL 6
REMARK VINA RESULT:       8.6      1.501      3.018
REMARK  0 active torsions:
REMARK  status: ('A' for Active; 'I' for Inactive)
ROOT
HETATM    1  C1  UNL     1     -33.376   6.686   1.068  1.00 20.00     0.037 C 
HETATM    2  C2  UNL     1     -33.170   5.439   1.950  1.00 20.00     0.019 C 
HETATM    3  C3  UNL     1     -34.308   8.629   2.520  1.00 20.00     0.051 C 
HETATM    4  C4  UNL     1     -33.454   7.842   4.751  1.00 20.00     0.052 C 
HETATM    5  C5  UNL     1     -33.067   8.006   1.811  1.00 20.00     0.224 C 
HETATM    6  C6  UNL     1     -32.513   6.963   3.914  1.00 20.00     0.237 C 
HETATM    7  C7  UNL     1     -33.375   5.747   3.433  1.00 20.00     0.081 C 
HETATM    8  C8  UNL     1     -34.687   7.992   3.873  1.00 20.00     0.052 C 
HETATM    9  C9  UNL     1     -31.169   8.865   3.089  1.00 20.00     0.310 C 
HETATM   10  N10 UNL     1     -31.978   7.703   2.750  1.00 20.00     0.094 N 
HETATM   11  S11 UNL     1     -35.121   6.247   3.666  1.00 20.00    -0.157 SA
ENDROOT
TORSDOF 0
ENDMDL
MODEL 7
REMARK VINA RESULT:       8.8      1.923      3.490
REMARK  0 active torsions:
REMARK  status: ('A' for Active; 'I' for Inactive)
ROOT
HETATM    1  C1  UNL     1     -32.547   4.950   2.692  1.00 20.00     0.037 C 
HETATM    2  C2  UNL     1     -32.890   5.638   1.356  1.00 20.00     0.019 C 
HETATM    3  C3  UNL     1     -32.715   6.678   4.625  1.00 20.00     0.051 C 
HETATM    4  C4  UNL     1     -34.305   8.286   3.522  1.00 20.00     0.052 C 
HETATM    5  C5  UNL     1     -33.384   5.485   3.877  1.00 20.00     0.224 C 
HETATM    6  C6  UNL     1     -34.606   7.110   2.580  1.00 20.00     0.237 C 
HETATM    7  C7  UNL     1     -33.417   7.058   1.563  1.00 20.00     0.081 C 
HETATM    8  C8  UNL     1     -32.861   8.054   3.942  1.00 20.00     0.052 C 
HETATM    9  C9  UNL     1     -35.770   5.783   4.310  1.00 20.00     0.310 C 
HETATM   10  N10 UNL     1     -34.699   5.835   3.325  1.00 20.00     0.094 N 
HETATM   11  S11 UNL     1     -32.073   8.052   2.312  1.00 20.00    -0.157 SA
ENDROOT
TORSDOF 0
ENDMDL
