MODEL 1
REMARK VINA RESULT:      -0.2      0.000      0.000
REMARK  1 active torsions:
REMARK  status: ('A' for Active; 'I' for Inactive)
REMARK    1  A    between atoms: C1_1  and  C5_5 
ROOT
HETATM    1  C2  UNL     1     -32.781   5.857   2.203  1.00 20.00     0.026 C 
HETATM    2  C3  UNL     1     -32.975   7.190   3.849  1.00 20.00     0.026 C 
HETATM    3  C4  UNL     1     -34.518   7.070   2.391  1.00 20.00     0.026 C 
HETATM    4  C5  UNL     1     -33.845   6.025   3.316  1.00 20.00     0.022 C 
HETATM    5  C6  UNL     1     -32.979   7.426   2.283  1.00 20.00    -0.041 C 
HETATM    6  C8  UNL     1     -32.321   8.492   1.497  1.00 20.00     0.015 C 
ENDROOT
BRANCH   4   7
HETATM    7  C1  UNL     1     -34.503   4.953   4.108  1.00 20.00     0.131 C 
HETATM    8  C7  UNL     1     -33.729   3.675   4.292  1.00 20.00     0.091 C 
HETATM    9  O9  UNL     1     -35.625   5.103   4.589  1.00 20.00    -0.298 OA
ENDBRANCH   4   7
TORSDOF 1
ENDMDL
MODEL 2
REMARK VINA RESULT:      -0.1      2.329      4.042
REMARK  1 active torsions:
REMARK  status: ('A' for Active; 'I' for Inactive)
REMARK    1  A    between atoms: C1_1  and  C5_5 
ROOT
HETATM    1  C2  UNL     1     -33.164   7.371   4.102  1.00 20.00     0.026 C 
HETATM    2  C3  UNL     1     -33.384   5.897   2.585  1.00 20.00     0.026 C 
HETATM    3  C4  UNL     1     -34.609   7.635   2.565  1.00 20.00     0.026 C 
HETATM    4  C5  UNL     1     -33.076   7.415   2.556  1.00 20.00     0.022 C 
HETATM    5  C6  UNL     1     -34.400   6.495   3.642  1.00 20.00    -0.041 C 
HETATM    6  C8  UNL     1     -35.407   5.795   4.469  1.00 20.00     0.015 C 
ENDROOT
BRANCH   4   7
HETATM    7  C1  UNL     1     -32.061   8.116   1.727  1.00 20.00     0.131 C 
HETATM    8  C7  UNL     1     -32.545   9.280   0.904  1.00 20.00     0.091 C 
HETATM    9  O9  UNL     1     -30.882   7.764   1.716  1.00 20.00    -0.298 OA
ENDBRANCH   4   7
TORSDOF 1
ENDMDL
MODEL 3
REMARK VINA RESULT:      -0.1      1.299      2.006
REMARK  1 active torsions:
REMARK  status: ('A' for Active; 'I' for Inactive)
REMARK    1  A    between atoms: C1_1  and  C5_5 
ROOT
HETATM    1  C2  UNL     1     -32.684   7.793   3.064  1.00 20.00     0.026 C 
HETATM    2  C3  UNL     1     -33.754   7.095   1.363  1.00 20.00     0.026 C 
HETATM    3  C4  UNL     1     -31.956   6.128   1.959  1.00 20.00     0.026 C 
HETATM    4  C5  UNL     1     -33.295   6.422   2.680  1.00 20.00     0.022 C 
HETATM    5  C6  UNL     1     -32.272   7.623   1.545  1.00 20.00    -0.041 C 
HETATM    6  C8  UNL     1     -31.494   8.537   0.681  1.00 20.00     0.015 C 
ENDROOT
BRANCH   4   7
HETATM    7  C1  UNL     1     -34.080   5.506   3.549  1.00 20.00     0.131 C 
HETATM    8  C7  UNL     1     -35.339   6.064   4.159  1.00 20.00     0.091 C 
HETATM    9  O9  UNL     1     -33.720   4.349   3.759  1.00 20.00    -0.298 OA
ENDBRANCH   4   7
TORSDOF 1
ENDMDL
MODEL 4
REMARK VINA RESULT:       0.1      1.857      2.535
REMARK  1 active torsions:
REMARK  status: ('A' for Active; 'I' for Inactive)
REMARK    1  A    between atoms: C1_1  and  C5_5 
ROOT
HETATM    1  C2  UNL     1     -31.561   8.289   2.815  1.00 20.00     0.026 C 
HETATM    2  C3  UNL     1     -33.301   8.827   1.716  1.00 20.00     0.026 C 
HETATM    3  C4  UNL     1     -32.588   6.825   1.665  1.00 20.00     0.026 C 
HETATM    4  C5  UNL     1     -33.021   7.770   2.813  1.00 20.00     0.022 C 
HETATM    5  C6  UNL     1     -31.914   8.203   1.274  1.00 20.00    -0.041 C 
HETATM    6  C8  UNL     1     -31.073   8.532   0.104  1.00 20.00     0.015 C 
ENDROOT
BRANCH   4   7
HETATM    7  C1  UNL     1     -33.867   7.443   3.991  1.00 20.00     0.131 C 
HETATM    8  C7  UNL     1     -34.952   6.421   3.782  1.00 20.00     0.091 C 
HETATM    9  O9  UNL     1     -33.688   7.980   5.083  1.00 20.00    -0.298 OA
ENDBRANCH   4   7
TORSDOF 1
ENDMDL
MODEL 5
REMARK VINA RESULT:       0.5      1.484      2.498
REMARK  1 active torsions:
REMARK  status: ('A' for Active; 'I' for Inactive)
REMARK    1  A    between atoms: C1_1  and  C5_5 
ROOT
HETATM    1  C2  UNL     1     -32.734   4.876   2.799  1.00 20.00     0.026 C 
HETATM    2  C3  UNL     1     -32.231   6.794   2.028  1.00 20.00     0.026 C 
HETATM    3  C4  UNL     1     -33.883   5.724   1.224  1.00 20.00     0.026 C 
HETATM    4  C5  UNL     1     -33.520   6.203   2.652  1.00 20.00     0.022 C 
HETATM    5  C6  UNL     1     -32.345   5.370   1.346  1.00 20.00    -0.041 C 
HETATM    6  C8  UNL     1     -31.452   4.736   0.353  1.00 20.00     0.015 C 
ENDROOT
BRANCH   4   7
HETATM    7  C1  UNL     1     -34.415   6.840   3.653  1.00 20.00     0.131 C 
HETATM    8  C7  UNL     1     -33.859   8.020   4.404  1.00 20.00     0.091 C 
HETATM    9  O9  UNL     1     -35.555   6.425   3.856  1.00 20.00    -0.298 OA
ENDBRANCH   4   7
TORSDOF 1
ENDMDL
MODEL 6
REMARK VINA RESULT:       0.5      1.483      2.611
REMARK  1 active torsions:
REMARK  status: ('A' for Active; 'I' for Inactive)
REMARK    1  A    between atoms: C1_1  and  C5_5 
ROOT
HETATM    1  C2  UNL     1     -33.885   5.720   1.228  1.00 20.00     0.026 C 
HETATM    2  C3  UNL     1     -32.730   4.877   2.802  1.00 20.00     0.026 C 
HETATM    3  C4  UNL     1     -32.231   6.792   2.025  1.00 20.00     0.026 C 
HETATM    4  C5  UNL     1     -33.518   6.202   2.653  1.00 20.00     0.022 C 
HETATM    5  C6  UNL     1     -32.346   5.367   1.346  1.00 20.00    -0.041 C 
HETATM    6  C8  UNL     1     -31.455   4.732   0.352  1.00 20.00     0.015 C 
ENDROOT
BRANCH   4   7
HETATM    7  C1  UNL     1     -34.417   6.837   3.653  1.00 20.00     0.131 C 
HETATM    8  C7  UNL     1     -33.864   8.016   4.407  1.00 20.00     0.091 C 
HETATM    9  O9  UNL     1     -35.556   6.420   3.852  1.00 20.00    -0.298 OA
ENDBRANCH   4   7
TORSDOF 1
ENDMDL
MODEL 7
REMARK VINA RESULT:       0.8      2.735      4.536
REMARK  1 active torsions:
REMARK  status: ('A' for Active; 'I' for Inactive)
REMARK    1  A    between atoms: C1_1  and  C5_5 
ROOT
HETATM    1  C2  UNL     1     -33.702   6.851   1.149  1.00 20.00     0.026 C 
HETATM    2  C3  UNL     1     -32.964   7.758   2.926  1.00 20.00     0.026 C 
HETATM    3  C4  UNL     1     -31.736   6.413   1.830  1.00 20.00     0.026 C 
HETATM    4  C5  UNL     1     -32.464   7.729   1.461  1.00 20.00     0.022 C 
HETATM    5  C6  UNL     1     -33.157   6.244   2.507  1.00 20.00    -0.041 C 
HETATM    6  C8  UNL     1     -33.684   5.114   3.302  1.00 20.00     0.015 C 
ENDROOT
BRANCH   4   7
HETATM    7  C1  UNL     1     -31.938   8.866   0.661  1.00 20.00     0.131 C 
HETATM    8  C7  UNL     1     -32.739  10.141   0.689  1.00 20.00     0.091 C 
HETATM    9  O9  UNL     1     -30.898   8.771   0.011  1.00 20.00    -0.298 OA
ENDBRANCH   4   7
TORSDOF 1
ENDMDL
MODEL 8
REMARK VINA RESULT:       1.0      1.772      2.763
REMARK  1 active torsions:
REMARK  status: ('A' for Active; 'I' for Inactive)
REMARK    1  A    between atoms: C1_1  and  C5_5 
ROOT
HETATM    1  C2  UNL     1     -33.024   8.876   1.671  1.00 20.00     0.026 C 
HETATM    2  C3  UNL     1     -32.610   6.855   1.151  1.00 20.00     0.026 C 
HETATM    3  C4  UNL     1     -31.358   7.875   2.534  1.00 20.00     0.026 C 
HETATM    4  C5  UNL     1     -32.877   7.574   2.497  1.00 20.00     0.022 C 
HETATM    5  C6  UNL     1     -31.752   8.181   1.032  1.00 20.00    -0.041 C 
HETATM    6  C8  UNL     1     -30.897   8.643  -0.082  1.00 20.00     0.015 C 
ENDROOT
BRANCH   4   7
HETATM    7  C1  UNL     1     -33.740   7.109   3.614  1.00 20.00     0.131 C 
HETATM    8  C7  UNL     1     -33.996   8.092   4.726  1.00 20.00     0.091 C 
HETATM    9  O9  UNL     1     -34.224   5.978   3.629  1.00 20.00    -0.298 OA
ENDBRANCH   4   7
TORSDOF 1
ENDMDL
MODEL 9
REMARK VINA RESULT:       1.5      2.155      3.215
REMARK  1 active torsions:
REMARK  status: ('A' for Active; 'I' for Inactive)
REMARK    1  A    between atoms: C1_1  and  C5_5 
ROOT
HETATM    1  C2  UNL     1     -33.075   8.582   2.170  1.00 20.00     0.026 C 
HETATM    2  C3  UNL     1     -32.971   7.967   0.136  1.00 20.00     0.026 C 
HETATM    3  C4  UNL     1     -31.187   8.189   1.273  1.00 20.00     0.026 C 
HETATM    4  C5  UNL     1     -32.471   7.343   1.463  1.00 20.00     0.022 C 
HETATM    5  C6  UNL     1     -32.348   9.202   0.908  1.00 20.00    -0.041 C 
HETATM    6  C8  UNL     1     -32.254  10.616   0.485  1.00 20.00     0.015 C 
ENDROOT
BRANCH   4   7
HETATM    7  C1  UNL     1     -32.570   5.922   1.887  1.00 20.00     0.131 C 
HETATM    8  C7  UNL     1     -33.560   5.607   2.976  1.00 20.00     0.091 C 
HETATM    9  O9  UNL     1     -31.877   5.045   1.372  1.00 20.00    -0.298 OA
ENDBRANCH   4   7
TORSDOF 1
ENDMDL
