MODEL 1
REMARK VINA RESULT:      -0.8      0.000      0.000
REMARK  1 active torsions:
REMARK  status: ('A' for Active; 'I' for Inactive)
REMARK    1  A    between atoms: C1_1  and  C7_7 
ROOT
HETATM    1  C2  UNL     1     -35.366   6.380   3.802  1.00 20.00     0.004 C 
HETATM    2  C3  UNL     1     -34.916   5.128   4.544  1.00 20.00     0.037 C 
HETATM    3  C4  UNL     1     -34.177   7.158   3.236  1.00 20.00     0.016 C 
HETATM    4  C5  UNL     1     -32.840   5.012   3.114  1.00 20.00     0.053 C 
HETATM    5  C6  UNL     1     -34.034   4.246   3.672  1.00 20.00     0.171 C 
HETATM    6  C7  UNL     1     -33.243   6.295   2.365  1.00 20.00     0.012 C 
HETATM    7  C8  UNL     1     -33.883   5.972   1.008  1.00 20.00     0.023 C 
HETATM    8  F10 UNL     1     -33.569   3.215   4.430  1.00 20.00    -0.249 F 
ENDROOT
BRANCH   6   9
HETATM    9  C1  UNL     1     -31.994   7.090   2.078  1.00 20.00     0.240 C 
HETATM   10  O9  UNL     1     -32.002   8.184   1.523  1.00 20.00    -0.306 OA
ENDBRANCH   6   9
TORSDOF 1
ENDMDL
MODEL 2
REMARK VINA RESULT:      -0.7      2.069      3.099
REMARK  1 active torsions:
REMARK  status: ('A' for Active; 'I' for Inactive)
REMARK    1  A    between atoms: C1_1  and  C7_7 
ROOT
HETATM    1  C2  UNL     1     -32.786   5.583   2.046  1.00 20.00     0.004 C 
HETATM    2  C3  UNL     1     -33.885   5.958   3.031  1.00 20.00     0.037 C 
HETATM    3  C4  UNL     1     -32.544   6.694   1.022  1.00 20.00     0.016 C 
HETATM    4  C5  UNL     1     -33.373   8.405   2.693  1.00 20.00     0.053 C 
HETATM    5  C6  UNL     1     -33.602   7.292   3.708  1.00 20.00     0.171 C 
HETATM    6  C7  UNL     1     -32.277   8.069   1.666  1.00 20.00     0.012 C 
HETATM    7  C8  UNL     1     -30.881   8.129   2.298  1.00 20.00     0.023 C 
HETATM    8  F10 UNL     1     -34.676   7.622   4.477  1.00 20.00    -0.249 F 
ENDROOT
BRANCH   6   9
HETATM    9  C1  UNL     1     -32.308   9.115   0.579  1.00 20.00     0.240 C 
HETATM   10  O9  UNL     1     -32.682  10.268   0.761  1.00 20.00    -0.306 OA
ENDBRANCH   6   9
TORSDOF 1
ENDMDL
MODEL 3
REMARK VINA RESULT:      -0.4      2.740      3.913
REMARK  1 active torsions:
REMARK  status: ('A' for Active; 'I' for Inactive)
REMARK    1  A    between atoms: C1_1  and  C7_7 
ROOT
HETATM    1  C2  UNL     1     -32.950   6.513   1.245  1.00 20.00     0.004 C 
HETATM    2  C3  UNL     1     -31.971   7.439   1.953  1.00 20.00     0.037 C 
HETATM    3  C4  UNL     1     -33.569   5.502   2.212  1.00 20.00     0.016 C 
HETATM    4  C5  UNL     1     -33.222   7.127   4.122  1.00 20.00     0.053 C 
HETATM    5  C6  UNL     1     -32.614   8.130   3.148  1.00 20.00     0.171 C 
HETATM    6  C7  UNL     1     -34.211   6.158   3.450  1.00 20.00     0.012 C 
HETATM    7  C8  UNL     1     -35.527   6.862   3.092  1.00 20.00     0.023 C 
HETATM    8  F10 UNL     1     -31.656   8.842   3.803  1.00 20.00    -0.249 F 
ENDROOT
BRANCH   6   9
HETATM    9  C1  UNL     1     -34.556   5.071   4.438  1.00 20.00     0.240 C 
HETATM   10  O9  UNL     1     -34.217   3.900   4.299  1.00 20.00    -0.306 OA
ENDBRANCH   6   9
TORSDOF 1
ENDMDL
MODEL 4
REMARK VINA RESULT:       0.0      1.823      2.335
REMARK  1 active torsions:
REMARK  status: ('A' for Active; 'I' for Inactive)
REMARK    1  A    between atoms: C1_1  and  C7_7 
ROOT
HETATM    1  C2  UNL     1     -33.290   8.232   2.929  1.00 20.00     0.004 C 
HETATM    2  C3  UNL     1     -34.072   7.522   4.027  1.00 20.00     0.037 C 
HETATM    3  C4  UNL     1     -32.260   7.305   2.281  1.00 20.00     0.016 C 
HETATM    4  C5  UNL     1     -33.692   5.305   2.883  1.00 20.00     0.053 C 
HETATM    5  C6  UNL     1     -34.715   6.239   3.518  1.00 20.00     0.171 C 
HETATM    6  C7  UNL     1     -32.866   5.981   1.774  1.00 20.00     0.012 C 
HETATM    7  C8  UNL     1     -33.703   6.198   0.506  1.00 20.00     0.023 C 
HETATM    8  F10 UNL     1     -35.290   5.597   4.572  1.00 20.00    -0.249 F 
ENDROOT
BRANCH   6   9
HETATM    9  C1  UNL     1     -31.735   5.058   1.394  1.00 20.00     0.240 C 
HETATM   10  O9  UNL     1     -31.648   4.512   0.298  1.00 20.00    -0.306 OA
ENDBRANCH   6   9
TORSDOF 1
ENDMDL
MODEL 5
REMARK VINA RESULT:       0.5      2.425      3.694
REMARK  1 active torsions:
REMARK  status: ('A' for Active; 'I' for Inactive)
REMARK    1  A    between atoms: C1_1  and  C7_7 
ROOT
HETATM    1  C2  UNL     1     -32.411   8.723   1.835  1.00 20.00     0.004 C 
HETATM    2  C3  UNL     1     -31.929   7.507   1.056  1.00 20.00     0.037 C 
HETATM    3  C4  UNL     1     -33.763   8.464   2.504  1.00 20.00     0.016 C 
HETATM    4  C5  UNL     1     -33.240   5.989   2.586  1.00 20.00     0.053 C 
HETATM    5  C6  UNL     1     -31.892   6.260   1.927  1.00 20.00     0.171 C 
HETATM    6  C7  UNL     1     -33.777   7.195   3.377  1.00 20.00     0.012 C 
HETATM    7  C8  UNL     1     -32.993   7.403   4.680  1.00 20.00     0.023 C 
HETATM    8  F10 UNL     1     -31.573   5.194   1.143  1.00 20.00    -0.249 F 
ENDROOT
BRANCH   6   9
HETATM    9  C1  UNL     1     -35.204   6.907   3.771  1.00 20.00     0.240 C 
HETATM   10  O9  UNL     1     -35.563   5.854   4.290  1.00 20.00    -0.306 OA
ENDBRANCH   6   9
TORSDOF 1
ENDMDL
MODEL 6
REMARK VINA RESULT:       0.9      2.689      3.737
REMARK  1 active torsions:
REMARK  status: ('A' for Active; 'I' for Inactive)
REMARK    1  A    between atoms: C1_1  and  C7_7 
ROOT
HETATM    1  C2  UNL     1     -33.182   5.194   2.043  1.00 20.00     0.004 C 
HETATM    2  C3  UNL     1     -32.094   6.037   1.391  1.00 20.00     0.037 C 
HETATM    3  C4  UNL     1     -33.494   5.677   3.461  1.00 20.00     0.016 C 
HETATM    4  C5  UNL     1     -32.741   8.008   2.826  1.00 20.00     0.053 C 
HETATM    5  C6  UNL     1     -32.442   7.518   1.414  1.00 20.00     0.171 C 
HETATM    6  C7  UNL     1     -33.827   7.180   3.534  1.00 20.00     0.012 C 
HETATM    7  C8  UNL     1     -35.219   7.473   2.957  1.00 20.00     0.023 C 
HETATM    8  F10 UNL     1     -31.379   8.219   0.929  1.00 20.00    -0.249 F 
ENDROOT
BRANCH   6   9
HETATM    9  C1  UNL     1     -33.865   7.587   4.986  1.00 20.00     0.240 C 
HETATM   10  O9  UNL     1     -33.044   8.342   5.497  1.00 20.00    -0.306 OA
ENDBRANCH   6   9
TORSDOF 1
ENDMDL
MODEL 7
REMARK VINA RESULT:       1.0      2.064      2.680
REMARK  1 active torsions:
REMARK  status: ('A' for Active; 'I' for Inactive)
REMARK    1  A    between atoms: C1_1  and  C7_7 
ROOT
HETATM    1  C2  UNL     1     -32.695   8.595   4.455  1.00 20.00     0.004 C 
HETATM    2  C3  UNL     1     -33.856   7.686   4.836  1.00 20.00     0.037 C 
HETATM    3  C4  UNL     1     -31.781   7.937   3.419  1.00 20.00     0.016 C 
HETATM    4  C5  UNL     1     -33.733   6.560   2.582  1.00 20.00     0.053 C 
HETATM    5  C6  UNL     1     -34.636   7.228   3.612  1.00 20.00     0.171 C 
HETATM    6  C7  UNL     1     -32.535   7.435   2.172  1.00 20.00     0.012 C 
HETATM    7  C8  UNL     1     -32.975   8.601   1.277  1.00 20.00     0.023 C 
HETATM    8  F10 UNL     1     -35.576   6.327   4.011  1.00 20.00    -0.249 F 
ENDROOT
BRANCH   6   9
HETATM    9  C1  UNL     1     -31.589   6.593   1.353  1.00 20.00     0.240 C 
HETATM   10  O9  UNL     1     -31.752   5.393   1.154  1.00 20.00    -0.306 OA
ENDBRANCH   6   9
TORSDOF 1
ENDMDL
MODEL 8
REMARK VINA RESULT:       1.6      1.990      2.569
REMARK  1 active torsions:
REMARK  status: ('A' for Active; 'I' for Inactive)
REMARK    1  A    between atoms: C1_1  and  C7_7 
ROOT
HETATM    1  C2  UNL     1     -34.373   6.640   3.200  1.00 20.00     0.004 C 
HETATM    2  C3  UNL     1     -33.765   5.407   2.546  1.00 20.00     0.037 C 
HETATM    3  C4  UNL     1     -33.299   7.650   3.608  1.00 20.00     0.016 C 
HETATM    4  C5  UNL     1     -31.789   6.773   1.775  1.00 20.00     0.053 C 
HETATM    5  C6  UNL     1     -32.870   5.777   1.372  1.00 20.00     0.171 C 
HETATM    6  C7  UNL     1     -32.354   8.035   2.452  1.00 20.00     0.012 C 
HETATM    7  C8  UNL     1     -33.053   8.949   1.438  1.00 20.00     0.023 C 
HETATM    8  F10 UNL     1     -32.266   4.646   0.916  1.00 20.00    -0.249 F 
ENDROOT
BRANCH   6   9
HETATM    9  C1  UNL     1     -31.202   8.823   3.025  1.00 20.00     0.240 C 
HETATM   10  O9  UNL     1     -31.165   9.219   4.185  1.00 20.00    -0.306 OA
ENDBRANCH   6   9
TORSDOF 1
ENDMDL
MODEL 9
REMARK VINA RESULT:       1.7      2.990      3.745
REMARK  1 active torsions:
REMARK  status: ('A' for Active; 'I' for Inactive)
REMARK    1  A    between atoms: C1_1  and  C7_7 
ROOT
HETATM    1  C2  UNL     1     -33.465   6.886   3.720  1.00 20.00     0.004 C 
HETATM    2  C3  UNL     1     -33.147   8.260   3.147  1.00 20.00     0.037 C 
HETATM    3  C4  UNL     1     -33.913   5.910   2.630  1.00 20.00     0.016 C 
HETATM    4  C5  UNL     1     -32.575   7.215   0.923  1.00 20.00     0.053 C 
HETATM    5  C6  UNL     1     -32.129   8.176   2.019  1.00 20.00     0.171 C 
HETATM    6  C7  UNL     1     -32.921   5.813   1.454  1.00 20.00     0.012 C 
HETATM    7  C8  UNL     1     -31.658   5.037   1.851  1.00 20.00     0.023 C 
HETATM    8  F10 UNL     1     -31.984   9.415   1.474  1.00 20.00    -0.249 F 
ENDROOT
BRANCH   6   9
HETATM    9  C1  UNL     1     -33.578   5.032   0.344  1.00 20.00     0.240 C 
HETATM   10  O9  UNL     1     -33.034   4.101  -0.242  1.00 20.00    -0.306 OA
ENDBRANCH   6   9
TORSDOF 1
ENDMDL
