MODEL 1
REMARK VINA RESULT:      -1.4      0.000      0.000
REMARK  2 active torsions:
REMARK  status: ('A' for Active; 'I' for Inactive)
REMARK    1  A    between atoms: C1_1  and  C5_5 
REMARK    2  A    between atoms: C1_1  and  O10_10 
ROOT
HETATM    1  C2  UNL     1     -35.033   7.186   3.776  1.00 20.00     0.015 C 
HETATM    2  C3  UNL     1     -33.797   7.918   4.324  1.00 20.00     0.006 C 
HETATM    3  C4  UNL     1     -32.795   7.574   1.917  1.00 20.00     0.011 A 
HETATM    4  C5  UNL     1     -34.479   5.924   3.088  1.00 20.00     0.090 C 
HETATM    5  C6  UNL     1     -32.670   7.518   3.417  1.00 20.00    -0.009 A 
HETATM    6  C7  UNL     1     -33.082   6.297   2.665  1.00 20.00     0.004 A 
ENDROOT
BRANCH   4   7
HETATM    7  C1  UNL     1     -34.489   4.761   4.033  1.00 20.00     0.263 C 
HETATM    8  O9  UNL     1     -35.365   4.561   4.863  1.00 20.00    -0.265 OA
BRANCH   7   9
HETATM    9  O10 UNL     1     -33.385   3.991   3.818  1.00 20.00    -0.326 OA
HETATM   10  C8  UNL     1     -33.176   2.938   4.766  1.00 20.00     0.213 C 
ENDBRANCH   7   9
ENDBRANCH   4   7
TORSDOF 2
ENDMDL
MODEL 2
REMARK VINA RESULT:      -1.2      2.643      4.319
REMARK  2 active torsions:
REMARK  status: ('A' for Active; 'I' for Inactive)
REMARK    1  A    between atoms: C1_1  and  C5_5 
REMARK    2  A    between atoms: C1_1  and  O10_10 
ROOT
HETATM    1  C2  UNL     1     -33.320   5.960   1.704  1.00 20.00     0.015 C 
HETATM    2  C3  UNL     1     -33.187   5.112   2.979  1.00 20.00     0.006 C 
HETATM    3  C4  UNL     1     -35.339   6.386   3.791  1.00 20.00     0.011 A 
HETATM    4  C5  UNL     1     -33.506   7.406   2.201  1.00 20.00     0.090 C 
HETATM    5  C6  UNL     1     -33.947   5.864   4.031  1.00 20.00    -0.009 A 
HETATM    6  C7  UNL     1     -34.138   7.266   3.562  1.00 20.00     0.004 A 
ENDROOT
BRANCH   4   7
HETATM    7  C1  UNL     1     -32.187   8.114   2.264  1.00 20.00     0.263 C 
HETATM    8  O9  UNL     1     -31.596   8.371   3.304  1.00 20.00    -0.265 OA
BRANCH   7   9
HETATM    9  O10 UNL     1     -31.772   8.417   1.001  1.00 20.00    -0.326 OA
HETATM   10  C8  UNL     1     -32.342   9.602   0.435  1.00 20.00     0.213 C 
ENDBRANCH   7   9
ENDBRANCH   4   7
TORSDOF 2
ENDMDL
MODEL 3
REMARK VINA RESULT:      -0.8      2.218      3.813
REMARK  2 active torsions:
REMARK  status: ('A' for Active; 'I' for Inactive)
REMARK    1  A    between atoms: C1_1  and  C5_5 
REMARK    2  A    between atoms: C1_1  and  O10_10 
ROOT
HETATM    1  C2  UNL     1     -33.449   7.572   4.069  1.00 20.00     0.015 C 
HETATM    2  C3  UNL     1     -34.980   7.638   3.952  1.00 20.00     0.006 C 
HETATM    3  C4  UNL     1     -34.921   5.078   4.549  1.00 20.00     0.011 A 
HETATM    4  C5  UNL     1     -33.035   6.351   3.225  1.00 20.00     0.090 C 
HETATM    5  C6  UNL     1     -35.417   6.224   3.707  1.00 20.00    -0.009 A 
HETATM    6  C7  UNL     1     -34.232   5.437   3.258  1.00 20.00     0.004 A 
ENDROOT
BRANCH   4   7
HETATM    7  C1  UNL     1     -32.685   6.769   1.830  1.00 20.00     0.263 C 
HETATM    8  O9  UNL     1     -32.992   6.137   0.828  1.00 20.00    -0.265 OA
BRANCH   7   9
HETATM    9  O10 UNL     1     -31.985   7.938   1.867  1.00 20.00    -0.326 OA
HETATM   10  C8  UNL     1     -32.331   8.895   0.860  1.00 20.00     0.213 C 
ENDBRANCH   7   9
ENDBRANCH   4   7
TORSDOF 2
ENDMDL
MODEL 4
REMARK VINA RESULT:      -0.3      1.809      2.750
REMARK  2 active torsions:
REMARK  status: ('A' for Active; 'I' for Inactive)
REMARK    1  A    between atoms: C1_1  and  C5_5 
REMARK    2  A    between atoms: C1_1  and  O10_10 
ROOT
HETATM    1  C2  UNL     1     -33.006   8.098   1.698  1.00 20.00     0.015 C 
HETATM    2  C3  UNL     1     -31.565   7.571   1.790  1.00 20.00     0.006 C 
HETATM    3  C4  UNL     1     -32.513   5.405   0.638  1.00 20.00     0.011 A 
HETATM    4  C5  UNL     1     -33.885   6.963   2.258  1.00 20.00     0.090 C 
HETATM    5  C6  UNL     1     -31.686   6.078   1.702  1.00 20.00    -0.009 A 
HETATM    6  C7  UNL     1     -33.100   5.704   1.994  1.00 20.00     0.004 A 
ENDROOT
BRANCH   4   7
HETATM    7  C1  UNL     1     -34.142   7.168   3.720  1.00 20.00     0.263 C 
HETATM    8  O9  UNL     1     -33.415   7.819   4.458  1.00 20.00    -0.265 OA
BRANCH   7   9
HETATM    9  O10 UNL     1     -35.289   6.523   4.075  1.00 20.00    -0.326 OA
HETATM   10  C8  UNL     1     -35.128   5.158   4.474  1.00 20.00     0.213 C 
ENDBRANCH   7   9
ENDBRANCH   4   7
TORSDOF 2
ENDMDL
MODEL 5
REMARK VINA RESULT:      -0.3      2.160      3.355
REMARK  2 active torsions:
REMARK  status: ('A' for Active; 'I' for Inactive)
REMARK    1  A    between atoms: C1_1  and  C5_5 
REMARK    2  A    between atoms: C1_1  and  O10_10 
ROOT
HETATM    1  C2  UNL     1     -33.283   7.537   4.159  1.00 20.00     0.015 C 
HETATM    2  C3  UNL     1     -34.801   7.766   4.071  1.00 20.00     0.006 C 
HETATM    3  C4  UNL     1     -34.998   5.182   4.520  1.00 20.00     0.011 A 
HETATM    4  C5  UNL     1     -33.005   6.333   3.241  1.00 20.00     0.090 C 
HETATM    5  C6  UNL     1     -35.383   6.420   3.753  1.00 20.00    -0.009 A 
HETATM    6  C7  UNL     1     -34.289   5.545   3.240  1.00 20.00     0.004 A 
ENDROOT
BRANCH   4   7
HETATM    7  C1  UNL     1     -32.628   6.795   1.866  1.00 20.00     0.263 C 
HETATM    8  O9  UNL     1     -32.164   7.899   1.618  1.00 20.00    -0.265 OA
BRANCH   7   9
HETATM    9  O10 UNL     1     -32.887   5.804   0.966  1.00 20.00    -0.326 OA
HETATM   10  C8  UNL     1     -31.828   4.860   0.769  1.00 20.00     0.213 C 
ENDBRANCH   7   9
ENDBRANCH   4   7
TORSDOF 2
ENDMDL
MODEL 6
REMARK VINA RESULT:      -0.0      2.681      4.319
REMARK  2 active torsions:
REMARK  status: ('A' for Active; 'I' for Inactive)
REMARK    1  A    between atoms: C1_1  and  C5_5 
REMARK    2  A    between atoms: C1_1  and  O10_10 
ROOT
HETATM    1  C2  UNL     1     -31.199   8.354   0.311  1.00 20.00     0.015 C 
HETATM    2  C3  UNL     1     -32.163   8.836  -0.785  1.00 20.00     0.006 C 
HETATM    3  C4  UNL     1     -32.360  11.028   0.653  1.00 20.00     0.011 A 
HETATM    4  C5  UNL     1     -31.933   8.625   1.638  1.00 20.00     0.090 C 
HETATM    5  C6  UNL     1     -32.986   9.911  -0.139  1.00 20.00    -0.009 A 
HETATM    6  C7  UNL     1     -32.852   9.781   1.340  1.00 20.00     0.004 A 
ENDROOT
BRANCH   4   7
HETATM    7  C1  UNL     1     -32.686   7.407   2.080  1.00 20.00     0.263 C 
HETATM    8  O9  UNL     1     -32.668   6.337   1.486  1.00 20.00    -0.265 OA
BRANCH   7   9
HETATM    9  O10 UNL     1     -33.376   7.689   3.221  1.00 20.00    -0.326 OA
HETATM   10  C8  UNL     1     -34.342   6.707   3.614  1.00 20.00     0.213 C 
ENDBRANCH   7   9
ENDBRANCH   4   7
TORSDOF 2
ENDMDL
MODEL 7
REMARK VINA RESULT:      -0.0      1.268      1.993
REMARK  2 active torsions:
REMARK  status: ('A' for Active; 'I' for Inactive)
REMARK    1  A    between atoms: C1_1  and  C5_5 
REMARK    2  A    between atoms: C1_1  and  O10_10 
ROOT
HETATM    1  C2  UNL     1     -33.690   7.728   3.444  1.00 20.00     0.015 C 
HETATM    2  C3  UNL     1     -32.286   8.284   3.728  1.00 20.00     0.006 C 
HETATM    3  C4  UNL     1     -32.252   8.910   1.175  1.00 20.00     0.011 A 
HETATM    4  C5  UNL     1     -33.526   6.844   2.193  1.00 20.00     0.090 C 
HETATM    5  C6  UNL     1     -31.599   8.317   2.395  1.00 20.00    -0.009 A 
HETATM    6  C7  UNL     1     -32.351   7.433   1.458  1.00 20.00     0.004 A 
ENDROOT
BRANCH   4   7
HETATM    7  C1  UNL     1     -33.286   5.417   2.585  1.00 20.00     0.263 C 
HETATM    8  O9  UNL     1     -32.531   4.661   1.988  1.00 20.00    -0.265 OA
BRANCH   7   9
HETATM    9  O10 UNL     1     -34.031   5.116   3.685  1.00 20.00    -0.326 OA
HETATM   10  C8  UNL     1     -33.812   3.813   4.238  1.00 20.00     0.213 C 
ENDBRANCH   7   9
ENDBRANCH   4   7
TORSDOF 2
ENDMDL
MODEL 8
REMARK VINA RESULT:       0.0      1.164      2.072
REMARK  2 active torsions:
REMARK  status: ('A' for Active; 'I' for Inactive)
REMARK    1  A    between atoms: C1_1  and  C5_5 
REMARK    2  A    between atoms: C1_1  and  O10_10 
ROOT
HETATM    1  C2  UNL     1     -32.676   5.211   2.014  1.00 20.00     0.015 C 
HETATM    2  C3  UNL     1     -33.098   6.137   0.862  1.00 20.00     0.006 C 
HETATM    3  C4  UNL     1     -31.869   8.025   2.219  1.00 20.00     0.011 A 
HETATM    4  C5  UNL     1     -33.086   5.956   3.298  1.00 20.00     0.090 C 
HETATM    5  C6  UNL     1     -33.054   7.523   1.436  1.00 20.00    -0.009 A 
HETATM    6  C7  UNL     1     -33.053   7.415   2.924  1.00 20.00     0.004 A 
ENDROOT
BRANCH   4   7
HETATM    7  C1  UNL     1     -34.449   5.522   3.747  1.00 20.00     0.263 C 
HETATM    8  O9  UNL     1     -35.365   6.293   3.998  1.00 20.00    -0.265 OA
BRANCH   7   9
HETATM    9  O10 UNL     1     -34.489   4.162   3.827  1.00 20.00    -0.326 OA
HETATM   10  C8  UNL     1     -33.567   3.572   4.750  1.00 20.00     0.213 C 
ENDBRANCH   7   9
ENDBRANCH   4   7
TORSDOF 2
ENDMDL
MODEL 9
REMARK VINA RESULT:       0.1      3.406      4.901
REMARK  2 active torsions:
REMARK  status: ('A' for Active; 'I' for Inactive)
REMARK    1  A    between atoms: C1_1  and  C5_5 
REMARK    2  A    between atoms: C1_1  and  O10_10 
ROOT
HETATM    1  C2  UNL     1     -32.692   7.729   3.264  1.00 20.00     0.015 C 
HETATM    2  C3  UNL     1     -33.819   6.756   2.882  1.00 20.00     0.006 C 
HETATM    3  C4  UNL     1     -31.921   5.350   1.726  1.00 20.00     0.011 A 
HETATM    4  C5  UNL     1     -31.912   7.973   1.958  1.00 20.00     0.090 C 
HETATM    5  C6  UNL     1     -33.289   5.981   1.712  1.00 20.00    -0.009 A 
HETATM    6  C7  UNL     1     -32.128   6.725   1.143  1.00 20.00     0.004 A 
ENDROOT
BRANCH   4   7
HETATM    7  C1  UNL     1     -32.424   9.196   1.260  1.00 20.00     0.263 C 
HETATM    8  O9  UNL     1     -33.095  10.064   1.803  1.00 20.00    -0.265 OA
BRANCH   7   9
HETATM    9  O10 UNL     1     -32.029   9.174  -0.044  1.00 20.00    -0.326 OA
HETATM   10  C8  UNL     1     -32.686  10.114  -0.901  1.00 20.00     0.213 C 
ENDBRANCH   7   9
ENDBRANCH   4   7
TORSDOF 2
ENDMDL
