MODEL 1
REMARK VINA RESULT:      -1.3      0.000      0.000
REMARK  2 active torsions:
REMARK  status: ('A' for Active; 'I' for Inactive)
REMARK    1  A    between atoms: C5_5  and  O10_10 
REMARK    2  A    between atoms: C9_9  and  O10_10 
ROOT
HETATM    1  C1  UNL     1     -32.360   9.786   0.363  1.00 20.00     0.012 C 
HETATM    2  C2  UNL     1     -32.242   8.790   1.022  1.00 20.00    -0.110 C 
HETATM    3  C3  UNL     1     -32.017   6.271   1.105  1.00 20.00     0.053 A 
HETATM    4  C4  UNL     1     -32.100   7.600   1.807  1.00 20.00     0.095 A 
HETATM    5  C5  UNL     1     -33.255   6.634   1.874  1.00 20.00     0.139 A 
ENDROOT
BRANCH   5   6
HETATM    6  O10 UNL     1     -33.435   5.963   3.111  1.00 20.00    -0.375 OA
BRANCH   6   7
HETATM    7  C9  UNL     1     -34.585   6.452   3.803  1.00 20.00     0.050 C 
HETATM    8  C6  UNL     1     -35.185   5.307   4.617  1.00 20.00     0.045 C 
HETATM    9  C7  UNL     1     -34.124   7.580   4.722  1.00 20.00     0.045 C 
HETATM   10  C8  UNL     1     -35.587   6.973   2.773  1.00 20.00     0.045 C 
ENDBRANCH   6   7
ENDBRANCH   5   6
TORSDOF 2
ENDMDL
MODEL 2
REMARK VINA RESULT:      -1.2      0.011      1.378
REMARK  2 active torsions:
REMARK  status: ('A' for Active; 'I' for Inactive)
REMARK    1  A    between atoms: C5_5  and  O10_10 
REMARK    2  A    between atoms: C9_9  and  O10_10 
ROOT
HETATM    1  C1  UNL     1     -32.359   9.782   0.364  1.00 20.00     0.012 C 
HETATM    2  C2  UNL     1     -32.242   8.785   1.023  1.00 20.00    -0.110 C 
HETATM    3  C3  UNL     1     -32.023   6.266   1.105  1.00 20.00     0.053 A 
HETATM    4  C4  UNL     1     -32.103   7.595   1.808  1.00 20.00     0.095 A 
HETATM    5  C5  UNL     1     -33.260   6.631   1.874  1.00 20.00     0.139 A 
ENDROOT
BRANCH   5   6
HETATM    6  O10 UNL     1     -33.442   5.960   3.110  1.00 20.00    -0.375 OA
BRANCH   6   7
HETATM    7  C9  UNL     1     -34.581   6.464   3.811  1.00 20.00     0.050 C 
HETATM    8  C6  UNL     1     -35.591   6.981   2.788  1.00 20.00     0.045 C 
HETATM    9  C7  UNL     1     -35.174   5.309   4.615  1.00 20.00     0.045 C 
HETATM   10  C8  UNL     1     -34.122   7.587   4.740  1.00 20.00     0.045 C 
ENDBRANCH   6   7
ENDBRANCH   5   6
TORSDOF 2
ENDMDL
MODEL 3
REMARK VINA RESULT:      -1.2      0.013      1.376
REMARK  2 active torsions:
REMARK  status: ('A' for Active; 'I' for Inactive)
REMARK    1  A    between atoms: C5_5  and  O10_10 
REMARK    2  A    between atoms: C9_9  and  O10_10 
ROOT
HETATM    1  C1  UNL     1     -32.359   9.782   0.360  1.00 20.00     0.012 C 
HETATM    2  C2  UNL     1     -32.240   8.785   1.018  1.00 20.00    -0.110 C 
HETATM    3  C3  UNL     1     -32.018   6.267   1.099  1.00 20.00     0.053 A 
HETATM    4  C4  UNL     1     -32.098   7.595   1.803  1.00 20.00     0.095 A 
HETATM    5  C5  UNL     1     -33.254   6.630   1.870  1.00 20.00     0.139 A 
ENDROOT
BRANCH   5   6
HETATM    6  O10 UNL     1     -33.434   5.958   3.106  1.00 20.00    -0.375 OA
BRANCH   6   7
HETATM    7  C9  UNL     1     -34.571   6.462   3.810  1.00 20.00     0.050 C 
HETATM    8  C6  UNL     1     -34.113   7.595   4.726  1.00 20.00     0.045 C 
HETATM    9  C7  UNL     1     -35.563   6.979   2.770  1.00 20.00     0.045 C 
HETATM   10  C8  UNL     1     -35.186   5.320   4.619  1.00 20.00     0.045 C 
ENDBRANCH   6   7
ENDBRANCH   5   6
TORSDOF 2
ENDMDL
MODEL 4
REMARK VINA RESULT:      -0.8      1.375      4.476
REMARK  2 active torsions:
REMARK  status: ('A' for Active; 'I' for Inactive)
REMARK    1  A    between atoms: C5_5  and  O10_10 
REMARK    2  A    between atoms: C9_9  and  O10_10 
ROOT
HETATM    1  C1  UNL     1     -33.673   3.178   4.308  1.00 20.00     0.012 C 
HETATM    2  C2  UNL     1     -33.819   4.370   4.285  1.00 20.00    -0.110 C 
HETATM    3  C3  UNL     1     -35.252   6.356   3.653  1.00 20.00     0.053 A 
HETATM    4  C4  UNL     1     -33.994   5.791   4.256  1.00 20.00     0.095 A 
HETATM    5  C5  UNL     1     -33.945   6.501   2.927  1.00 20.00     0.139 A 
ENDROOT
BRANCH   5   6
HETATM    6  O10 UNL     1     -33.372   7.799   2.936  1.00 20.00    -0.375 OA
BRANCH   6   7
HETATM    7  C9  UNL     1     -32.281   7.890   2.018  1.00 20.00     0.050 C 
HETATM    8  C6  UNL     1     -32.620   8.941   0.963  1.00 20.00     0.045 C 
HETATM    9  C7  UNL     1     -31.045   8.306   2.813  1.00 20.00     0.045 C 
HETATM   10  C8  UNL     1     -32.071   6.519   1.375  1.00 20.00     0.045 C 
ENDBRANCH   6   7
ENDBRANCH   5   6
TORSDOF 2
ENDMDL
MODEL 5
REMARK VINA RESULT:      -0.7      1.379      4.486
REMARK  2 active torsions:
REMARK  status: ('A' for Active; 'I' for Inactive)
REMARK    1  A    between atoms: C5_5  and  O10_10 
REMARK    2  A    between atoms: C9_9  and  O10_10 
ROOT
HETATM    1  C1  UNL     1     -33.666   3.177   4.313  1.00 20.00     0.012 C 
HETATM    2  C2  UNL     1     -33.817   4.368   4.292  1.00 20.00    -0.110 C 
HETATM    3  C3  UNL     1     -35.258   6.350   3.662  1.00 20.00     0.053 A 
HETATM    4  C4  UNL     1     -33.998   5.789   4.266  1.00 20.00     0.095 A 
HETATM    5  C5  UNL     1     -33.951   6.501   2.938  1.00 20.00     0.139 A 
ENDROOT
BRANCH   5   6
HETATM    6  O10 UNL     1     -33.384   7.801   2.948  1.00 20.00    -0.375 OA
BRANCH   6   7
HETATM    7  C9  UNL     1     -32.285   7.894   2.040  1.00 20.00     0.050 C 
HETATM    8  C6  UNL     1     -32.078   6.529   1.386  1.00 20.00     0.045 C 
HETATM    9  C7  UNL     1     -32.643   8.945   0.991  1.00 20.00     0.045 C 
HETATM   10  C8  UNL     1     -31.043   8.318   2.823  1.00 20.00     0.045 C 
ENDBRANCH   6   7
ENDBRANCH   5   6
TORSDOF 2
ENDMDL
MODEL 6
REMARK VINA RESULT:      -0.1      1.157      1.893
REMARK  2 active torsions:
REMARK  status: ('A' for Active; 'I' for Inactive)
REMARK    1  A    between atoms: C5_5  and  O10_10 
REMARK    2  A    between atoms: C9_9  and  O10_10 
ROOT
HETATM    1  C1  UNL     1     -32.656  10.216  -0.392  1.00 20.00     0.012 C 
HETATM    2  C2  UNL     1     -32.416   9.586   0.602  1.00 20.00    -0.110 C 
HETATM    3  C3  UNL     1     -31.207   7.648   1.689  1.00 20.00     0.053 A 
HETATM    4  C4  UNL     1     -32.129   8.834   1.787  1.00 20.00     0.095 A 
HETATM    5  C5  UNL     1     -32.677   7.435   1.908  1.00 20.00     0.139 A 
ENDROOT
BRANCH   5   6
HETATM    6  O10 UNL     1     -33.058   7.026   3.211  1.00 20.00    -0.375 OA
BRANCH   6   7
HETATM    7  C9  UNL     1     -33.969   5.926   3.165  1.00 20.00     0.050 C 
HETATM    8  C6  UNL     1     -35.306   6.379   3.749  1.00 20.00     0.045 C 
HETATM    9  C7  UNL     1     -34.130   5.524   1.701  1.00 20.00     0.045 C 
HETATM   10  C8  UNL     1     -33.381   4.773   3.977  1.00 20.00     0.045 C 
ENDBRANCH   6   7
ENDBRANCH   5   6
TORSDOF 2
ENDMDL
MODEL 7
REMARK VINA RESULT:       1.0      1.868      4.391
REMARK  2 active torsions:
REMARK  status: ('A' for Active; 'I' for Inactive)
REMARK    1  A    between atoms: C5_5  and  O10_10 
REMARK    2  A    between atoms: C9_9  and  O10_10 
ROOT
HETATM    1  C1  UNL     1     -33.913   4.151   4.235  1.00 20.00     0.012 C 
HETATM    2  C2  UNL     1     -33.760   4.752   3.207  1.00 20.00    -0.110 C 
HETATM    3  C3  UNL     1     -32.242   5.389   1.285  1.00 20.00     0.053 A 
HETATM    4  C4  UNL     1     -33.576   5.468   1.980  1.00 20.00     0.095 A 
HETATM    5  C5  UNL     1     -32.654   6.661   1.968  1.00 20.00     0.139 A 
ENDROOT
BRANCH   5   6
HETATM    6  O10 UNL     1     -33.030   7.730   1.114  1.00 20.00    -0.375 OA
BRANCH   6   7
HETATM    7  C9  UNL     1     -32.071   8.788   1.154  1.00 20.00     0.050 C 
HETATM    8  C6  UNL     1     -32.808  10.117   1.002  1.00 20.00     0.045 C 
HETATM    9  C7  UNL     1     -31.364   8.717   2.506  1.00 20.00     0.045 C 
HETATM   10  C8  UNL     1     -31.074   8.583   0.014  1.00 20.00     0.045 C 
ENDBRANCH   6   7
ENDBRANCH   5   6
TORSDOF 2
ENDMDL
MODEL 8
REMARK VINA RESULT:       1.1      1.860      4.363
REMARK  2 active torsions:
REMARK  status: ('A' for Active; 'I' for Inactive)
REMARK    1  A    between atoms: C5_5  and  O10_10 
REMARK    2  A    between atoms: C9_9  and  O10_10 
ROOT
HETATM    1  C1  UNL     1     -33.946   4.199   4.255  1.00 20.00     0.012 C 
HETATM    2  C2  UNL     1     -33.773   4.776   3.217  1.00 20.00    -0.110 C 
HETATM    3  C3  UNL     1     -32.226   5.356   1.302  1.00 20.00     0.053 A 
HETATM    4  C4  UNL     1     -33.567   5.464   1.977  1.00 20.00     0.095 A 
HETATM    5  C5  UNL     1     -32.633   6.647   1.952  1.00 20.00     0.139 A 
ENDROOT
BRANCH   5   6
HETATM    6  O10 UNL     1     -32.987   7.701   1.071  1.00 20.00    -0.375 OA
BRANCH   6   7
HETATM    7  C9  UNL     1     -32.055   8.780   1.152  1.00 20.00     0.050 C 
HETATM    8  C6  UNL     1     -31.372   8.730   2.518  1.00 20.00     0.045 C 
HETATM    9  C7  UNL     1     -31.033   8.591   0.033  1.00 20.00     0.045 C 
HETATM   10  C8  UNL     1     -32.815  10.093   0.970  1.00 20.00     0.045 C 
ENDBRANCH   6   7
ENDBRANCH   5   6
TORSDOF 2
ENDMDL
MODEL 9
REMARK VINA RESULT:       1.1      2.001      2.654
REMARK  2 active torsions:
REMARK  status: ('A' for Active; 'I' for Inactive)
REMARK    1  A    between atoms: C5_5  and  O10_10 
REMARK    2  A    between atoms: C9_9  and  O10_10 
ROOT
HETATM    1  C1  UNL     1     -32.366  10.504  -0.671  1.00 20.00     0.012 C 
HETATM    2  C2  UNL     1     -32.452   9.853   0.335  1.00 20.00    -0.110 C 
HETATM    3  C3  UNL     1     -31.291   8.573   2.183  1.00 20.00     0.053 A 
HETATM    4  C4  UNL     1     -32.553   9.077   1.534  1.00 20.00     0.095 A 
HETATM    5  C5  UNL     1     -32.205   7.611   1.481  1.00 20.00     0.139 A 
ENDROOT
BRANCH   5   6
HETATM    6  O10 UNL     1     -32.970   6.759   2.318  1.00 20.00    -0.375 OA
BRANCH   6   7
HETATM    7  C9  UNL     1     -32.960   5.414   1.836  1.00 20.00     0.050 C 
HETATM    8  C6  UNL     1     -31.513   5.006   1.564  1.00 20.00     0.045 C 
HETATM    9  C7  UNL     1     -33.571   4.532   2.923  1.00 20.00     0.045 C 
HETATM   10  C8  UNL     1     -33.795   5.349   0.558  1.00 20.00     0.045 C 
ENDBRANCH   6   7
ENDBRANCH   5   6
TORSDOF 2
ENDMDL
