MODEL 1
REMARK VINA RESULT:      -0.7      0.000      0.000
REMARK  1 active torsions:
REMARK  status: ('A' for Active; 'I' for Inactive)
REMARK    1  A    between atoms: C3_3  and  N6_6 
ROOT
HETATM    1  C1  UNL     1     -33.015   6.108   2.130  1.00 20.00     0.216 C 
HETATM    2  C4  UNL     1     -33.750   7.848   3.448  1.00 20.00     0.158 C 
HETATM    3  C5  UNL     1     -34.377   6.548   3.898  1.00 20.00     0.198 C 
HETATM    4  N6  UNL     1     -32.812   7.435   2.447  1.00 20.00    -0.327 N 
HETATM    5  O7  UNL     1     -34.000   5.573   2.911  1.00 20.00    -0.325 OA
HETATM    6  S8  UNL     1     -32.296   5.120   1.007  1.00 20.00    -0.033 SA
ENDROOT
BRANCH   4   7
HETATM    7  C3  UNL     1     -31.915   8.302   1.894  1.00 20.00     0.083 C 
HETATM    8  C2  UNL     1     -32.210   9.087   0.856  1.00 20.00     0.030 C 
ENDBRANCH   4   7
TORSDOF 1
ENDMDL
MODEL 2
REMARK VINA RESULT:      -0.6      2.465      3.742
REMARK  1 active torsions:
REMARK  status: ('A' for Active; 'I' for Inactive)
REMARK    1  A    between atoms: C3_3  and  N6_6 
ROOT
HETATM    1  C1  UNL     1     -33.608   5.700   2.885  1.00 20.00     0.216 C 
HETATM    2  C4  UNL     1     -35.060   5.153   4.588  1.00 20.00     0.158 C 
HETATM    3  C5  UNL     1     -35.418   6.501   4.005  1.00 20.00     0.198 C 
HETATM    4  N6  UNL     1     -34.021   4.683   3.721  1.00 20.00    -0.327 N 
HETATM    5  O7  UNL     1     -34.358   6.823   3.090  1.00 20.00    -0.325 OA
HETATM    6  S8  UNL     1     -32.406   5.768   1.743  1.00 20.00    -0.033 SA
ENDROOT
BRANCH   4   7
HETATM    7  C3  UNL     1     -33.525   3.415   3.809  1.00 20.00     0.083 C 
HETATM    8  C2  UNL     1     -33.090   2.884   4.954  1.00 20.00     0.030 C 
ENDBRANCH   4   7
TORSDOF 1
ENDMDL
MODEL 3
REMARK VINA RESULT:      -0.5      2.466      3.847
REMARK  1 active torsions:
REMARK  status: ('A' for Active; 'I' for Inactive)
REMARK    1  A    between atoms: C3_3  and  N6_6 
ROOT
HETATM    1  C1  UNL     1     -33.334   7.250   3.420  1.00 20.00     0.216 C 
HETATM    2  C4  UNL     1     -33.014   5.709   1.737  1.00 20.00     0.158 C 
HETATM    3  C5  UNL     1     -32.147   6.926   1.506  1.00 20.00     0.198 C 
HETATM    4  N6  UNL     1     -33.591   5.953   3.026  1.00 20.00    -0.327 N 
HETATM    5  O7  UNL     1     -32.553   7.885   2.497  1.00 20.00    -0.325 OA
HETATM    6  S8  UNL     1     -33.805   8.109   4.759  1.00 20.00    -0.033 SA
ENDROOT
BRANCH   4   7
HETATM    7  C3  UNL     1     -34.324   5.007   3.681  1.00 20.00     0.083 C 
HETATM    8  C2  UNL     1     -33.793   3.879   4.159  1.00 20.00     0.030 C 
ENDBRANCH   4   7
TORSDOF 1
ENDMDL
MODEL 4
REMARK VINA RESULT:      -0.5      1.408      2.883
REMARK  1 active torsions:
REMARK  status: ('A' for Active; 'I' for Inactive)
REMARK    1  A    between atoms: C3_3  and  N6_6 
ROOT
HETATM    1  C1  UNL     1     -32.547   6.262   1.762  1.00 20.00     0.216 C 
HETATM    2  C4  UNL     1     -33.091   7.874   3.315  1.00 20.00     0.158 C 
HETATM    3  C5  UNL     1     -32.174   8.449   2.260  1.00 20.00     0.198 C 
HETATM    4  N6  UNL     1     -33.375   6.558   2.825  1.00 20.00    -0.327 N 
HETATM    5  O7  UNL     1     -31.757   7.333   1.457  1.00 20.00    -0.325 OA
HETATM    6  S8  UNL     1     -32.368   4.883   0.856  1.00 20.00    -0.033 SA
ENDROOT
BRANCH   4   7
HETATM    7  C3  UNL     1     -34.306   5.753   3.414  1.00 20.00     0.083 C 
HETATM    8  C2  UNL     1     -35.372   6.229   4.062  1.00 20.00     0.030 C 
ENDBRANCH   4   7
TORSDOF 1
ENDMDL
MODEL 5
REMARK VINA RESULT:      -0.4      1.798      2.319
REMARK  1 active torsions:
REMARK  status: ('A' for Active; 'I' for Inactive)
REMARK    1  A    between atoms: C3_3  and  N6_6 
ROOT
HETATM    1  C1  UNL     1     -33.304   6.983   2.879  1.00 20.00     0.216 C 
HETATM    2  C4  UNL     1     -31.993   6.376   1.085  1.00 20.00     0.158 C 
HETATM    3  C5  UNL     1     -32.851   5.212   1.526  1.00 20.00     0.198 C 
HETATM    4  N6  UNL     1     -32.464   7.460   1.894  1.00 20.00    -0.327 N 
HETATM    5  O7  UNL     1     -33.484   5.636   2.744  1.00 20.00    -0.325 OA
HETATM    6  S8  UNL     1     -34.077   7.747   4.133  1.00 20.00    -0.033 SA
ENDROOT
BRANCH   4   7
HETATM    7  C3  UNL     1     -32.052   8.745   1.692  1.00 20.00     0.083 C 
HETATM    8  C2  UNL     1     -32.320   9.427   0.576  1.00 20.00     0.030 C 
ENDBRANCH   4   7
TORSDOF 1
ENDMDL
MODEL 6
REMARK VINA RESULT:      -0.4      1.971      2.617
REMARK  1 active torsions:
REMARK  status: ('A' for Active; 'I' for Inactive)
REMARK    1  A    between atoms: C3_3  and  N6_6 
ROOT
HETATM    1  C1  UNL     1     -32.856   7.538   2.495  1.00 20.00     0.216 C 
HETATM    2  C4  UNL     1     -34.166   5.854   3.361  1.00 20.00     0.158 C 
HETATM    3  C5  UNL     1     -34.388   7.138   4.127  1.00 20.00     0.198 C 
HETATM    4  N6  UNL     1     -33.314   6.255   2.281  1.00 20.00    -0.327 N 
HETATM    5  O7  UNL     1     -33.405   8.061   3.631  1.00 20.00    -0.325 OA
HETATM    6  S8  UNL     1     -31.796   8.487   1.639  1.00 20.00    -0.033 SA
ENDROOT
BRANCH   4   7
HETATM    7  C3  UNL     1     -33.002   5.412   1.255  1.00 20.00     0.083 C 
HETATM    8  C2  UNL     1     -31.768   4.946   1.048  1.00 20.00     0.030 C 
ENDBRANCH   4   7
TORSDOF 1
ENDMDL
MODEL 7
REMARK VINA RESULT:      -0.3      2.062      2.920
REMARK  1 active torsions:
REMARK  status: ('A' for Active; 'I' for Inactive)
REMARK    1  A    between atoms: C3_3  and  N6_6 
ROOT
HETATM    1  C1  UNL     1     -33.815   6.912   3.334  1.00 20.00     0.216 C 
HETATM    2  C4  UNL     1     -32.079   7.714   2.050  1.00 20.00     0.158 C 
HETATM    3  C5  UNL     1     -32.234   8.547   3.302  1.00 20.00     0.198 C 
HETATM    4  N6  UNL     1     -33.009   6.642   2.247  1.00 20.00    -0.327 N 
HETATM    5  O7  UNL     1     -33.440   8.082   3.931  1.00 20.00    -0.325 OA
HETATM    6  S8  UNL     1     -35.100   6.088   3.984  1.00 20.00    -0.033 SA
ENDROOT
BRANCH   4   7
HETATM    7  C3  UNL     1     -33.067   5.570   1.405  1.00 20.00     0.083 C 
HETATM    8  C2  UNL     1     -31.980   5.006   0.873  1.00 20.00     0.030 C 
ENDBRANCH   4   7
TORSDOF 1
ENDMDL
MODEL 8
REMARK VINA RESULT:      -0.2      2.157      2.495
REMARK  1 active torsions:
REMARK  status: ('A' for Active; 'I' for Inactive)
REMARK    1  A    between atoms: C3_3  and  N6_6 
ROOT
HETATM    1  C1  UNL     1     -34.020   4.505   3.905  1.00 20.00     0.216 C 
HETATM    2  C4  UNL     1     -34.700   6.564   3.128  1.00 20.00     0.158 C 
HETATM    3  C5  UNL     1     -35.525   6.158   4.328  1.00 20.00     0.198 C 
HETATM    4  N6  UNL     1     -33.703   5.539   3.049  1.00 20.00    -0.327 N 
HETATM    5  O7  UNL     1     -35.148   4.801   4.616  1.00 20.00    -0.325 OA
HETATM    6  S8  UNL     1     -33.291   3.041   4.183  1.00 20.00    -0.033 SA
ENDROOT
BRANCH   4   7
HETATM    7  C3  UNL     1     -32.650   5.620   2.184  1.00 20.00     0.083 C 
HETATM    8  C2  UNL     1     -32.253   6.767   1.629  1.00 20.00     0.030 C 
ENDBRANCH   4   7
TORSDOF 1
ENDMDL
MODEL 9
REMARK VINA RESULT:      -0.1      2.021      3.232
REMARK  1 active torsions:
REMARK  status: ('A' for Active; 'I' for Inactive)
REMARK    1  A    between atoms: C3_3  and  N6_6 
ROOT
HETATM    1  C1  UNL     1     -32.450   7.372   1.822  1.00 20.00     0.216 C 
HETATM    2  C4  UNL     1     -33.250   5.290   2.396  1.00 20.00     0.158 C 
HETATM    3  C5  UNL     1     -32.065   5.159   1.466  1.00 20.00     0.198 C 
HETATM    4  N6  UNL     1     -33.304   6.696   2.668  1.00 20.00    -0.327 N 
HETATM    5  O7  UNL     1     -31.763   6.495   1.031  1.00 20.00    -0.325 OA
HETATM    6  S8  UNL     1     -32.151   8.992   1.623  1.00 20.00    -0.033 SA
ENDROOT
BRANCH   4   7
HETATM    7  C3  UNL     1     -34.147   7.219   3.605  1.00 20.00     0.083 C 
HETATM    8  C2  UNL     1     -35.203   6.556   4.082  1.00 20.00     0.030 C 
ENDBRANCH   4   7
TORSDOF 1
ENDMDL
