MODEL 1
REMARK VINA RESULT:       3.2      0.000      0.000
REMARK  1 active torsions:
REMARK  status: ('A' for Active; 'I' for Inactive)
REMARK    1  A    between atoms: C3_3  and  C6_6 
ROOT
HETATM    1  C1  UNL     1     -31.546   7.242   1.654  1.00 20.00    -0.029 C 
HETATM    2  C2  UNL     1     -32.195   8.230   2.280  1.00 20.00    -0.021 C 
HETATM    3  C4  UNL     1     -32.150   5.909   1.951  1.00 20.00     0.046 C 
HETATM    4  C5  UNL     1     -33.335   7.714   3.126  1.00 20.00    -0.015 C 
HETATM    5  C6  UNL     1     -33.547   6.285   2.504  1.00 20.00     0.046 C 
HETATM    6  C7  UNL     1     -34.556   8.637   3.023  1.00 20.00     0.020 C 
HETATM    7  C8  UNL     1     -32.863   7.682   4.594  1.00 20.00     0.020 C 
HETATM    8  C9  UNL     1     -34.572   6.243   1.352  1.00 20.00     0.026 C 
ENDROOT
BRANCH   5   9
HETATM    9  C3  UNL     1     -34.003   5.278   3.527  1.00 20.00     0.228 C 
HETATM   10  O10 UNL     1     -33.355   4.262   3.765  1.00 20.00    -0.279 OA
HETATM   11 CL11 UNL     1     -35.499   5.741   4.280  1.00 20.00    -0.043 Cl
ENDBRANCH   5   9
TORSDOF 1
ENDMDL
MODEL 2
REMARK VINA RESULT:       3.2      1.945      2.649
REMARK  1 active torsions:
REMARK  status: ('A' for Active; 'I' for Inactive)
REMARK    1  A    between atoms: C3_3  and  C6_6 
ROOT
HETATM    1  C1  UNL     1     -32.702   8.226   4.475  1.00 20.00    -0.029 C 
HETATM    2  C2  UNL     1     -33.934   7.710   4.533  1.00 20.00    -0.021 C 
HETATM    3  C4  UNL     1     -31.950   7.728   3.284  1.00 20.00     0.046 C 
HETATM    4  C5  UNL     1     -34.205   6.755   3.394  1.00 20.00    -0.015 C 
HETATM    5  C6  UNL     1     -33.077   7.171   2.381  1.00 20.00     0.046 C 
HETATM    6  C7  UNL     1     -35.633   6.929   2.860  1.00 20.00     0.020 C 
HETATM    7  C8  UNL     1     -34.051   5.317   3.932  1.00 20.00     0.020 C 
HETATM    8  C9  UNL     1     -33.501   8.262   1.376  1.00 20.00     0.026 C 
ENDROOT
BRANCH   5   9
HETATM    9  C3  UNL     1     -32.580   6.003   1.568  1.00 20.00     0.228 C 
HETATM   10  O10 UNL     1     -31.477   5.501   1.769  1.00 20.00    -0.279 OA
HETATM   11 CL11 UNL     1     -33.734   5.500   0.371  1.00 20.00    -0.043 Cl
ENDBRANCH   5   9
TORSDOF 1
ENDMDL
MODEL 3
REMARK VINA RESULT:       3.3      1.562      1.903
REMARK  1 active torsions:
REMARK  status: ('A' for Active; 'I' for Inactive)
REMARK    1  A    between atoms: C3_3  and  C6_6 
ROOT
HETATM    1  C1  UNL     1     -31.642   5.493   1.505  1.00 20.00    -0.029 C 
HETATM    2  C2  UNL     1     -31.399   6.780   1.235  1.00 20.00    -0.021 C 
HETATM    3  C4  UNL     1     -32.795   5.333   2.441  1.00 20.00     0.046 C 
HETATM    4  C5  UNL     1     -32.342   7.703   1.971  1.00 20.00    -0.015 C 
HETATM    5  C6  UNL     1     -33.500   6.708   2.349  1.00 20.00     0.046 C 
HETATM    6  C7  UNL     1     -32.777   8.871   1.075  1.00 20.00     0.020 C 
HETATM    7  C8  UNL     1     -31.594   8.271   3.194  1.00 20.00     0.020 C 
HETATM    8  C9  UNL     1     -34.629   6.625   1.301  1.00 20.00     0.026 C 
ENDROOT
BRANCH   5   9
HETATM    9  C3  UNL     1     -34.151   7.062   3.660  1.00 20.00     0.228 C 
HETATM   10  O10 UNL     1     -33.833   8.069   4.288  1.00 20.00    -0.279 OA
HETATM   11 CL11 UNL     1     -35.353   5.898   4.129  1.00 20.00    -0.043 Cl
ENDBRANCH   5   9
TORSDOF 1
ENDMDL
MODEL 4
REMARK VINA RESULT:       3.5      2.874      3.743
REMARK  1 active torsions:
REMARK  status: ('A' for Active; 'I' for Inactive)
REMARK    1  A    between atoms: C3_3  and  C6_6 
ROOT
HETATM    1  C1  UNL     1     -32.955   5.664   1.848  1.00 20.00    -0.029 C 
HETATM    2  C2  UNL     1     -33.331   6.168   3.028  1.00 20.00    -0.021 C 
HETATM    3  C4  UNL     1     -32.535   6.738   0.898  1.00 20.00     0.046 C 
HETATM    4  C5  UNL     1     -33.247   7.676   3.055  1.00 20.00    -0.015 C 
HETATM    5  C6  UNL     1     -32.291   7.945   1.837  1.00 20.00     0.046 C 
HETATM    6  C7  UNL     1     -32.710   8.172   4.404  1.00 20.00     0.020 C 
HETATM    7  C8  UNL     1     -34.671   8.236   2.856  1.00 20.00     0.020 C 
HETATM    8  C9  UNL     1     -30.795   7.999   2.208  1.00 20.00     0.026 C 
ENDROOT
BRANCH   5   9
HETATM    9  C3  UNL     1     -32.610   9.239   1.134  1.00 20.00     0.228 C 
HETATM   10  O10 UNL     1     -32.793  10.282   1.756  1.00 20.00    -0.279 OA
HETATM   11 CL11 UNL     1     -32.678   9.048  -0.591  1.00 20.00    -0.043 Cl
ENDBRANCH   5   9
TORSDOF 1
ENDMDL
MODEL 5
REMARK VINA RESULT:       3.8      1.442      2.830
REMARK  1 active torsions:
REMARK  status: ('A' for Active; 'I' for Inactive)
REMARK    1  A    between atoms: C3_3  and  C6_6 
ROOT
HETATM    1  C1  UNL     1     -32.713   8.757   1.602  1.00 20.00    -0.029 C 
HETATM    2  C2  UNL     1     -32.097   7.630   1.229  1.00 20.00    -0.021 C 
HETATM    3  C4  UNL     1     -33.804   8.490   2.587  1.00 20.00     0.046 C 
HETATM    4  C5  UNL     1     -32.694   6.410   1.890  1.00 20.00    -0.015 C 
HETATM    5  C6  UNL     1     -33.461   7.067   3.095  1.00 20.00     0.046 C 
HETATM    6  C7  UNL     1     -31.599   5.417   2.302  1.00 20.00     0.020 C 
HETATM    7  C8  UNL     1     -33.625   5.722   0.869  1.00 20.00     0.020 C 
HETATM    8  C9  UNL     1     -32.627   7.182   4.388  1.00 20.00     0.026 C 
ENDROOT
BRANCH   5   9
HETATM    9  C3  UNL     1     -34.716   6.314   3.454  1.00 20.00     0.228 C 
HETATM   10  O10 UNL     1     -35.830   6.811   3.312  1.00 20.00    -0.279 OA
HETATM   11 CL11 UNL     1     -34.372   4.724   4.065  1.00 20.00    -0.043 Cl
ENDBRANCH   5   9
TORSDOF 1
ENDMDL
MODEL 6
REMARK VINA RESULT:       3.8      1.970      3.325
REMARK  1 active torsions:
REMARK  status: ('A' for Active; 'I' for Inactive)
REMARK    1  A    between atoms: C3_3  and  C6_6 
ROOT
HETATM    1  C1  UNL     1     -33.898   4.134   3.861  1.00 20.00    -0.029 C 
HETATM    2  C2  UNL     1     -33.653   4.151   2.546  1.00 20.00    -0.021 C 
HETATM    3  C4  UNL     1     -33.822   5.503   4.454  1.00 20.00     0.046 C 
HETATM    4  C5  UNL     1     -33.346   5.543   2.043  1.00 20.00    -0.015 C 
HETATM    5  C6  UNL     1     -33.931   6.419   3.210  1.00 20.00     0.046 C 
HETATM    6  C7  UNL     1     -34.000   5.789   0.677  1.00 20.00     0.020 C 
HETATM    7  C8  UNL     1     -31.816   5.666   1.887  1.00 20.00     0.020 C 
HETATM    8  C9  UNL     1     -35.405   6.829   3.015  1.00 20.00     0.026 C 
ENDROOT
BRANCH   5   9
HETATM    9  C3  UNL     1     -33.151   7.691   3.416  1.00 20.00     0.228 C 
HETATM   10  O10 UNL     1     -32.559   8.241   2.491  1.00 20.00    -0.279 OA
HETATM   11 CL11 UNL     1     -33.209   8.236   5.064  1.00 20.00    -0.043 Cl
ENDBRANCH   5   9
TORSDOF 1
ENDMDL
MODEL 7
REMARK VINA RESULT:       3.9      2.315      3.249
REMARK  1 active torsions:
REMARK  status: ('A' for Active; 'I' for Inactive)
REMARK    1  A    between atoms: C3_3  and  C6_6 
ROOT
HETATM    1  C1  UNL     1     -34.223   7.338   3.790  1.00 20.00    -0.029 C 
HETATM    2  C2  UNL     1     -33.154   8.075   3.467  1.00 20.00    -0.021 C 
HETATM    3  C4  UNL     1     -34.412   6.195   2.847  1.00 20.00     0.046 C 
HETATM    4  C5  UNL     1     -32.460   7.556   2.229  1.00 20.00    -0.015 C 
HETATM    5  C6  UNL     1     -33.029   6.092   2.158  1.00 20.00     0.046 C 
HETATM    6  C7  UNL     1     -30.935   7.637   2.381  1.00 20.00     0.020 C 
HETATM    7  C8  UNL     1     -32.885   8.441   1.039  1.00 20.00     0.020 C 
HETATM    8  C9  UNL     1     -32.174   5.045   2.901  1.00 20.00     0.026 C 
ENDROOT
BRANCH   5   9
HETATM    9  C3  UNL     1     -33.175   5.605   0.740  1.00 20.00     0.228 C 
HETATM   10  O10 UNL     1     -34.155   5.893   0.057  1.00 20.00    -0.279 OA
HETATM   11 CL11 UNL     1     -31.828   4.627   0.241  1.00 20.00    -0.043 Cl
ENDBRANCH   5   9
TORSDOF 1
ENDMDL
MODEL 8
REMARK VINA RESULT:       4.0      2.643      3.762
REMARK  1 active torsions:
REMARK  status: ('A' for Active; 'I' for Inactive)
REMARK    1  A    between atoms: C3_3  and  C6_6 
ROOT
HETATM    1  C1  UNL     1     -34.149   6.575   3.855  1.00 20.00    -0.029 C 
HETATM    2  C2  UNL     1     -34.119   5.814   2.756  1.00 20.00    -0.021 C 
HETATM    3  C4  UNL     1     -33.183   7.710   3.768  1.00 20.00     0.046 C 
HETATM    4  C5  UNL     1     -33.101   6.306   1.752  1.00 20.00    -0.015 C 
HETATM    5  C6  UNL     1     -32.876   7.780   2.252  1.00 20.00     0.046 C 
HETATM    6  C7  UNL     1     -33.645   6.198   0.322  1.00 20.00     0.020 C 
HETATM    7  C8  UNL     1     -31.847   5.416   1.872  1.00 20.00     0.020 C 
HETATM    8  C9  UNL     1     -33.811   8.818   1.598  1.00 20.00     0.026 C 
ENDROOT
BRANCH   5   9
HETATM    9  C3  UNL     1     -31.466   8.254   2.014  1.00 20.00     0.228 C 
HETATM   10  O10 UNL     1     -30.641   8.304   2.923  1.00 20.00    -0.279 OA
HETATM   11 CL11 UNL     1     -31.196   8.698   0.357  1.00 20.00    -0.043 Cl
ENDBRANCH   5   9
TORSDOF 1
ENDMDL
MODEL 9
REMARK VINA RESULT:       4.3      2.726      3.581
REMARK  1 active torsions:
REMARK  status: ('A' for Active; 'I' for Inactive)
REMARK    1  A    between atoms: C3_3  and  C6_6 
ROOT
HETATM    1  C1  UNL     1     -32.969   5.449   2.154  1.00 20.00    -0.029 C 
HETATM    2  C2  UNL     1     -33.342   6.112   3.254  1.00 20.00    -0.021 C 
HETATM    3  C4  UNL     1     -32.566   6.380   1.058  1.00 20.00     0.046 C 
HETATM    4  C5  UNL     1     -33.272   7.610   3.066  1.00 20.00    -0.015 C 
HETATM    5  C6  UNL     1     -32.327   7.711   1.813  1.00 20.00     0.046 C 
HETATM    6  C7  UNL     1     -32.730   8.297   4.326  1.00 20.00     0.020 C 
HETATM    7  C8  UNL     1     -34.703   8.123   2.801  1.00 20.00     0.020 C 
HETATM    8  C9  UNL     1     -30.829   7.829   2.161  1.00 20.00     0.026 C 
ENDROOT
BRANCH   5   9
HETATM    9  C3  UNL     1     -32.663   8.889   0.937  1.00 20.00     0.228 C 
HETATM   10  O10 UNL     1     -32.988   8.746  -0.240  1.00 20.00    -0.279 OA
HETATM   11 CL11 UNL     1     -32.532  10.397   1.788  1.00 20.00    -0.043 Cl
ENDBRANCH   5   9
TORSDOF 1
ENDMDL
