MODEL 1
REMARK VINA RESULT:       0.3      0.000      0.000
REMARK  2 active torsions:
REMARK  status: ('A' for Active; 'I' for Inactive)
REMARK    1  A    between atoms: C6_6  and  C7_7 
REMARK    2  A    between atoms: C6_6  and  N8_8 
ROOT
HETATM    1  C1  UNL     1     -33.057   6.325   1.307  1.00 20.00     0.283 C 
HETATM    2  C2  UNL     1     -31.798   7.165   1.481  1.00 20.00     0.105 C 
HETATM    3  C3  UNL     1     -33.656   7.353   3.339  1.00 20.00     0.346 C 
HETATM    4  N8  UNL     1     -33.680   6.074   2.618  1.00 20.00     0.098 N 
HETATM    5  S9  UNL     1     -32.228   8.333   2.790  1.00 20.00    -0.138 SA
ENDROOT
BRANCH   4   6
HETATM    6  C6  UNL     1     -32.983   5.022   3.358  1.00 20.00     0.277 C 
BRANCH   6   7
HETATM    7  C7  UNL     1     -33.962   4.005   3.959  1.00 20.00     0.006 C 
HETATM    8  C4  UNL     1     -33.261   2.982   4.853  1.00 20.00     0.011 C 
HETATM    9  C5  UNL     1     -35.105   4.685   4.713  1.00 20.00     0.011 C 
ENDBRANCH   6   7
ENDBRANCH   4   6
TORSDOF 2
ENDMDL
MODEL 2
REMARK VINA RESULT:       0.6      2.362      4.913
REMARK  2 active torsions:
REMARK  status: ('A' for Active; 'I' for Inactive)
REMARK    1  A    between atoms: C6_6  and  C7_7 
REMARK    2  A    between atoms: C6_6  and  N8_8 
ROOT
HETATM    1  C1  UNL     1     -32.136   6.304   1.840  1.00 20.00     0.283 C 
HETATM    2  C2  UNL     1     -33.462   5.573   2.016  1.00 20.00     0.105 C 
HETATM    3  C3  UNL     1     -33.066   7.746   3.451  1.00 20.00     0.346 C 
HETATM    4  N8  UNL     1     -32.290   7.722   2.205  1.00 20.00     0.098 N 
HETATM    5  S9  UNL     1     -34.170   6.305   3.509  1.00 20.00    -0.138 SA
ENDROOT
BRANCH   4   6
HETATM    6  C6  UNL     1     -32.946   8.487   1.144  1.00 20.00     0.277 C 
BRANCH   6   7
HETATM    7  C7  UNL     1     -32.017   9.560   0.560  1.00 20.00     0.006 C 
HETATM    8  C4  UNL     1     -31.038   8.985  -0.464  1.00 20.00     0.011 C 
HETATM    9  C5  UNL     1     -32.799  10.730  -0.041  1.00 20.00     0.011 C 
ENDBRANCH   6   7
ENDBRANCH   4   6
TORSDOF 2
ENDMDL
MODEL 3
REMARK VINA RESULT:       1.2      1.739      2.645
REMARK  2 active torsions:
REMARK  status: ('A' for Active; 'I' for Inactive)
REMARK    1  A    between atoms: C6_6  and  C7_7 
REMARK    2  A    between atoms: C6_6  and  N8_8 
ROOT
HETATM    1  C1  UNL     1     -32.234   8.387   2.822  1.00 20.00     0.283 C 
HETATM    2  C2  UNL     1     -32.827   9.421   1.872  1.00 20.00     0.105 C 
HETATM    3  C3  UNL     1     -31.619   7.336   0.806  1.00 20.00     0.346 C 
HETATM    4  N8  UNL     1     -32.149   7.078   2.152  1.00 20.00     0.098 N 
HETATM    5  S9  UNL     1     -32.117   8.997   0.265  1.00 20.00    -0.138 SA
ENDROOT
BRANCH   4   6
HETATM    6  C6  UNL     1     -33.448   6.408   2.103  1.00 20.00     0.277 C 
BRANCH   6   7
HETATM    7  C7  UNL     1     -33.932   6.002   3.501  1.00 20.00     0.006 C 
HETATM    8  C4  UNL     1     -35.325   6.549   3.816  1.00 20.00     0.011 C 
HETATM    9  C5  UNL     1     -33.891   4.487   3.705  1.00 20.00     0.011 C 
ENDBRANCH   6   7
ENDBRANCH   4   6
TORSDOF 2
ENDMDL
MODEL 4
REMARK VINA RESULT:       1.2      2.368      3.207
REMARK  2 active torsions:
REMARK  status: ('A' for Active; 'I' for Inactive)
REMARK    1  A    between atoms: C6_6  and  C7_7 
REMARK    2  A    between atoms: C6_6  and  N8_8 
ROOT
HETATM    1  C1  UNL     1     -32.600   9.614   1.928  1.00 20.00     0.283 C 
HETATM    2  C2  UNL     1     -32.696   9.621   0.407  1.00 20.00     0.105 C 
HETATM    3  C3  UNL     1     -31.182   7.778   1.525  1.00 20.00     0.346 C 
HETATM    4  N8  UNL     1     -32.253   8.264   2.404  1.00 20.00     0.098 N 
HETATM    5  S9  UNL     1     -31.361   8.525  -0.121  1.00 20.00    -0.138 SA
ENDROOT
BRANCH   4   6
HETATM    6  C6  UNL     1     -33.411   7.369   2.392  1.00 20.00     0.277 C 
BRANCH   6   7
HETATM    7  C7  UNL     1     -34.261   7.523   3.660  1.00 20.00     0.006 C 
HETATM    8  C4  UNL     1     -35.082   6.269   3.964  1.00 20.00     0.011 C 
HETATM    9  C5  UNL     1     -33.418   7.921   4.872  1.00 20.00     0.011 C 
ENDBRANCH   6   7
ENDBRANCH   4   6
TORSDOF 2
ENDMDL
MODEL 5
REMARK VINA RESULT:       1.2      2.347      5.044
REMARK  2 active torsions:
REMARK  status: ('A' for Active; 'I' for Inactive)
REMARK    1  A    between atoms: C6_6  and  C7_7 
REMARK    2  A    between atoms: C6_6  and  N8_8 
ROOT
HETATM    1  C1  UNL     1     -32.180   6.290   1.682  1.00 20.00     0.283 C 
HETATM    2  C2  UNL     1     -33.474   5.693   2.224  1.00 20.00     0.105 C 
HETATM    3  C3  UNL     1     -32.794   8.096   3.063  1.00 20.00     0.346 C 
HETATM    4  N8  UNL     1     -32.239   7.760   1.745  1.00 20.00     0.098 N 
HETATM    5  S9  UNL     1     -33.904   6.767   3.611  1.00 20.00    -0.138 SA
ENDROOT
BRANCH   4   6
HETATM    6  C6  UNL     1     -33.046   8.318   0.660  1.00 20.00     0.277 C 
BRANCH   6   7
HETATM    7  C7  UNL     1     -32.322   9.467  -0.055  1.00 20.00     0.006 C 
HETATM    8  C4  UNL     1     -32.629  10.826   0.572  1.00 20.00     0.011 C 
HETATM    9  C5  UNL     1     -30.812   9.236  -0.127  1.00 20.00     0.011 C 
ENDBRANCH   6   7
ENDBRANCH   4   6
TORSDOF 2
ENDMDL
MODEL 6
REMARK VINA RESULT:       1.4      1.625      2.235
REMARK  2 active torsions:
REMARK  status: ('A' for Active; 'I' for Inactive)
REMARK    1  A    between atoms: C6_6  and  C7_7 
REMARK    2  A    between atoms: C6_6  and  N8_8 
ROOT
HETATM    1  C1  UNL     1     -31.606   5.969   1.419  1.00 20.00     0.283 C 
HETATM    2  C2  UNL     1     -31.119   7.381   1.724  1.00 20.00     0.105 C 
HETATM    3  C3  UNL     1     -33.670   7.069   1.148  1.00 20.00     0.346 C 
HETATM    4  N8  UNL     1     -33.047   5.862   1.705  1.00 20.00     0.098 N 
HETATM    5  S9  UNL     1     -32.479   8.440   1.183  1.00 20.00    -0.138 SA
ENDROOT
BRANCH   4   6
HETATM    6  C6  UNL     1     -33.308   5.730   3.139  1.00 20.00     0.277 C 
BRANCH   6   7
HETATM    7  C7  UNL     1     -34.435   6.664   3.599  1.00 20.00     0.006 C 
HETATM    8  C4  UNL     1     -35.586   5.904   4.259  1.00 20.00     0.011 C 
HETATM    9  C5  UNL     1     -33.922   7.771   4.522  1.00 20.00     0.011 C 
ENDBRANCH   6   7
ENDBRANCH   4   6
TORSDOF 2
ENDMDL
MODEL 7
REMARK VINA RESULT:       1.5      2.127      4.203
REMARK  2 active torsions:
REMARK  status: ('A' for Active; 'I' for Inactive)
REMARK    1  A    between atoms: C6_6  and  C7_7 
REMARK    2  A    between atoms: C6_6  and  N8_8 
ROOT
HETATM    1  C1  UNL     1     -35.249   6.684   3.231  1.00 20.00     0.283 C 
HETATM    2  C2  UNL     1     -35.216   5.894   4.534  1.00 20.00     0.105 C 
HETATM    3  C3  UNL     1     -33.499   5.218   2.654  1.00 20.00     0.346 C 
HETATM    4  N8  UNL     1     -33.935   6.618   2.569  1.00 20.00     0.098 N 
HETATM    5  S9  UNL     1     -34.196   4.454   4.147  1.00 20.00    -0.138 SA
ENDROOT
BRANCH   4   6
HETATM    6  C6  UNL     1     -32.968   7.524   3.190  1.00 20.00     0.277 C 
BRANCH   6   7
HETATM    7  C7  UNL     1     -32.014   8.133   2.154  1.00 20.00     0.006 C 
HETATM    8  C4  UNL     1     -31.388   7.073   1.247  1.00 20.00     0.011 C 
HETATM    9  C5  UNL     1     -32.690   9.223   1.321  1.00 20.00     0.011 C 
ENDBRANCH   6   7
ENDBRANCH   4   6
TORSDOF 2
ENDMDL
MODEL 8
REMARK VINA RESULT:       1.5      1.922      4.397
REMARK  2 active torsions:
REMARK  status: ('A' for Active; 'I' for Inactive)
REMARK    1  A    between atoms: C6_6  and  C7_7 
REMARK    2  A    between atoms: C6_6  and  N8_8 
ROOT
HETATM    1  C1  UNL     1     -32.976   5.558   3.374  1.00 20.00     0.283 C 
HETATM    2  C2  UNL     1     -34.382   4.974   3.306  1.00 20.00     0.105 C 
HETATM    3  C3  UNL     1     -34.144   7.507   3.990  1.00 20.00     0.346 C 
HETATM    4  N8  UNL     1     -33.026   7.016   3.175  1.00 20.00     0.098 N 
HETATM    5  S9  UNL     1     -35.410   6.211   4.129  1.00 20.00    -0.138 SA
ENDROOT
BRANCH   4   6
HETATM    6  C6  UNL     1     -33.191   7.366   1.764  1.00 20.00     0.277 C 
BRANCH   6   7
HETATM    7  C7  UNL     1     -32.014   8.204   1.244  1.00 20.00     0.006 C 
HETATM    8  C4  UNL     1     -32.477   9.450   0.490  1.00 20.00     0.011 C 
HETATM    9  C5  UNL     1     -31.041   8.581   2.362  1.00 20.00     0.011 C 
ENDBRANCH   6   7
ENDBRANCH   4   6
TORSDOF 2
ENDMDL
MODEL 9
REMARK VINA RESULT:       1.7      1.447      2.221
REMARK  2 active torsions:
REMARK  status: ('A' for Active; 'I' for Inactive)
REMARK    1  A    between atoms: C6_6  and  C7_7 
REMARK    2  A    between atoms: C6_6  and  N8_8 
ROOT
HETATM    1  C1  UNL     1     -33.120   5.860   1.522  1.00 20.00     0.283 C 
HETATM    2  C2  UNL     1     -31.598   5.884   1.592  1.00 20.00     0.105 C 
HETATM    3  C3  UNL     1     -32.868   8.179   1.841  1.00 20.00     0.346 C 
HETATM    4  N8  UNL     1     -33.676   7.019   2.240  1.00 20.00     0.098 N 
HETATM    5  S9  UNL     1     -31.181   7.635   1.442  1.00 20.00    -0.138 SA
ENDROOT
BRANCH   4   6
HETATM    6  C6  UNL     1     -33.658   6.820   3.689  1.00 20.00     0.277 C 
BRANCH   6   7
HETATM    7  C7  UNL     1     -35.002   6.290   4.207  1.00 20.00     0.006 C 
HETATM    8  C4  UNL     1     -36.160   6.625   3.266  1.00 20.00     0.011 C 
HETATM    9  C5  UNL     1     -34.955   4.788   4.489  1.00 20.00     0.011 C 
ENDBRANCH   6   7
ENDBRANCH   4   6
TORSDOF 2
ENDMDL
