MODEL 1
REMARK VINA RESULT:      -1.8      0.000      0.000
REMARK  0 active torsions:
REMARK  status: ('A' for Active; 'I' for Inactive)
ROOT
HETATM    1  C1  UNL     1     -32.935   9.810   0.427  1.00 20.00     0.012 C 
HETATM    2  C2  UNL     1     -32.342   8.963   1.035  1.00 20.00    -0.112 C 
HETATM    3  C3  UNL     1     -33.402   6.149   2.056  1.00 20.00    -0.015 C 
HETATM    4  C4  UNL     1     -33.916   6.746   3.142  1.00 20.00    -0.020 C 
HETATM    5  C5  UNL     1     -33.131   7.829   3.809  1.00 20.00     0.156 C 
HETATM    6  C6  UNL     1     -32.104   6.521   1.401  1.00 20.00     0.045 C 
HETATM    7  C7  UNL     1     -31.740   8.143   3.291  1.00 20.00     0.101 C 
HETATM    8  C8  UNL     1     -31.612   7.919   1.785  1.00 20.00     0.075 C 
HETATM    9  C9  UNL     1     -35.230   6.367   3.746  1.00 20.00     0.052 C 
HETATM   10  O10 UNL     1     -33.581   8.408   4.796  1.00 20.00    -0.293 OA
ENDROOT
TORSDOF 0
ENDMDL
MODEL 2
REMARK VINA RESULT:      -0.3      2.609      3.772
REMARK  0 active torsions:
REMARK  status: ('A' for Active; 'I' for Inactive)
ROOT
HETATM    1  C1  UNL     1     -33.022   8.286   5.136  1.00 20.00     0.012 C 
HETATM    2  C2  UNL     1     -33.748   7.745   4.347  1.00 20.00    -0.112 C 
HETATM    3  C3  UNL     1     -35.003   4.832   4.486  1.00 20.00    -0.015 C 
HETATM    4  C4  UNL     1     -33.868   4.328   3.977  1.00 20.00    -0.020 C 
HETATM    5  C5  UNL     1     -33.175   5.074   2.885  1.00 20.00     0.156 C 
HETATM    6  C6  UNL     1     -35.620   6.140   4.086  1.00 20.00     0.045 C 
HETATM    7  C7  UNL     1     -33.832   6.322   2.325  1.00 20.00     0.101 C 
HETATM    8  C8  UNL     1     -34.642   7.078   3.377  1.00 20.00     0.075 C 
HETATM    9  C9  UNL     1     -33.268   3.034   4.427  1.00 20.00     0.052 C 
HETATM   10  O10 UNL     1     -32.123   4.649   2.408  1.00 20.00    -0.293 OA
ENDROOT
TORSDOF 0
ENDMDL
MODEL 3
REMARK VINA RESULT:       0.1      1.853      3.916
REMARK  0 active torsions:
REMARK  status: ('A' for Active; 'I' for Inactive)
ROOT
HETATM    1  C1  UNL     1     -36.838   6.850   2.736  1.00 20.00     0.012 C 
HETATM    2  C2  UNL     1     -35.846   6.595   3.363  1.00 20.00    -0.112 C 
HETATM    3  C3  UNL     1     -33.092   8.173   3.437  1.00 20.00    -0.015 C 
HETATM    4  C4  UNL     1     -32.704   7.532   2.324  1.00 20.00    -0.020 C 
HETATM    5  C5  UNL     1     -33.030   6.082   2.177  1.00 20.00     0.156 C 
HETATM    6  C6  UNL     1     -33.894   7.562   4.548  1.00 20.00     0.045 C 
HETATM    7  C7  UNL     1     -33.699   5.366   3.335  1.00 20.00     0.101 C 
HETATM    8  C8  UNL     1     -34.625   6.283   4.134  1.00 20.00     0.075 C 
HETATM    9  C9  UNL     1     -31.932   8.188   1.223  1.00 20.00     0.052 C 
HETATM   10  O10 UNL     1     -32.704   5.469   1.162  1.00 20.00    -0.293 OA
ENDROOT
TORSDOF 0
ENDMDL
MODEL 4
REMARK VINA RESULT:       0.2      1.658      3.880
REMARK  0 active torsions:
REMARK  status: ('A' for Active; 'I' for Inactive)
ROOT
HETATM    1  C1  UNL     1     -33.016   3.574   4.861  1.00 20.00     0.012 C 
HETATM    2  C2  UNL     1     -33.707   4.205   4.109  1.00 20.00    -0.112 C 
HETATM    3  C3  UNL     1     -32.826   6.352   1.942  1.00 20.00    -0.015 C 
HETATM    4  C4  UNL     1     -32.792   7.292   2.899  1.00 20.00    -0.020 C 
HETATM    5  C5  UNL     1     -33.860   7.296   3.944  1.00 20.00     0.156 C 
HETATM    6  C6  UNL     1     -33.833   5.242   1.860  1.00 20.00     0.045 C 
HETATM    7  C7  UNL     1     -34.996   6.298   3.826  1.00 20.00     0.101 C 
HETATM    8  C8  UNL     1     -34.556   4.983   3.183  1.00 20.00     0.075 C 
HETATM    9  C9  UNL     1     -31.751   8.364   2.964  1.00 20.00     0.052 C 
HETATM   10  O10 UNL     1     -33.848   8.133   4.845  1.00 20.00    -0.293 OA
ENDROOT
TORSDOF 0
ENDMDL
