MODEL 1
REMARK VINA RESULT:      -1.9      0.000      0.000
REMARK  3 active torsions:
REMARK  status: ('A' for Active; 'I' for Inactive)
REMARK    1  A    between atoms: C7_7  and  C8_8 
REMARK    2  A    between atoms: C8_8  and  C9_9 
REMARK    3  A    between atoms: C9_9  and  N10_10 
ROOT
HETATM    1  C1  UNL     1     -32.609  10.184  -0.062  1.00 20.00     0.012 C 
HETATM    2  C3  UNL     1     -32.259   9.321   0.696  1.00 20.00    -0.117 C 
HETATM    3  C7  UNL     1     -31.825   8.265   1.622  1.00 20.00     0.096 C 
ENDROOT
BRANCH   3   4
HETATM    4  C8  UNL     1     -32.963   7.779   2.528  1.00 20.00     0.061 C 
BRANCH   4   5
HETATM    5  C9  UNL     1     -32.983   6.257   2.770  1.00 20.00     0.300 C 
HETATM    6  C4  UNL     1     -32.701   5.509   1.533  1.00 20.00    -0.081 C 
HETATM    7  C2  UNL     1     -32.465   4.897   0.528  1.00 20.00     0.014 C 
BRANCH   5   8
HETATM    8  N10 UNL     1     -34.305   5.876   3.277  1.00 20.00     0.095 N 
HETATM    9  C5  UNL     1     -34.831   6.916   4.159  1.00 20.00     0.310 C 
HETATM   10  C6  UNL     1     -34.231   4.597   3.980  1.00 20.00     0.310 C 
ENDBRANCH   5   8
ENDBRANCH   4   5
ENDBRANCH   3   4
TORSDOF 3
ENDMDL
MODEL 2
REMARK VINA RESULT:      -1.5      1.410      4.260
REMARK  3 active torsions:
REMARK  status: ('A' for Active; 'I' for Inactive)
REMARK    1  A    between atoms: C7_7  and  C8_8 
REMARK    2  A    between atoms: C8_8  and  C9_9 
REMARK    3  A    between atoms: C9_9  and  N10_10 
ROOT
HETATM    1  C1  UNL     1     -33.878   3.691   4.409  1.00 20.00     0.012 C 
HETATM    2  C3  UNL     1     -34.236   4.783   4.063  1.00 20.00    -0.117 C 
HETATM    3  C7  UNL     1     -34.680   6.118   3.640  1.00 20.00     0.096 C 
ENDROOT
BRANCH   3   4
HETATM    4  C8  UNL     1     -33.505   7.073   3.389  1.00 20.00     0.061 C 
BRANCH   4   5
HETATM    5  C9  UNL     1     -33.057   7.164   1.916  1.00 20.00     0.300 C 
HETATM    6  C4  UNL     1     -32.584   5.863   1.414  1.00 20.00    -0.081 C 
HETATM    7  C2  UNL     1     -32.202   4.803   1.000  1.00 20.00     0.014 C 
BRANCH   5   8
HETATM    8  N10 UNL     1     -31.977   8.148   1.811  1.00 20.00     0.095 N 
HETATM    9  C5  UNL     1     -31.683   8.724   3.122  1.00 20.00     0.310 C 
HETATM   10  C6  UNL     1     -32.337   9.197   0.859  1.00 20.00     0.310 C 
ENDBRANCH   5   8
ENDBRANCH   4   5
ENDBRANCH   3   4
TORSDOF 3
ENDMDL
MODEL 3
REMARK VINA RESULT:      -1.5      1.157      2.255
REMARK  3 active torsions:
REMARK  status: ('A' for Active; 'I' for Inactive)
REMARK    1  A    between atoms: C7_7  and  C8_8 
REMARK    2  A    between atoms: C8_8  and  C9_9 
REMARK    3  A    between atoms: C9_9  and  N10_10 
ROOT
HETATM    1  C1  UNL     1     -32.481   9.847   0.062  1.00 20.00     0.012 C 
HETATM    2  C3  UNL     1     -32.146   9.018   0.862  1.00 20.00    -0.117 C 
HETATM    3  C7  UNL     1     -31.731   8.005   1.843  1.00 20.00     0.096 C 
ENDROOT
BRANCH   3   4
HETATM    4  C8  UNL     1     -32.715   6.830   1.922  1.00 20.00     0.061 C 
BRANCH   4   5
HETATM    5  C9  UNL     1     -33.911   7.059   2.868  1.00 20.00     0.300 C 
HETATM    6  C4  UNL     1     -33.497   7.735   4.109  1.00 20.00    -0.081 C 
HETATM    7  C2  UNL     1     -33.163   8.292   5.119  1.00 20.00     0.014 C 
BRANCH   5   8
HETATM    8  N10 UNL     1     -34.508   5.762   3.197  1.00 20.00     0.095 N 
HETATM    9  C5  UNL     1     -35.494   5.912   4.265  1.00 20.00     0.310 C 
HETATM   10  C6  UNL     1     -33.469   4.810   3.588  1.00 20.00     0.310 C 
ENDBRANCH   5   8
ENDBRANCH   4   5
ENDBRANCH   3   4
TORSDOF 3
ENDMDL
MODEL 4
REMARK VINA RESULT:      -1.3      1.168      2.293
REMARK  3 active torsions:
REMARK  status: ('A' for Active; 'I' for Inactive)
REMARK    1  A    between atoms: C7_7  and  C8_8 
REMARK    2  A    between atoms: C8_8  and  C9_9 
REMARK    3  A    between atoms: C9_9  and  N10_10 
ROOT
HETATM    1  C1  UNL     1     -31.979   8.723   1.382  1.00 20.00     0.012 C 
HETATM    2  C3  UNL     1     -31.960   7.525   1.314  1.00 20.00    -0.117 C 
HETATM    3  C7  UNL     1     -31.932   6.059   1.227  1.00 20.00     0.096 C 
ENDROOT
BRANCH   3   4
HETATM    4  C8  UNL     1     -33.211   5.416   1.779  1.00 20.00     0.061 C 
BRANCH   4   5
HETATM    5  C9  UNL     1     -33.384   5.542   3.306  1.00 20.00     0.300 C 
HETATM    6  C4  UNL     1     -33.510   4.223   3.947  1.00 20.00    -0.081 C 
HETATM    7  C2  UNL     1     -33.607   3.148   4.473  1.00 20.00     0.014 C 
BRANCH   5   8
HETATM    8  N10 UNL     1     -34.586   6.333   3.581  1.00 20.00     0.095 N 
HETATM    9  C5  UNL     1     -34.229   7.600   4.217  1.00 20.00     0.310 C 
HETATM   10  C6  UNL     1     -35.509   5.577   4.427  1.00 20.00     0.310 C 
ENDBRANCH   5   8
ENDBRANCH   4   5
ENDBRANCH   3   4
TORSDOF 3
ENDMDL
MODEL 5
REMARK VINA RESULT:      -1.2      1.138      1.782
REMARK  3 active torsions:
REMARK  status: ('A' for Active; 'I' for Inactive)
REMARK    1  A    between atoms: C7_7  and  C8_8 
REMARK    2  A    between atoms: C8_8  and  C9_9 
REMARK    3  A    between atoms: C9_9  and  N10_10 
ROOT
HETATM    1  C1  UNL     1     -32.468   9.787   0.364  1.00 20.00     0.012 C 
HETATM    2  C3  UNL     1     -32.137   8.758   0.887  1.00 20.00    -0.117 C 
HETATM    3  C7  UNL     1     -31.726   7.501   1.526  1.00 20.00     0.096 C 
ENDROOT
BRANCH   3   4
HETATM    4  C8  UNL     1     -32.915   6.572   1.806  1.00 20.00     0.061 C 
BRANCH   4   5
HETATM    5  C9  UNL     1     -33.207   6.339   3.302  1.00 20.00     0.300 C 
HETATM    6  C4  UNL     1     -33.540   4.930   3.574  1.00 20.00    -0.081 C 
HETATM    7  C2  UNL     1     -33.806   3.782   3.800  1.00 20.00     0.014 C 
BRANCH   5   8
HETATM    8  N10 UNL     1     -34.330   7.190   3.703  1.00 20.00     0.095 N 
HETATM    9  C5  UNL     1     -33.950   8.035   4.833  1.00 20.00     0.310 C 
HETATM   10  C6  UNL     1     -35.492   6.371   4.042  1.00 20.00     0.310 C 
ENDBRANCH   5   8
ENDBRANCH   4   5
ENDBRANCH   3   4
TORSDOF 3
ENDMDL
MODEL 6
REMARK VINA RESULT:      -1.1      1.547      4.988
REMARK  3 active torsions:
REMARK  status: ('A' for Active; 'I' for Inactive)
REMARK    1  A    between atoms: C7_7  and  C8_8 
REMARK    2  A    between atoms: C8_8  and  C9_9 
REMARK    3  A    between atoms: C9_9  and  N10_10 
ROOT
HETATM    1  C1  UNL     1     -33.090   2.856   4.622  1.00 20.00     0.012 C 
HETATM    2  C3  UNL     1     -33.929   3.713   4.574  1.00 20.00    -0.117 C 
HETATM    3  C7  UNL     1     -34.958   4.760   4.520  1.00 20.00     0.096 C 
ENDROOT
BRANCH   3   4
HETATM    4  C8  UNL     1     -34.750   5.724   3.345  1.00 20.00     0.061 C 
BRANCH   4   5
HETATM    5  C9  UNL     1     -33.377   6.425   3.327  1.00 20.00     0.300 C 
HETATM    6  C4  UNL     1     -33.359   7.604   4.208  1.00 20.00    -0.081 C 
HETATM    7  C2  UNL     1     -33.341   8.562   4.931  1.00 20.00     0.014 C 
BRANCH   5   8
HETATM    8  N10 UNL     1     -33.077   6.841   1.954  1.00 20.00     0.095 N 
HETATM    9  C5  UNL     1     -32.675   5.688   1.149  1.00 20.00     0.310 C 
HETATM   10  C6  UNL     1     -32.029   7.860   1.949  1.00 20.00     0.310 C 
ENDBRANCH   5   8
ENDBRANCH   4   5
ENDBRANCH   3   4
TORSDOF 3
ENDMDL
MODEL 7
REMARK VINA RESULT:      -1.0      1.006      2.432
REMARK  3 active torsions:
REMARK  status: ('A' for Active; 'I' for Inactive)
REMARK    1  A    between atoms: C7_7  and  C8_8 
REMARK    2  A    between atoms: C8_8  and  C9_9 
REMARK    3  A    between atoms: C9_9  and  N10_10 
ROOT
HETATM    1  C1  UNL     1     -32.750  10.123  -0.525  1.00 20.00     0.012 C 
HETATM    2  C3  UNL     1     -32.316   9.610   0.470  1.00 20.00    -0.117 C 
HETATM    3  C7  UNL     1     -31.783   8.988   1.690  1.00 20.00     0.096 C 
ENDROOT
BRANCH   3   4
HETATM    4  C8  UNL     1     -31.921   7.460   1.674  1.00 20.00     0.061 C 
BRANCH   4   5
HETATM    5  C9  UNL     1     -33.325   6.940   2.043  1.00 20.00     0.300 C 
HETATM    6  C4  UNL     1     -33.718   7.359   3.399  1.00 20.00    -0.081 C 
HETATM    7  C2  UNL     1     -34.043   7.704   4.502  1.00 20.00     0.014 C 
BRANCH   5   8
HETATM    8  N10 UNL     1     -33.321   5.477   1.968  1.00 20.00     0.095 N 
HETATM    9  C5  UNL     1     -33.486   4.899   3.301  1.00 20.00     0.310 C 
HETATM   10  C6  UNL     1     -32.082   5.002   1.354  1.00 20.00     0.310 C 
ENDBRANCH   5   8
ENDBRANCH   4   5
ENDBRANCH   3   4
TORSDOF 3
ENDMDL
MODEL 8
REMARK VINA RESULT:      -0.5      1.632      4.168
REMARK  3 active torsions:
REMARK  status: ('A' for Active; 'I' for Inactive)
REMARK    1  A    between atoms: C7_7  and  C8_8 
REMARK    2  A    between atoms: C8_8  and  C9_9 
REMARK    3  A    between atoms: C9_9  and  N10_10 
ROOT
HETATM    1  C1  UNL     1     -34.894   5.085   4.161  1.00 20.00     0.012 C 
HETATM    2  C3  UNL     1     -34.636   6.254   4.076  1.00 20.00    -0.117 C 
HETATM    3  C7  UNL     1     -34.326   7.687   3.974  1.00 20.00     0.096 C 
ENDROOT
BRANCH   3   4
HETATM    4  C8  UNL     1     -32.939   7.943   3.369  1.00 20.00     0.061 C 
BRANCH   4   5
HETATM    5  C9  UNL     1     -32.877   7.818   1.834  1.00 20.00     0.300 C 
HETATM    6  C4  UNL     1     -32.402   6.487   1.418  1.00 20.00    -0.081 C 
HETATM    7  C2  UNL     1     -32.021   5.401   1.076  1.00 20.00     0.014 C 
BRANCH   5   8
HETATM    8  N10 UNL     1     -31.968   8.842   1.313  1.00 20.00     0.095 N 
HETATM    9  C5  UNL     1     -32.713  10.045   0.947  1.00 20.00     0.310 C 
HETATM   10  C6  UNL     1     -31.227   8.327   0.162  1.00 20.00     0.310 C 
ENDBRANCH   5   8
ENDBRANCH   4   5
ENDBRANCH   3   4
TORSDOF 3
ENDMDL
MODEL 9
REMARK VINA RESULT:      -0.3      1.295      1.827
REMARK  3 active torsions:
REMARK  status: ('A' for Active; 'I' for Inactive)
REMARK    1  A    between atoms: C7_7  and  C8_8 
REMARK    2  A    between atoms: C8_8  and  C9_9 
REMARK    3  A    between atoms: C9_9  and  N10_10 
ROOT
HETATM    1  C1  UNL     1     -31.614   8.402   1.661  1.00 20.00     0.012 C 
HETATM    2  C3  UNL     1     -32.377   8.220   2.569  1.00 20.00    -0.117 C 
HETATM    3  C7  UNL     1     -33.309   8.002   3.684  1.00 20.00     0.096 C 
ENDROOT
BRANCH   3   4
HETATM    4  C8  UNL     1     -34.188   6.761   3.476  1.00 20.00     0.061 C 
BRANCH   4   5
HETATM    5  C9  UNL     1     -33.406   5.444   3.303  1.00 20.00     0.300 C 
HETATM    6  C4  UNL     1     -33.067   5.197   1.892  1.00 20.00    -0.081 C 
HETATM    7  C2  UNL     1     -32.784   4.997   0.742  1.00 20.00     0.014 C 
BRANCH   5   8
HETATM    8  N10 UNL     1     -34.226   4.338   3.806  1.00 20.00     0.095 N 
HETATM    9  C5  UNL     1     -35.286   4.845   4.675  1.00 20.00     0.310 C 
HETATM   10  C6  UNL     1     -33.393   3.372   4.521  1.00 20.00     0.310 C 
ENDBRANCH   5   8
ENDBRANCH   4   5
ENDBRANCH   3   4
TORSDOF 3
ENDMDL
