MODEL 1
REMARK VINA RESULT:       3.6      0.000      0.000
REMARK  1 active torsions:
REMARK  status: ('A' for Active; 'I' for Inactive)
REMARK    1  A    between atoms: C1_1  and  C9_9 
ROOT
HETATM    1  C2  UNL     1     -33.048   5.639   2.904  1.00 20.00     0.031 C 
HETATM    2  C3  UNL     1     -32.344   8.077   4.746  1.00 20.00     0.031 C 
HETATM    3  C4  UNL     1     -32.361   6.562   1.898  1.00 20.00     0.022 C 
HETATM    4  C5  UNL     1     -31.785   8.567   3.411  1.00 20.00     0.022 C 
HETATM    5  C6  UNL     1     -34.429   6.138   3.337  1.00 20.00     0.272 C 
HETATM    6  C7  UNL     1     -33.876   8.055   4.787  1.00 20.00     0.272 C 
HETATM    7  C8  UNL     1     -34.065   8.327   2.402  1.00 20.00     0.290 C 
HETATM    8  C9  UNL     1     -32.571   8.062   2.184  1.00 20.00     0.062 C 
HETATM    9  N10 UNL     1     -34.547   7.583   3.570  1.00 20.00     0.089 N 
ENDROOT
BRANCH   8  10
HETATM   10  C1  UNL     1     -32.099   8.845   0.986  1.00 20.00     0.229 C 
HETATM   11  O11 UNL     1     -31.225   8.416   0.239  1.00 20.00    -0.279 OA
HETATM   12 CL12 UNL     1     -32.931  10.363   0.828  1.00 20.00    -0.043 Cl
ENDBRANCH   8  10
TORSDOF 1
ENDMDL
MODEL 2
REMARK VINA RESULT:       3.8      1.866      2.154
REMARK  1 active torsions:
REMARK  status: ('A' for Active; 'I' for Inactive)
REMARK    1  A    between atoms: C1_1  and  C9_9 
ROOT
HETATM    1  C2  UNL     1     -34.023   4.600   4.514  1.00 20.00     0.031 C 
HETATM    2  C3  UNL     1     -33.430   7.667   4.788  1.00 20.00     0.031 C 
HETATM    3  C4  UNL     1     -33.125   4.822   3.297  1.00 20.00     0.022 C 
HETATM    4  C5  UNL     1     -32.639   7.343   3.520  1.00 20.00     0.022 C 
HETATM    5  C6  UNL     1     -35.414   5.222   4.361  1.00 20.00     0.272 C 
HETATM    6  C7  UNL     1     -34.947   7.635   4.577  1.00 20.00     0.272 C 
HETATM    7  C8  UNL     1     -34.751   6.528   2.448  1.00 20.00     0.290 C 
HETATM    8  C9  UNL     1     -33.265   6.222   2.667  1.00 20.00     0.062 C 
HETATM    9  N10 UNL     1     -35.458   6.548   3.732  1.00 20.00     0.089 N 
ENDROOT
BRANCH   8  10
HETATM   10  C1  UNL     1     -32.560   6.215   1.335  1.00 20.00     0.229 C 
HETATM   11  O11 UNL     1     -32.604   5.242   0.587  1.00 20.00    -0.279 OA
HETATM   12 CL12 UNL     1     -31.721   7.705   1.031  1.00 20.00    -0.043 Cl
ENDBRANCH   8  10
TORSDOF 1
ENDMDL
MODEL 3
REMARK VINA RESULT:       3.9      3.057      4.204
REMARK  1 active torsions:
REMARK  status: ('A' for Active; 'I' for Inactive)
REMARK    1  A    between atoms: C1_1  and  C9_9 
ROOT
HETATM    1  C2  UNL     1     -31.986   8.045   3.089  1.00 20.00     0.031 C 
HETATM    2  C3  UNL     1     -31.820   4.986   2.420  1.00 20.00     0.031 C 
HETATM    3  C4  UNL     1     -33.246   7.536   3.788  1.00 20.00     0.022 C 
HETATM    4  C5  UNL     1     -33.112   5.022   3.236  1.00 20.00     0.022 C 
HETATM    5  C6  UNL     1     -32.095   8.032   1.561  1.00 20.00     0.272 C 
HETATM    6  C7  UNL     1     -31.964   5.626   1.035  1.00 20.00     0.272 C 
HETATM    7  C8  UNL     1     -34.069   6.653   1.593  1.00 20.00     0.290 C 
HETATM    8  C9  UNL     1     -33.907   6.334   3.084  1.00 20.00     0.062 C 
HETATM    9  N10 UNL     1     -32.756   6.860   0.974  1.00 20.00     0.089 N 
ENDROOT
BRANCH   8  10
HETATM   10  C1  UNL     1     -35.268   6.116   3.693  1.00 20.00     0.229 C 
HETATM   11  O11 UNL     1     -36.221   6.839   3.418  1.00 20.00    -0.279 OA
HETATM   12 CL12 UNL     1     -35.287   4.765   4.785  1.00 20.00    -0.043 Cl
ENDBRANCH   8  10
TORSDOF 1
ENDMDL
MODEL 4
REMARK VINA RESULT:       4.0      1.097      1.097
REMARK  1 active torsions:
REMARK  status: ('A' for Active; 'I' for Inactive)
REMARK    1  A    between atoms: C1_1  and  C9_9 
ROOT
HETATM    1  C2  UNL     1     -32.916   5.686   2.756  1.00 20.00     0.031 C 
HETATM    2  C3  UNL     1     -32.323   8.074   4.700  1.00 20.00     0.031 C 
HETATM    3  C4  UNL     1     -32.353   6.714   1.775  1.00 20.00     0.022 C 
HETATM    4  C5  UNL     1     -31.867   8.678   3.372  1.00 20.00     0.022 C 
HETATM    5  C6  UNL     1     -34.311   6.047   3.275  1.00 20.00     0.272 C 
HETATM    6  C7  UNL     1     -33.844   7.925   4.805  1.00 20.00     0.272 C 
HETATM    7  C8  UNL     1     -34.166   8.305   2.449  1.00 20.00     0.290 C 
HETATM    8  C9  UNL     1     -32.667   8.175   2.154  1.00 20.00     0.062 C 
HETATM    9  N10 UNL     1     -34.532   7.463   3.592  1.00 20.00     0.089 N 
ENDROOT
BRANCH   8  10
HETATM   10  C1  UNL     1     -32.316   9.055   0.982  1.00 20.00     0.229 C 
HETATM   11  O11 UNL     1     -32.884  10.125   0.786  1.00 20.00    -0.279 OA
HETATM   12 CL12 UNL     1     -31.056   8.368   0.002  1.00 20.00    -0.043 Cl
ENDBRANCH   8  10
TORSDOF 1
ENDMDL
MODEL 5
REMARK VINA RESULT:       4.3      2.745      3.709
REMARK  1 active torsions:
REMARK  status: ('A' for Active; 'I' for Inactive)
REMARK    1  A    between atoms: C1_1  and  C9_9 
ROOT
HETATM    1  C2  UNL     1     -32.805   5.862   0.953  1.00 20.00     0.031 C 
HETATM    2  C3  UNL     1     -32.982   8.991   0.827  1.00 20.00     0.031 C 
HETATM    3  C4  UNL     1     -33.681   6.143   2.173  1.00 20.00     0.022 C 
HETATM    4  C5  UNL     1     -33.825   8.714   2.072  1.00 20.00     0.022 C 
HETATM    5  C6  UNL     1     -31.346   6.286   1.145  1.00 20.00     0.272 C 
HETATM    6  C7  UNL     1     -31.485   8.747   1.046  1.00 20.00     0.272 C 
HETATM    7  C8  UNL     1     -31.854   7.574   3.116  1.00 20.00     0.290 C 
HETATM    8  C9  UNL     1     -33.365   7.480   2.873  1.00 20.00     0.062 C 
HETATM    9  N10 UNL     1     -31.134   7.563   1.839  1.00 20.00     0.089 N 
ENDROOT
BRANCH   8  10
HETATM   10  C1  UNL     1     -34.081   7.503   4.198  1.00 20.00     0.229 C 
HETATM   11  O11 UNL     1     -33.760   8.281   5.092  1.00 20.00    -0.279 OA
HETATM   12 CL12 UNL     1     -35.360   6.330   4.271  1.00 20.00    -0.043 Cl
ENDBRANCH   8  10
TORSDOF 1
ENDMDL
MODEL 6
REMARK VINA RESULT:       4.6      3.394      4.306
REMARK  1 active torsions:
REMARK  status: ('A' for Active; 'I' for Inactive)
REMARK    1  A    between atoms: C1_1  and  C9_9 
ROOT
HETATM    1  C2  UNL     1     -33.029   6.495   1.484  1.00 20.00     0.031 C 
HETATM    2  C3  UNL     1     -35.269   7.928   3.146  1.00 20.00     0.031 C 
HETATM    3  C4  UNL     1     -33.589   5.315   2.277  1.00 20.00     0.022 C 
HETATM    4  C5  UNL     1     -35.429   6.492   3.645  1.00 20.00     0.022 C 
HETATM    5  C6  UNL     1     -32.229   7.477   2.345  1.00 20.00     0.272 C 
HETATM    6  C7  UNL     1     -33.991   8.604   3.652  1.00 20.00     0.272 C 
HETATM    7  C8  UNL     1     -33.041   6.523   4.402  1.00 20.00     0.290 C 
HETATM    8  C9  UNL     1     -34.109   5.695   3.678  1.00 20.00     0.062 C 
HETATM    9  N10 UNL     1     -32.784   7.768   3.673  1.00 20.00     0.089 N 
ENDROOT
BRANCH   8  10
HETATM   10  C1  UNL     1     -34.361   4.427   4.451  1.00 20.00     0.229 C 
HETATM   11  O11 UNL     1     -35.377   4.272   5.124  1.00 20.00    -0.279 OA
HETATM   12 CL12 UNL     1     -33.072   3.278   4.262  1.00 20.00    -0.043 Cl
ENDBRANCH   8  10
TORSDOF 1
ENDMDL
MODEL 7
REMARK VINA RESULT:       4.7      1.883      3.081
REMARK  1 active torsions:
REMARK  status: ('A' for Active; 'I' for Inactive)
REMARK    1  A    between atoms: C1_1  and  C9_9 
ROOT
HETATM    1  C2  UNL     1     -34.358   5.955   3.340  1.00 20.00     0.031 C 
HETATM    2  C3  UNL     1     -34.095   5.799   0.219  1.00 20.00     0.031 C 
HETATM    3  C4  UNL     1     -33.659   7.283   3.050  1.00 20.00     0.022 C 
HETATM    4  C5  UNL     1     -33.440   7.154   0.485  1.00 20.00     0.022 C 
HETATM    5  C6  UNL     1     -33.450   4.738   3.143  1.00 20.00     0.272 C 
HETATM    6  C7  UNL     1     -33.244   4.615   0.688  1.00 20.00     0.272 C 
HETATM    7  C8  UNL     1     -31.778   6.022   1.979  1.00 20.00     0.290 C 
HETATM    8  C9  UNL     1     -32.706   7.234   1.839  1.00 20.00     0.062 C 
HETATM    9  N10 UNL     1     -32.560   4.782   1.977  1.00 20.00     0.089 N 
ENDROOT
BRANCH   8  10
HETATM   10  C1  UNL     1     -31.878   8.493   1.835  1.00 20.00     0.229 C 
HETATM   11  O11 UNL     1     -31.054   8.726   2.715  1.00 20.00    -0.279 OA
HETATM   12 CL12 UNL     1     -32.242   9.512   0.475  1.00 20.00    -0.043 Cl
ENDBRANCH   8  10
TORSDOF 1
ENDMDL
MODEL 8
REMARK VINA RESULT:       4.8      2.861      3.792
REMARK  1 active torsions:
REMARK  status: ('A' for Active; 'I' for Inactive)
REMARK    1  A    between atoms: C1_1  and  C9_9 
ROOT
HETATM    1  C2  UNL     1     -33.980   5.929   0.260  1.00 20.00     0.031 C 
HETATM    2  C3  UNL     1     -31.893   7.935   1.466  1.00 20.00     0.031 C 
HETATM    3  C4  UNL     1     -34.693   6.335   1.550  1.00 20.00     0.022 C 
HETATM    4  C5  UNL     1     -32.977   7.981   2.543  1.00 20.00     0.022 C 
HETATM    5  C6  UNL     1     -32.760   5.036   0.498  1.00 20.00     0.272 C 
HETATM    6  C7  UNL     1     -31.117   6.614   1.446  1.00 20.00     0.272 C 
HETATM    7  C8  UNL     1     -32.724   5.509   2.860  1.00 20.00     0.290 C 
HETATM    8  C9  UNL     1     -33.736   6.651   2.717  1.00 20.00     0.062 C 
HETATM    9  N10 UNL     1     -31.914   5.396   1.643  1.00 20.00     0.089 N 
ENDROOT
BRANCH   8  10
HETATM   10  C1  UNL     1     -34.549   6.752   3.982  1.00 20.00     0.229 C 
HETATM   11  O11 UNL     1     -35.514   6.022   4.188  1.00 20.00    -0.279 OA
HETATM   12 CL12 UNL     1     -33.950   7.987   5.048  1.00 20.00    -0.043 Cl
ENDBRANCH   8  10
TORSDOF 1
ENDMDL
MODEL 9
REMARK VINA RESULT:       5.3      1.733      2.823
REMARK  1 active torsions:
REMARK  status: ('A' for Active; 'I' for Inactive)
REMARK    1  A    between atoms: C1_1  and  C9_9 
ROOT
HETATM    1  C2  UNL     1     -35.703   6.834   3.176  1.00 20.00     0.031 C 
HETATM    2  C3  UNL     1     -33.620   4.879   1.882  1.00 20.00     0.031 C 
HETATM    3  C4  UNL     1     -34.606   7.819   2.771  1.00 20.00     0.022 C 
HETATM    4  C5  UNL     1     -32.894   6.212   1.709  1.00 20.00     0.022 C 
HETATM    5  C6  UNL     1     -35.307   5.942   4.356  1.00 20.00     0.272 C 
HETATM    6  C7  UNL     1     -33.670   4.403   3.338  1.00 20.00     0.272 C 
HETATM    7  C8  UNL     1     -32.982   6.547   4.190  1.00 20.00     0.290 C 
HETATM    8  C9  UNL     1     -33.184   7.228   2.832  1.00 20.00     0.062 C 
HETATM    9  N10 UNL     1     -33.928   5.438   4.347  1.00 20.00     0.089 N 
ENDROOT
BRANCH   8  10
HETATM   10  C1  UNL     1     -32.195   8.357   2.693  1.00 20.00     0.229 C 
HETATM   11  O11 UNL     1     -31.576   8.795   3.659  1.00 20.00    -0.279 OA
HETATM   12 CL12 UNL     1     -32.067   8.916   1.053  1.00 20.00    -0.043 Cl
ENDBRANCH   8  10
TORSDOF 1
ENDMDL
