MODEL 1
REMARK VINA RESULT:      -0.7      0.000      0.000
REMARK  1 active torsions:
REMARK  status: ('A' for Active; 'I' for Inactive)
REMARK    1  A    between atoms: C2_2  and  C3_3 
ROOT
HETATM    1  C1  UNL     1     -32.142   6.454   1.798  1.00 20.00    -0.009 C 
HETATM    2  C2  UNL     1     -32.649   7.720   1.692  1.00 20.00    -0.007 C 
HETATM    3  C4  UNL     1     -35.114   6.209   4.041  1.00 20.00     0.002 C 
HETATM    4  C5  UNL     1     -33.891   5.331   3.657  1.00 20.00     0.009 C 
HETATM    5  C6  UNL     1     -34.912   7.555   3.276  1.00 20.00     0.015 C 
HETATM    6  C7  UNL     1     -33.452   6.045   2.412  1.00 20.00     0.021 C 
HETATM    7  C8  UNL     1     -33.421   7.525   2.983  1.00 20.00    -0.007 C 
HETATM    8  C10 UNL     1     -32.611   8.001   4.207  1.00 20.00     0.021 C 
ENDROOT
BRANCH   2   9
HETATM    9  C3  UNL     1     -32.100   8.844   0.948  1.00 20.00     0.152 C 
HETATM   10  C9  UNL     1     -32.850  10.157   0.970  1.00 20.00     0.096 C 
HETATM   11  O11 UNL     1     -31.047   8.731   0.306  1.00 20.00    -0.293 OA
ENDBRANCH   2   9
TORSDOF 1
ENDMDL
MODEL 2
REMARK VINA RESULT:      -0.3      0.861      1.035
REMARK  1 active torsions:
REMARK  status: ('A' for Active; 'I' for Inactive)
REMARK    1  A    between atoms: C2_2  and  C3_3 
ROOT
HETATM    1  C1  UNL     1     -32.241   6.473   1.863  1.00 20.00    -0.009 C 
HETATM    2  C2  UNL     1     -32.826   7.707   1.797  1.00 20.00    -0.007 C 
HETATM    3  C4  UNL     1     -35.170   5.979   4.121  1.00 20.00     0.002 C 
HETATM    4  C5  UNL     1     -33.899   5.190   3.701  1.00 20.00     0.009 C 
HETATM    5  C6  UNL     1     -35.059   7.356   3.394  1.00 20.00     0.015 C 
HETATM    6  C7  UNL     1     -33.518   5.966   2.474  1.00 20.00     0.021 C 
HETATM    7  C8  UNL     1     -33.572   7.428   3.089  1.00 20.00    -0.007 C 
HETATM    8  C10 UNL     1     -32.781   7.917   4.320  1.00 20.00     0.021 C 
ENDROOT
BRANCH   2   9
HETATM    9  C3  UNL     1     -32.355   8.884   1.083  1.00 20.00     0.152 C 
HETATM   10  C9  UNL     1     -31.181   8.733   0.142  1.00 20.00     0.096 C 
HETATM   11  O11 UNL     1     -32.896   9.987   1.243  1.00 20.00    -0.293 OA
ENDBRANCH   2   9
TORSDOF 1
ENDMDL
MODEL 3
REMARK VINA RESULT:      -0.2      2.452      4.353
REMARK  1 active torsions:
REMARK  status: ('A' for Active; 'I' for Inactive)
REMARK    1  A    between atoms: C2_2  and  C3_3 
ROOT
HETATM    1  C1  UNL     1     -33.426   5.388   1.973  1.00 20.00    -0.009 C 
HETATM    2  C2  UNL     1     -33.582   5.406   3.332  1.00 20.00    -0.007 C 
HETATM    3  C4  UNL     1     -32.073   8.769   2.787  1.00 20.00     0.002 C 
HETATM    4  C5  UNL     1     -32.419   7.947   1.515  1.00 20.00     0.009 C 
HETATM    5  C6  UNL     1     -32.506   7.870   3.989  1.00 20.00     0.015 C 
HETATM    6  C7  UNL     1     -32.519   6.578   2.121  1.00 20.00     0.021 C 
HETATM    7  C8  UNL     1     -33.492   6.921   3.327  1.00 20.00    -0.007 C 
HETATM    8  C10 UNL     1     -34.885   7.573   3.204  1.00 20.00     0.021 C 
ENDROOT
BRANCH   2   9
HETATM    9  C3  UNL     1     -34.184   4.386   4.177  1.00 20.00     0.152 C 
HETATM   10  C9  UNL     1     -33.390   3.134   4.472  1.00 20.00     0.096 C 
HETATM   11  O11 UNL     1     -35.324   4.533   4.641  1.00 20.00    -0.293 OA
ENDBRANCH   2   9
TORSDOF 1
ENDMDL
MODEL 4
REMARK VINA RESULT:       0.7      1.113      2.188
REMARK  1 active torsions:
REMARK  status: ('A' for Active; 'I' for Inactive)
REMARK    1  A    between atoms: C2_2  and  C3_3 
ROOT
HETATM    1  C1  UNL     1     -34.108   7.999   3.010  1.00 20.00    -0.009 C 
HETATM    2  C2  UNL     1     -32.920   7.494   2.559  1.00 20.00    -0.007 C 
HETATM    3  C4  UNL     1     -34.381   4.454   4.142  1.00 20.00     0.002 C 
HETATM    4  C5  UNL     1     -35.289   5.714   4.086  1.00 20.00     0.009 C 
HETATM    5  C6  UNL     1     -33.043   4.880   3.459  1.00 20.00     0.015 C 
HETATM    6  C7  UNL     1     -34.242   6.766   3.859  1.00 20.00     0.021 C 
HETATM    7  C8  UNL     1     -33.480   6.086   2.645  1.00 20.00    -0.007 C 
HETATM    8  C10 UNL     1     -34.121   5.648   1.311  1.00 20.00     0.021 C 
ENDROOT
BRANCH   2   9
HETATM    9  C3  UNL     1     -31.892   8.177   1.789  1.00 20.00     0.152 C 
HETATM   10  C9  UNL     1     -32.320   9.232   0.793  1.00 20.00     0.096 C 
HETATM   11  O11 UNL     1     -30.694   7.901   1.937  1.00 20.00    -0.293 OA
ENDBRANCH   2   9
TORSDOF 1
ENDMDL
MODEL 5
REMARK VINA RESULT:       1.0      2.205      4.219
REMARK  1 active torsions:
REMARK  status: ('A' for Active; 'I' for Inactive)
REMARK    1  A    between atoms: C2_2  and  C3_3 
ROOT
HETATM    1  C1  UNL     1     -33.003   7.456   4.117  1.00 20.00    -0.009 C 
HETATM    2  C2  UNL     1     -33.995   6.966   3.313  1.00 20.00    -0.007 C 
HETATM    3  C4  UNL     1     -31.746   8.477   0.755  1.00 20.00     0.002 C 
HETATM    4  C5  UNL     1     -31.233   8.480   2.222  1.00 20.00     0.009 C 
HETATM    5  C6  UNL     1     -33.144   7.782   0.809  1.00 20.00     0.015 C 
HETATM    6  C7  UNL     1     -32.532   8.267   2.942  1.00 20.00     0.021 C 
HETATM    7  C8  UNL     1     -33.059   7.016   2.119  1.00 20.00    -0.007 C 
HETATM    8  C10 UNL     1     -32.308   5.682   1.930  1.00 20.00     0.021 C 
ENDROOT
BRANCH   2   9
HETATM    9  C3  UNL     1     -35.167   6.198   3.705  1.00 20.00     0.152 C 
HETATM   10  C9  UNL     1     -34.961   4.915   4.478  1.00 20.00     0.096 C 
HETATM   11  O11 UNL     1     -36.308   6.580   3.410  1.00 20.00    -0.293 OA
ENDBRANCH   2   9
TORSDOF 1
ENDMDL
MODEL 6
REMARK VINA RESULT:       1.6      1.214      1.564
REMARK  1 active torsions:
REMARK  status: ('A' for Active; 'I' for Inactive)
REMARK    1  A    between atoms: C2_2  and  C3_3 
ROOT
HETATM    1  C1  UNL     1     -31.825   7.510   0.452  1.00 20.00    -0.009 C 
HETATM    2  C2  UNL     1     -32.616   8.557   0.834  1.00 20.00    -0.007 C 
HETATM    3  C4  UNL     1     -33.620   6.006   3.357  1.00 20.00     0.002 C 
HETATM    4  C5  UNL     1     -32.454   5.621   2.404  1.00 20.00     0.009 C 
HETATM    5  C6  UNL     1     -34.034   7.452   2.938  1.00 20.00     0.015 C 
HETATM    6  C7  UNL     1     -32.684   6.624   1.312  1.00 20.00     0.021 C 
HETATM    7  C8  UNL     1     -32.792   7.931   2.205  1.00 20.00    -0.007 C 
HETATM    8  C10 UNL     1     -31.725   8.433   3.200  1.00 20.00     0.021 C 
ENDROOT
BRANCH   2   9
HETATM    9  C3  UNL     1     -32.658   9.899   0.272  1.00 20.00     0.152 C 
HETATM   10  C9  UNL     1     -32.388  11.071   1.188  1.00 20.00     0.096 C 
HETATM   11  O11 UNL     1     -32.914  10.081  -0.926  1.00 20.00    -0.293 OA
ENDBRANCH   2   9
TORSDOF 1
ENDMDL
MODEL 7
REMARK VINA RESULT:       1.8      2.331      4.104
REMARK  1 active torsions:
REMARK  status: ('A' for Active; 'I' for Inactive)
REMARK    1  A    between atoms: C2_2  and  C3_3 
ROOT
HETATM    1  C1  UNL     1     -33.095   7.414   4.194  1.00 20.00    -0.009 C 
HETATM    2  C2  UNL     1     -34.096   7.023   3.349  1.00 20.00    -0.007 C 
HETATM    3  C4  UNL     1     -31.695   8.489   0.907  1.00 20.00     0.002 C 
HETATM    4  C5  UNL     1     -31.217   8.398   2.383  1.00 20.00     0.009 C 
HETATM    5  C6  UNL     1     -33.135   7.885   0.901  1.00 20.00     0.015 C 
HETATM    6  C7  UNL     1     -32.545   8.240   3.065  1.00 20.00     0.021 C 
HETATM    7  C8  UNL     1     -33.131   7.062   2.179  1.00 20.00    -0.007 C 
HETATM    8  C10 UNL     1     -32.462   5.690   1.948  1.00 20.00     0.021 C 
ENDROOT
BRANCH   2   9
HETATM    9  C3  UNL     1     -35.324   6.318   3.683  1.00 20.00     0.152 C 
HETATM   10  C9  UNL     1     -36.613   6.771   3.035  1.00 20.00     0.096 C 
HETATM   11  O11 UNL     1     -35.320   5.372   4.483  1.00 20.00    -0.293 OA
ENDBRANCH   2   9
TORSDOF 1
ENDMDL
