MODEL 1
REMARK VINA RESULT:      -1.3      0.000      0.000
REMARK  1 active torsions:
REMARK  status: ('A' for Active; 'I' for Inactive)
REMARK    1  A    between atoms: C3_3  and  C7_7 
ROOT
HETATM    1  C1  UNL     1     -32.470   5.773   1.226  1.00 20.00    -0.029 C 
HETATM    2  C2  UNL     1     -31.788   6.839   0.785  1.00 20.00    -0.026 C 
HETATM    3  C4  UNL     1     -33.353   5.804   2.438  1.00 20.00     0.039 C 
HETATM    4  C5  UNL     1     -33.033   8.308   2.426  1.00 20.00     0.020 C 
HETATM    5  C6  UNL     1     -31.858   8.196   1.436  1.00 20.00     0.004 C 
HETATM    6  C7  UNL     1     -33.142   7.056   3.298  1.00 20.00     0.059 C 
HETATM    7  C9  UNL     1     -31.953   9.302   0.385  1.00 20.00     0.014 C 
ENDROOT
BRANCH   6   8
HETATM    8  C3  UNL     1     -34.281   7.196   4.260  1.00 20.00     0.127 C 
HETATM    9  C8  UNL     1     -35.425   6.231   4.100  1.00 20.00     0.091 C 
HETATM   10  O10 UNL     1     -34.281   8.056   5.140  1.00 20.00    -0.298 OA
ENDBRANCH   6   8
TORSDOF 1
ENDMDL
MODEL 2
REMARK VINA RESULT:      -1.1      1.118      1.174
REMARK  1 active torsions:
REMARK  status: ('A' for Active; 'I' for Inactive)
REMARK    1  A    between atoms: C3_3  and  C7_7 
ROOT
HETATM    1  C1  UNL     1     -32.013   5.759   1.145  1.00 20.00    -0.029 C 
HETATM    2  C2  UNL     1     -31.584   7.028   1.089  1.00 20.00    -0.026 C 
HETATM    3  C4  UNL     1     -33.092   5.295   2.077  1.00 20.00     0.039 C 
HETATM    4  C5  UNL     1     -33.493   7.733   2.592  1.00 20.00     0.020 C 
HETATM    5  C6  UNL     1     -32.162   8.136   1.932  1.00 20.00     0.004 C 
HETATM    6  C7  UNL     1     -33.418   6.319   3.170  1.00 20.00     0.059 C 
HETATM    7  C9  UNL     1     -32.351   9.408   1.105  1.00 20.00     0.014 C 
ENDROOT
BRANCH   6   8
HETATM    8  C3  UNL     1     -34.719   5.957   3.818  1.00 20.00     0.127 C 
HETATM    9  C8  UNL     1     -34.782   4.622   4.510  1.00 20.00     0.091 C 
HETATM   10  O10 UNL     1     -35.687   6.715   3.789  1.00 20.00    -0.298 OA
ENDBRANCH   6   8
TORSDOF 1
ENDMDL
MODEL 3
REMARK VINA RESULT:      -0.9      0.727      2.196
REMARK  1 active torsions:
REMARK  status: ('A' for Active; 'I' for Inactive)
REMARK    1  A    between atoms: C3_3  and  C7_7 
ROOT
HETATM    1  C1  UNL     1     -31.641   8.137   1.836  1.00 20.00    -0.029 C 
HETATM    2  C2  UNL     1     -31.607   7.119   0.965  1.00 20.00    -0.026 C 
HETATM    3  C4  UNL     1     -32.612   8.214   2.977  1.00 20.00     0.039 C 
HETATM    4  C5  UNL     1     -33.234   5.833   2.415  1.00 20.00     0.020 C 
HETATM    5  C6  UNL     1     -32.518   5.922   1.054  1.00 20.00     0.004 C 
HETATM    6  C7  UNL     1     -33.757   7.201   2.855  1.00 20.00     0.059 C 
HETATM    7  C9  UNL     1     -31.748   4.629   0.783  1.00 20.00     0.014 C 
ENDROOT
BRANCH   6   8
HETATM    8  C3  UNL     1     -34.460   7.085   4.172  1.00 20.00     0.127 C 
HETATM    9  C8  UNL     1     -35.433   5.947   4.322  1.00 20.00     0.091 C 
HETATM   10  O10 UNL     1     -34.251   7.880   5.088  1.00 20.00    -0.298 OA
ENDBRANCH   6   8
TORSDOF 1
ENDMDL
MODEL 4
REMARK VINA RESULT:      -0.9      1.465      1.522
REMARK  1 active torsions:
REMARK  status: ('A' for Active; 'I' for Inactive)
REMARK    1  A    between atoms: C3_3  and  C7_7 
ROOT
HETATM    1  C1  UNL     1     -32.009   5.686   1.016  1.00 20.00    -0.029 C 
HETATM    2  C2  UNL     1     -31.637   6.973   1.062  1.00 20.00    -0.026 C 
HETATM    3  C4  UNL     1     -32.998   5.080   1.966  1.00 20.00     0.039 C 
HETATM    4  C5  UNL     1     -33.459   7.433   2.756  1.00 20.00     0.020 C 
HETATM    5  C6  UNL     1     -32.196   7.963   2.052  1.00 20.00     0.004 C 
HETATM    6  C7  UNL     1     -33.285   5.973   3.179  1.00 20.00     0.059 C 
HETATM    7  C9  UNL     1     -32.496   9.300   1.374  1.00 20.00     0.014 C 
ENDROOT
BRANCH   6   8
HETATM    8  C3  UNL     1     -34.520   5.487   3.874  1.00 20.00     0.127 C 
HETATM    9  C8  UNL     1     -35.654   6.468   4.003  1.00 20.00     0.091 C 
HETATM   10  O10 UNL     1     -34.604   4.342   4.315  1.00 20.00    -0.298 OA
ENDBRANCH   6   8
TORSDOF 1
ENDMDL
MODEL 5
REMARK VINA RESULT:      -0.8      1.300      2.439
REMARK  1 active torsions:
REMARK  status: ('A' for Active; 'I' for Inactive)
REMARK    1  A    between atoms: C3_3  and  C7_7 
ROOT
HETATM    1  C1  UNL     1     -32.301   8.030   2.557  1.00 20.00    -0.029 C 
HETATM    2  C2  UNL     1     -31.931   7.357   1.458  1.00 20.00    -0.026 C 
HETATM    3  C4  UNL     1     -33.320   7.519   3.532  1.00 20.00     0.039 C 
HETATM    4  C5  UNL     1     -33.212   5.334   2.273  1.00 20.00     0.020 C 
HETATM    5  C6  UNL     1     -32.472   5.998   1.097  1.00 20.00     0.004 C 
HETATM    6  C7  UNL     1     -34.124   6.333   2.988  1.00 20.00     0.059 C 
HETATM    7  C9  UNL     1     -31.354   5.082   0.598  1.00 20.00     0.014 C 
ENDROOT
BRANCH   6   8
HETATM    8  C3  UNL     1     -34.843   5.660   4.116  1.00 20.00     0.127 C 
HETATM    9  C8  UNL     1     -34.355   4.291   4.508  1.00 20.00     0.091 C 
HETATM   10  O10 UNL     1     -35.783   6.200   4.696  1.00 20.00    -0.298 OA
ENDBRANCH   6   8
TORSDOF 1
ENDMDL
MODEL 6
REMARK VINA RESULT:      -0.4      2.869      3.894
REMARK  1 active torsions:
REMARK  status: ('A' for Active; 'I' for Inactive)
REMARK    1  A    between atoms: C3_3  and  C7_7 
ROOT
HETATM    1  C1  UNL     1     -35.273   6.291   4.103  1.00 20.00    -0.029 C 
HETATM    2  C2  UNL     1     -34.635   6.821   3.050  1.00 20.00    -0.026 C 
HETATM    3  C4  UNL     1     -34.921   4.959   4.695  1.00 20.00     0.039 C 
HETATM    4  C5  UNL     1     -32.888   4.996   3.199  1.00 20.00     0.020 C 
HETATM    5  C6  UNL     1     -33.469   6.154   2.366  1.00 20.00     0.004 C 
HETATM    6  C7  UNL     1     -34.000   4.129   3.793  1.00 20.00     0.059 C 
HETATM    7  C9  UNL     1     -32.373   7.169   2.043  1.00 20.00     0.014 C 
ENDROOT
BRANCH   6   8
HETATM    8  C3  UNL     1     -33.409   3.004   4.585  1.00 20.00     0.127 C 
HETATM    9  C8  UNL     1     -32.562   3.383   5.770  1.00 20.00     0.091 C 
HETATM   10  O10 UNL     1     -33.608   1.829   4.284  1.00 20.00    -0.298 OA
ENDBRANCH   6   8
TORSDOF 1
ENDMDL
MODEL 7
REMARK VINA RESULT:      -0.4      2.075      3.925
REMARK  1 active torsions:
REMARK  status: ('A' for Active; 'I' for Inactive)
REMARK    1  A    between atoms: C3_3  and  C7_7 
ROOT
HETATM    1  C1  UNL     1     -33.100   5.639   2.266  1.00 20.00    -0.029 C 
HETATM    2  C2  UNL     1     -33.795   6.080   3.324  1.00 20.00    -0.026 C 
HETATM    3  C4  UNL     1     -32.448   6.552   1.270  1.00 20.00     0.039 C 
HETATM    4  C5  UNL     1     -33.003   8.437   2.855  1.00 20.00     0.020 C 
HETATM    5  C6  UNL     1     -33.971   7.541   3.649  1.00 20.00     0.004 C 
HETATM    6  C7  UNL     1     -32.925   8.004   1.390  1.00 20.00     0.059 C 
HETATM    7  C9  UNL     1     -33.804   7.789   5.149  1.00 20.00     0.014 C 
ENDROOT
BRANCH   6   8
HETATM    8  C3  UNL     1     -31.989   8.899   0.637  1.00 20.00     0.127 C 
HETATM    9  C8  UNL     1     -32.507  10.263   0.268  1.00 20.00     0.091 C 
HETATM   10  O10 UNL     1     -30.852   8.537   0.337  1.00 20.00    -0.298 OA
ENDBRANCH   6   8
TORSDOF 1
ENDMDL
MODEL 8
REMARK VINA RESULT:      -0.1      2.351      4.612
REMARK  1 active torsions:
REMARK  status: ('A' for Active; 'I' for Inactive)
REMARK    1  A    between atoms: C3_3  and  C7_7 
ROOT
HETATM    1  C1  UNL     1     -35.465   5.707   4.264  1.00 20.00    -0.029 C 
HETATM    2  C2  UNL     1     -34.894   4.649   4.858  1.00 20.00    -0.026 C 
HETATM    3  C4  UNL     1     -34.796   6.507   3.186  1.00 20.00     0.039 C 
HETATM    4  C5  UNL     1     -33.028   4.706   3.150  1.00 20.00     0.020 C 
HETATM    5  C6  UNL     1     -33.531   4.125   4.484  1.00 20.00     0.004 C 
HETATM    6  C7  UNL     1     -33.297   6.209   3.065  1.00 20.00     0.059 C 
HETATM    7  C9  UNL     1     -33.533   2.597   4.423  1.00 20.00     0.014 C 
ENDROOT
BRANCH   6   8
HETATM    8  C3  UNL     1     -32.786   6.752   1.766  1.00 20.00     0.127 C 
HETATM    9  C8  UNL     1     -32.063   8.071   1.821  1.00 20.00     0.091 C 
HETATM   10  O10 UNL     1     -32.947   6.148   0.706  1.00 20.00    -0.298 OA
ENDBRANCH   6   8
TORSDOF 1
ENDMDL
MODEL 9
REMARK VINA RESULT:       0.1      2.435      4.209
REMARK  1 active torsions:
REMARK  status: ('A' for Active; 'I' for Inactive)
REMARK    1  A    between atoms: C3_3  and  C7_7 
ROOT
HETATM    1  C1  UNL     1     -32.422   8.024   2.487  1.00 20.00    -0.029 C 
HETATM    2  C2  UNL     1     -33.255   7.716   3.490  1.00 20.00    -0.026 C 
HETATM    3  C4  UNL     1     -32.023   7.051   1.418  1.00 20.00     0.039 C 
HETATM    4  C5  UNL     1     -33.795   5.518   2.358  1.00 20.00     0.020 C 
HETATM    5  C6  UNL     1     -33.910   6.366   3.639  1.00 20.00     0.004 C 
HETATM    6  C7  UNL     1     -32.388   5.602   1.764  1.00 20.00     0.059 C 
HETATM    7  C9  UNL     1     -35.378   6.515   4.038  1.00 20.00     0.014 C 
ENDROOT
BRANCH   6   8
HETATM    8  C3  UNL     1     -32.298   4.758   0.530  1.00 20.00     0.127 C 
HETATM    9  C8  UNL     1     -33.584   4.498  -0.207  1.00 20.00     0.091 C 
HETATM   10  O10 UNL     1     -31.226   4.302   0.136  1.00 20.00    -0.298 OA
ENDBRANCH   6   8
TORSDOF 1
ENDMDL
