MODEL 1
REMARK VINA RESULT:      -0.7      0.000      0.000
REMARK  1 active torsions:
REMARK  status: ('A' for Active; 'I' for Inactive)
REMARK    1  A    between atoms: C1_1  and  C5_5 
ROOT
HETATM    1  C2  UNL     1     -33.165   5.750   1.616  1.00 20.00     0.013 C 
HETATM    2  C3  UNL     1     -31.806   6.429   1.762  1.00 20.00     0.009 C 
HETATM    3  C4  UNL     1     -33.311   7.682   3.125  1.00 20.00     0.021 C 
HETATM    4  C5  UNL     1     -34.101   6.485   2.582  1.00 20.00     0.055 C 
HETATM    5  C6  UNL     1     -32.135   7.875   2.154  1.00 20.00    -0.047 C 
HETATM    6  C8  UNL     1     -32.560   8.706   0.931  1.00 20.00     0.015 C 
HETATM    7  C9  UNL     1     -30.945   8.556   2.834  1.00 20.00     0.015 C 
ENDROOT
BRANCH   4   8
HETATM    8  C1  UNL     1     -34.557   5.589   3.693  1.00 20.00     0.127 C 
HETATM    9  C7  UNL     1     -33.830   4.281   3.850  1.00 20.00     0.091 C 
HETATM   10  O10 UNL     1     -35.478   5.909   4.443  1.00 20.00    -0.298 OA
ENDBRANCH   4   8
TORSDOF 1
ENDMDL
MODEL 2
REMARK VINA RESULT:      -0.2      1.948      4.144
REMARK  1 active torsions:
REMARK  status: ('A' for Active; 'I' for Inactive)
REMARK    1  A    between atoms: C1_1  and  C5_5 
ROOT
HETATM    1  C2  UNL     1     -33.425   8.209   3.725  1.00 20.00     0.013 C 
HETATM    2  C3  UNL     1     -33.470   6.930   4.556  1.00 20.00     0.009 C 
HETATM    3  C4  UNL     1     -33.663   6.237   2.282  1.00 20.00     0.021 C 
HETATM    4  C5  UNL     1     -33.433   7.753   2.262  1.00 20.00     0.055 C 
HETATM    5  C6  UNL     1     -34.223   5.922   3.678  1.00 20.00    -0.047 C 
HETATM    6  C8  UNL     1     -35.742   6.158   3.731  1.00 20.00     0.015 C 
HETATM    7  C9  UNL     1     -33.923   4.481   4.097  1.00 20.00     0.015 C 
ENDROOT
BRANCH   4   8
HETATM    8  C1  UNL     1     -32.147   8.096   1.573  1.00 20.00     0.127 C 
HETATM    9  C7  UNL     1     -32.153   9.319   0.697  1.00 20.00     0.091 C 
HETATM   10  O10 UNL     1     -31.135   7.412   1.720  1.00 20.00    -0.298 OA
ENDBRANCH   4   8
TORSDOF 1
ENDMDL
MODEL 3
REMARK VINA RESULT:       0.6      1.537      2.858
REMARK  1 active torsions:
REMARK  status: ('A' for Active; 'I' for Inactive)
REMARK    1  A    between atoms: C1_1  and  C5_5 
ROOT
HETATM    1  C2  UNL     1     -32.441   7.673   2.375  1.00 20.00     0.013 C 
HETATM    2  C3  UNL     1     -32.718   7.127   0.978  1.00 20.00     0.009 C 
HETATM    3  C4  UNL     1     -33.486   5.454   2.494  1.00 20.00     0.021 C 
HETATM    4  C5  UNL     1     -33.040   6.649   3.346  1.00 20.00     0.055 C 
HETATM    5  C6  UNL     1     -32.748   5.603   1.155  1.00 20.00    -0.047 C 
HETATM    6  C8  UNL     1     -31.328   5.019   1.238  1.00 20.00     0.015 C 
HETATM    7  C9  UNL     1     -33.505   4.921   0.013  1.00 20.00     0.015 C 
ENDROOT
BRANCH   4   8
HETATM    8  C1  UNL     1     -34.192   7.227   4.111  1.00 20.00     0.127 C 
HETATM    9  C7  UNL     1     -35.508   6.504   4.002  1.00 20.00     0.091 C 
HETATM   10  O10 UNL     1     -34.068   8.241   4.797  1.00 20.00    -0.298 OA
ENDBRANCH   4   8
TORSDOF 1
ENDMDL
MODEL 4
REMARK VINA RESULT:       0.8      2.496      4.269
REMARK  1 active torsions:
REMARK  status: ('A' for Active; 'I' for Inactive)
REMARK    1  A    between atoms: C1_1  and  C5_5 
ROOT
HETATM    1  C2  UNL     1     -31.809   6.940   1.922  1.00 20.00     0.013 C 
HETATM    2  C3  UNL     1     -33.124   6.269   2.305  1.00 20.00     0.009 C 
HETATM    3  C4  UNL     1     -33.485   8.610   2.579  1.00 20.00     0.021 C 
HETATM    4  C5  UNL     1     -32.079   8.447   1.987  1.00 20.00     0.055 C 
HETATM    5  C6  UNL     1     -33.810   7.266   3.248  1.00 20.00    -0.047 C 
HETATM    6  C8  UNL     1     -33.217   7.196   4.665  1.00 20.00     0.015 C 
HETATM    7  C9  UNL     1     -35.318   7.020   3.322  1.00 20.00     0.015 C 
ENDROOT
BRANCH   4   8
HETATM    8  C1  UNL     1     -31.986   9.081   0.632  1.00 20.00     0.127 C 
HETATM    9  C7  UNL     1     -32.830  10.304   0.398  1.00 20.00     0.091 C 
HETATM   10  O10 UNL     1     -31.252   8.625  -0.244  1.00 20.00    -0.298 OA
ENDBRANCH   4   8
TORSDOF 1
ENDMDL
MODEL 5
REMARK VINA RESULT:       0.8      2.307      4.095
REMARK  1 active torsions:
REMARK  status: ('A' for Active; 'I' for Inactive)
REMARK    1  A    between atoms: C1_1  and  C5_5 
ROOT
HETATM    1  C2  UNL     1     -32.547   6.111   1.153  1.00 20.00     0.013 C 
HETATM    2  C3  UNL     1     -33.948   5.791   1.664  1.00 20.00     0.009 C 
HETATM    3  C4  UNL     1     -33.126   7.535   3.069  1.00 20.00     0.021 C 
HETATM    4  C5  UNL     1     -32.067   7.308   1.982  1.00 20.00     0.055 C 
HETATM    5  C6  UNL     1     -33.937   6.231   3.134  1.00 20.00    -0.047 C 
HETATM    6  C8  UNL     1     -33.238   5.190   4.025  1.00 20.00     0.015 C 
HETATM    7  C9  UNL     1     -35.354   6.471   3.658  1.00 20.00     0.015 C 
ENDROOT
BRANCH   4   8
HETATM    8  C1  UNL     1     -31.896   8.531   1.132  1.00 20.00     0.127 C 
HETATM    9  C7  UNL     1     -32.849   9.668   1.382  1.00 20.00     0.091 C 
HETATM   10  O10 UNL     1     -31.016   8.602   0.274  1.00 20.00    -0.298 OA
ENDBRANCH   4   8
TORSDOF 1
ENDMDL
MODEL 6
REMARK VINA RESULT:       1.0      1.195      2.315
REMARK  1 active torsions:
REMARK  status: ('A' for Active; 'I' for Inactive)
REMARK    1  A    between atoms: C1_1  and  C5_5 
ROOT
HETATM    1  C2  UNL     1     -34.196   6.820   3.904  1.00 20.00     0.013 C 
HETATM    2  C3  UNL     1     -34.390   7.222   2.445  1.00 20.00     0.009 C 
HETATM    3  C4  UNL     1     -32.982   5.298   2.408  1.00 20.00     0.021 C 
HETATM    4  C5  UNL     1     -33.388   5.518   3.871  1.00 20.00     0.055 C 
HETATM    5  C6  UNL     1     -33.161   6.660   1.720  1.00 20.00    -0.047 C 
HETATM    6  C8  UNL     1     -31.927   7.553   1.932  1.00 20.00     0.015 C 
HETATM    7  C9  UNL     1     -33.417   6.507   0.219  1.00 20.00     0.015 C 
ENDROOT
BRANCH   4   8
HETATM    8  C1  UNL     1     -34.189   4.362   4.390  1.00 20.00     0.127 C 
HETATM    9  C7  UNL     1     -33.461   3.055   4.554  1.00 20.00     0.091 C 
HETATM   10  O10 UNL     1     -35.381   4.477   4.671  1.00 20.00    -0.298 OA
ENDBRANCH   4   8
TORSDOF 1
ENDMDL
MODEL 7
REMARK VINA RESULT:       1.1      1.124      1.979
REMARK  1 active torsions:
REMARK  status: ('A' for Active; 'I' for Inactive)
REMARK    1  A    between atoms: C1_1  and  C5_5 
ROOT
HETATM    1  C2  UNL     1     -32.940   7.657   4.130  1.00 20.00     0.013 C 
HETATM    2  C3  UNL     1     -32.723   8.767   3.106  1.00 20.00     0.009 C 
HETATM    3  C4  UNL     1     -33.347   6.836   1.851  1.00 20.00     0.021 C 
HETATM    4  C5  UNL     1     -33.452   6.452   3.333  1.00 20.00     0.055 C 
HETATM    5  C6  UNL     1     -32.383   8.032   1.802  1.00 20.00    -0.047 C 
HETATM    6  C8  UNL     1     -30.919   7.562   1.789  1.00 20.00     0.015 C 
HETATM    7  C9  UNL     1     -32.638   8.915   0.579  1.00 20.00     0.015 C 
ENDROOT
BRANCH   4   8
HETATM    8  C1  UNL     1     -34.863   6.108   3.703  1.00 20.00     0.127 C 
HETATM    9  C7  UNL     1     -35.067   4.843   4.491  1.00 20.00     0.091 C 
HETATM   10  O10 UNL     1     -35.808   6.827   3.381  1.00 20.00    -0.298 OA
ENDBRANCH   4   8
TORSDOF 1
ENDMDL
MODEL 8
REMARK VINA RESULT:       1.4      1.977      3.193
REMARK  1 active torsions:
REMARK  status: ('A' for Active; 'I' for Inactive)
REMARK    1  A    between atoms: C1_1  and  C5_5 
ROOT
HETATM    1  C2  UNL     1     -34.113   6.286   3.326  1.00 20.00     0.013 C 
HETATM    2  C3  UNL     1     -33.374   5.094   2.725  1.00 20.00     0.009 C 
HETATM    3  C4  UNL     1     -32.325   7.036   1.820  1.00 20.00     0.021 C 
HETATM    4  C5  UNL     1     -33.364   7.529   2.835  1.00 20.00     0.055 C 
HETATM    5  C6  UNL     1     -32.781   5.626   1.414  1.00 20.00    -0.047 C 
HETATM    6  C8  UNL     1     -33.843   5.688   0.302  1.00 20.00     0.015 C 
HETATM    7  C9  UNL     1     -31.608   4.766   0.939  1.00 20.00     0.015 C 
ENDROOT
BRANCH   4   8
HETATM    8  C1  UNL     1     -32.709   8.259   3.968  1.00 20.00     0.127 C 
HETATM    9  C7  UNL     1     -33.431   8.247   5.289  1.00 20.00     0.091 C 
HETATM   10  O10 UNL     1     -31.631   8.836   3.827  1.00 20.00    -0.298 OA
ENDBRANCH   4   8
TORSDOF 1
ENDMDL
MODEL 9
REMARK VINA RESULT:       1.5      2.507      4.457
REMARK  1 active torsions:
REMARK  status: ('A' for Active; 'I' for Inactive)
REMARK    1  A    between atoms: C1_1  and  C5_5 
ROOT
HETATM    1  C2  UNL     1     -31.611   8.385   2.117  1.00 20.00     0.013 C 
HETATM    2  C3  UNL     1     -31.313   6.910   1.867  1.00 20.00     0.009 C 
HETATM    3  C4  UNL     1     -33.392   7.347   0.783  1.00 20.00     0.021 C 
HETATM    4  C5  UNL     1     -32.886   8.691   1.323  1.00 20.00     0.055 C 
HETATM    5  C6  UNL     1     -32.687   6.272   1.624  1.00 20.00    -0.047 C 
HETATM    6  C8  UNL     1     -33.434   6.026   2.946  1.00 20.00     0.015 C 
HETATM    7  C9  UNL     1     -32.564   4.949   0.864  1.00 20.00     0.015 C 
ENDROOT
BRANCH   4   8
HETATM    8  C1  UNL     1     -32.621   9.656   0.208  1.00 20.00     0.127 C 
HETATM    9  C7  UNL     1     -32.334  11.081   0.600  1.00 20.00     0.091 C 
HETATM   10  O10 UNL     1     -32.632   9.301  -0.969  1.00 20.00    -0.298 OA
ENDBRANCH   4   8
TORSDOF 1
ENDMDL
