MODEL 1
REMARK VINA RESULT:      -1.2      0.000      0.000
REMARK  1 active torsions:
REMARK  status: ('A' for Active; 'I' for Inactive)
REMARK    1  A    between atoms: C1_1  and  C4_4 
ROOT
HETATM    1  C1  UNL     1     -33.921   4.737   3.855  1.00 20.00    -0.049 C 
HETATM    2  C2  UNL     1     -33.642   3.629   4.222  1.00 20.00     0.008 C 
HETATM    3 CL8  UNL     1     -33.233   2.010   4.757  1.00 20.00    -0.023 Cl
ENDROOT
BRANCH   1   4
HETATM    4  C4  UNL     1     -34.255   6.060   3.418  1.00 20.00     0.147 A 
HETATM    5  C3  UNL     1     -33.528   6.688   2.247  1.00 20.00     0.166 A 
HETATM    6  C5  UNL     1     -32.455   5.996   1.481  1.00 20.00     0.044 C 
HETATM    7  O7  UNL     1     -33.182   7.000   3.601  1.00 20.00    -0.356 OA
HETATM    8  C6  UNL     1     -35.591   6.598   3.818  1.00 20.00     0.063 C 
ENDBRANCH   1   4
TORSDOF 1
ENDMDL
MODEL 2
REMARK VINA RESULT:      -0.3      2.368      3.225
REMARK  1 active torsions:
REMARK  status: ('A' for Active; 'I' for Inactive)
REMARK    1  A    between atoms: C1_1  and  C4_4 
ROOT
HETATM    1  C1  UNL     1     -33.373   6.209   2.577  1.00 20.00    -0.049 C 
HETATM    2  C2  UNL     1     -32.695   5.713   1.720  1.00 20.00     0.008 C 
HETATM    3 CL8  UNL     1     -31.704   4.988   0.467  1.00 20.00    -0.023 Cl
ENDROOT
BRANCH   1   4
HETATM    4  C4  UNL     1     -34.182   6.801   3.599  1.00 20.00     0.147 A 
HETATM    5  C3  UNL     1     -34.964   5.929   4.562  1.00 20.00     0.166 A 
HETATM    6  C5  UNL     1     -34.941   4.442   4.523  1.00 20.00     0.044 C 
HETATM    7  O7  UNL     1     -35.586   6.541   3.427  1.00 20.00    -0.356 OA
HETATM    8  C6  UNL     1     -33.881   8.216   3.979  1.00 20.00     0.063 C 
ENDBRANCH   1   4
TORSDOF 1
ENDMDL
MODEL 3
REMARK VINA RESULT:      -0.3      2.783      3.317
REMARK  1 active torsions:
REMARK  status: ('A' for Active; 'I' for Inactive)
REMARK    1  A    between atoms: C1_1  and  C4_4 
ROOT
HETATM    1  C1  UNL     1     -32.342   6.380   1.599  1.00 20.00    -0.049 C 
HETATM    2  C2  UNL     1     -31.974   5.425   0.972  1.00 20.00     0.008 C 
HETATM    3 CL8  UNL     1     -31.436   4.030   0.054  1.00 20.00    -0.023 Cl
ENDROOT
BRANCH   1   4
HETATM    4  C4  UNL     1     -32.781   7.518   2.349  1.00 20.00     0.147 A 
HETATM    5  C3  UNL     1     -32.645   8.914   1.776  1.00 20.00     0.166 A 
HETATM    6  C5  UNL     1     -32.072   9.196   0.431  1.00 20.00     0.044 C 
HETATM    7  O7  UNL     1     -31.705   8.395   2.723  1.00 20.00    -0.356 OA
HETATM    8  C6  UNL     1     -33.762   7.277   3.451  1.00 20.00     0.063 C 
ENDBRANCH   1   4
TORSDOF 1
ENDMDL
MODEL 4
REMARK VINA RESULT:      -0.3      3.170      3.912
REMARK  1 active torsions:
REMARK  status: ('A' for Active; 'I' for Inactive)
REMARK    1  A    between atoms: C1_1  and  C4_4 
ROOT
HETATM    1  C1  UNL     1     -33.067   7.614   2.790  1.00 20.00    -0.049 C 
HETATM    2  C2  UNL     1     -32.387   7.928   1.853  1.00 20.00     0.008 C 
HETATM    3 CL8  UNL     1     -31.393   8.388   0.482  1.00 20.00    -0.023 Cl
ENDROOT
BRANCH   1   4
HETATM    4  C4  UNL     1     -33.878   7.239   3.909  1.00 20.00     0.147 A 
HETATM    5  C3  UNL     1     -34.292   5.795   4.109  1.00 20.00     0.166 A 
HETATM    6  C5  UNL     1     -33.891   4.694   3.192  1.00 20.00     0.044 C 
HETATM    7  O7  UNL     1     -35.177   6.758   3.526  1.00 20.00    -0.356 OA
HETATM    8  C6  UNL     1     -33.910   8.173   5.077  1.00 20.00     0.063 C 
ENDBRANCH   1   4
TORSDOF 1
ENDMDL
MODEL 5
REMARK VINA RESULT:      -0.2      2.250      3.217
REMARK  1 active torsions:
REMARK  status: ('A' for Active; 'I' for Inactive)
REMARK    1  A    between atoms: C1_1  and  C4_4 
ROOT
HETATM    1  C1  UNL     1     -33.468   6.255   2.657  1.00 20.00    -0.049 C 
HETATM    2  C2  UNL     1     -34.342   5.999   3.439  1.00 20.00     0.008 C 
HETATM    3 CL8  UNL     1     -35.620   5.626   4.582  1.00 20.00    -0.023 Cl
ENDROOT
BRANCH   1   4
HETATM    4  C4  UNL     1     -32.425   6.559   1.724  1.00 20.00     0.147 A 
HETATM    5  C3  UNL     1     -31.563   7.791   1.911  1.00 20.00     0.166 A 
HETATM    6  C5  UNL     1     -31.724   8.739   3.046  1.00 20.00     0.044 C 
HETATM    7  O7  UNL     1     -32.661   7.774   0.993  1.00 20.00    -0.356 OA
HETATM    8  C6  UNL     1     -31.921   5.439   0.870  1.00 20.00     0.063 C 
ENDBRANCH   1   4
TORSDOF 1
ENDMDL
MODEL 6
REMARK VINA RESULT:      -0.1      3.969      4.668
REMARK  1 active torsions:
REMARK  status: ('A' for Active; 'I' for Inactive)
REMARK    1  A    between atoms: C1_1  and  C4_4 
ROOT
HETATM    1  C1  UNL     1     -32.721   8.231   1.626  1.00 20.00    -0.049 C 
HETATM    2  C2  UNL     1     -32.451   9.112   0.856  1.00 20.00     0.008 C 
HETATM    3 CL8  UNL     1     -32.057  10.398  -0.270  1.00 20.00    -0.023 Cl
ENDROOT
BRANCH   1   4
HETATM    4  C4  UNL     1     -33.042   7.181   2.544  1.00 20.00     0.147 A 
HETATM    5  C3  UNL     1     -32.620   5.754   2.259  1.00 20.00     0.166 A 
HETATM    6  C5  UNL     1     -31.855   5.353   1.046  1.00 20.00     0.044 C 
HETATM    7  O7  UNL     1     -33.951   6.211   1.995  1.00 20.00    -0.356 OA
HETATM    8  C6  UNL     1     -33.371   7.575   3.949  1.00 20.00     0.063 C 
ENDBRANCH   1   4
TORSDOF 1
ENDMDL
MODEL 7
REMARK VINA RESULT:      -0.0      3.676      4.813
REMARK  1 active torsions:
REMARK  status: ('A' for Active; 'I' for Inactive)
REMARK    1  A    between atoms: C1_1  and  C4_4 
ROOT
HETATM    1  C1  UNL     1     -32.736   7.865   1.512  1.00 20.00    -0.049 C 
HETATM    2  C2  UNL     1     -32.563   8.955   1.041  1.00 20.00     0.008 C 
HETATM    3 CL8  UNL     1     -32.311  10.548   0.352  1.00 20.00    -0.023 Cl
ENDROOT
BRANCH   1   4
HETATM    4  C4  UNL     1     -32.942   6.564   2.074  1.00 20.00     0.147 A 
HETATM    5  C3  UNL     1     -33.933   6.362   3.202  1.00 20.00     0.166 A 
HETATM    6  C5  UNL     1     -34.747   7.464   3.785  1.00 20.00     0.044 C 
HETATM    7  O7  UNL     1     -32.527   6.472   3.447  1.00 20.00    -0.356 OA
HETATM    8  C6  UNL     1     -32.531   5.387   1.248  1.00 20.00     0.063 C 
ENDBRANCH   1   4
TORSDOF 1
ENDMDL
MODEL 8
REMARK VINA RESULT:       0.1      1.235      2.155
REMARK  1 active torsions:
REMARK  status: ('A' for Active; 'I' for Inactive)
REMARK    1  A    between atoms: C1_1  and  C4_4 
ROOT
HETATM    1  C1  UNL     1     -33.469   4.982   3.479  1.00 20.00    -0.049 C 
HETATM    2  C2  UNL     1     -33.409   3.951   4.091  1.00 20.00     0.008 C 
HETATM    3 CL8  UNL     1     -33.320   2.445   4.985  1.00 20.00    -0.023 Cl
ENDROOT
BRANCH   1   4
HETATM    4  C4  UNL     1     -33.542   6.212   2.749  1.00 20.00     0.147 A 
HETATM    5  C3  UNL     1     -33.741   7.526   3.476  1.00 20.00     0.166 A 
HETATM    6  C5  UNL     1     -33.863   7.634   4.956  1.00 20.00     0.044 C 
HETATM    7  O7  UNL     1     -34.829   6.845   2.841  1.00 20.00    -0.356 OA
HETATM    8  C6  UNL     1     -32.969   6.224   1.367  1.00 20.00     0.063 C 
ENDBRANCH   1   4
TORSDOF 1
ENDMDL
MODEL 9
REMARK VINA RESULT:       0.2      2.456      3.231
REMARK  1 active torsions:
REMARK  status: ('A' for Active; 'I' for Inactive)
REMARK    1  A    between atoms: C1_1  and  C4_4 
ROOT
HETATM    1  C1  UNL     1     -33.507   7.272   2.719  1.00 20.00    -0.049 C 
HETATM    2  C2  UNL     1     -34.326   6.812   3.466  1.00 20.00     0.008 C 
HETATM    3 CL8  UNL     1     -35.523   6.140   4.559  1.00 20.00    -0.023 Cl
ENDROOT
BRANCH   1   4
HETATM    4  C4  UNL     1     -32.530   7.820   1.827  1.00 20.00     0.147 A 
HETATM    5  C3  UNL     1     -31.652   6.909   0.994  1.00 20.00     0.166 A 
HETATM    6  C5  UNL     1     -31.744   5.423   1.033  1.00 20.00     0.044 C 
HETATM    7  O7  UNL     1     -31.180   7.504   2.208  1.00 20.00    -0.356 OA
HETATM    8  C6  UNL     1     -32.710   9.243   1.403  1.00 20.00     0.063 C 
ENDBRANCH   1   4
TORSDOF 1
ENDMDL
