MODEL 1
REMARK VINA RESULT:      -1.2      0.000      0.000
REMARK  3 active torsions:
REMARK  status: ('A' for Active; 'I' for Inactive)
REMARK    1  A    between atoms: C2_2  and  N7_7 
REMARK    2  A    between atoms: C4_4  and  C5_5 
REMARK    3  A    between atoms: C5_5  and  N7_7 
ROOT
HETATM    1  C1  UNL     1     -32.221   9.230   0.721  1.00 20.00     0.060 C 
HETATM    2  C4  UNL     1     -31.790   8.023   1.441  1.00 20.00     0.143 C 
HETATM    3  N6  UNL     1     -32.559  10.182   0.151  1.00 20.00    -0.197 NA
ENDROOT
BRANCH   2   4
HETATM    4  C5  UNL     1     -32.766   7.641   2.549  1.00 20.00     0.138 C 
BRANCH   4   5
HETATM    5  N7  UNL     1     -33.187   6.244   2.416  1.00 20.00    -0.366 N 
HETATM    6  C3  UNL     1     -32.527   5.480   1.354  1.00 20.00     0.151 C 
BRANCH   5   7
HETATM    7  C2  UNL     1     -33.987   5.637   3.352  1.00 20.00     0.167 C 
HETATM    8  S8  UNL     1     -33.692   4.017   3.881  1.00 20.00    -0.048 SA
HETATM    9  S9  UNL     1     -35.330   6.458   4.065  1.00 20.00    -0.048 SA
ENDBRANCH   5   7
ENDBRANCH   4   5
ENDBRANCH   2   4
TORSDOF 3
ENDMDL
MODEL 2
REMARK VINA RESULT:      -1.2      0.060      1.390
REMARK  3 active torsions:
REMARK  status: ('A' for Active; 'I' for Inactive)
REMARK    1  A    between atoms: C2_2  and  N7_7 
REMARK    2  A    between atoms: C4_4  and  C5_5 
REMARK    3  A    between atoms: C5_5  and  N7_7 
ROOT
HETATM    1  C1  UNL     1     -32.234   9.287   0.727  1.00 20.00     0.060 C 
HETATM    2  C4  UNL     1     -31.793   8.048   1.386  1.00 20.00     0.143 C 
HETATM    3  N6  UNL     1     -32.580  10.264   0.206  1.00 20.00    -0.197 NA
ENDROOT
BRANCH   2   4
HETATM    4  C5  UNL     1     -32.711   7.658   2.539  1.00 20.00     0.138 C 
BRANCH   4   5
HETATM    5  N7  UNL     1     -33.159   6.269   2.403  1.00 20.00    -0.366 N 
HETATM    6  C3  UNL     1     -32.509   5.493   1.344  1.00 20.00     0.151 C 
BRANCH   5   7
HETATM    7  C2  UNL     1     -33.975   5.678   3.335  1.00 20.00     0.167 C 
HETATM    8  S8  UNL     1     -35.330   6.513   4.012  1.00 20.00    -0.048 SA
HETATM    9  S9  UNL     1     -33.702   4.060   3.882  1.00 20.00    -0.048 SA
ENDBRANCH   5   7
ENDBRANCH   4   5
ENDBRANCH   2   4
TORSDOF 3
ENDMDL
MODEL 3
REMARK VINA RESULT:      -0.9      1.198      1.479
REMARK  3 active torsions:
REMARK  status: ('A' for Active; 'I' for Inactive)
REMARK    1  A    between atoms: C2_2  and  N7_7 
REMARK    2  A    between atoms: C4_4  and  C5_5 
REMARK    3  A    between atoms: C5_5  and  N7_7 
ROOT
HETATM    1  C1  UNL     1     -32.309   9.611   0.352  1.00 20.00     0.060 C 
HETATM    2  C4  UNL     1     -31.856   8.261   0.720  1.00 20.00     0.143 C 
HETATM    3  N6  UNL     1     -32.667  10.674   0.058  1.00 20.00    -0.197 NA
ENDROOT
BRANCH   2   4
HETATM    4  C5  UNL     1     -31.959   8.016   2.222  1.00 20.00     0.138 C 
BRANCH   4   5
HETATM    5  N7  UNL     1     -33.000   7.029   2.520  1.00 20.00    -0.366 N 
HETATM    6  C3  UNL     1     -32.997   5.829   1.679  1.00 20.00     0.151 C 
BRANCH   5   7
HETATM    7  C2  UNL     1     -33.788   7.124   3.640  1.00 20.00     0.167 C 
HETATM    8  S8  UNL     1     -35.186   6.128   3.851  1.00 20.00    -0.048 SA
HETATM    9  S9  UNL     1     -33.425   8.239   4.911  1.00 20.00    -0.048 SA
ENDBRANCH   5   7
ENDBRANCH   4   5
ENDBRANCH   2   4
TORSDOF 3
ENDMDL
MODEL 4
REMARK VINA RESULT:      -0.6      2.631      4.634
REMARK  3 active torsions:
REMARK  status: ('A' for Active; 'I' for Inactive)
REMARK    1  A    between atoms: C2_2  and  N7_7 
REMARK    2  A    between atoms: C4_4  and  C5_5 
REMARK    3  A    between atoms: C5_5  and  N7_7 
ROOT
HETATM    1  C1  UNL     1     -34.428   4.421   4.379  1.00 20.00     0.060 C 
HETATM    2  C4  UNL     1     -35.233   5.647   4.485  1.00 20.00     0.143 C 
HETATM    3  N6  UNL     1     -33.794   3.453   4.297  1.00 20.00    -0.197 NA
ENDROOT
BRANCH   2   4
HETATM    4  C5  UNL     1     -35.079   6.538   3.257  1.00 20.00     0.138 C 
BRANCH   4   5
HETATM    5  N7  UNL     1     -33.791   7.237   3.276  1.00 20.00    -0.366 N 
HETATM    6  C3  UNL     1     -33.460   7.924   4.527  1.00 20.00     0.151 C 
BRANCH   5   7
HETATM    7  C2  UNL     1     -32.869   7.082   2.271  1.00 20.00     0.167 C 
HETATM    8  S8  UNL     1     -32.691   5.582   1.429  1.00 20.00    -0.048 SA
HETATM    9  S9  UNL     1     -31.838   8.380   1.781  1.00 20.00    -0.048 SA
ENDBRANCH   5   7
ENDBRANCH   4   5
ENDBRANCH   2   4
TORSDOF 3
ENDMDL
MODEL 5
REMARK VINA RESULT:      -0.6      2.630      4.763
REMARK  3 active torsions:
REMARK  status: ('A' for Active; 'I' for Inactive)
REMARK    1  A    between atoms: C2_2  and  N7_7 
REMARK    2  A    between atoms: C4_4  and  C5_5 
REMARK    3  A    between atoms: C5_5  and  N7_7 
ROOT
HETATM    1  C1  UNL     1     -34.434   4.430   4.379  1.00 20.00     0.060 C 
HETATM    2  C4  UNL     1     -35.239   5.656   4.484  1.00 20.00     0.143 C 
HETATM    3  N6  UNL     1     -33.800   3.462   4.299  1.00 20.00    -0.197 NA
ENDROOT
BRANCH   2   4
HETATM    4  C5  UNL     1     -35.083   6.547   3.255  1.00 20.00     0.138 C 
BRANCH   4   5
HETATM    5  N7  UNL     1     -33.794   7.243   3.275  1.00 20.00    -0.366 N 
HETATM    6  C3  UNL     1     -33.460   7.927   4.526  1.00 20.00     0.151 C 
BRANCH   5   7
HETATM    7  C2  UNL     1     -32.873   7.087   2.268  1.00 20.00     0.167 C 
HETATM    8  S8  UNL     1     -31.839   8.384   1.779  1.00 20.00    -0.048 SA
HETATM    9  S9  UNL     1     -32.686   5.583   1.437  1.00 20.00    -0.048 SA
ENDBRANCH   5   7
ENDBRANCH   4   5
ENDBRANCH   2   4
TORSDOF 3
ENDMDL
MODEL 6
REMARK VINA RESULT:       0.2      0.748      1.352
REMARK  3 active torsions:
REMARK  status: ('A' for Active; 'I' for Inactive)
REMARK    1  A    between atoms: C2_2  and  N7_7 
REMARK    2  A    between atoms: C4_4  and  C5_5 
REMARK    3  A    between atoms: C5_5  and  N7_7 
ROOT
HETATM    1  C1  UNL     1     -32.178   9.138   0.721  1.00 20.00     0.060 C 
HETATM    2  C4  UNL     1     -31.706   8.110   1.661  1.00 20.00     0.143 C 
HETATM    3  N6  UNL     1     -32.547   9.950  -0.020  1.00 20.00    -0.197 NA
ENDROOT
BRANCH   2   4
HETATM    4  C5  UNL     1     -32.702   6.963   1.798  1.00 20.00     0.138 C 
BRANCH   4   5
HETATM    5  N7  UNL     1     -33.223   6.885   3.166  1.00 20.00    -0.366 N 
HETATM    6  C3  UNL     1     -32.933   8.037   4.023  1.00 20.00     0.151 C 
BRANCH   5   7
HETATM    7  C2  UNL     1     -34.100   5.901   3.550  1.00 20.00     0.167 C 
HETATM    8  S8  UNL     1     -33.610   4.246   3.664  1.00 20.00    -0.048 SA
HETATM    9  S9  UNL     1     -35.743   6.258   3.952  1.00 20.00    -0.048 SA
ENDBRANCH   5   7
ENDBRANCH   4   5
ENDBRANCH   2   4
TORSDOF 3
ENDMDL
MODEL 7
REMARK VINA RESULT:       0.2      0.747      1.925
REMARK  3 active torsions:
REMARK  status: ('A' for Active; 'I' for Inactive)
REMARK    1  A    between atoms: C2_2  and  N7_7 
REMARK    2  A    between atoms: C4_4  and  C5_5 
REMARK    3  A    between atoms: C5_5  and  N7_7 
ROOT
HETATM    1  C1  UNL     1     -32.201   9.103   0.722  1.00 20.00     0.060 C 
HETATM    2  C4  UNL     1     -31.732   8.065   1.653  1.00 20.00     0.143 C 
HETATM    3  N6  UNL     1     -32.568   9.922  -0.012  1.00 20.00    -0.197 NA
ENDROOT
BRANCH   2   4
HETATM    4  C5  UNL     1     -32.745   6.935   1.805  1.00 20.00     0.138 C 
BRANCH   4   5
HETATM    5  N7  UNL     1     -33.254   6.871   3.177  1.00 20.00    -0.366 N 
HETATM    6  C3  UNL     1     -32.986   8.047   4.010  1.00 20.00     0.151 C 
BRANCH   5   7
HETATM    7  C2  UNL     1     -34.103   5.873   3.588  1.00 20.00     0.167 C 
HETATM    8  S8  UNL     1     -35.743   6.203   4.025  1.00 20.00    -0.048 SA
HETATM    9  S9  UNL     1     -33.585   4.226   3.683  1.00 20.00    -0.048 SA
ENDBRANCH   5   7
ENDBRANCH   4   5
ENDBRANCH   2   4
TORSDOF 3
ENDMDL
MODEL 8
REMARK VINA RESULT:       0.3      3.012      4.989
REMARK  3 active torsions:
REMARK  status: ('A' for Active; 'I' for Inactive)
REMARK    1  A    between atoms: C2_2  and  N7_7 
REMARK    2  A    between atoms: C4_4  and  C5_5 
REMARK    3  A    between atoms: C5_5  and  N7_7 
ROOT
HETATM    1  C1  UNL     1     -33.310   3.298   4.758  1.00 20.00     0.060 C 
HETATM    2  C4  UNL     1     -34.252   3.994   3.869  1.00 20.00     0.143 C 
HETATM    3  N6  UNL     1     -32.570   2.747   5.461  1.00 20.00    -0.197 NA
ENDROOT
BRANCH   2   4
HETATM    4  C5  UNL     1     -33.555   5.045   3.011  1.00 20.00     0.138 C 
BRANCH   4   5
HETATM    5  N7  UNL     1     -34.016   6.392   3.359  1.00 20.00    -0.366 N 
HETATM    6  C3  UNL     1     -35.371   6.478   3.909  1.00 20.00     0.151 C 
BRANCH   5   7
HETATM    7  C2  UNL     1     -33.164   7.468   3.366  1.00 20.00     0.167 C 
HETATM    8  S8  UNL     1     -32.231   7.895   1.974  1.00 20.00    -0.048 SA
HETATM    9  S9  UNL     1     -32.979   8.468   4.765  1.00 20.00    -0.048 SA
ENDBRANCH   5   7
ENDBRANCH   4   5
ENDBRANCH   2   4
TORSDOF 3
ENDMDL
MODEL 9
REMARK VINA RESULT:       0.4      1.454      1.982
REMARK  3 active torsions:
REMARK  status: ('A' for Active; 'I' for Inactive)
REMARK    1  A    between atoms: C2_2  and  N7_7 
REMARK    2  A    between atoms: C4_4  and  C5_5 
REMARK    3  A    between atoms: C5_5  and  N7_7 
ROOT
HETATM    1  C1  UNL     1     -32.626   9.733   0.269  1.00 20.00     0.060 C 
HETATM    2  C4  UNL     1     -32.377   9.360   1.670  1.00 20.00     0.143 C 
HETATM    3  N6  UNL     1     -32.822  10.030  -0.835  1.00 20.00    -0.197 NA
ENDROOT
BRANCH   2   4
HETATM    4  C5  UNL     1     -31.920   7.911   1.801  1.00 20.00     0.138 C 
BRANCH   4   5
HETATM    5  N7  UNL     1     -32.839   7.149   2.650  1.00 20.00    -0.366 N 
HETATM    6  C3  UNL     1     -33.603   7.932   3.624  1.00 20.00     0.151 C 
BRANCH   5   7
HETATM    7  C2  UNL     1     -33.120   5.827   2.407  1.00 20.00     0.167 C 
HETATM    8  S8  UNL     1     -32.545   5.025   0.987  1.00 20.00    -0.048 SA
HETATM    9  S9  UNL     1     -34.057   4.882   3.511  1.00 20.00    -0.048 SA
ENDBRANCH   5   7
ENDBRANCH   4   5
ENDBRANCH   2   4
TORSDOF 3
ENDMDL
