MODEL 1
REMARK VINA RESULT:      -1.2      0.000      0.000
REMARK  1 active torsions:
REMARK  status: ('A' for Active; 'I' for Inactive)
REMARK    1  A    between atoms: C3_3  and  N9_9 
ROOT
HETATM    1  C1  UNL     1     -33.790   3.674   4.334  1.00 20.00     0.096 C 
HETATM    2  C2  UNL     1     -34.209   4.993   4.003  1.00 20.00     0.040 A 
HETATM    3  C3  UNL     1     -33.650   5.969   3.252  1.00 20.00     0.005 A 
HETATM    4  C4  UNL     1     -35.435   5.789   4.362  1.00 20.00     0.057 A 
HETATM    5  C5  UNL     1     -34.823   6.917   3.523  1.00 20.00     0.057 A 
HETATM    6  N8  UNL     1     -33.447   2.599   4.604  1.00 20.00    -0.192 NA
ENDROOT
BRANCH   3   7
HETATM    7  N9  UNL     1     -32.570   6.186   2.530  1.00 20.00    -0.283 NA
HETATM    8  C6  UNL     1     -32.719   6.143   1.066  1.00 20.00     0.110 A 
HETATM    9  C7  UNL     1     -32.519   7.438   1.757  1.00 20.00     0.110 A 
ENDBRANCH   3   7
TORSDOF 1
ENDMDL
MODEL 2
REMARK VINA RESULT:      -0.8      2.188      4.452
REMARK  1 active torsions:
REMARK  status: ('A' for Active; 'I' for Inactive)
REMARK    1  A    between atoms: C3_3  and  N9_9 
ROOT
HETATM    1  C1  UNL     1     -32.230   8.534   1.075  1.00 20.00     0.096 C 
HETATM    2  C2  UNL     1     -32.530   7.233   1.570  1.00 20.00     0.040 A 
HETATM    3  C3  UNL     1     -33.463   6.777   2.436  1.00 20.00     0.005 A 
HETATM    4  C4  UNL     1     -31.923   5.881   1.306  1.00 20.00     0.057 A 
HETATM    5  C5  UNL     1     -32.964   5.335   2.291  1.00 20.00     0.057 A 
HETATM    6  N8  UNL     1     -31.986   9.594   0.673  1.00 20.00    -0.192 NA
ENDROOT
BRANCH   3   7
HETATM    7  N9  UNL     1     -34.452   7.232   3.179  1.00 20.00    -0.283 NA
HETATM    8  C6  UNL     1     -35.034   6.307   4.165  1.00 20.00     0.110 A 
HETATM    9  C7  UNL     1     -34.178   7.430   4.612  1.00 20.00     0.110 A 
ENDBRANCH   3   7
TORSDOF 1
ENDMDL
MODEL 3
REMARK VINA RESULT:      -0.6      2.499      3.381
REMARK  1 active torsions:
REMARK  status: ('A' for Active; 'I' for Inactive)
REMARK    1  A    between atoms: C3_3  and  N9_9 
ROOT
HETATM    1  C1  UNL     1     -33.920   7.219   3.629  1.00 20.00     0.096 C 
HETATM    2  C2  UNL     1     -33.140   6.756   2.532  1.00 20.00     0.040 A 
HETATM    3  C3  UNL     1     -32.282   7.378   1.693  1.00 20.00     0.005 A 
HETATM    4  C4  UNL     1     -32.980   5.399   1.902  1.00 20.00     0.057 A 
HETATM    5  C5  UNL     1     -32.006   6.078   0.931  1.00 20.00     0.057 A 
HETATM    6  N8  UNL     1     -34.554   7.598   4.523  1.00 20.00    -0.192 NA
ENDROOT
BRANCH   3   7
HETATM    7  N9  UNL     1     -31.780   8.578   1.476  1.00 20.00    -0.283 NA
HETATM    8  C6  UNL     1     -31.382   8.902   0.097  1.00 20.00     0.110 A 
HETATM    9  C7  UNL     1     -32.597   9.513   0.685  1.00 20.00     0.110 A 
ENDBRANCH   3   7
TORSDOF 1
ENDMDL
MODEL 4
REMARK VINA RESULT:      -0.5      0.976      3.425
REMARK  1 active torsions:
REMARK  status: ('A' for Active; 'I' for Inactive)
REMARK    1  A    between atoms: C3_3  and  N9_9 
ROOT
HETATM    1  C1  UNL     1     -32.913   5.956   2.144  1.00 20.00     0.096 C 
HETATM    2  C2  UNL     1     -33.907   5.784   3.148  1.00 20.00     0.040 A 
HETATM    3  C3  UNL     1     -34.265   4.725   3.910  1.00 20.00     0.005 A 
HETATM    4  C4  UNL     1     -34.928   6.720   3.737  1.00 20.00     0.057 A 
HETATM    5  C5  UNL     1     -35.361   5.535   4.610  1.00 20.00     0.057 A 
HETATM    6  N8  UNL     1     -32.102   6.096   1.327  1.00 20.00    -0.192 NA
ENDROOT
BRANCH   3   7
HETATM    7  N9  UNL     1     -33.927   3.466   4.100  1.00 20.00    -0.283 NA
HETATM    8  C6  UNL     1     -32.494   3.136   4.036  1.00 20.00     0.110 A 
HETATM    9  C7  UNL     1     -33.198   3.147   5.339  1.00 20.00     0.110 A 
ENDBRANCH   3   7
TORSDOF 1
ENDMDL
MODEL 5
REMARK VINA RESULT:      -0.5      2.122      2.539
REMARK  1 active torsions:
REMARK  status: ('A' for Active; 'I' for Inactive)
REMARK    1  A    between atoms: C3_3  and  N9_9 
ROOT
HETATM    1  C1  UNL     1     -33.022   5.430   1.467  1.00 20.00     0.096 C 
HETATM    2  C2  UNL     1     -33.450   6.299   2.511  1.00 20.00     0.040 A 
HETATM    3  C3  UNL     1     -33.089   7.553   2.863  1.00 20.00     0.005 A 
HETATM    4  C4  UNL     1     -34.469   6.142   3.607  1.00 20.00     0.057 A 
HETATM    5  C5  UNL     1     -34.076   7.561   4.035  1.00 20.00     0.057 A 
HETATM    6  N8  UNL     1     -32.672   4.724   0.616  1.00 20.00    -0.192 NA
ENDROOT
BRANCH   3   7
HETATM    7  N9  UNL     1     -32.264   8.506   2.479  1.00 20.00    -0.283 NA
HETATM    8  C6  UNL     1     -31.256   8.155   1.465  1.00 20.00     0.110 A 
HETATM    9  C7  UNL     1     -32.412   9.008   1.103  1.00 20.00     0.110 A 
ENDBRANCH   3   7
TORSDOF 1
ENDMDL
MODEL 6
REMARK VINA RESULT:      -0.1      1.852      3.540
REMARK  1 active torsions:
REMARK  status: ('A' for Active; 'I' for Inactive)
REMARK    1  A    between atoms: C3_3  and  N9_9 
ROOT
HETATM    1  C1  UNL     1     -32.720   5.601   1.176  1.00 20.00     0.096 C 
HETATM    2  C2  UNL     1     -32.613   6.826   1.894  1.00 20.00     0.040 A 
HETATM    3  C3  UNL     1     -33.161   7.259   3.052  1.00 20.00     0.005 A 
HETATM    4  C4  UNL     1     -31.843   8.092   1.631  1.00 20.00     0.057 A 
HETATM    5  C5  UNL     1     -32.455   8.614   2.937  1.00 20.00     0.057 A 
HETATM    6  N8  UNL     1     -32.809   4.603   0.592  1.00 20.00    -0.192 NA
ENDROOT
BRANCH   3   7
HETATM    7  N9  UNL     1     -33.973   6.834   3.999  1.00 20.00    -0.283 NA
HETATM    8  C6  UNL     1     -35.374   6.586   3.623  1.00 20.00     0.110 A 
HETATM    9  C7  UNL     1     -34.463   5.450   3.892  1.00 20.00     0.110 A 
ENDBRANCH   3   7
TORSDOF 1
ENDMDL
MODEL 7
REMARK VINA RESULT:      -0.0      1.634      2.166
REMARK  1 active torsions:
REMARK  status: ('A' for Active; 'I' for Inactive)
REMARK    1  A    between atoms: C3_3  and  N9_9 
ROOT
HETATM    1  C1  UNL     1     -35.047   5.753   4.282  1.00 20.00     0.096 C 
HETATM    2  C2  UNL     1     -34.165   6.807   3.910  1.00 20.00     0.040 A 
HETATM    3  C3  UNL     1     -33.431   7.035   2.797  1.00 20.00     0.005 A 
HETATM    4  C4  UNL     1     -33.726   8.061   4.617  1.00 20.00     0.057 A 
HETATM    5  C5  UNL     1     -32.877   8.344   3.371  1.00 20.00     0.057 A 
HETATM    6  N8  UNL     1     -35.766   4.894   4.583  1.00 20.00    -0.192 NA
ENDROOT
BRANCH   3   7
HETATM    7  N9  UNL     1     -33.178   6.480   1.629  1.00 20.00    -0.283 NA
HETATM    8  C6  UNL     1     -31.801   6.580   1.120  1.00 20.00     0.110 A 
HETATM    9  C7  UNL     1     -32.317   5.287   1.625  1.00 20.00     0.110 A 
ENDBRANCH   3   7
TORSDOF 1
ENDMDL
MODEL 8
REMARK VINA RESULT:       0.0      1.321      2.725
REMARK  1 active torsions:
REMARK  status: ('A' for Active; 'I' for Inactive)
REMARK    1  A    between atoms: C3_3  and  N9_9 
ROOT
HETATM    1  C1  UNL     1     -33.577   4.373   3.535  1.00 20.00     0.096 C 
HETATM    2  C2  UNL     1     -33.072   5.352   2.634  1.00 20.00     0.040 A 
HETATM    3  C3  UNL     1     -33.206   6.696   2.574  1.00 20.00     0.005 A 
HETATM    4  C4  UNL     1     -32.196   5.253   1.414  1.00 20.00     0.057 A 
HETATM    5  C5  UNL     1     -32.336   6.777   1.315  1.00 20.00     0.057 A 
HETATM    6  N8  UNL     1     -33.988   3.576   4.271  1.00 20.00    -0.192 NA
ENDROOT
BRANCH   3   7
HETATM    7  N9  UNL     1     -33.795   7.677   3.229  1.00 20.00    -0.283 NA
HETATM    8  C6  UNL     1     -34.704   7.304   4.324  1.00 20.00     0.110 A 
HETATM    9  C7  UNL     1     -33.380   7.895   4.624  1.00 20.00     0.110 A 
ENDBRANCH   3   7
TORSDOF 1
ENDMDL
MODEL 9
REMARK VINA RESULT:       0.2      1.813      3.529
REMARK  1 active torsions:
REMARK  status: ('A' for Active; 'I' for Inactive)
REMARK    1  A    between atoms: C3_3  and  N9_9 
ROOT
HETATM    1  C1  UNL     1     -32.429   8.361   1.831  1.00 20.00     0.096 C 
HETATM    2  C2  UNL     1     -33.210   7.533   2.686  1.00 20.00     0.040 A 
HETATM    3  C3  UNL     1     -33.480   6.208   2.680  1.00 20.00     0.005 A 
HETATM    4  C4  UNL     1     -34.021   7.826   3.920  1.00 20.00     0.057 A 
HETATM    5  C5  UNL     1     -34.351   6.329   3.934  1.00 20.00     0.057 A 
HETATM    6  N8  UNL     1     -31.793   9.034   1.134  1.00 20.00    -0.192 NA
ENDROOT
BRANCH   3   7
HETATM    7  N9  UNL     1     -33.202   5.129   1.975  1.00 20.00    -0.283 NA
HETATM    8  C6  UNL     1     -33.252   5.252   0.509  1.00 20.00     0.110 A 
HETATM    9  C7  UNL     1     -31.948   5.138   1.203  1.00 20.00     0.110 A 
ENDBRANCH   3   7
TORSDOF 1
ENDMDL
