MODEL 1
REMARK VINA RESULT:       1.6      0.000      0.000
REMARK  1 active torsions:
REMARK  status: ('A' for Active; 'I' for Inactive)
REMARK    1  A    between atoms: C2_2  and  C7_7 
ROOT
HETATM    1  C1  UNL     1     -32.384   8.178   1.372  1.00 20.00     0.132 C 
HETATM    2  C3  UNL     1     -31.177   7.295   1.624  1.00 20.00     0.084 C 
HETATM    3  C4  UNL     1     -33.843   6.378   0.668  1.00 20.00     0.013 C 
HETATM    4  C5  UNL     1     -32.672   5.401   0.902  1.00 20.00     0.007 C 
HETATM    5  C6  UNL     1     -33.640   7.424   1.771  1.00 20.00     0.068 C 
HETATM    6  C7  UNL     1     -33.056   6.623   2.938  1.00 20.00     0.088 C 
HETATM    7  C8  UNL     1     -31.918   6.024   2.101  1.00 20.00     0.006 C 
HETATM    8  O9  UNL     1     -32.352   9.299   0.892  1.00 20.00    -0.298 OA
ENDROOT
BRANCH   6   9
HETATM    9  C2  UNL     1     -33.989   5.618   3.536  1.00 20.00     0.224 C 
HETATM   10  O10 UNL     1     -33.654   4.450   3.711  1.00 20.00    -0.279 OA
HETATM   11 CL11 UNL     1     -35.534   6.312   3.925  1.00 20.00    -0.043 Cl
ENDBRANCH   6   9
TORSDOF 1
ENDMDL
MODEL 2
REMARK VINA RESULT:       1.6      2.440      4.106
REMARK  1 active torsions:
REMARK  status: ('A' for Active; 'I' for Inactive)
REMARK    1  A    between atoms: C2_2  and  C7_7 
ROOT
HETATM    1  C1  UNL     1     -33.633   6.838   2.832  1.00 20.00     0.132 C 
HETATM    2  C3  UNL     1     -32.829   5.982   1.872  1.00 20.00     0.084 C 
HETATM    3  C4  UNL     1     -31.867   8.442   3.247  1.00 20.00     0.013 C 
HETATM    4  C5  UNL     1     -30.975   7.638   2.278  1.00 20.00     0.007 C 
HETATM    5  C6  UNL     1     -33.263   8.295   2.626  1.00 20.00     0.068 C 
HETATM    6  C7  UNL     1     -32.994   8.244   1.120  1.00 20.00     0.088 C 
HETATM    7  C8  UNL     1     -31.977   7.101   1.228  1.00 20.00     0.006 C 
HETATM    8  O9  UNL     1     -34.423   6.417   3.661  1.00 20.00    -0.298 OA
ENDROOT
BRANCH   6   9
HETATM    9  C2  UNL     1     -32.453   9.512   0.538  1.00 20.00     0.224 C 
HETATM   10  O10 UNL     1     -32.898  10.610   0.857  1.00 20.00    -0.279 OA
HETATM   11 CL11 UNL     1     -31.169   9.214  -0.595  1.00 20.00    -0.043 Cl
ENDBRANCH   6   9
TORSDOF 1
ENDMDL
MODEL 3
REMARK VINA RESULT:       1.7      1.884      2.593
REMARK  1 active torsions:
REMARK  status: ('A' for Active; 'I' for Inactive)
REMARK    1  A    between atoms: C2_2  and  C7_7 
ROOT
HETATM    1  C1  UNL     1     -32.567   7.383   2.686  1.00 20.00     0.132 C 
HETATM    2  C3  UNL     1     -33.292   6.820   1.479  1.00 20.00     0.084 C 
HETATM    3  C4  UNL     1     -34.501   7.374   4.143  1.00 20.00     0.013 C 
HETATM    4  C5  UNL     1     -35.321   6.792   2.972  1.00 20.00     0.007 C 
HETATM    5  C6  UNL     1     -33.121   6.736   3.942  1.00 20.00     0.068 C 
HETATM    6  C7  UNL     1     -33.432   5.355   3.360  1.00 20.00     0.088 C 
HETATM    7  C8  UNL     1     -34.297   5.908   2.221  1.00 20.00     0.006 C 
HETATM    8  O9  UNL     1     -31.704   8.245   2.653  1.00 20.00    -0.298 OA
ENDROOT
BRANCH   6   9
HETATM    9  C2  UNL     1     -34.145   4.429   4.294  1.00 20.00     0.224 C 
HETATM   10  O10 UNL     1     -35.306   4.627   4.639  1.00 20.00    -0.279 OA
HETATM   11 CL11 UNL     1     -33.139   3.102   4.793  1.00 20.00    -0.043 Cl
ENDBRANCH   6   9
TORSDOF 1
ENDMDL
MODEL 4
REMARK VINA RESULT:       2.5      1.557      2.567
REMARK  1 active torsions:
REMARK  status: ('A' for Active; 'I' for Inactive)
REMARK    1  A    between atoms: C2_2  and  C7_7 
ROOT
HETATM    1  C1  UNL     1     -32.329   9.417   0.492  1.00 20.00     0.132 C 
HETATM    2  C3  UNL     1     -33.175   9.887   1.660  1.00 20.00     0.084 C 
HETATM    3  C4  UNL     1     -30.848   8.037   1.821  1.00 20.00     0.013 C 
HETATM    4  C5  UNL     1     -31.654   8.455   3.068  1.00 20.00     0.007 C 
HETATM    5  C6  UNL     1     -31.921   7.974   0.726  1.00 20.00     0.068 C 
HETATM    6  C7  UNL     1     -33.177   7.506   1.465  1.00 20.00     0.088 C 
HETATM    7  C8  UNL     1     -33.096   8.609   2.528  1.00 20.00     0.006 C 
HETATM    8  O9  UNL     1     -32.000  10.102  -0.463  1.00 20.00    -0.298 OA
ENDROOT
BRANCH   6   9
HETATM    9  C2  UNL     1     -33.103   6.112   2.003  1.00 20.00     0.224 C 
HETATM   10  O10 UNL     1     -32.430   5.244   1.456  1.00 20.00    -0.279 OA
HETATM   11 CL11 UNL     1     -34.060   5.915   3.441  1.00 20.00    -0.043 Cl
ENDBRANCH   6   9
TORSDOF 1
ENDMDL
MODEL 5
REMARK VINA RESULT:       2.7      1.597      1.803
REMARK  1 active torsions:
REMARK  status: ('A' for Active; 'I' for Inactive)
REMARK    1  A    between atoms: C2_2  and  C7_7 
ROOT
HETATM    1  C1  UNL     1     -32.558   8.782   0.426  1.00 20.00     0.132 C 
HETATM    2  C3  UNL     1     -31.233   8.858   1.160  1.00 20.00     0.084 C 
HETATM    3  C4  UNL     1     -33.001   6.469   0.991  1.00 20.00     0.013 C 
HETATM    4  C5  UNL     1     -31.669   6.454   1.770  1.00 20.00     0.007 C 
HETATM    5  C6  UNL     1     -33.509   7.900   1.214  1.00 20.00     0.068 C 
HETATM    6  C7  UNL     1     -33.022   8.251   2.622  1.00 20.00     0.088 C 
HETATM    7  C8  UNL     1     -31.560   7.894   2.324  1.00 20.00     0.006 C 
HETATM    8  O9  UNL     1     -32.805   9.314  -0.643  1.00 20.00    -0.298 OA
ENDROOT
BRANCH   6   9
HETATM    9  C2  UNL     1     -33.650   7.451   3.719  1.00 20.00     0.224 C 
HETATM   10  O10 UNL     1     -34.392   6.502   3.483  1.00 20.00    -0.279 OA
HETATM   11 CL11 UNL     1     -33.199   8.034   5.293  1.00 20.00    -0.043 Cl
ENDBRANCH   6   9
TORSDOF 1
ENDMDL
MODEL 6
REMARK VINA RESULT:       2.8      1.778      3.699
REMARK  1 active torsions:
REMARK  status: ('A' for Active; 'I' for Inactive)
REMARK    1  A    between atoms: C2_2  and  C7_7 
ROOT
HETATM    1  C1  UNL     1     -33.751   5.118   3.547  1.00 20.00     0.132 C 
HETATM    2  C3  UNL     1     -34.861   6.151   3.556  1.00 20.00     0.084 C 
HETATM    3  C4  UNL     1     -33.250   5.337   1.188  1.00 20.00     0.013 C 
HETATM    4  C5  UNL     1     -34.359   6.407   1.101  1.00 20.00     0.007 C 
HETATM    5  C6  UNL     1     -32.664   5.567   2.588  1.00 20.00     0.068 C 
HETATM    6  C7  UNL     1     -32.793   7.078   2.799  1.00 20.00     0.088 C 
HETATM    7  C8  UNL     1     -34.293   7.106   2.480  1.00 20.00     0.006 C 
HETATM    8  O9  UNL     1     -33.751   4.076   4.183  1.00 20.00    -0.298 OA
ENDROOT
BRANCH   6   9
HETATM    9  C2  UNL     1     -31.944   7.911   1.892  1.00 20.00     0.224 C 
HETATM   10  O10 UNL     1     -30.813   7.563   1.566  1.00 20.00    -0.279 OA
HETATM   11 CL11 UNL     1     -32.753   9.366   1.394  1.00 20.00    -0.043 Cl
ENDBRANCH   6   9
TORSDOF 1
ENDMDL
MODEL 7
REMARK VINA RESULT:       2.9      1.038      1.212
REMARK  1 active torsions:
REMARK  status: ('A' for Active; 'I' for Inactive)
REMARK    1  A    between atoms: C2_2  and  C7_7 
ROOT
HETATM    1  C1  UNL     1     -32.295   7.531   2.350  1.00 20.00     0.132 C 
HETATM    2  C3  UNL     1     -31.627   6.388   1.610  1.00 20.00     0.084 C 
HETATM    3  C4  UNL     1     -34.560   6.810   1.892  1.00 20.00     0.013 C 
HETATM    4  C5  UNL     1     -33.972   5.608   1.123  1.00 20.00     0.007 C 
HETATM    5  C6  UNL     1     -33.550   7.015   3.028  1.00 20.00     0.068 C 
HETATM    6  C7  UNL     1     -33.062   5.601   3.350  1.00 20.00     0.088 C 
HETATM    7  C8  UNL     1     -32.673   5.286   1.900  1.00 20.00     0.006 C 
HETATM    8  O9  UNL     1     -31.904   8.687   2.365  1.00 20.00    -0.298 OA
ENDROOT
BRANCH   6   9
HETATM    9  C2  UNL     1     -34.104   4.696   3.928  1.00 20.00     0.224 C 
HETATM   10  O10 UNL     1     -33.917   3.488   4.045  1.00 20.00    -0.279 OA
HETATM   11 CL11 UNL     1     -35.540   5.561   4.387  1.00 20.00    -0.043 Cl
ENDBRANCH   6   9
TORSDOF 1
ENDMDL
MODEL 8
REMARK VINA RESULT:       3.3      2.306      3.822
REMARK  1 active torsions:
REMARK  status: ('A' for Active; 'I' for Inactive)
REMARK    1  A    between atoms: C2_2  and  C7_7 
ROOT
HETATM    1  C1  UNL     1     -35.293   6.567   3.340  1.00 20.00     0.132 C 
HETATM    2  C3  UNL     1     -34.334   5.467   3.753  1.00 20.00     0.084 C 
HETATM    3  C4  UNL     1     -33.919   8.389   4.147  1.00 20.00     0.013 C 
HETATM    4  C5  UNL     1     -32.878   7.343   4.596  1.00 20.00     0.007 C 
HETATM    5  C6  UNL     1     -34.496   7.769   2.868  1.00 20.00     0.068 C 
HETATM    6  C7  UNL     1     -33.311   7.020   2.253  1.00 20.00     0.088 C 
HETATM    7  C8  UNL     1     -33.005   6.228   3.531  1.00 20.00     0.006 C 
HETATM    8  O9  UNL     1     -36.510   6.506   3.410  1.00 20.00    -0.298 OA
ENDROOT
BRANCH   6   9
HETATM    9  C2  UNL     1     -32.195   7.897   1.778  1.00 20.00     0.224 C 
HETATM   10  O10 UNL     1     -31.019   7.609   1.978  1.00 20.00    -0.279 OA
HETATM   11 CL11 UNL     1     -32.781   9.306   0.946  1.00 20.00    -0.043 Cl
ENDBRANCH   6   9
TORSDOF 1
ENDMDL
MODEL 9
REMARK VINA RESULT:       3.3      1.711      2.703
REMARK  1 active torsions:
REMARK  status: ('A' for Active; 'I' for Inactive)
REMARK    1  A    between atoms: C2_2  and  C7_7 
ROOT
HETATM    1  C1  UNL     1     -31.924   5.141   1.007  1.00 20.00     0.132 C 
HETATM    2  C3  UNL     1     -33.208   5.326   0.221  1.00 20.00     0.084 C 
HETATM    3  C4  UNL     1     -31.764   7.444   1.735  1.00 20.00     0.013 C 
HETATM    4  C5  UNL     1     -33.072   7.728   0.969  1.00 20.00     0.007 C 
HETATM    5  C6  UNL     1     -31.972   6.013   2.248  1.00 20.00     0.068 C 
HETATM    6  C7  UNL     1     -33.477   5.932   2.516  1.00 20.00     0.088 C 
HETATM    7  C8  UNL     1     -33.866   6.407   1.111  1.00 20.00     0.006 C 
HETATM    8  O9  UNL     1     -30.989   4.431   0.674  1.00 20.00    -0.298 OA
ENDROOT
BRANCH   6   9
HETATM    9  C2  UNL     1     -33.961   6.806   3.630  1.00 20.00     0.224 C 
HETATM   10  O10 UNL     1     -33.258   7.690   4.109  1.00 20.00    -0.279 OA
HETATM   11 CL11 UNL     1     -35.581   6.407   4.117  1.00 20.00    -0.043 Cl
ENDBRANCH   6   9
TORSDOF 1
ENDMDL
