MODEL 1
REMARK VINA RESULT:       0.0      0.000      0.000
REMARK  3 active torsions:
REMARK  status: ('A' for Active; 'I' for Inactive)
REMARK    1  A    between atoms: C3_3  and  C8_8 
REMARK    2  A    between atoms: C6_6  and  C9_9 
REMARK    3  A    between atoms: C7_7  and  C10_10 
ROOT
HETATM    1  C5  UNL     1     -32.727   5.766   0.529  1.00 20.00     0.019 C 
HETATM    2  C8  UNL     1     -33.152   7.138   1.244  1.00 20.00     0.078 C 
HETATM    3  C9  UNL     1     -32.167   5.381   1.930  1.00 20.00    -0.001 C 
HETATM    4  C10 UNL     1     -33.441   6.193   2.446  1.00 20.00     0.010 C 
ENDROOT
BRANCH   2   5
HETATM    5  C3  UNL     1     -32.108   8.249   1.404  1.00 20.00     0.223 C 
HETATM    6  O11 UNL     1     -31.298   8.245   2.326  1.00 20.00    -0.279 OA
HETATM    7 CL12 UNL     1     -32.235   9.451   0.155  1.00 20.00    -0.043 Cl
ENDBRANCH   2   5
BRANCH   4   8
HETATM    8  C7  UNL     1     -33.436   5.878   3.941  1.00 20.00     0.014 C 
HETATM    9  C2  UNL     1     -34.464   4.846   4.320  1.00 20.00    -0.025 C 
HETATM   10  C1  UNL     1     -35.676   5.416   4.208  1.00 20.00    -0.025 C 
HETATM   11  C6  UNL     1     -35.462   6.796   3.594  1.00 20.00     0.013 C 
HETATM   12  C4  UNL     1     -34.205   7.148   4.392  1.00 20.00     0.017 C 
ENDBRANCH   4   8
TORSDOF 3
ENDMDL
MODEL 2
REMARK VINA RESULT:       0.7      2.769      4.530
REMARK  3 active torsions:
REMARK  status: ('A' for Active; 'I' for Inactive)
REMARK    1  A    between atoms: C3_3  and  C8_8 
REMARK    2  A    between atoms: C6_6  and  C9_9 
REMARK    3  A    between atoms: C7_7  and  C10_10 
ROOT
HETATM    1  C5  UNL     1     -35.010   7.635   4.147  1.00 20.00     0.019 C 
HETATM    2  C8  UNL     1     -34.862   6.223   3.399  1.00 20.00     0.078 C 
HETATM    3  C9  UNL     1     -33.464   7.539   4.316  1.00 20.00    -0.001 C 
HETATM    4  C10 UNL     1     -33.544   6.861   2.874  1.00 20.00     0.010 C 
ENDROOT
BRANCH   2   5
HETATM    5  C3  UNL     1     -34.788   4.940   4.236  1.00 20.00     0.223 C 
HETATM    6  O11 UNL     1     -35.621   4.686   5.100  1.00 20.00    -0.279 OA
HETATM    7 CL12 UNL     1     -33.423   3.954   3.804  1.00 20.00    -0.043 Cl
ENDBRANCH   2   5
BRANCH   4   8
HETATM    8  C7  UNL     1     -32.070   6.772   2.481  1.00 20.00     0.014 C 
HETATM    9  C2  UNL     1     -31.525   8.083   1.978  1.00 20.00    -0.025 C 
HETATM   10  C1  UNL     1     -32.072   8.317   0.772  1.00 20.00    -0.025 C 
HETATM   11  C6  UNL     1     -33.115   7.228   0.540  1.00 20.00     0.013 C 
HETATM   12  C4  UNL     1     -32.293   6.073   1.113  1.00 20.00     0.017 C 
ENDBRANCH   4   8
TORSDOF 3
ENDMDL
MODEL 3
REMARK VINA RESULT:       0.9      2.636      4.419
REMARK  3 active torsions:
REMARK  status: ('A' for Active; 'I' for Inactive)
REMARK    1  A    between atoms: C3_3  and  C8_8 
REMARK    2  A    between atoms: C6_6  and  C9_9 
REMARK    3  A    between atoms: C7_7  and  C10_10 
ROOT
HETATM    1  C5  UNL     1     -35.031   6.899   3.920  1.00 20.00     0.019 C 
HETATM    2  C8  UNL     1     -34.177   6.185   2.764  1.00 20.00     0.078 C 
HETATM    3  C9  UNL     1     -33.670   7.540   4.325  1.00 20.00    -0.001 C 
HETATM    4  C10 UNL     1     -33.428   7.549   2.748  1.00 20.00     0.010 C 
ENDROOT
BRANCH   2   5
HETATM    5  C3  UNL     1     -33.395   4.909   3.095  1.00 20.00     0.223 C 
HETATM    6  O11 UNL     1     -32.388   4.590   2.471  1.00 20.00    -0.279 OA
HETATM    7 CL12 UNL     1     -34.108   4.027   4.413  1.00 20.00    -0.043 Cl
ENDBRANCH   2   5
BRANCH   4   8
HETATM    8  C7  UNL     1     -32.152   8.381   2.625  1.00 20.00     0.014 C 
HETATM    9  C2  UNL     1     -32.362   9.652   1.846  1.00 20.00    -0.025 C 
HETATM   10  C1  UNL     1     -32.543   9.316   0.558  1.00 20.00    -0.025 C 
HETATM   11  C6  UNL     1     -32.614   7.793   0.502  1.00 20.00     0.013 C 
HETATM   12  C4  UNL     1     -31.492   7.530   1.508  1.00 20.00     0.017 C 
ENDBRANCH   4   8
TORSDOF 3
ENDMDL
MODEL 4
REMARK VINA RESULT:       1.4      1.856      3.071
REMARK  3 active torsions:
REMARK  status: ('A' for Active; 'I' for Inactive)
REMARK    1  A    between atoms: C3_3  and  C8_8 
REMARK    2  A    between atoms: C6_6  and  C9_9 
REMARK    3  A    between atoms: C7_7  and  C10_10 
ROOT
HETATM    1  C5  UNL     1     -31.271   8.820   2.567  1.00 20.00     0.019 C 
HETATM    2  C8  UNL     1     -31.656   8.551   1.032  1.00 20.00     0.078 C 
HETATM    3  C9  UNL     1     -32.727   8.347   2.859  1.00 20.00    -0.001 C 
HETATM    4  C10 UNL     1     -32.440   7.355   1.642  1.00 20.00     0.010 C 
ENDROOT
BRANCH   2   5
HETATM    5  C3  UNL     1     -32.423   9.628   0.256  1.00 20.00     0.223 C 
HETATM    6  O11 UNL     1     -32.914   9.402  -0.846  1.00 20.00    -0.279 OA
HETATM    7 CL12 UNL     1     -32.491  11.135   1.119  1.00 20.00    -0.043 Cl
ENDBRANCH   2   5
BRANCH   4   8
HETATM    8  C7  UNL     1     -33.655   6.429   1.694  1.00 20.00     0.014 C 
HETATM    9  C2  UNL     1     -33.640   5.520   2.894  1.00 20.00    -0.025 C 
HETATM   10  C1  UNL     1     -32.666   4.613   2.708  1.00 20.00    -0.025 C 
HETATM   11  C6  UNL     1     -31.917   5.020   1.443  1.00 20.00     0.013 C 
HETATM   12  C4  UNL     1     -33.151   5.417   0.630  1.00 20.00     0.017 C 
ENDBRANCH   4   8
TORSDOF 3
ENDMDL
MODEL 5
REMARK VINA RESULT:       1.9      2.267      4.470
REMARK  3 active torsions:
REMARK  status: ('A' for Active; 'I' for Inactive)
REMARK    1  A    between atoms: C3_3  and  C8_8 
REMARK    2  A    between atoms: C6_6  and  C9_9 
REMARK    3  A    between atoms: C7_7  and  C10_10 
ROOT
HETATM    1  C5  UNL     1     -33.960   6.865   2.979  1.00 20.00     0.019 C 
HETATM    2  C8  UNL     1     -33.410   6.634   1.490  1.00 20.00     0.078 C 
HETATM    3  C9  UNL     1     -32.638   7.662   3.185  1.00 20.00    -0.001 C 
HETATM    4  C10 UNL     1     -32.887   8.089   1.668  1.00 20.00     0.010 C 
ENDROOT
BRANCH   2   5
HETATM    5  C3  UNL     1     -32.403   5.506   1.234  1.00 20.00     0.223 C 
HETATM    6  O11 UNL     1     -31.317   5.470   1.804  1.00 20.00    -0.279 OA
HETATM    7 CL12 UNL     1     -32.996   4.349   0.080  1.00 20.00    -0.043 Cl
ENDBRANCH   2   5
BRANCH   4   8
HETATM    8  C7  UNL     1     -31.829   9.172   1.463  1.00 20.00     0.014 C 
HETATM    9  C2  UNL     1     -32.424  10.489   1.039  1.00 20.00    -0.025 C 
HETATM   10  C1  UNL     1     -32.861  10.352  -0.224  1.00 20.00    -0.025 C 
HETATM   11  C6  UNL     1     -32.701   8.879  -0.592  1.00 20.00     0.013 C 
HETATM   12  C4  UNL     1     -31.339   8.681   0.076  1.00 20.00     0.017 C 
ENDBRANCH   4   8
TORSDOF 3
ENDMDL
MODEL 6
REMARK VINA RESULT:       1.9      2.618      4.225
REMARK  3 active torsions:
REMARK  status: ('A' for Active; 'I' for Inactive)
REMARK    1  A    between atoms: C3_3  and  C8_8 
REMARK    2  A    between atoms: C6_6  and  C9_9 
REMARK    3  A    between atoms: C7_7  and  C10_10 
ROOT
HETATM    1  C5  UNL     1     -32.768   4.793   1.120  1.00 20.00     0.019 C 
HETATM    2  C8  UNL     1     -32.756   5.319   2.636  1.00 20.00     0.078 C 
HETATM    3  C9  UNL     1     -33.649   6.049   0.847  1.00 20.00    -0.001 C 
HETATM    4  C10 UNL     1     -32.698   6.712   1.945  1.00 20.00     0.010 C 
ENDROOT
BRANCH   2   5
HETATM    5  C3  UNL     1     -33.942   4.988   3.549  1.00 20.00     0.223 C 
HETATM    6  O11 UNL     1     -34.123   3.855   3.984  1.00 20.00    -0.279 OA
HETATM    7 CL12 UNL     1     -34.938   6.378   3.860  1.00 20.00    -0.043 Cl
ENDBRANCH   2   5
BRANCH   4   8
HETATM    8  C7  UNL     1     -33.089   8.186   1.856  1.00 20.00     0.014 C 
HETATM    9  C2  UNL     1     -32.613   8.837   0.585  1.00 20.00    -0.025 C 
HETATM   10  C1  UNL     1     -31.277   8.956   0.663  1.00 20.00    -0.025 C 
HETATM   11  C6  UNL     1     -30.840   8.233   1.934  1.00 20.00     0.013 C 
HETATM   12  C4  UNL     1     -31.992   8.719   2.815  1.00 20.00     0.017 C 
ENDBRANCH   4   8
TORSDOF 3
ENDMDL
MODEL 7
REMARK VINA RESULT:       2.2      1.660      2.975
REMARK  3 active torsions:
REMARK  status: ('A' for Active; 'I' for Inactive)
REMARK    1  A    between atoms: C3_3  and  C8_8 
REMARK    2  A    between atoms: C6_6  and  C9_9 
REMARK    3  A    between atoms: C7_7  and  C10_10 
ROOT
HETATM    1  C5  UNL     1     -34.034   7.800   4.126  1.00 20.00     0.019 C 
HETATM    2  C8  UNL     1     -32.953   6.877   3.381  1.00 20.00     0.078 C 
HETATM    3  C9  UNL     1     -35.047   6.693   3.707  1.00 20.00    -0.001 C 
HETATM    4  C10 UNL     1     -33.807   5.727   3.986  1.00 20.00     0.010 C 
ENDROOT
BRANCH   2   5
HETATM    5  C3  UNL     1     -32.809   6.978   1.858  1.00 20.00     0.223 C 
HETATM    6  O11 UNL     1     -33.079   6.034   1.121  1.00 20.00    -0.279 OA
HETATM    7 CL12 UNL     1     -32.241   8.542   1.355  1.00 20.00    -0.043 Cl
ENDBRANCH   2   5
BRANCH   4   8
HETATM    8  C7  UNL     1     -34.455   4.345   3.903  1.00 20.00     0.014 C 
HETATM    9  C2  UNL     1     -34.241   3.530   5.150  1.00 20.00    -0.025 C 
HETATM   10  C1  UNL     1     -32.945   3.175   5.189  1.00 20.00    -0.025 C 
HETATM   11  C6  UNL     1     -32.253   3.898   4.037  1.00 20.00     0.013 C 
HETATM   12  C4  UNL     1     -33.367   3.694   3.009  1.00 20.00     0.017 C 
ENDBRANCH   4   8
TORSDOF 3
ENDMDL
MODEL 8
REMARK VINA RESULT:       2.2      2.822      4.387
REMARK  3 active torsions:
REMARK  status: ('A' for Active; 'I' for Inactive)
REMARK    1  A    between atoms: C3_3  and  C8_8 
REMARK    2  A    between atoms: C6_6  and  C9_9 
REMARK    3  A    between atoms: C7_7  and  C10_10 
ROOT
HETATM    1  C5  UNL     1     -32.768   4.809   1.079  1.00 20.00     0.019 C 
HETATM    2  C8  UNL     1     -32.703   5.372   2.580  1.00 20.00     0.078 C 
HETATM    3  C9  UNL     1     -33.659   6.057   0.807  1.00 20.00    -0.001 C 
HETATM    4  C10 UNL     1     -32.671   6.748   1.853  1.00 20.00     0.010 C 
ENDROOT
BRANCH   2   5
HETATM    5  C3  UNL     1     -33.855   5.064   3.543  1.00 20.00     0.223 C 
HETATM    6  O11 UNL     1     -34.741   5.882   3.771  1.00 20.00    -0.279 OA
HETATM    7 CL12 UNL     1     -33.729   3.471   4.227  1.00 20.00    -0.043 Cl
ENDBRANCH   2   5
BRANCH   4   8
HETATM    8  C7  UNL     1     -33.067   8.219   1.742  1.00 20.00     0.014 C 
HETATM    9  C2  UNL     1     -32.560   8.862   0.479  1.00 20.00    -0.025 C 
HETATM   10  C1  UNL     1     -31.227   8.989   0.592  1.00 20.00    -0.025 C 
HETATM   11  C6  UNL     1     -30.821   8.278   1.879  1.00 20.00     0.013 C 
HETATM   12  C4  UNL     1     -31.998   8.765   2.726  1.00 20.00     0.017 C 
ENDBRANCH   4   8
TORSDOF 3
ENDMDL
MODEL 9
REMARK VINA RESULT:       2.3      1.597      2.693
REMARK  3 active torsions:
REMARK  status: ('A' for Active; 'I' for Inactive)
REMARK    1  A    between atoms: C3_3  and  C8_8 
REMARK    2  A    between atoms: C6_6  and  C9_9 
REMARK    3  A    between atoms: C7_7  and  C10_10 
ROOT
HETATM    1  C5  UNL     1     -32.936   8.560   4.533  1.00 20.00     0.019 C 
HETATM    2  C8  UNL     1     -32.367   7.542   3.431  1.00 20.00     0.078 C 
HETATM    3  C9  UNL     1     -34.333   8.128   3.995  1.00 20.00    -0.001 C 
HETATM    4  C10 UNL     1     -33.617   6.710   3.837  1.00 20.00     0.010 C 
ENDROOT
BRANCH   2   5
HETATM    5  C3  UNL     1     -32.226   8.017   1.980  1.00 20.00     0.223 C 
HETATM    6  O11 UNL     1     -32.368   9.196   1.671  1.00 20.00    -0.279 OA
HETATM    7 CL12 UNL     1     -31.857   6.710   0.895  1.00 20.00    -0.043 Cl
ENDBRANCH   2   5
BRANCH   4   8
HETATM    8  C7  UNL     1     -34.792   5.795   3.497  1.00 20.00     0.014 C 
HETATM    9  C2  UNL     1     -35.118   4.833   4.608  1.00 20.00    -0.025 C 
HETATM   10  C1  UNL     1     -34.128   3.926   4.667  1.00 20.00    -0.025 C 
HETATM   11  C6  UNL     1     -33.050   4.382   3.687  1.00 20.00     0.013 C 
HETATM   12  C4  UNL     1     -34.002   4.827   2.576  1.00 20.00     0.017 C 
ENDBRANCH   4   8
TORSDOF 3
ENDMDL
