MODEL 1
REMARK VINA RESULT:      -2.7      0.000      0.000
REMARK  1 active torsions:
REMARK  status: ('A' for Active; 'I' for Inactive)
REMARK    1  A    between atoms: C1_1  and  C2_2 
ROOT
HETATM    1  C2  UNL     1     -33.752   7.372   2.561  1.00 20.00     0.154 A 
HETATM    2  C3  UNL     1     -32.270   7.427   2.235  1.00 20.00     0.073 A 
HETATM    3  C4  UNL     1     -33.074   6.226   1.891  1.00 20.00     0.259 A 
HETATM    4  C5  UNL     1     -31.773   8.332   1.162  1.00 20.00     0.017 C 
HETATM    5  F7  UNL     1     -32.869   5.038   2.557  1.00 20.00    -0.205 F 
HETATM    6  F8  UNL     1     -33.363   5.916   0.581  1.00 20.00    -0.205 F 
ENDROOT
BRANCH   1   7
HETATM    7  C1  UNL     1     -34.168   7.252   3.961  1.00 20.00     0.229 C 
HETATM    8  O6  UNL     1     -33.674   7.948   4.843  1.00 20.00    -0.279 OA
HETATM    9 CL9  UNL     1     -35.397   6.042   4.177  1.00 20.00    -0.043 Cl
ENDBRANCH   1   7
TORSDOF 1
ENDMDL
MODEL 2
REMARK VINA RESULT:      -2.5      2.884      3.662
REMARK  1 active torsions:
REMARK  status: ('A' for Active; 'I' for Inactive)
REMARK    1  A    between atoms: C1_1  and  C2_2 
ROOT
HETATM    1  C2  UNL     1     -33.769   5.848   2.510  1.00 20.00     0.154 A 
HETATM    2  C3  UNL     1     -33.571   5.262   3.897  1.00 20.00     0.073 A 
HETATM    3  C4  UNL     1     -34.425   6.461   3.700  1.00 20.00     0.259 A 
HETATM    4  C5  UNL     1     -34.185   3.951   4.250  1.00 20.00     0.017 C 
HETATM    5  F7  UNL     1     -34.021   7.688   4.177  1.00 20.00    -0.205 F 
HETATM    6  F8  UNL     1     -35.792   6.393   3.852  1.00 20.00    -0.205 F 
ENDROOT
BRANCH   1   7
HETATM    7  C1  UNL     1     -32.649   6.537   1.863  1.00 20.00     0.229 C 
HETATM    8  O6  UNL     1     -32.488   7.749   1.971  1.00 20.00    -0.279 OA
HETATM    9 CL9  UNL     1     -31.636   5.443   0.970  1.00 20.00    -0.043 Cl
ENDBRANCH   1   7
TORSDOF 1
ENDMDL
MODEL 3
REMARK VINA RESULT:      -2.5      2.811      3.627
REMARK  1 active torsions:
REMARK  status: ('A' for Active; 'I' for Inactive)
REMARK    1  A    between atoms: C1_1  and  C2_2 
ROOT
HETATM    1  C2  UNL     1     -33.730   7.195   2.628  1.00 20.00     0.154 A 
HETATM    2  C3  UNL     1     -34.049   6.280   3.798  1.00 20.00     0.073 A 
HETATM    3  C4  UNL     1     -33.661   7.695   4.030  1.00 20.00     0.259 A 
HETATM    4  C5  UNL     1     -35.449   5.836   4.039  1.00 20.00     0.017 C 
HETATM    5  F7  UNL     1     -32.450   7.997   4.616  1.00 20.00    -0.205 F 
HETATM    6  F8  UNL     1     -34.576   8.618   4.486  1.00 20.00    -0.205 F 
ENDROOT
BRANCH   1   7
HETATM    7  C1  UNL     1     -32.492   6.978   1.874  1.00 20.00     0.229 C 
HETATM    8  O6  UNL     1     -31.657   7.866   1.735  1.00 20.00    -0.279 OA
HETATM    9 CL9  UNL     1     -32.389   5.364   1.238  1.00 20.00    -0.043 Cl
ENDBRANCH   1   7
TORSDOF 1
ENDMDL
MODEL 4
REMARK VINA RESULT:      -2.5      2.697      3.028
REMARK  1 active torsions:
REMARK  status: ('A' for Active; 'I' for Inactive)
REMARK    1  A    between atoms: C1_1  and  C2_2 
ROOT
HETATM    1  C2  UNL     1     -33.403   5.344   3.744  1.00 20.00     0.154 A 
HETATM    2  C3  UNL     1     -33.688   5.690   2.293  1.00 20.00     0.073 A 
HETATM    3  C4  UNL     1     -34.058   6.632   3.379  1.00 20.00     0.259 A 
HETATM    4  C5  UNL     1     -32.567   6.012   1.367  1.00 20.00     0.017 C 
HETATM    5  F7  UNL     1     -35.383   6.863   3.679  1.00 20.00    -0.205 F 
HETATM    6  F8  UNL     1     -33.388   7.824   3.545  1.00 20.00    -0.205 F 
ENDROOT
BRANCH   1   7
HETATM    7  C1  UNL     1     -34.188   4.288   4.390  1.00 20.00     0.229 C 
HETATM    8  O6  UNL     1     -35.368   4.451   4.684  1.00 20.00    -0.279 OA
HETATM    9 CL9  UNL     1     -33.251   2.851   4.663  1.00 20.00    -0.043 Cl
ENDBRANCH   1   7
TORSDOF 1
ENDMDL
MODEL 5
REMARK VINA RESULT:      -2.4      3.008      3.799
REMARK  1 active torsions:
REMARK  status: ('A' for Active; 'I' for Inactive)
REMARK    1  A    between atoms: C1_1  and  C2_2 
ROOT
HETATM    1  C2  UNL     1     -33.862   6.794   2.563  1.00 20.00     0.154 A 
HETATM    2  C3  UNL     1     -34.091   6.038   3.860  1.00 20.00     0.073 A 
HETATM    3  C4  UNL     1     -33.767   7.488   3.879  1.00 20.00     0.259 A 
HETATM    4  C5  UNL     1     -35.457   5.569   4.221  1.00 20.00     0.017 C 
HETATM    5  F7  UNL     1     -32.552   7.922   4.363  1.00 20.00    -0.205 F 
HETATM    6  F8  UNL     1     -34.710   8.422   4.242  1.00 20.00    -0.205 F 
ENDROOT
BRANCH   1   7
HETATM    7  C1  UNL     1     -32.644   6.529   1.792  1.00 20.00     0.229 C 
HETATM    8  O6  UNL     1     -32.357   5.401   1.407  1.00 20.00    -0.279 OA
HETATM    9 CL9  UNL     1     -31.716   7.974   1.519  1.00 20.00    -0.043 Cl
ENDBRANCH   1   7
TORSDOF 1
ENDMDL
MODEL 6
REMARK VINA RESULT:      -2.4      1.661      2.163
REMARK  1 active torsions:
REMARK  status: ('A' for Active; 'I' for Inactive)
REMARK    1  A    between atoms: C1_1  and  C2_2 
ROOT
HETATM    1  C2  UNL     1     -32.938   6.762   3.119  1.00 20.00     0.154 A 
HETATM    2  C3  UNL     1     -33.165   6.431   1.655  1.00 20.00     0.073 A 
HETATM    3  C4  UNL     1     -32.354   7.612   2.044  1.00 20.00     0.259 A 
HETATM    4  C5  UNL     1     -32.512   5.238   1.048  1.00 20.00     0.017 C 
HETATM    5  F7  UNL     1     -32.826   8.886   1.814  1.00 20.00    -0.205 F 
HETATM    6  F8  UNL     1     -30.992   7.638   1.841  1.00 20.00    -0.205 F 
ENDROOT
BRANCH   1   7
HETATM    7  C1  UNL     1     -34.061   7.267   3.915  1.00 20.00     0.229 C 
HETATM    8  O6  UNL     1     -33.984   8.319   4.543  1.00 20.00    -0.279 OA
HETATM    9 CL9  UNL     1     -35.441   6.214   3.843  1.00 20.00    -0.043 Cl
ENDBRANCH   1   7
TORSDOF 1
ENDMDL
MODEL 7
REMARK VINA RESULT:      -2.1      2.841      3.569
REMARK  1 active torsions:
REMARK  status: ('A' for Active; 'I' for Inactive)
REMARK    1  A    between atoms: C1_1  and  C2_2 
ROOT
HETATM    1  C2  UNL     1     -33.433   6.436   3.337  1.00 20.00     0.154 A 
HETATM    2  C3  UNL     1     -33.961   7.727   3.937  1.00 20.00     0.073 A 
HETATM    3  C4  UNL     1     -34.879   6.593   3.660  1.00 20.00     0.259 A 
HETATM    4  C5  UNL     1     -33.621   8.094   5.340  1.00 20.00     0.017 C 
HETATM    5  F7  UNL     1     -35.822   6.690   2.659  1.00 20.00    -0.205 F 
HETATM    6  F8  UNL     1     -35.446   5.870   4.686  1.00 20.00    -0.205 F 
ENDROOT
BRANCH   1   7
HETATM    7  C1  UNL     1     -32.999   6.428   1.937  1.00 20.00     0.229 C 
HETATM    8  O6  UNL     1     -33.328   5.534   1.165  1.00 20.00    -0.279 OA
HETATM    9 CL9  UNL     1     -32.001   7.799   1.555  1.00 20.00    -0.043 Cl
ENDBRANCH   1   7
TORSDOF 1
ENDMDL
MODEL 8
REMARK VINA RESULT:      -1.8      3.405      3.936
REMARK  1 active torsions:
REMARK  status: ('A' for Active; 'I' for Inactive)
REMARK    1  A    between atoms: C1_1  and  C2_2 
ROOT
HETATM    1  C2  UNL     1     -32.748   8.214   1.236  1.00 20.00     0.154 A 
HETATM    2  C3  UNL     1     -32.050   6.922   1.621  1.00 20.00     0.073 A 
HETATM    3  C4  UNL     1     -32.423   7.916   2.659  1.00 20.00     0.259 A 
HETATM    4  C5  UNL     1     -32.775   5.624   1.527  1.00 20.00     0.017 C 
HETATM    5  F7  UNL     1     -31.448   8.624   3.326  1.00 20.00    -0.205 F 
HETATM    6  F8  UNL     1     -33.430   7.656   3.563  1.00 20.00    -0.205 F 
ENDROOT
BRANCH   1   7
HETATM    7  C1  UNL     1     -31.991   9.245   0.519  1.00 20.00     0.229 C 
HETATM    8  O6  UNL     1     -30.948   8.985  -0.072  1.00 20.00    -0.279 OA
HETATM    9 CL9  UNL     1     -32.749  10.805   0.625  1.00 20.00    -0.043 Cl
ENDBRANCH   1   7
TORSDOF 1
ENDMDL
MODEL 9
REMARK VINA RESULT:      -1.6      2.798      3.132
REMARK  1 active torsions:
REMARK  status: ('A' for Active; 'I' for Inactive)
REMARK    1  A    between atoms: C1_1  and  C2_2 
ROOT
HETATM    1  C2  UNL     1     -31.989   7.112   1.702  1.00 20.00     0.154 A 
HETATM    2  C3  UNL     1     -32.696   8.411   1.358  1.00 20.00     0.073 A 
HETATM    3  C4  UNL     1     -32.255   8.137   2.750  1.00 20.00     0.259 A 
HETATM    4  C5  UNL     1     -32.003   9.445   0.540  1.00 20.00     0.017 C 
HETATM    5  F7  UNL     1     -33.185   7.911   3.741  1.00 20.00    -0.205 F 
HETATM    6  F8  UNL     1     -31.215   8.838   3.317  1.00 20.00    -0.205 F 
ENDROOT
BRANCH   1   7
HETATM    7  C1  UNL     1     -32.757   5.863   1.697  1.00 20.00     0.229 C 
HETATM    8  O6  UNL     1     -33.664   5.660   2.498  1.00 20.00    -0.279 OA
HETATM    9 CL9  UNL     1     -32.219   4.770   0.457  1.00 20.00    -0.043 Cl
ENDBRANCH   1   7
TORSDOF 1
ENDMDL
