MODEL 1
REMARK VINA RESULT:      -1.8      0.000      0.000
REMARK  2 active torsions:
REMARK  status: ('A' for Active; 'I' for Inactive)
REMARK    1  A    between atoms: C5_5  and  O9_9 
REMARK    2  A    between atoms: C8_8  and  O9_9 
ROOT
HETATM    1  C1  UNL     1     -33.839   7.891   3.931  1.00 20.00    -0.028 C 
HETATM    2  C2  UNL     1     -32.748   8.226   3.229  1.00 20.00     0.002 C 
HETATM    3  C3  UNL     1     -34.559   6.587   3.759  1.00 20.00     0.028 C 
HETATM    4  C4  UNL     1     -33.744   5.552   2.980  1.00 20.00     0.022 C 
HETATM    5  C5  UNL     1     -32.144   7.346   2.169  1.00 20.00     0.158 C 
HETATM    6  C6  UNL     1     -33.071   6.192   1.770  1.00 20.00     0.090 C 
HETATM    7 BR10 UNL     1     -32.029   4.818   0.831  1.00 20.00    -0.088 Br
ENDROOT
BRANCH   5   8
HETATM    8  O9  UNL     1     -31.889   8.136   1.007  1.00 20.00    -0.381 OA
BRANCH   8   9
HETATM    9  C8  UNL     1     -32.460   9.428   1.125  1.00 20.00     0.164 C 
HETATM   10  C7  UNL     1     -32.606  10.032  -0.256  1.00 20.00     0.033 C 
ENDBRANCH   8   9
ENDBRANCH   5   8
TORSDOF 2
ENDMDL
MODEL 2
REMARK VINA RESULT:      -0.6      2.151      4.169
REMARK  2 active torsions:
REMARK  status: ('A' for Active; 'I' for Inactive)
REMARK    1  A    between atoms: C5_5  and  O9_9 
REMARK    2  A    between atoms: C8_8  and  O9_9 
ROOT
HETATM    1  C1  UNL     1     -34.290   7.537   4.280  1.00 20.00    -0.028 C 
HETATM    2  C2  UNL     1     -34.799   6.369   3.864  1.00 20.00     0.002 C 
HETATM    3  C3  UNL     1     -33.056   8.152   3.692  1.00 20.00     0.028 C 
HETATM    4  C4  UNL     1     -32.643   7.511   2.364  1.00 20.00     0.022 C 
HETATM    5  C5  UNL     1     -34.171   5.530   2.785  1.00 20.00     0.158 C 
HETATM    6  C6  UNL     1     -32.750   5.991   2.439  1.00 20.00     0.090 C 
HETATM    7 BR10 UNL     1     -32.228   5.239   0.703  1.00 20.00    -0.088 Br
ENDROOT
BRANCH   5   8
HETATM    8  O9  UNL     1     -34.103   4.177   3.235  1.00 20.00    -0.381 OA
BRANCH   8   9
HETATM    9  C8  UNL     1     -33.936   4.108   4.642  1.00 20.00     0.164 C 
HETATM   10  C7  UNL     1     -33.055   2.923   4.977  1.00 20.00     0.033 C 
ENDBRANCH   8   9
ENDBRANCH   5   8
TORSDOF 2
ENDMDL
MODEL 3
REMARK VINA RESULT:      -0.3      2.602      4.541
REMARK  2 active torsions:
REMARK  status: ('A' for Active; 'I' for Inactive)
REMARK    1  A    between atoms: C5_5  and  O9_9 
REMARK    2  A    between atoms: C8_8  and  O9_9 
ROOT
HETATM    1  C1  UNL     1     -32.333   6.450   0.997  1.00 20.00    -0.028 C 
HETATM    2  C2  UNL     1     -33.028   5.714   1.876  1.00 20.00     0.002 C 
HETATM    3  C3  UNL     1     -31.906   7.862   1.265  1.00 20.00     0.028 C 
HETATM    4  C4  UNL     1     -32.026   8.254   2.739  1.00 20.00     0.022 C 
HETATM    5  C5  UNL     1     -33.483   6.233   3.212  1.00 20.00     0.158 C 
HETATM    6  C6  UNL     1     -33.342   7.754   3.327  1.00 20.00     0.090 C 
HETATM    7 BR10 UNL     1     -33.422   8.272   5.219  1.00 20.00    -0.088 Br
ENDROOT
BRANCH   5   8
HETATM    8  O9  UNL     1     -34.860   5.897   3.390  1.00 20.00    -0.381 OA
BRANCH   8   9
HETATM    9  C8  UNL     1     -35.032   4.964   4.444  1.00 20.00     0.164 C 
HETATM   10  C7  UNL     1     -33.955   3.904   4.345  1.00 20.00     0.033 C 
ENDBRANCH   8   9
ENDBRANCH   5   8
TORSDOF 2
ENDMDL
MODEL 4
REMARK VINA RESULT:       0.1      0.893      1.079
REMARK  2 active torsions:
REMARK  status: ('A' for Active; 'I' for Inactive)
REMARK    1  A    between atoms: C5_5  and  O9_9 
REMARK    2  A    between atoms: C8_8  and  O9_9 
ROOT
HETATM    1  C1  UNL     1     -34.793   7.067   4.508  1.00 20.00    -0.028 C 
HETATM    2  C2  UNL     1     -33.741   7.838   4.202  1.00 20.00     0.002 C 
HETATM    3  C3  UNL     1     -35.105   5.783   3.800  1.00 20.00     0.028 C 
HETATM    4  C4  UNL     1     -33.937   5.267   2.955  1.00 20.00     0.022 C 
HETATM    5  C5  UNL     1     -32.775   7.517   3.095  1.00 20.00     0.158 C 
HETATM    6  C6  UNL     1     -33.289   6.405   2.173  1.00 20.00     0.090 C 
HETATM    7 BR10 UNL     1     -31.792   5.680   1.132  1.00 20.00    -0.088 Br
ENDROOT
BRANCH   5   8
HETATM    8  O9  UNL     1     -32.571   8.691   2.307  1.00 20.00    -0.381 OA
BRANCH   8   9
HETATM    9  C8  UNL     1     -32.149   8.364   0.994  1.00 20.00     0.164 C 
HETATM   10  C7  UNL     1     -32.290   9.587   0.111  1.00 20.00     0.033 C 
ENDBRANCH   8   9
ENDBRANCH   5   8
TORSDOF 2
ENDMDL
MODEL 5
REMARK VINA RESULT:       0.6      1.968      2.612
REMARK  2 active torsions:
REMARK  status: ('A' for Active; 'I' for Inactive)
REMARK    1  A    between atoms: C5_5  and  O9_9 
REMARK    2  A    between atoms: C8_8  and  O9_9 
ROOT
HETATM    1  C1  UNL     1     -32.708   4.994   1.413  1.00 20.00    -0.028 C 
HETATM    2  C2  UNL     1     -32.597   6.284   1.064  1.00 20.00     0.002 C 
HETATM    3  C3  UNL     1     -33.247   4.544   2.738  1.00 20.00     0.028 C 
HETATM    4  C4  UNL     1     -33.973   5.658   3.497  1.00 20.00     0.022 C 
HETATM    5  C5  UNL     1     -32.971   7.421   1.974  1.00 20.00     0.158 C 
HETATM    6  C6  UNL     1     -33.191   6.965   3.421  1.00 20.00     0.090 C 
HETATM    7 BR10 UNL     1     -34.186   8.350   4.394  1.00 20.00    -0.088 Br
ENDROOT
BRANCH   5   8
HETATM    8  O9  UNL     1     -31.915   8.383   1.965  1.00 20.00    -0.381 OA
BRANCH   8   9
HETATM    9  C8  UNL     1     -31.668   8.865   0.654  1.00 20.00     0.164 C 
HETATM   10  C7  UNL     1     -32.541  10.077   0.401  1.00 20.00     0.033 C 
ENDBRANCH   8   9
ENDBRANCH   5   8
TORSDOF 2
ENDMDL
MODEL 6
REMARK VINA RESULT:       0.6      2.070      3.376
REMARK  2 active torsions:
REMARK  status: ('A' for Active; 'I' for Inactive)
REMARK    1  A    between atoms: C5_5  and  O9_9 
REMARK    2  A    between atoms: C8_8  and  O9_9 
ROOT
HETATM    1  C1  UNL     1     -34.422   6.082   3.858  1.00 20.00    -0.028 C 
HETATM    2  C2  UNL     1     -33.926   5.572   2.722  1.00 20.00     0.002 C 
HETATM    3  C3  UNL     1     -34.173   7.492   4.304  1.00 20.00     0.028 C 
HETATM    4  C4  UNL     1     -33.610   8.380   3.191  1.00 20.00     0.022 C 
HETATM    5  C5  UNL     1     -33.041   6.347   1.785  1.00 20.00     0.158 C 
HETATM    6  C6  UNL     1     -32.523   7.648   2.410  1.00 20.00     0.090 C 
HETATM    7 BR10 UNL     1     -31.862   8.833   0.992  1.00 20.00    -0.088 Br
ENDROOT
BRANCH   5   8
HETATM    8  O9  UNL     1     -31.915   5.538   1.441  1.00 20.00    -0.381 OA
BRANCH   8   9
HETATM    9  C8  UNL     1     -32.247   4.592   0.439  1.00 20.00     0.164 C 
HETATM   10  C7  UNL     1     -30.986   3.877  -0.002  1.00 20.00     0.033 C 
ENDBRANCH   8   9
ENDBRANCH   5   8
TORSDOF 2
ENDMDL
MODEL 7
REMARK VINA RESULT:       1.0      2.230      2.717
REMARK  2 active torsions:
REMARK  status: ('A' for Active; 'I' for Inactive)
REMARK    1  A    between atoms: C5_5  and  O9_9 
REMARK    2  A    between atoms: C8_8  and  O9_9 
ROOT
HETATM    1  C1  UNL     1     -35.018   7.097   3.690  1.00 20.00    -0.028 C 
HETATM    2  C2  UNL     1     -33.769   6.875   3.257  1.00 20.00     0.002 C 
HETATM    3  C3  UNL     1     -35.865   6.040   4.334  1.00 20.00     0.028 C 
HETATM    4  C4  UNL     1     -35.062   4.809   4.763  1.00 20.00     0.022 C 
HETATM    5  C5  UNL     1     -33.091   5.535   3.340  1.00 20.00     0.158 C 
HETATM    6  C6  UNL     1     -34.070   4.404   3.678  1.00 20.00     0.090 C 
HETATM    7 BR10 UNL     1     -33.063   2.838   4.300  1.00 20.00    -0.088 Br
ENDROOT
BRANCH   5   8
HETATM    8  O9  UNL     1     -32.491   5.244   2.077  1.00 20.00    -0.381 OA
BRANCH   8   9
HETATM    9  C8  UNL     1     -32.632   6.331   1.177  1.00 20.00     0.164 C 
HETATM   10  C7  UNL     1     -31.607   7.392   1.520  1.00 20.00     0.033 C 
ENDBRANCH   8   9
ENDBRANCH   5   8
TORSDOF 2
ENDMDL
MODEL 8
REMARK VINA RESULT:       1.2      1.951      3.628
REMARK  2 active torsions:
REMARK  status: ('A' for Active; 'I' for Inactive)
REMARK    1  A    between atoms: C5_5  and  O9_9 
REMARK    2  A    between atoms: C8_8  and  O9_9 
ROOT
HETATM    1  C1  UNL     1     -32.447   8.334   3.402  1.00 20.00    -0.028 C 
HETATM    2  C2  UNL     1     -33.367   7.398   3.673  1.00 20.00     0.002 C 
HETATM    3  C3  UNL     1     -31.577   8.301   2.181  1.00 20.00     0.028 C 
HETATM    4  C4  UNL     1     -32.072   7.315   1.120  1.00 20.00     0.022 C 
HETATM    5  C5  UNL     1     -33.607   6.196   2.802  1.00 20.00     0.158 C 
HETATM    6  C6  UNL     1     -32.499   5.998   1.762  1.00 20.00     0.090 C 
HETATM    7 BR10 UNL     1     -33.140   4.791   0.352  1.00 20.00    -0.088 Br
ENDROOT
BRANCH   5   8
HETATM    8  O9  UNL     1     -33.658   5.032   3.628  1.00 20.00    -0.381 OA
BRANCH   8   9
HETATM    9  C8  UNL     1     -34.872   4.970   4.358  1.00 20.00     0.164 C 
HETATM   10  C7  UNL     1     -35.746   6.142   3.962  1.00 20.00     0.033 C 
ENDBRANCH   8   9
ENDBRANCH   5   8
TORSDOF 2
ENDMDL
