MODEL 1
REMARK VINA RESULT:       1.6      0.000      0.000
REMARK  1 active torsions:
REMARK  status: ('A' for Active; 'I' for Inactive)
REMARK    1  A    between atoms: C3_3  and  C8_8 
ROOT
HETATM    1  C1  UNL     1     -33.443   5.696   2.322  1.00 20.00    -0.084 C 
HETATM    2  C2  UNL     1     -32.745   5.131   1.334  1.00 20.00     0.015 C 
HETATM    3  C4  UNL     1     -33.558   5.181   3.736  1.00 20.00     0.038 C 
HETATM    4  C5  UNL     1     -35.448   6.518   3.163  1.00 20.00     0.014 C 
HETATM    5  C6  UNL     1     -33.763   7.588   4.471  1.00 20.00     0.021 C 
HETATM    6  C7  UNL     1     -34.315   6.931   2.220  1.00 20.00     0.028 C 
HETATM    7  C8  UNL     1     -33.675   8.084   3.015  1.00 20.00     0.095 C 
HETATM    8  C9  UNL     1     -34.505   6.239   4.337  1.00 20.00    -0.009 C 
ENDROOT
BRANCH   7   9
HETATM    9  C3  UNL     1     -32.260   8.400   2.572  1.00 20.00     0.177 C 
HETATM   10  O10 UNL     1     -32.101   8.524   1.325  1.00 20.00    -0.648 OA
HETATM   11  O11 UNL     1     -31.420   8.498   3.509  1.00 20.00    -0.648 OA
ENDBRANCH   7   9
TORSDOF 1
ENDMDL
MODEL 2
REMARK VINA RESULT:       1.7      2.258      3.666
REMARK  1 active torsions:
REMARK  status: ('A' for Active; 'I' for Inactive)
REMARK    1  A    between atoms: C3_3  and  C8_8 
ROOT
HETATM    1  C1  UNL     1     -32.945   7.964   3.807  1.00 20.00    -0.084 C 
HETATM    2  C2  UNL     1     -33.221   8.353   5.055  1.00 20.00     0.015 C 
HETATM    3  C4  UNL     1     -31.569   7.781   3.217  1.00 20.00     0.038 C 
HETATM    4  C5  UNL     1     -33.169   8.243   1.510  1.00 20.00     0.014 C 
HETATM    5  C6  UNL     1     -32.555   5.953   1.783  1.00 20.00     0.021 C 
HETATM    6  C7  UNL     1     -33.948   7.687   2.706  1.00 20.00     0.028 C 
HETATM    7  C8  UNL     1     -33.956   6.183   2.379  1.00 20.00     0.095 C 
HETATM    8  C9  UNL     1     -31.939   7.370   1.778  1.00 20.00    -0.009 C 
ENDROOT
BRANCH   7   9
HETATM    9  C3  UNL     1     -34.247   5.313   3.586  1.00 20.00     0.177 C 
HETATM   10  O10 UNL     1     -33.428   4.372   3.782  1.00 20.00    -0.648 OA
HETATM   11  O11 UNL     1     -35.274   5.643   4.242  1.00 20.00    -0.648 OA
ENDBRANCH   7   9
TORSDOF 1
ENDMDL
MODEL 3
REMARK VINA RESULT:       2.5      2.205      3.262
REMARK  1 active torsions:
REMARK  status: ('A' for Active; 'I' for Inactive)
REMARK    1  A    between atoms: C3_3  and  C8_8 
ROOT
HETATM    1  C1  UNL     1     -32.691   6.257   1.389  1.00 20.00    -0.084 C 
HETATM    2  C2  UNL     1     -32.708   5.012   0.905  1.00 20.00     0.015 C 
HETATM    3  C4  UNL     1     -33.074   7.508   0.640  1.00 20.00     0.038 C 
HETATM    4  C5  UNL     1     -31.554   8.011   2.408  1.00 20.00     0.014 C 
HETATM    5  C6  UNL     1     -33.859   8.450   2.846  1.00 20.00     0.021 C 
HETATM    6  C7  UNL     1     -32.225   6.682   2.768  1.00 20.00     0.028 C 
HETATM    7  C8  UNL     1     -33.429   7.173   3.592  1.00 20.00     0.095 C 
HETATM    8  C9  UNL     1     -32.804   8.571   1.723  1.00 20.00    -0.009 C 
ENDROOT
BRANCH   7   9
HETATM    9  C3  UNL     1     -34.534   6.141   3.704  1.00 20.00     0.177 C 
HETATM   10  O10 UNL     1     -34.151   4.969   3.975  1.00 20.00    -0.648 OA
HETATM   11  O11 UNL     1     -35.699   6.589   3.513  1.00 20.00    -0.648 OA
ENDBRANCH   7   9
TORSDOF 1
ENDMDL
MODEL 4
REMARK VINA RESULT:       2.5      1.669      3.030
REMARK  1 active torsions:
REMARK  status: ('A' for Active; 'I' for Inactive)
REMARK    1  A    between atoms: C3_3  and  C8_8 
ROOT
HETATM    1  C1  UNL     1     -32.348   7.554   1.381  1.00 20.00    -0.084 C 
HETATM    2  C2  UNL     1     -32.175   8.866   1.204  1.00 20.00     0.015 C 
HETATM    3  C4  UNL     1     -31.255   6.526   1.533  1.00 20.00     0.038 C 
HETATM    4  C5  UNL     1     -33.249   5.525   0.689  1.00 20.00     0.014 C 
HETATM    5  C6  UNL     1     -32.833   5.237   3.022  1.00 20.00     0.021 C 
HETATM    6  C7  UNL     1     -33.670   6.813   1.404  1.00 20.00     0.028 C 
HETATM    7  C8  UNL     1     -33.943   6.285   2.824  1.00 20.00     0.095 C 
HETATM    8  C9  UNL     1     -32.099   5.243   1.662  1.00 20.00    -0.009 C 
ENDROOT
BRANCH   7   9
HETATM    9  C3  UNL     1     -33.934   7.377   3.876  1.00 20.00     0.177 C 
HETATM   10  O10 UNL     1     -32.821   7.572   4.440  1.00 20.00    -0.648 OA
HETATM   11  O11 UNL     1     -35.044   7.952   4.053  1.00 20.00    -0.648 OA
ENDBRANCH   7   9
TORSDOF 1
ENDMDL
MODEL 5
REMARK VINA RESULT:       2.6      1.704      2.433
REMARK  1 active torsions:
REMARK  status: ('A' for Active; 'I' for Inactive)
REMARK    1  A    between atoms: C3_3  and  C8_8 
ROOT
HETATM    1  C1  UNL     1     -33.949   5.404   3.878  1.00 20.00    -0.084 C 
HETATM    2  C2  UNL     1     -33.992   4.089   4.109  1.00 20.00     0.015 C 
HETATM    3  C4  UNL     1     -33.287   6.439   4.752  1.00 20.00     0.038 C 
HETATM    4  C5  UNL     1     -35.036   7.416   3.457  1.00 20.00     0.014 C 
HETATM    5  C6  UNL     1     -32.816   7.748   2.646  1.00 20.00     0.021 C 
HETATM    6  C7  UNL     1     -34.607   6.139   2.727  1.00 20.00     0.028 C 
HETATM    7  C8  UNL     1     -33.525   6.690   1.780  1.00 20.00     0.095 C 
HETATM    8  C9  UNL     1     -33.623   7.720   3.964  1.00 20.00    -0.009 C 
ENDROOT
BRANCH   7   9
HETATM    9  C3  UNL     1     -32.592   5.618   1.254  1.00 20.00     0.177 C 
HETATM   10  O10 UNL     1     -33.110   4.806   0.437  1.00 20.00    -0.648 OA
HETATM   11  O11 UNL     1     -31.414   5.674   1.703  1.00 20.00    -0.648 OA
ENDBRANCH   7   9
TORSDOF 1
ENDMDL
MODEL 6
REMARK VINA RESULT:       2.7      1.937      3.374
REMARK  1 active torsions:
REMARK  status: ('A' for Active; 'I' for Inactive)
REMARK    1  A    between atoms: C3_3  and  C8_8 
ROOT
HETATM    1  C1  UNL     1     -33.625   7.368   3.177  1.00 20.00    -0.084 C 
HETATM    2  C2  UNL     1     -34.624   6.652   3.700  1.00 20.00     0.015 C 
HETATM    3  C4  UNL     1     -32.483   7.991   3.941  1.00 20.00     0.038 C 
HETATM    4  C5  UNL     1     -32.882   9.165   1.903  1.00 20.00     0.014 C 
HETATM    5  C6  UNL     1     -31.062   7.621   1.887  1.00 20.00     0.021 C 
HETATM    6  C7  UNL     1     -33.461   7.759   1.722  1.00 20.00     0.028 C 
HETATM    7  C8  UNL     1     -32.253   7.018   1.120  1.00 20.00     0.095 C 
HETATM    8  C9  UNL     1     -31.728   8.684   2.789  1.00 20.00    -0.009 C 
ENDROOT
BRANCH   7   9
HETATM    9  C3  UNL     1     -32.354   5.512   1.252  1.00 20.00     0.177 C 
HETATM   10  O10 UNL     1     -31.408   4.961   1.882  1.00 20.00    -0.648 OA
HETATM   11  O11 UNL     1     -33.374   4.999   0.712  1.00 20.00    -0.648 OA
ENDBRANCH   7   9
TORSDOF 1
ENDMDL
MODEL 7
REMARK VINA RESULT:       2.8      1.029      2.466
REMARK  1 active torsions:
REMARK  status: ('A' for Active; 'I' for Inactive)
REMARK    1  A    between atoms: C3_3  and  C8_8 
ROOT
HETATM    1  C1  UNL     1     -33.813   7.335   4.018  1.00 20.00    -0.084 C 
HETATM    2  C2  UNL     1     -33.645   8.300   4.926  1.00 20.00     0.015 C 
HETATM    3  C4  UNL     1     -35.111   6.961   3.347  1.00 20.00     0.038 C 
HETATM    4  C5  UNL     1     -33.608   5.109   3.378  1.00 20.00     0.014 C 
HETATM    5  C6  UNL     1     -33.745   6.317   1.325  1.00 20.00     0.021 C 
HETATM    6  C7  UNL     1     -32.754   6.372   3.519  1.00 20.00     0.028 C 
HETATM    7  C8  UNL     1     -32.432   6.677   2.044  1.00 20.00     0.095 C 
HETATM    8  C9  UNL     1     -34.638   5.786   2.469  1.00 20.00    -0.009 C 
ENDROOT
BRANCH   7   9
HETATM    9  C3  UNL     1     -31.992   8.109   1.815  1.00 20.00     0.177 C 
HETATM   10  O10 UNL     1     -32.598   8.717   0.889  1.00 20.00    -0.648 OA
HETATM   11  O11 UNL     1     -31.072   8.510   2.581  1.00 20.00    -0.648 OA
ENDBRANCH   7   9
TORSDOF 1
ENDMDL
MODEL 8
REMARK VINA RESULT:       2.8      1.856      3.068
REMARK  1 active torsions:
REMARK  status: ('A' for Active; 'I' for Inactive)
REMARK    1  A    between atoms: C3_3  and  C8_8 
ROOT
HETATM    1  C1  UNL     1     -32.794   8.497   2.076  1.00 20.00    -0.084 C 
HETATM    2  C2  UNL     1     -32.225   9.086   1.021  1.00 20.00     0.015 C 
HETATM    3  C4  UNL     1     -34.185   8.758   2.596  1.00 20.00     0.038 C 
HETATM    4  C5  UNL     1     -32.770   7.940   4.333  1.00 20.00     0.014 C 
HETATM    5  C6  UNL     1     -34.236   6.344   3.333  1.00 20.00     0.021 C 
HETATM    6  C7  UNL     1     -32.145   7.494   3.008  1.00 20.00     0.028 C 
HETATM    7  C8  UNL     1     -32.802   6.114   2.822  1.00 20.00     0.095 C 
HETATM    8  C9  UNL     1     -34.206   7.812   3.814  1.00 20.00    -0.009 C 
ENDROOT
BRANCH   7   9
HETATM    9  C3  UNL     1     -32.746   5.616   1.391  1.00 20.00     0.177 C 
HETATM   10  O10 UNL     1     -33.834   5.682   0.754  1.00 20.00    -0.648 OA
HETATM   11  O11 UNL     1     -31.614   5.198   1.019  1.00 20.00    -0.648 OA
ENDBRANCH   7   9
TORSDOF 1
ENDMDL
MODEL 9
REMARK VINA RESULT:       3.1      2.701      3.559
REMARK  1 active torsions:
REMARK  status: ('A' for Active; 'I' for Inactive)
REMARK    1  A    between atoms: C3_3  and  C8_8 
ROOT
HETATM    1  C1  UNL     1     -33.333   6.074   2.449  1.00 20.00    -0.084 C 
HETATM    2  C2  UNL     1     -32.356   5.708   1.616  1.00 20.00     0.015 C 
HETATM    3  C4  UNL     1     -34.736   6.464   2.057  1.00 20.00     0.038 C 
HETATM    4  C5  UNL     1     -34.133   7.453   4.142  1.00 20.00     0.014 C 
HETATM    5  C6  UNL     1     -35.497   5.498   4.262  1.00 20.00     0.021 C 
HETATM    6  C7  UNL     1     -33.225   6.234   3.952  1.00 20.00     0.028 C 
HETATM    7  C8  UNL     1     -34.051   5.139   4.651  1.00 20.00     0.095 C 
HETATM    8  C9  UNL     1     -35.327   6.797   3.441  1.00 20.00    -0.009 C 
ENDROOT
BRANCH   7   9
HETATM    9  C3  UNL     1     -33.648   3.737   4.241  1.00 20.00     0.177 C 
HETATM   10  O10 UNL     1     -32.783   3.187   4.980  1.00 20.00    -0.648 OA
HETATM   11  O11 UNL     1     -34.230   3.298   3.211  1.00 20.00    -0.648 OA
ENDBRANCH   7   9
TORSDOF 1
ENDMDL
