MODEL 1
REMARK VINA RESULT:       0.8      0.000      0.000
REMARK  1 active torsions:
REMARK  status: ('A' for Active; 'I' for Inactive)
REMARK    1  A    between atoms: C3_3  and  C7_7 
ROOT
HETATM    1  C1  UNL     1     -33.236   6.424   2.362  1.00 20.00    -0.070 C 
HETATM    2  C2  UNL     1     -32.574   5.604   1.542  1.00 20.00     0.015 C 
HETATM    3  C4  UNL     1     -32.342   7.914   4.107  1.00 20.00     0.009 C 
HETATM    4  C5  UNL     1     -33.610   7.666   4.944  1.00 20.00     0.006 C 
HETATM    5  C6  UNL     1     -34.262   8.475   2.815  1.00 20.00     0.014 C 
HETATM    6  C7  UNL     1     -34.517   6.132   3.100  1.00 20.00     0.119 C 
HETATM    7  C8  UNL     1     -32.868   7.863   2.664  1.00 20.00     0.015 C 
HETATM    8  C9  UNL     1     -34.703   7.455   3.872  1.00 20.00     0.004 C 
ENDROOT
BRANCH   6   9
HETATM    9  C3  UNL     1     -34.409   4.925   3.997  1.00 20.00     0.181 C 
HETATM   10  O10 UNL     1     -33.326   4.283   3.908  1.00 20.00    -0.647 OA
HETATM   11  O11 UNL     1     -35.420   4.713   4.723  1.00 20.00    -0.647 OA
ENDBRANCH   6   9
TORSDOF 1
ENDMDL
MODEL 2
REMARK VINA RESULT:       1.3      1.176      1.558
REMARK  1 active torsions:
REMARK  status: ('A' for Active; 'I' for Inactive)
REMARK    1  A    between atoms: C3_3  and  C7_7 
ROOT
HETATM    1  C1  UNL     1     -32.526   6.392   1.587  1.00 20.00    -0.070 C 
HETATM    2  C2  UNL     1     -32.205   5.180   1.126  1.00 20.00     0.015 C 
HETATM    3  C4  UNL     1     -31.166   7.941   2.934  1.00 20.00     0.009 C 
HETATM    4  C5  UNL     1     -32.447   8.426   3.637  1.00 20.00     0.006 C 
HETATM    5  C6  UNL     1     -32.721   8.704   1.299  1.00 20.00     0.014 C 
HETATM    6  C7  UNL     1     -33.834   6.812   2.206  1.00 20.00     0.119 C 
HETATM    7  C8  UNL     1     -31.653   7.629   1.511  1.00 20.00     0.015 C 
HETATM    8  C9  UNL     1     -33.525   8.287   2.538  1.00 20.00     0.004 C 
ENDROOT
BRANCH   6   9
HETATM    9  C3  UNL     1     -34.195   5.988   3.416  1.00 20.00     0.181 C 
HETATM   10  O10 UNL     1     -33.486   4.960   3.599  1.00 20.00    -0.647 OA
HETATM   11  O11 UNL     1     -35.164   6.436   4.090  1.00 20.00    -0.647 OA
ENDBRANCH   6   9
TORSDOF 1
ENDMDL
MODEL 3
REMARK VINA RESULT:       1.8      1.108      2.813
REMARK  1 active torsions:
REMARK  status: ('A' for Active; 'I' for Inactive)
REMARK    1  A    between atoms: C3_3  and  C7_7 
ROOT
HETATM    1  C1  UNL     1     -33.366   7.188   3.226  1.00 20.00    -0.070 C 
HETATM    2  C2  UNL     1     -33.922   8.068   4.064  1.00 20.00     0.015 C 
HETATM    3  C4  UNL     1     -33.794   6.862   0.823  1.00 20.00     0.009 C 
HETATM    4  C5  UNL     1     -33.534   5.355   0.999  1.00 20.00     0.006 C 
HETATM    5  C6  UNL     1     -31.640   6.540   1.789  1.00 20.00     0.014 C 
HETATM    6  C7  UNL     1     -33.082   5.733   3.495  1.00 20.00     0.119 C 
HETATM    7  C8  UNL     1     -32.833   7.496   1.841  1.00 20.00     0.015 C 
HETATM    8  C9  UNL     1     -32.488   5.308   2.135  1.00 20.00     0.004 C 
ENDROOT
BRANCH   6   9
HETATM    9  C3  UNL     1     -34.318   4.959   3.876  1.00 20.00     0.181 C 
HETATM   10  O10 UNL     1     -35.379   5.639   3.948  1.00 20.00    -0.647 OA
HETATM   11  O11 UNL     1     -34.130   3.727   4.076  1.00 20.00    -0.647 OA
ENDBRANCH   6   9
TORSDOF 1
ENDMDL
MODEL 4
REMARK VINA RESULT:       1.9      2.179      3.509
REMARK  1 active torsions:
REMARK  status: ('A' for Active; 'I' for Inactive)
REMARK    1  A    between atoms: C3_3  and  C7_7 
ROOT
HETATM    1  C1  UNL     1     -33.782   7.567   4.235  1.00 20.00    -0.070 C 
HETATM    2  C2  UNL     1     -33.250   8.340   5.186  1.00 20.00     0.015 C 
HETATM    3  C4  UNL     1     -33.974   5.112   4.170  1.00 20.00     0.009 C 
HETATM    4  C5  UNL     1     -33.793   5.157   2.642  1.00 20.00     0.006 C 
HETATM    5  C6  UNL     1     -35.624   6.545   3.221  1.00 20.00     0.014 C 
HETATM    6  C7  UNL     1     -33.611   7.712   2.745  1.00 20.00     0.119 C 
HETATM    7  C8  UNL     1     -34.738   6.413   4.462  1.00 20.00     0.015 C 
HETATM    8  C9  UNL     1     -34.436   6.506   2.250  1.00 20.00     0.004 C 
ENDROOT
BRANCH   6   9
HETATM    9  C3  UNL     1     -32.166   7.667   2.318  1.00 20.00     0.181 C 
HETATM   10  O10 UNL     1     -31.416   8.523   2.862  1.00 20.00    -0.647 OA
HETATM   11  O11 UNL     1     -31.895   6.773   1.468  1.00 20.00    -0.647 OA
ENDBRANCH   6   9
TORSDOF 1
ENDMDL
MODEL 5
REMARK VINA RESULT:       2.0      1.256      2.704
REMARK  1 active torsions:
REMARK  status: ('A' for Active; 'I' for Inactive)
REMARK    1  A    between atoms: C3_3  and  C7_7 
ROOT
HETATM    1  C1  UNL     1     -32.961   7.432   3.498  1.00 20.00    -0.070 C 
HETATM    2  C2  UNL     1     -33.111   8.300   4.503  1.00 20.00     0.015 C 
HETATM    3  C4  UNL     1     -33.410   7.757   1.099  1.00 20.00     0.009 C 
HETATM    4  C5  UNL     1     -33.829   6.279   0.996  1.00 20.00     0.006 C 
HETATM    5  C6  UNL     1     -31.636   6.377   1.887  1.00 20.00     0.014 C 
HETATM    6  C7  UNL     1     -33.337   5.974   3.494  1.00 20.00     0.119 C 
HETATM    7  C8  UNL     1     -32.303   7.725   2.164  1.00 20.00     0.015 C 
HETATM    8  C9  UNL     1     -32.941   5.587   2.054  1.00 20.00     0.004 C 
ENDROOT
BRANCH   6   9
HETATM    9  C3  UNL     1     -34.797   5.749   3.795  1.00 20.00     0.181 C 
HETATM   10  O10 UNL     1     -35.081   4.618   4.276  1.00 20.00    -0.647 OA
HETATM   11  O11 UNL     1     -35.549   6.727   3.525  1.00 20.00    -0.647 OA
ENDBRANCH   6   9
TORSDOF 1
ENDMDL
MODEL 6
REMARK VINA RESULT:       2.1      1.814      3.057
REMARK  1 active torsions:
REMARK  status: ('A' for Active; 'I' for Inactive)
REMARK    1  A    between atoms: C3_3  and  C7_7 
ROOT
HETATM    1  C1  UNL     1     -33.929   5.326   3.726  1.00 20.00    -0.070 C 
HETATM    2  C2  UNL     1     -33.791   4.002   3.610  1.00 20.00     0.015 C 
HETATM    3  C4  UNL     1     -35.916   6.713   3.288  1.00 20.00     0.009 C 
HETATM    4  C5  UNL     1     -34.994   7.851   2.812  1.00 20.00     0.006 C 
HETATM    5  C6  UNL     1     -34.354   7.233   5.008  1.00 20.00     0.014 C 
HETATM    6  C7  UNL     1     -32.947   6.383   3.294  1.00 20.00     0.119 C 
HETATM    7  C8  UNL     1     -35.088   6.041   4.393  1.00 20.00     0.015 C 
HETATM    8  C9  UNL     1     -33.726   7.660   3.675  1.00 20.00     0.004 C 
ENDROOT
BRANCH   6   9
HETATM    9  C3  UNL     1     -32.612   6.301   1.827  1.00 20.00     0.181 C 
HETATM   10  O10 UNL     1     -33.155   5.349   1.202  1.00 20.00    -0.647 OA
HETATM   11  O11 UNL     1     -31.828   7.200   1.412  1.00 20.00    -0.647 OA
ENDBRANCH   6   9
TORSDOF 1
ENDMDL
MODEL 7
REMARK VINA RESULT:       2.2      1.967      3.054
REMARK  1 active torsions:
REMARK  status: ('A' for Active; 'I' for Inactive)
REMARK    1  A    between atoms: C3_3  and  C7_7 
ROOT
HETATM    1  C1  UNL     1     -33.755   5.853   2.922  1.00 20.00    -0.070 C 
HETATM    2  C2  UNL     1     -34.231   5.020   3.853  1.00 20.00     0.015 C 
HETATM    3  C4  UNL     1     -31.591   5.782   1.749  1.00 20.00     0.009 C 
HETATM    4  C5  UNL     1     -31.584   7.321   1.708  1.00 20.00     0.006 C 
HETATM    5  C6  UNL     1     -33.585   6.553   0.698  1.00 20.00     0.014 C 
HETATM    6  C7  UNL     1     -33.844   7.357   2.918  1.00 20.00     0.119 C 
HETATM    7  C8  UNL     1     -33.085   5.444   1.625  1.00 20.00     0.015 C 
HETATM    8  C9  UNL     1     -33.084   7.678   1.614  1.00 20.00     0.004 C 
ENDROOT
BRANCH   6   9
HETATM    9  C3  UNL     1     -33.224   7.979   4.142  1.00 20.00     0.181 C 
HETATM   10  O10 UNL     1     -32.056   8.430   3.985  1.00 20.00    -0.647 OA
HETATM   11  O11 UNL     1     -33.957   7.968   5.170  1.00 20.00    -0.647 OA
ENDBRANCH   6   9
TORSDOF 1
ENDMDL
MODEL 8
REMARK VINA RESULT:       2.2      2.134      3.461
REMARK  1 active torsions:
REMARK  status: ('A' for Active; 'I' for Inactive)
REMARK    1  A    between atoms: C3_3  and  C7_7 
ROOT
HETATM    1  C1  UNL     1     -33.193   7.172   2.782  1.00 20.00    -0.070 C 
HETATM    2  C2  UNL     1     -34.289   6.698   3.382  1.00 20.00     0.015 C 
HETATM    3  C4  UNL     1     -32.957   9.157   1.343  1.00 20.00     0.009 C 
HETATM    4  C5  UNL     1     -31.873   8.420   0.535  1.00 20.00     0.006 C 
HETATM    5  C6  UNL     1     -31.228   8.438   2.815  1.00 20.00     0.014 C 
HETATM    6  C7  UNL     1     -32.135   6.376   2.062  1.00 20.00     0.119 C 
HETATM    7  C8  UNL     1     -32.746   8.620   2.768  1.00 20.00     0.015 C 
HETATM    8  C9  UNL     1     -31.203   7.512   1.591  1.00 20.00     0.004 C 
ENDROOT
BRANCH   6   9
HETATM    9  C3  UNL     1     -32.696   5.553   0.931  1.00 20.00     0.181 C 
HETATM   10  O10 UNL     1     -33.867   5.857   0.572  1.00 20.00    -0.647 OA
HETATM   11  O11 UNL     1     -31.918   4.663   0.488  1.00 20.00    -0.647 OA
ENDBRANCH   6   9
TORSDOF 1
ENDMDL
MODEL 9
REMARK VINA RESULT:       2.4      2.455      4.011
REMARK  1 active torsions:
REMARK  status: ('A' for Active; 'I' for Inactive)
REMARK    1  A    between atoms: C3_3  and  C7_7 
ROOT
HETATM    1  C1  UNL     1     -33.668   6.755   2.870  1.00 20.00    -0.070 C 
HETATM    2  C2  UNL     1     -34.124   7.401   3.948  1.00 20.00     0.015 C 
HETATM    3  C4  UNL     1     -32.205   4.778   2.761  1.00 20.00     0.009 C 
HETATM    4  C5  UNL     1     -31.586   5.330   1.463  1.00 20.00     0.006 C 
HETATM    5  C6  UNL     1     -33.932   5.173   1.170  1.00 20.00     0.014 C 
HETATM    6  C7  UNL     1     -33.136   7.369   1.601  1.00 20.00     0.119 C 
HETATM    7  C8  UNL     1     -33.664   5.252   2.673  1.00 20.00     0.015 C 
HETATM    8  C9  UNL     1     -32.760   6.096   0.813  1.00 20.00     0.004 C 
ENDROOT
BRANCH   6   9
HETATM    9  C3  UNL     1     -31.968   8.289   1.846  1.00 20.00     0.181 C 
HETATM   10  O10 UNL     1     -31.546   8.321   3.035  1.00 20.00    -0.647 OA
HETATM   11  O11 UNL     1     -31.562   8.912   0.825  1.00 20.00    -0.647 OA
ENDBRANCH   6   9
TORSDOF 1
ENDMDL
