MODEL 1
REMARK VINA RESULT:      -2.0      0.000      0.000
REMARK  2 active torsions:
REMARK  status: ('A' for Active; 'I' for Inactive)
REMARK    1  A    between atoms: C3_3  and  C8_8 
REMARK    2  A    between atoms: C9_9  and  N11_11 
ROOT
HETATM    1  C1  UNL     1     -34.012   4.003   4.437  1.00 20.00     0.089 C 
HETATM    2  C9  UNL     1     -34.876   5.164   4.235  1.00 20.00     0.395 C 
HETATM    3  N10 UNL     1     -33.328   3.079   4.600  1.00 20.00    -0.195 NA
ENDROOT
BRANCH   2   4
HETATM    4  N11 UNL     1     -34.295   6.081   3.254  1.00 20.00     0.101 N 
HETATM    5  C6  UNL     1     -33.802   7.297   3.918  1.00 20.00     0.274 C 
HETATM    6  C4  UNL     1     -33.241   8.291   2.899  1.00 20.00     0.039 C 
HETATM    7  C8  UNL     1     -32.144   7.653   2.049  1.00 20.00     0.011 C 
HETATM    8  C5  UNL     1     -32.640   6.346   1.434  1.00 20.00     0.039 C 
HETATM    9  C7  UNL     1     -33.222   5.416   2.501  1.00 20.00     0.274 C 
BRANCH   7  10
HETATM   10  C3  UNL     1     -31.721   8.591   0.961  1.00 20.00    -0.032 C 
HETATM   11  C2  UNL     1     -32.466   9.611   0.521  1.00 20.00     0.007 C 
ENDBRANCH   7  10
ENDBRANCH   2   4
TORSDOF 2
ENDMDL
MODEL 2
REMARK VINA RESULT:      -1.7      0.582      1.587
REMARK  2 active torsions:
REMARK  status: ('A' for Active; 'I' for Inactive)
REMARK    1  A    between atoms: C3_3  and  C8_8 
REMARK    2  A    between atoms: C9_9  and  N11_11 
ROOT
HETATM    1  C1  UNL     1     -33.669   3.497   4.509  1.00 20.00     0.089 C 
HETATM    2  C9  UNL     1     -34.456   4.658   4.101  1.00 20.00     0.395 C 
HETATM    3  N10 UNL     1     -33.046   2.573   4.834  1.00 20.00    -0.195 NA
ENDROOT
BRANCH   2   4
HETATM    4  N11 UNL     1     -33.600   5.688   3.512  1.00 20.00     0.101 N 
HETATM    5  C6  UNL     1     -33.349   5.397   2.094  1.00 20.00     0.274 C 
HETATM    6  C4  UNL     1     -32.409   6.436   1.478  1.00 20.00     0.039 C 
HETATM    7  C8  UNL     1     -32.957   7.851   1.653  1.00 20.00     0.011 C 
HETATM    8  C5  UNL     1     -33.295   8.112   3.119  1.00 20.00     0.039 C 
HETATM    9  C7  UNL     1     -34.204   7.017   3.682  1.00 20.00     0.274 C 
BRANCH   7  10
HETATM   10  C3  UNL     1     -31.952   8.856   1.183  1.00 20.00    -0.032 C 
HETATM   11  C2  UNL     1     -32.222   9.833   0.310  1.00 20.00     0.007 C 
ENDBRANCH   7  10
ENDBRANCH   2   4
TORSDOF 2
ENDMDL
MODEL 3
REMARK VINA RESULT:      -1.5      1.980      4.864
REMARK  2 active torsions:
REMARK  status: ('A' for Active; 'I' for Inactive)
REMARK    1  A    between atoms: C3_3  and  C8_8 
REMARK    2  A    between atoms: C9_9  and  N11_11 
ROOT
HETATM    1  C1  UNL     1     -32.276   9.360   0.265  1.00 20.00     0.089 C 
HETATM    2  C9  UNL     1     -31.297   8.755   1.164  1.00 20.00     0.395 C 
HETATM    3  N10 UNL     1     -33.051   9.843  -0.452  1.00 20.00    -0.195 NA
ENDROOT
BRANCH   2   4
HETATM    4  N11 UNL     1     -31.936   7.786   2.054  1.00 20.00     0.101 N 
HETATM    5  C6  UNL     1     -32.974   8.438   2.864  1.00 20.00     0.274 C 
HETATM    6  C4  UNL     1     -33.614   7.448   3.840  1.00 20.00     0.039 C 
HETATM    7  C8  UNL     1     -34.181   6.235   3.105  1.00 20.00     0.011 C 
HETATM    8  C5  UNL     1     -33.117   5.616   2.201  1.00 20.00     0.039 C 
HETATM    9  C7  UNL     1     -32.492   6.667   1.280  1.00 20.00     0.274 C 
BRANCH   7  10
HETATM   10  C3  UNL     1     -34.660   5.213   4.088  1.00 20.00    -0.032 C 
HETATM   11  C2  UNL     1     -34.058   4.037   4.300  1.00 20.00     0.007 C 
ENDBRANCH   7  10
ENDBRANCH   2   4
TORSDOF 2
ENDMDL
MODEL 4
REMARK VINA RESULT:      -1.4      2.095      5.248
REMARK  2 active torsions:
REMARK  status: ('A' for Active; 'I' for Inactive)
REMARK    1  A    between atoms: C3_3  and  C8_8 
REMARK    2  A    between atoms: C9_9  and  N11_11 
ROOT
HETATM    1  C1  UNL     1     -32.524   9.730   0.070  1.00 20.00     0.089 C 
HETATM    2  C9  UNL     1     -31.880   9.086   1.213  1.00 20.00     0.395 C 
HETATM    3  N10 UNL     1     -33.033  10.244  -0.837  1.00 20.00    -0.195 NA
ENDROOT
BRANCH   2   4
HETATM    4  N11 UNL     1     -32.668   7.946   1.682  1.00 20.00     0.101 N 
HETATM    5  C6  UNL     1     -31.964   6.686   1.407  1.00 20.00     0.274 C 
HETATM    6  C4  UNL     1     -32.801   5.482   1.841  1.00 20.00     0.039 C 
HETATM    7  C8  UNL     1     -33.186   5.578   3.317  1.00 20.00     0.011 C 
HETATM    8  C5  UNL     1     -33.840   6.926   3.609  1.00 20.00     0.039 C 
HETATM    9  C7  UNL     1     -32.969   8.084   3.114  1.00 20.00     0.274 C 
BRANCH   7  10
HETATM   10  C3  UNL     1     -34.130   4.474   3.678  1.00 20.00    -0.032 C 
HETATM   11  C2  UNL     1     -33.789   3.407   4.410  1.00 20.00     0.007 C 
ENDBRANCH   7  10
ENDBRANCH   2   4
TORSDOF 2
ENDMDL
MODEL 5
REMARK VINA RESULT:       0.5      1.838      4.734
REMARK  2 active torsions:
REMARK  status: ('A' for Active; 'I' for Inactive)
REMARK    1  A    between atoms: C3_3  and  C8_8 
REMARK    2  A    between atoms: C9_9  and  N11_11 
ROOT
HETATM    1  C1  UNL     1     -31.908   8.740   0.967  1.00 20.00     0.089 C 
HETATM    2  C9  UNL     1     -32.866   8.872   2.063  1.00 20.00     0.395 C 
HETATM    3  N10 UNL     1     -31.147   8.638   0.096  1.00 20.00    -0.195 NA
ENDROOT
BRANCH   2   4
HETATM    4  N11 UNL     1     -32.986   7.617   2.805  1.00 20.00     0.101 N 
HETATM    5  C6  UNL     1     -34.261   7.573   3.535  1.00 20.00     0.274 C 
HETATM    6  C4  UNL     1     -34.377   6.290   4.361  1.00 20.00     0.039 C 
HETATM    7  C8  UNL     1     -34.211   5.050   3.484  1.00 20.00     0.011 C 
HETATM    8  C5  UNL     1     -32.925   5.147   2.665  1.00 20.00     0.039 C 
HETATM    9  C7  UNL     1     -32.856   6.469   1.896  1.00 20.00     0.274 C 
BRANCH   7  10
HETATM   10  C3  UNL     1     -34.173   3.817   4.332  1.00 20.00    -0.032 C 
HETATM   11  C2  UNL     1     -33.065   3.106   4.570  1.00 20.00     0.007 C 
ENDBRANCH   7  10
ENDBRANCH   2   4
TORSDOF 2
ENDMDL
