MODEL 1
REMARK VINA RESULT:      -0.3      0.000      0.000
REMARK  1 active torsions:
REMARK  status: ('A' for Active; 'I' for Inactive)
REMARK    1  A    between atoms: C2_2  and  C5_5 
ROOT
HETATM    1  C1  UNL     1     -33.550   7.893   2.796  1.00 20.00     0.016 C 
HETATM    2  C2  UNL     1     -32.566   8.062   1.901  1.00 20.00    -0.019 C 
HETATM    3  C3  UNL     1     -33.947   6.573   3.261  1.00 20.00    -0.066 C 
HETATM    4  C4  UNL     1     -35.028   6.400   4.036  1.00 20.00     0.019 C 
HETATM    5  C6  UNL     1     -31.802   6.934   1.267  1.00 20.00     0.050 C 
HETATM    6  C7  UNL     1     -33.083   5.410   2.827  1.00 20.00     0.047 C 
HETATM    7  C8  UNL     1     -32.528   5.568   1.388  1.00 20.00    -0.040 C 
HETATM    8  C9  UNL     1     -31.528   4.435   1.099  1.00 20.00     0.015 C 
HETATM    9  C10 UNL     1     -33.670   5.472   0.354  1.00 20.00     0.015 C 
ENDROOT
BRANCH   2  10
HETATM   10  C5  UNL     1     -32.239   9.435   1.503  1.00 20.00     0.265 C 
HETATM   11  O11 UNL     1     -32.424   9.853   0.367  1.00 20.00    -0.302 OA
ENDBRANCH   2  10
TORSDOF 1
ENDMDL
MODEL 2
REMARK VINA RESULT:       0.2      2.239      3.871
REMARK  1 active torsions:
REMARK  status: ('A' for Active; 'I' for Inactive)
REMARK    1  A    between atoms: C2_2  and  C5_5 
ROOT
HETATM    1  C1  UNL     1     -33.765   5.555   2.301  1.00 20.00     0.016 C 
HETATM    2  C2  UNL     1     -33.998   6.516   3.208  1.00 20.00    -0.019 C 
HETATM    3  C3  UNL     1     -32.586   5.571   1.450  1.00 20.00    -0.066 C 
HETATM    4  C4  UNL     1     -32.436   4.696   0.446  1.00 20.00     0.019 C 
HETATM    5  C6  UNL     1     -33.105   7.706   3.420  1.00 20.00     0.050 C 
HETATM    6  C7  UNL     1     -31.541   6.622   1.755  1.00 20.00     0.047 C 
HETATM    7  C8  UNL     1     -32.150   7.967   2.225  1.00 20.00    -0.040 C 
HETATM    8  C9  UNL     1     -31.020   8.909   2.676  1.00 20.00     0.015 C 
HETATM    9  C10 UNL     1     -32.909   8.652   1.068  1.00 20.00     0.015 C 
ENDROOT
BRANCH   2  10
HETATM   10  C5  UNL     1     -35.213   6.403   4.020  1.00 20.00     0.265 C 
HETATM   11  O11 UNL     1     -35.592   5.340   4.493  1.00 20.00    -0.302 OA
ENDBRANCH   2  10
TORSDOF 1
ENDMDL
MODEL 3
REMARK VINA RESULT:       1.0      0.908      3.024
REMARK  1 active torsions:
REMARK  status: ('A' for Active; 'I' for Inactive)
REMARK    1  A    between atoms: C2_2  and  C5_5 
ROOT
HETATM    1  C1  UNL     1     -31.906   7.353   1.113  1.00 20.00     0.016 C 
HETATM    2  C2  UNL     1     -32.647   8.433   1.403  1.00 20.00    -0.019 C 
HETATM    3  C3  UNL     1     -32.187   6.049   1.694  1.00 20.00    -0.066 C 
HETATM    4  C4  UNL     1     -31.355   5.012   1.522  1.00 20.00     0.019 C 
HETATM    5  C6  UNL     1     -33.804   8.426   2.361  1.00 20.00     0.050 C 
HETATM    6  C7  UNL     1     -33.462   5.924   2.499  1.00 20.00     0.047 C 
HETATM    7  C8  UNL     1     -33.795   7.200   3.313  1.00 20.00    -0.040 C 
HETATM    8  C9  UNL     1     -35.185   7.048   3.956  1.00 20.00     0.015 C 
HETATM    9  C10 UNL     1     -32.765   7.405   4.445  1.00 20.00     0.015 C 
ENDROOT
BRANCH   2  10
HETATM   10  C5  UNL     1     -32.282   9.698   0.760  1.00 20.00     0.265 C 
HETATM   11  O11 UNL     1     -32.645   9.989  -0.373  1.00 20.00    -0.302 OA
ENDBRANCH   2  10
TORSDOF 1
ENDMDL
MODEL 4
REMARK VINA RESULT:       1.1      1.851      3.467
REMARK  1 active torsions:
REMARK  status: ('A' for Active; 'I' for Inactive)
REMARK    1  A    between atoms: C2_2  and  C5_5 
ROOT
HETATM    1  C1  UNL     1     -33.210   5.592   2.578  1.00 20.00     0.016 C 
HETATM    2  C2  UNL     1     -32.284   5.741   1.619  1.00 20.00    -0.019 C 
HETATM    3  C3  UNL     1     -33.970   6.719   3.094  1.00 20.00    -0.066 C 
HETATM    4  C4  UNL     1     -34.781   6.591   4.155  1.00 20.00     0.019 C 
HETATM    5  C6  UNL     1     -31.914   7.062   1.006  1.00 20.00     0.050 C 
HETATM    6  C7  UNL     1     -33.800   8.040   2.377  1.00 20.00     0.047 C 
HETATM    7  C8  UNL     1     -32.355   8.275   1.868  1.00 20.00    -0.040 C 
HETATM    8  C9  UNL     1     -32.318   9.549   1.006  1.00 20.00     0.015 C 
HETATM    9  C10 UNL     1     -31.388   8.472   3.055  1.00 20.00     0.015 C 
ENDROOT
BRANCH   2  10
HETATM   10  C5  UNL     1     -31.578   4.540   1.165  1.00 20.00     0.265 C 
HETATM   11  O11 UNL     1     -31.561   4.190  -0.009  1.00 20.00    -0.302 OA
ENDBRANCH   2  10
TORSDOF 1
ENDMDL
MODEL 5
REMARK VINA RESULT:       1.4      2.315      3.518
REMARK  1 active torsions:
REMARK  status: ('A' for Active; 'I' for Inactive)
REMARK    1  A    between atoms: C2_2  and  C5_5 
ROOT
HETATM    1  C1  UNL     1     -33.338   7.473   3.404  1.00 20.00     0.016 C 
HETATM    2  C2  UNL     1     -34.097   6.372   3.291  1.00 20.00    -0.019 C 
HETATM    3  C3  UNL     1     -32.308   7.799   2.430  1.00 20.00    -0.066 C 
HETATM    4  C4  UNL     1     -31.454   8.813   2.628  1.00 20.00     0.019 C 
HETATM    5  C6  UNL     1     -33.950   5.359   2.191  1.00 20.00     0.050 C 
HETATM    6  C7  UNL     1     -32.249   6.938   1.187  1.00 20.00     0.047 C 
HETATM    7  C8  UNL     1     -32.584   5.450   1.462  1.00 20.00    -0.040 C 
HETATM    8  C9  UNL     1     -32.671   4.691   0.126  1.00 20.00     0.015 C 
HETATM    9  C10 UNL     1     -31.475   4.793   2.313  1.00 20.00     0.015 C 
ENDROOT
BRANCH   2  10
HETATM   10  C5  UNL     1     -35.111   6.139   4.323  1.00 20.00     0.265 C 
HETATM   11  O11 UNL     1     -35.553   5.024   4.572  1.00 20.00    -0.302 OA
ENDBRANCH   2  10
TORSDOF 1
ENDMDL
MODEL 6
REMARK VINA RESULT:       1.7      2.952      4.791
REMARK  1 active torsions:
REMARK  status: ('A' for Active; 'I' for Inactive)
REMARK    1  A    between atoms: C2_2  and  C5_5 
ROOT
HETATM    1  C1  UNL     1     -33.196   4.511   2.498  1.00 20.00     0.016 C 
HETATM    2  C2  UNL     1     -33.564   4.463   3.788  1.00 20.00    -0.019 C 
HETATM    3  C3  UNL     1     -33.058   5.770   1.785  1.00 20.00    -0.066 C 
HETATM    4  C4  UNL     1     -32.840   5.806   0.462  1.00 20.00     0.019 C 
HETATM    5  C6  UNL     1     -33.898   5.675   4.612  1.00 20.00     0.050 C 
HETATM    6  C7  UNL     1     -33.172   7.035   2.607  1.00 20.00     0.047 C 
HETATM    7  C8  UNL     1     -34.214   6.925   3.749  1.00 20.00    -0.040 C 
HETATM    8  C9  UNL     1     -34.138   8.182   4.633  1.00 20.00     0.015 C 
HETATM    9  C10 UNL     1     -35.643   6.834   3.172  1.00 20.00     0.015 C 
ENDROOT
BRANCH   2  10
HETATM   10  C5  UNL     1     -33.667   3.143   4.415  1.00 20.00     0.265 C 
HETATM   11  O11 UNL     1     -32.850   2.736   5.231  1.00 20.00    -0.302 OA
ENDBRANCH   2  10
TORSDOF 1
ENDMDL
MODEL 7
REMARK VINA RESULT:       2.0      1.960      3.957
REMARK  1 active torsions:
REMARK  status: ('A' for Active; 'I' for Inactive)
REMARK    1  A    between atoms: C2_2  and  C5_5 
ROOT
HETATM    1  C1  UNL     1     -32.319   7.028   0.978  1.00 20.00     0.016 C 
HETATM    2  C2  UNL     1     -32.628   5.990   1.769  1.00 20.00    -0.019 C 
HETATM    3  C3  UNL     1     -32.323   8.397   1.469  1.00 20.00    -0.066 C 
HETATM    4  C4  UNL     1     -32.163   9.439   0.640  1.00 20.00     0.019 C 
HETATM    5  C6  UNL     1     -33.035   6.123   3.210  1.00 20.00     0.050 C 
HETATM    6  C7  UNL     1     -32.515   8.585   2.958  1.00 20.00     0.047 C 
HETATM    7  C8  UNL     1     -33.496   7.558   3.578  1.00 20.00    -0.040 C 
HETATM    8  C9  UNL     1     -33.495   7.713   5.109  1.00 20.00     0.015 C 
HETATM    9  C10 UNL     1     -34.934   7.808   3.074  1.00 20.00     0.015 C 
ENDROOT
BRANCH   2  10
HETATM   10  C5  UNL     1     -32.589   4.650   1.177  1.00 20.00     0.265 C 
HETATM   11  O11 UNL     1     -32.966   4.424   0.035  1.00 20.00    -0.302 OA
ENDBRANCH   2  10
TORSDOF 1
ENDMDL
MODEL 8
REMARK VINA RESULT:       2.2      2.301      3.801
REMARK  1 active torsions:
REMARK  status: ('A' for Active; 'I' for Inactive)
REMARK    1  A    between atoms: C2_2  and  C5_5 
ROOT
HETATM    1  C1  UNL     1     -32.622   4.357   2.954  1.00 20.00     0.016 C 
HETATM    2  C2  UNL     1     -32.799   5.366   2.087  1.00 20.00    -0.019 C 
HETATM    3  C3  UNL     1     -33.550   4.111   4.046  1.00 20.00    -0.066 C 
HETATM    4  C4  UNL     1     -33.289   3.201   4.996  1.00 20.00     0.019 C 
HETATM    5  C6  UNL     1     -33.932   6.350   2.163  1.00 20.00     0.050 C 
HETATM    6  C7  UNL     1     -34.822   4.930   4.056  1.00 20.00     0.047 C 
HETATM    7  C8  UNL     1     -34.614   6.382   3.556  1.00 20.00    -0.040 C 
HETATM    8  C9  UNL     1     -35.980   7.081   3.436  1.00 20.00     0.015 C 
HETATM    9  C10 UNL     1     -33.755   7.183   4.559  1.00 20.00     0.015 C 
ENDROOT
BRANCH   2  10
HETATM   10  C5  UNL     1     -31.809   5.524   1.019  1.00 20.00     0.265 C 
HETATM   11  O11 UNL     1     -31.502   4.609   0.265  1.00 20.00    -0.302 OA
ENDBRANCH   2  10
TORSDOF 1
ENDMDL
MODEL 9
REMARK VINA RESULT:       2.2      2.546      3.776
REMARK  1 active torsions:
REMARK  status: ('A' for Active; 'I' for Inactive)
REMARK    1  A    between atoms: C2_2  and  C5_5 
ROOT
HETATM    1  C1  UNL     1     -33.880   6.370   4.016  1.00 20.00     0.016 C 
HETATM    2  C2  UNL     1     -33.527   5.664   2.931  1.00 20.00    -0.019 C 
HETATM    3  C3  UNL     1     -33.803   7.822   4.047  1.00 20.00    -0.066 C 
HETATM    4  C4  UNL     1     -34.010   8.510   5.179  1.00 20.00     0.019 C 
HETATM    5  C6  UNL     1     -32.995   6.277   1.666  1.00 20.00     0.050 C 
HETATM    6  C7  UNL     1     -33.479   8.514   2.742  1.00 20.00     0.047 C 
HETATM    7  C8  UNL     1     -32.472   7.724   1.868  1.00 20.00    -0.040 C 
HETATM    8  C9  UNL     1     -32.338   8.410   0.497  1.00 20.00     0.015 C 
HETATM    9  C10 UNL     1     -31.078   7.705   2.531  1.00 20.00     0.015 C 
ENDROOT
BRANCH   2  10
HETATM   10  C5  UNL     1     -33.647   4.205   3.002  1.00 20.00     0.265 C 
HETATM   11  O11 UNL     1     -33.934   3.618   4.037  1.00 20.00    -0.302 OA
ENDBRANCH   2  10
TORSDOF 1
ENDMDL
