MODEL 1
REMARK VINA RESULT:      -2.7      0.000      0.000
REMARK  1 active torsions:
REMARK  status: ('A' for Active; 'I' for Inactive)
REMARK    1  A    between atoms: C1_1  and  C5_5 
ROOT
HETATM    1  C2  UNL     1     -34.338   5.226   3.988  1.00 20.00     0.011 A 
HETATM    2  C3  UNL     1     -35.600   6.095   3.994  1.00 20.00     0.011 A 
HETATM    3  C4  UNL     1     -33.509   7.791   4.257  1.00 20.00     0.023 A 
HETATM    4  C5  UNL     1     -33.690   7.557   2.747  1.00 20.00     0.064 A 
HETATM    5  C6  UNL     1     -34.279   6.664   3.742  1.00 20.00    -0.029 A 
ENDROOT
BRANCH   4   6
HETATM    6  C1  UNL     1     -32.530   7.124   1.961  1.00 20.00     0.128 C 
HETATM    7  C7  UNL     1     -32.597   5.746   1.360  1.00 20.00     0.091 C 
HETATM    8  O8  UNL     1     -31.551   7.852   1.801  1.00 20.00    -0.298 OA
ENDBRANCH   4   6
TORSDOF 1
ENDMDL
MODEL 2
REMARK VINA RESULT:      -2.4      1.822      3.647
REMARK  1 active torsions:
REMARK  status: ('A' for Active; 'I' for Inactive)
REMARK    1  A    between atoms: C1_1  and  C5_5 
ROOT
HETATM    1  C2  UNL     1     -31.664   8.276   2.439  1.00 20.00     0.011 A 
HETATM    2  C3  UNL     1     -32.043   8.415   0.961  1.00 20.00     0.011 A 
HETATM    3  C4  UNL     1     -32.052   5.765   1.500  1.00 20.00     0.023 A 
HETATM    4  C5  UNL     1     -33.442   6.292   1.896  1.00 20.00     0.064 A 
HETATM    5  C6  UNL     1     -32.303   7.187   1.706  1.00 20.00    -0.029 A 
ENDROOT
BRANCH   4   6
HETATM    6  C1  UNL     1     -33.942   6.009   3.245  1.00 20.00     0.128 C 
HETATM    7  C7  UNL     1     -34.465   7.180   4.032  1.00 20.00     0.091 C 
HETATM    8  O8  UNL     1     -33.934   4.870   3.710  1.00 20.00    -0.298 OA
ENDBRANCH   4   6
TORSDOF 1
ENDMDL
MODEL 3
REMARK VINA RESULT:      -1.6      2.302      3.455
REMARK  1 active torsions:
REMARK  status: ('A' for Active; 'I' for Inactive)
REMARK    1  A    between atoms: C1_1  and  C5_5 
ROOT
HETATM    1  C2  UNL     1     -33.194   5.747   1.389  1.00 20.00     0.011 A 
HETATM    2  C3  UNL     1     -32.256   6.833   1.927  1.00 20.00     0.011 A 
HETATM    3  C4  UNL     1     -34.602   7.141   3.238  1.00 20.00     0.023 A 
HETATM    4  C5  UNL     1     -33.806   6.080   4.017  1.00 20.00     0.064 A 
HETATM    5  C6  UNL     1     -33.467   6.443   2.643  1.00 20.00    -0.029 A 
ENDROOT
BRANCH   4   6
HETATM    6  C1  UNL     1     -34.447   4.794   4.304  1.00 20.00     0.128 C 
HETATM    7  C7  UNL     1     -33.582   3.567   4.195  1.00 20.00     0.091 C 
HETATM    8  O8  UNL     1     -35.635   4.720   4.620  1.00 20.00    -0.298 OA
ENDBRANCH   4   6
TORSDOF 1
ENDMDL
MODEL 4
REMARK VINA RESULT:      -1.4      1.537      3.130
REMARK  1 active torsions:
REMARK  status: ('A' for Active; 'I' for Inactive)
REMARK    1  A    between atoms: C1_1  and  C5_5 
ROOT
HETATM    1  C2  UNL     1     -33.355   5.575   0.937  1.00 20.00     0.011 A 
HETATM    2  C3  UNL     1     -31.860   5.362   1.197  1.00 20.00     0.011 A 
HETATM    3  C4  UNL     1     -32.377   7.943   1.819  1.00 20.00     0.023 A 
HETATM    4  C5  UNL     1     -32.704   7.120   3.077  1.00 20.00     0.064 A 
HETATM    5  C6  UNL     1     -32.581   6.499   1.760  1.00 20.00    -0.029 A 
ENDROOT
BRANCH   4   6
HETATM    6  C1  UNL     1     -34.022   7.281   3.697  1.00 20.00     0.128 C 
HETATM    7  C7  UNL     1     -34.880   6.048   3.794  1.00 20.00     0.091 C 
HETATM    8  O8  UNL     1     -34.409   8.371   4.118  1.00 20.00    -0.298 OA
ENDBRANCH   4   6
TORSDOF 1
ENDMDL
MODEL 5
REMARK VINA RESULT:      -1.4      1.989      3.844
REMARK  1 active torsions:
REMARK  status: ('A' for Active; 'I' for Inactive)
REMARK    1  A    between atoms: C1_1  and  C5_5 
ROOT
HETATM    1  C2  UNL     1     -32.569  10.119   1.206  1.00 20.00     0.011 A 
HETATM    2  C3  UNL     1     -32.611   9.339  -0.111  1.00 20.00     0.011 A 
HETATM    3  C4  UNL     1     -31.206   7.816   1.627  1.00 20.00     0.023 A 
HETATM    4  C5  UNL     1     -32.690   7.483   1.860  1.00 20.00     0.064 A 
HETATM    5  C6  UNL     1     -32.273   8.691   1.152  1.00 20.00    -0.029 A 
ENDROOT
BRANCH   4   6
HETATM    6  C1  UNL     1     -33.223   7.573   3.223  1.00 20.00     0.128 C 
HETATM    7  C7  UNL     1     -34.494   6.818   3.503  1.00 20.00     0.091 C 
HETATM    8  O8  UNL     1     -32.658   8.233   4.094  1.00 20.00    -0.298 OA
ENDBRANCH   4   6
TORSDOF 1
ENDMDL
MODEL 6
REMARK VINA RESULT:      -1.3      1.199      2.145
REMARK  1 active torsions:
REMARK  status: ('A' for Active; 'I' for Inactive)
REMARK    1  A    between atoms: C1_1  and  C5_5 
ROOT
HETATM    1  C2  UNL     1     -34.496   6.488   3.620  1.00 20.00     0.011 A 
HETATM    2  C3  UNL     1     -33.911   5.073   3.616  1.00 20.00     0.011 A 
HETATM    3  C4  UNL     1     -33.512   6.065   1.132  1.00 20.00     0.023 A 
HETATM    4  C5  UNL     1     -32.325   6.543   1.985  1.00 20.00     0.064 A 
HETATM    5  C6  UNL     1     -33.560   6.050   2.590  1.00 20.00    -0.029 A 
ENDROOT
BRANCH   4   6
HETATM    6  C1  UNL     1     -32.011   7.975   2.011  1.00 20.00     0.128 C 
HETATM    7  C7  UNL     1     -32.026   8.694   0.689  1.00 20.00     0.091 C 
HETATM    8  O8  UNL     1     -31.749   8.559   3.061  1.00 20.00    -0.298 OA
ENDBRANCH   4   6
TORSDOF 1
ENDMDL
MODEL 7
REMARK VINA RESULT:      -1.3      1.863      3.055
REMARK  1 active torsions:
REMARK  status: ('A' for Active; 'I' for Inactive)
REMARK    1  A    between atoms: C1_1  and  C5_5 
ROOT
HETATM    1  C2  UNL     1     -33.267   7.662   3.373  1.00 20.00     0.011 A 
HETATM    2  C3  UNL     1     -33.922   8.115   4.682  1.00 20.00     0.011 A 
HETATM    3  C4  UNL     1     -35.584   6.276   3.600  1.00 20.00     0.023 A 
HETATM    4  C5  UNL     1     -34.535   5.491   4.406  1.00 20.00     0.064 A 
HETATM    5  C6  UNL     1     -34.322   6.881   4.012  1.00 20.00    -0.029 A 
ENDROOT
BRANCH   4   6
HETATM    6  C1  UNL     1     -33.800   4.413   3.738  1.00 20.00     0.128 C 
HETATM    7  C7  UNL     1     -33.545   3.167   4.543  1.00 20.00     0.091 C 
HETATM    8  O8  UNL     1     -33.411   4.521   2.576  1.00 20.00    -0.298 OA
ENDBRANCH   4   6
TORSDOF 1
ENDMDL
MODEL 8
REMARK VINA RESULT:      -1.2      2.042      3.086
REMARK  1 active torsions:
REMARK  status: ('A' for Active; 'I' for Inactive)
REMARK    1  A    between atoms: C1_1  and  C5_5 
ROOT
HETATM    1  C2  UNL     1     -32.010   5.973   1.126  1.00 20.00     0.011 A 
HETATM    2  C3  UNL     1     -33.210   5.993   2.079  1.00 20.00     0.011 A 
HETATM    3  C4  UNL     1     -31.703   8.148   2.711  1.00 20.00     0.023 A 
HETATM    4  C5  UNL     1     -32.623   8.586   1.558  1.00 20.00     0.064 A 
HETATM    5  C6  UNL     1     -32.384   7.177   1.861  1.00 20.00    -0.029 A 
ENDROOT
BRANCH   4   6
HETATM    6  C1  UNL     1     -32.018   9.199   0.372  1.00 20.00     0.128 C 
HETATM    7  C7  UNL     1     -32.744  10.372  -0.229  1.00 20.00     0.091 C 
HETATM    8  O8  UNL     1     -30.967   8.775  -0.109  1.00 20.00    -0.298 OA
ENDBRANCH   4   6
TORSDOF 1
ENDMDL
MODEL 9
REMARK VINA RESULT:      -0.8      1.380      2.265
REMARK  1 active torsions:
REMARK  status: ('A' for Active; 'I' for Inactive)
REMARK    1  A    between atoms: C1_1  and  C5_5 
ROOT
HETATM    1  C2  UNL     1     -34.130   8.582   3.774  1.00 20.00     0.011 A 
HETATM    2  C3  UNL     1     -33.823   7.910   5.116  1.00 20.00     0.011 A 
HETATM    3  C4  UNL     1     -34.815   5.975   3.509  1.00 20.00     0.023 A 
HETATM    4  C5  UNL     1     -33.307   6.052   3.214  1.00 20.00     0.064 A 
HETATM    5  C6  UNL     1     -34.016   7.132   3.896  1.00 20.00    -0.029 A 
ENDROOT
BRANCH   4   6
HETATM    6  C1  UNL     1     -32.873   6.218   1.823  1.00 20.00     0.128 C 
HETATM    7  C7  UNL     1     -32.016   7.418   1.520  1.00 20.00     0.091 C 
HETATM    8  O8  UNL     1     -33.192   5.415   0.947  1.00 20.00    -0.298 OA
ENDBRANCH   4   6
TORSDOF 1
ENDMDL
