MODEL 1
REMARK VINA RESULT:      -1.3      0.000      0.000
REMARK  2 active torsions:
REMARK  status: ('A' for Active; 'I' for Inactive)
REMARK    1  A    between atoms: C3_3  and  C4_4 
REMARK    2  A    between atoms: C3_3  and  O10_10 
ROOT
HETATM    1  C1  UNL     1     -33.914   5.209   3.457  1.00 20.00    -0.066 A 
HETATM    2  C2  UNL     1     -33.657   4.056   4.036  1.00 20.00     0.016 C 
HETATM    3  C4  UNL     1     -33.817   5.972   2.272  1.00 20.00     0.126 A 
HETATM    4  C5  UNL     1     -34.479   6.499   3.616  1.00 20.00    -0.008 A 
HETATM    5  C6  UNL     1     -33.749   7.506   4.462  1.00 20.00     0.021 C 
HETATM    6  C7  UNL     1     -35.977   6.631   3.643  1.00 20.00     0.021 C 
ENDROOT
BRANCH   3   7
HETATM    7  C3  UNL     1     -32.468   6.395   1.892  1.00 20.00     0.267 C 
HETATM    8  O9  UNL     1     -31.606   5.636   1.469  1.00 20.00    -0.264 OA
BRANCH   7   9
HETATM    9  O10 UNL     1     -32.341   7.738   2.085  1.00 20.00    -0.326 OA
HETATM   10  C8  UNL     1     -31.918   8.486   0.939  1.00 20.00     0.213 C 
ENDBRANCH   7   9
ENDBRANCH   3   7
TORSDOF 2
ENDMDL
MODEL 2
REMARK VINA RESULT:      -1.3      1.306      1.602
REMARK  2 active torsions:
REMARK  status: ('A' for Active; 'I' for Inactive)
REMARK    1  A    between atoms: C3_3  and  C4_4 
REMARK    2  A    between atoms: C3_3  and  O10_10 
ROOT
HETATM    1  C1  UNL     1     -33.164   6.138   2.548  1.00 20.00    -0.066 A 
HETATM    2  C2  UNL     1     -32.634   4.937   2.455  1.00 20.00     0.016 C 
HETATM    3  C4  UNL     1     -33.429   7.354   1.882  1.00 20.00     0.126 A 
HETATM    4  C5  UNL     1     -33.852   7.053   3.383  1.00 20.00    -0.008 A 
HETATM    5  C6  UNL     1     -33.100   7.700   4.514  1.00 20.00     0.021 C 
HETATM    6  C7  UNL     1     -35.313   6.821   3.656  1.00 20.00     0.021 C 
ENDROOT
BRANCH   3   7
HETATM    7  C3  UNL     1     -32.264   8.192   1.592  1.00 20.00     0.267 C 
HETATM    8  O9  UNL     1     -31.109   7.791   1.617  1.00 20.00    -0.264 OA
BRANCH   7   9
HETATM    9  O10 UNL     1     -32.675   9.459   1.299  1.00 20.00    -0.326 OA
HETATM   10  C8  UNL     1     -32.448   9.882  -0.049  1.00 20.00     0.213 C 
ENDBRANCH   7   9
ENDBRANCH   3   7
TORSDOF 2
ENDMDL
MODEL 3
REMARK VINA RESULT:      -1.0      0.733      1.596
REMARK  2 active torsions:
REMARK  status: ('A' for Active; 'I' for Inactive)
REMARK    1  A    between atoms: C3_3  and  C4_4 
REMARK    2  A    between atoms: C3_3  and  O10_10 
ROOT
HETATM    1  C1  UNL     1     -33.841   5.305   3.426  1.00 20.00    -0.066 A 
HETATM    2  C2  UNL     1     -33.541   4.161   4.005  1.00 20.00     0.016 C 
HETATM    3  C4  UNL     1     -33.772   6.072   2.243  1.00 20.00     0.126 A 
HETATM    4  C5  UNL     1     -34.457   6.571   3.586  1.00 20.00    -0.008 A 
HETATM    5  C6  UNL     1     -33.769   7.604   4.435  1.00 20.00     0.021 C 
HETATM    6  C7  UNL     1     -35.960   6.644   3.609  1.00 20.00     0.021 C 
ENDROOT
BRANCH   3   7
HETATM    7  C3  UNL     1     -32.440   6.548   1.867  1.00 20.00     0.267 C 
HETATM    8  O9  UNL     1     -32.123   7.729   1.819  1.00 20.00    -0.264 OA
BRANCH   7   9
HETATM    9  O10 UNL     1     -31.636   5.483   1.587  1.00 20.00    -0.326 OA
HETATM   10  C8  UNL     1     -32.052   4.673   0.483  1.00 20.00     0.213 C 
ENDBRANCH   7   9
ENDBRANCH   3   7
TORSDOF 2
ENDMDL
MODEL 4
REMARK VINA RESULT:      -1.0      2.343      3.809
REMARK  2 active torsions:
REMARK  status: ('A' for Active; 'I' for Inactive)
REMARK    1  A    between atoms: C3_3  and  C4_4 
REMARK    2  A    between atoms: C3_3  and  O10_10 
ROOT
HETATM    1  C1  UNL     1     -33.464   6.036   2.758  1.00 20.00    -0.066 A 
HETATM    2  C2  UNL     1     -32.967   5.750   1.573  1.00 20.00     0.016 C 
HETATM    3  C4  UNL     1     -33.603   5.620   4.100  1.00 20.00     0.126 A 
HETATM    4  C5  UNL     1     -34.203   6.972   3.522  1.00 20.00    -0.008 A 
HETATM    5  C6  UNL     1     -35.684   7.088   3.282  1.00 20.00     0.021 C 
HETATM    6  C7  UNL     1     -33.535   8.256   3.933  1.00 20.00     0.021 C 
ENDROOT
BRANCH   3   7
HETATM    7  C3  UNL     1     -34.466   4.459   4.324  1.00 20.00     0.267 C 
HETATM    8  O9  UNL     1     -35.604   4.527   4.769  1.00 20.00    -0.264 OA
BRANCH   7   9
HETATM    9  O10 UNL     1     -33.805   3.323   3.963  1.00 20.00    -0.326 OA
HETATM   10  C8  UNL     1     -32.918   2.787   4.951  1.00 20.00     0.213 C 
ENDBRANCH   7   9
ENDBRANCH   3   7
TORSDOF 2
ENDMDL
MODEL 5
REMARK VINA RESULT:      -0.9      1.122      1.975
REMARK  2 active torsions:
REMARK  status: ('A' for Active; 'I' for Inactive)
REMARK    1  A    between atoms: C3_3  and  C4_4 
REMARK    2  A    between atoms: C3_3  and  O10_10 
ROOT
HETATM    1  C1  UNL     1     -33.863   7.202   4.193  1.00 20.00    -0.066 A 
HETATM    2  C2  UNL     1     -33.551   8.224   4.961  1.00 20.00     0.016 C 
HETATM    3  C4  UNL     1     -33.386   6.232   3.285  1.00 20.00     0.126 A 
HETATM    4  C5  UNL     1     -34.902   6.350   3.743  1.00 20.00    -0.008 A 
HETATM    5  C6  UNL     1     -35.927   6.904   2.792  1.00 20.00     0.021 C 
HETATM    6  C7  UNL     1     -35.425   5.295   4.680  1.00 20.00     0.021 C 
ENDROOT
BRANCH   3   7
HETATM    7  C3  UNL     1     -32.963   6.733   1.976  1.00 20.00     0.267 C 
HETATM    8  O9  UNL     1     -33.183   6.157   0.919  1.00 20.00    -0.264 OA
BRANCH   7   9
HETATM    9  O10 UNL     1     -32.303   7.915   2.132  1.00 20.00    -0.326 OA
HETATM   10  C8  UNL     1     -32.297   8.772   0.985  1.00 20.00     0.213 C 
ENDBRANCH   7   9
ENDBRANCH   3   7
TORSDOF 2
ENDMDL
MODEL 6
REMARK VINA RESULT:      -0.8      1.949      3.833
REMARK  2 active torsions:
REMARK  status: ('A' for Active; 'I' for Inactive)
REMARK    1  A    between atoms: C3_3  and  C4_4 
REMARK    2  A    between atoms: C3_3  and  O10_10 
ROOT
HETATM    1  C1  UNL     1     -32.594   7.203   1.897  1.00 20.00    -0.066 A 
HETATM    2  C2  UNL     1     -31.638   8.097   1.757  1.00 20.00     0.016 C 
HETATM    3  C4  UNL     1     -33.932   6.970   2.282  1.00 20.00     0.126 A 
HETATM    4  C5  UNL     1     -32.953   5.840   1.748  1.00 20.00    -0.008 A 
HETATM    5  C6  UNL     1     -32.379   4.835   2.709  1.00 20.00     0.021 C 
HETATM    6  C7  UNL     1     -33.203   5.308   0.363  1.00 20.00     0.021 C 
ENDROOT
BRANCH   3   7
HETATM    7  C3  UNL     1     -34.216   7.092   3.713  1.00 20.00     0.267 C 
HETATM    8  O9  UNL     1     -33.507   7.702   4.502  1.00 20.00    -0.264 OA
BRANCH   7   9
HETATM    9  O10 UNL     1     -35.371   6.430   4.007  1.00 20.00    -0.326 OA
HETATM   10  C8  UNL     1     -35.206   5.104   4.519  1.00 20.00     0.213 C 
ENDBRANCH   7   9
ENDBRANCH   3   7
TORSDOF 2
ENDMDL
MODEL 7
REMARK VINA RESULT:      -0.2      1.987      3.852
REMARK  2 active torsions:
REMARK  status: ('A' for Active; 'I' for Inactive)
REMARK    1  A    between atoms: C3_3  and  C4_4 
REMARK    2  A    between atoms: C3_3  and  O10_10 
ROOT
HETATM    1  C1  UNL     1     -32.765   6.585   1.797  1.00 20.00    -0.066 A 
HETATM    2  C2  UNL     1     -33.103   5.570   1.031  1.00 20.00     0.016 C 
HETATM    3  C4  UNL     1     -32.681   7.077   3.118  1.00 20.00     0.126 A 
HETATM    4  C5  UNL     1     -32.236   7.899   1.834  1.00 20.00    -0.008 A 
HETATM    5  C6  UNL     1     -33.092   9.033   1.341  1.00 20.00     0.021 C 
HETATM    6  C7  UNL     1     -30.760   8.088   1.612  1.00 20.00     0.021 C 
ENDROOT
BRANCH   3   7
HETATM    7  C3  UNL     1     -33.957   7.361   3.777  1.00 20.00     0.267 C 
HETATM    8  O9  UNL     1     -34.125   8.267   4.582  1.00 20.00    -0.264 OA
BRANCH   7   9
HETATM    9  O10 UNL     1     -34.897   6.469   3.354  1.00 20.00    -0.326 OA
HETATM   10  C8  UNL     1     -35.330   5.520   4.335  1.00 20.00     0.213 C 
ENDBRANCH   7   9
ENDBRANCH   3   7
TORSDOF 2
ENDMDL
MODEL 8
REMARK VINA RESULT:      -0.1      1.921      3.131
REMARK  2 active torsions:
REMARK  status: ('A' for Active; 'I' for Inactive)
REMARK    1  A    between atoms: C3_3  and  C4_4 
REMARK    2  A    between atoms: C3_3  and  O10_10 
ROOT
HETATM    1  C1  UNL     1     -33.004   7.188   2.540  1.00 20.00    -0.066 A 
HETATM    2  C2  UNL     1     -33.832   7.618   3.468  1.00 20.00     0.016 C 
HETATM    3  C4  UNL     1     -31.801   7.430   1.842  1.00 20.00     0.126 A 
HETATM    4  C5  UNL     1     -32.734   6.169   1.593  1.00 20.00    -0.008 A 
HETATM    5  C6  UNL     1     -33.578   6.100   0.350  1.00 20.00     0.021 C 
HETATM    6  C7  UNL     1     -32.241   4.837   2.088  1.00 20.00     0.021 C 
ENDROOT
BRANCH   3   7
HETATM    7  C3  UNL     1     -31.817   8.561   0.913  1.00 20.00     0.267 C 
HETATM    8  O9  UNL     1     -31.097   8.648  -0.073  1.00 20.00    -0.264 OA
BRANCH   7   9
HETATM    9  O10 UNL     1     -32.743   9.474   1.322  1.00 20.00    -0.326 OA
HETATM   10  C8  UNL     1     -32.804  10.677   0.548  1.00 20.00     0.213 C 
ENDBRANCH   7   9
ENDBRANCH   3   7
TORSDOF 2
ENDMDL
MODEL 9
REMARK VINA RESULT:      -0.1      1.617      3.548
REMARK  2 active torsions:
REMARK  status: ('A' for Active; 'I' for Inactive)
REMARK    1  A    between atoms: C3_3  and  C4_4 
REMARK    2  A    between atoms: C3_3  and  O10_10 
ROOT
HETATM    1  C1  UNL     1     -32.983   7.933   3.329  1.00 20.00    -0.066 A 
HETATM    2  C2  UNL     1     -32.910   8.316   4.586  1.00 20.00     0.016 C 
HETATM    3  C4  UNL     1     -33.663   7.131   2.387  1.00 20.00     0.126 A 
HETATM    4  C5  UNL     1     -32.429   8.065   2.031  1.00 20.00    -0.008 A 
HETATM    5  C6  UNL     1     -31.084   7.452   1.756  1.00 20.00     0.021 C 
HETATM    6  C7  UNL     1     -32.715   9.319   1.251  1.00 20.00     0.021 C 
ENDROOT
BRANCH   3   7
HETATM    7  C3  UNL     1     -33.484   5.685   2.530  1.00 20.00     0.267 C 
HETATM    8  O9  UNL     1     -32.877   4.988   1.727  1.00 20.00    -0.264 OA
BRANCH   7   9
HETATM    9  O10 UNL     1     -34.090   5.261   3.674  1.00 20.00    -0.326 OA
HETATM   10  C8  UNL     1     -33.805   3.911   4.057  1.00 20.00     0.213 C 
ENDBRANCH   7   9
ENDBRANCH   3   7
TORSDOF 2
ENDMDL
