MODEL 1
REMARK VINA RESULT:      -0.2      0.000      0.000
REMARK  0 active torsions:
REMARK  status: ('A' for Active; 'I' for Inactive)
ROOT
HETATM    1  C1  UNL     1     -34.979   7.417   4.135  1.00 20.00    -0.014 C 
HETATM    2  C2  UNL     1     -35.129   6.252   3.482  1.00 20.00    -0.004 C 
HETATM    3  C3  UNL     1     -32.528   7.064   2.068  1.00 20.00     0.203 A 
HETATM    4  C4  UNL     1     -33.547   7.872   4.196  1.00 20.00     0.126 C 
HETATM    5  C5  UNL     1     -33.368   5.864   1.584  1.00 20.00     0.126 A 
HETATM    6  C6  UNL     1     -33.806   5.713   3.058  1.00 20.00     0.042 A 
HETATM    7  C7  UNL     1     -33.371   4.455   3.784  1.00 20.00     0.038 C 
HETATM    8  N8  UNL     1     -32.913   6.860   3.366  1.00 20.00    -0.237 NA
HETATM    9  O9  UNL     1     -31.882   7.938   1.535  1.00 20.00    -0.280 OA
ENDROOT
TORSDOF 0
ENDMDL
MODEL 2
REMARK VINA RESULT:       0.2      0.937      2.443
REMARK  0 active torsions:
REMARK  status: ('A' for Active; 'I' for Inactive)
ROOT
HETATM    1  C1  UNL     1     -33.492   4.460   3.345  1.00 20.00    -0.014 C 
HETATM    2  C2  UNL     1     -34.254   5.141   4.218  1.00 20.00    -0.004 C 
HETATM    3  C3  UNL     1     -32.968   7.616   2.938  1.00 20.00     0.203 A 
HETATM    4  C4  UNL     1     -33.140   5.265   2.125  1.00 20.00     0.126 C 
HETATM    5  C5  UNL     1     -33.819   7.722   4.219  1.00 20.00     0.126 A 
HETATM    6  C6  UNL     1     -34.585   6.492   3.684  1.00 20.00     0.042 A 
HETATM    7  C7  UNL     1     -36.043   6.689   3.317  1.00 20.00     0.038 C 
HETATM    8  N8  UNL     1     -33.706   6.555   2.488  1.00 20.00    -0.237 NA
HETATM    9  O9  UNL     1     -31.963   8.149   2.520  1.00 20.00    -0.280 OA
ENDROOT
TORSDOF 0
ENDMDL
MODEL 3
REMARK VINA RESULT:       0.3      1.702      2.916
REMARK  0 active torsions:
REMARK  status: ('A' for Active; 'I' for Inactive)
ROOT
HETATM    1  C1  UNL     1     -33.391   7.760   4.066  1.00 20.00    -0.014 C 
HETATM    2  C2  UNL     1     -32.373   8.414   3.480  1.00 20.00    -0.004 C 
HETATM    3  C3  UNL     1     -32.391   6.054   1.517  1.00 20.00     0.203 A 
HETATM    4  C4  UNL     1     -34.129   6.857   3.116  1.00 20.00     0.126 C 
HETATM    5  C5  UNL     1     -31.252   7.094   1.516  1.00 20.00     0.126 A 
HETATM    6  C6  UNL     1     -32.311   8.097   2.026  1.00 20.00     0.042 A 
HETATM    7  C7  UNL     1     -32.670   9.250   1.109  1.00 20.00     0.038 C 
HETATM    8  N8  UNL     1     -33.300   6.992   1.928  1.00 20.00    -0.237 NA
HETATM    9  O9  UNL     1     -32.469   4.856   1.356  1.00 20.00    -0.280 OA
ENDROOT
TORSDOF 0
ENDMDL
MODEL 4
REMARK VINA RESULT:       0.5      2.114      3.379
REMARK  0 active torsions:
REMARK  status: ('A' for Active; 'I' for Inactive)
ROOT
HETATM    1  C1  UNL     1     -32.898   5.808   1.621  1.00 20.00    -0.014 C 
HETATM    2  C2  UNL     1     -33.334   7.047   1.909  1.00 20.00    -0.004 C 
HETATM    3  C3  UNL     1     -34.886   5.645   4.156  1.00 20.00     0.203 A 
HETATM    4  C4  UNL     1     -32.928   4.887   2.809  1.00 20.00     0.126 C 
HETATM    5  C5  UNL     1     -35.145   7.123   3.798  1.00 20.00     0.126 A 
HETATM    6  C6  UNL     1     -33.665   7.164   3.357  1.00 20.00     0.042 A 
HETATM    7  C7  UNL     1     -32.730   8.056   4.151  1.00 20.00     0.038 C 
HETATM    8  N8  UNL     1     -33.570   5.747   3.792  1.00 20.00    -0.237 NA
HETATM    9  O9  UNL     1     -35.569   4.705   4.497  1.00 20.00    -0.280 OA
ENDROOT
TORSDOF 0
ENDMDL
MODEL 5
REMARK VINA RESULT:       0.5      1.689      2.955
REMARK  0 active torsions:
REMARK  status: ('A' for Active; 'I' for Inactive)
ROOT
HETATM    1  C1  UNL     1     -31.369   7.501   1.724  1.00 20.00    -0.014 C 
HETATM    2  C2  UNL     1     -31.562   6.174   1.632  1.00 20.00    -0.004 C 
HETATM    3  C3  UNL     1     -34.014   6.719   3.397  1.00 20.00     0.203 A 
HETATM    4  C4  UNL     1     -32.639   8.259   1.997  1.00 20.00     0.126 C 
HETATM    5  C5  UNL     1     -33.532   5.283   3.107  1.00 20.00     0.126 A 
HETATM    6  C6  UNL     1     -33.008   5.842   1.766  1.00 20.00     0.042 A 
HETATM    7  C7  UNL     1     -33.661   5.328   0.498  1.00 20.00     0.038 C 
HETATM    8  N8  UNL     1     -33.570   7.155   2.177  1.00 20.00    -0.237 NA
HETATM    9  O9  UNL     1     -34.480   7.299   4.352  1.00 20.00    -0.280 OA
ENDROOT
TORSDOF 0
ENDMDL
MODEL 6
REMARK VINA RESULT:       0.5      2.161      2.874
REMARK  0 active torsions:
REMARK  status: ('A' for Active; 'I' for Inactive)
ROOT
HETATM    1  C1  UNL     1     -34.037   7.642   3.990  1.00 20.00    -0.014 C 
HETATM    2  C2  UNL     1     -32.998   7.356   3.186  1.00 20.00    -0.004 C 
HETATM    3  C3  UNL     1     -33.806   4.438   3.695  1.00 20.00     0.203 A 
HETATM    4  C4  UNL     1     -35.081   6.559   4.003  1.00 20.00     0.126 C 
HETATM    5  C5  UNL     1     -32.483   4.797   2.988  1.00 20.00     0.126 A 
HETATM    6  C6  UNL     1     -33.217   6.060   2.485  1.00 20.00     0.042 A 
HETATM    7  C7  UNL     1     -33.449   6.177   0.992  1.00 20.00     0.038 C 
HETATM    8  N8  UNL     1     -34.424   5.550   3.188  1.00 20.00    -0.237 NA
HETATM    9  O9  UNL     1     -34.161   3.598   4.490  1.00 20.00    -0.280 OA
ENDROOT
TORSDOF 0
ENDMDL
MODEL 7
REMARK VINA RESULT:       0.6      1.447      1.834
REMARK  0 active torsions:
REMARK  status: ('A' for Active; 'I' for Inactive)
ROOT
HETATM    1  C1  UNL     1     -33.632   7.462   3.826  1.00 20.00    -0.014 C 
HETATM    2  C2  UNL     1     -33.878   6.567   2.853  1.00 20.00    -0.004 C 
HETATM    3  C3  UNL     1     -32.379   8.561   1.065  1.00 20.00     0.203 A 
HETATM    4  C4  UNL     1     -32.423   8.312   3.546  1.00 20.00     0.126 C 
HETATM    5  C5  UNL     1     -33.145   7.363   0.469  1.00 20.00     0.126 A 
HETATM    6  C6  UNL     1     -32.830   6.638   1.796  1.00 20.00     0.042 A 
HETATM    7  C7  UNL     1     -31.918   5.429   1.725  1.00 20.00     0.038 C 
HETATM    8  N8  UNL     1     -32.089   7.860   2.204  1.00 20.00    -0.237 NA
HETATM    9  O9  UNL     1     -32.195   9.715   0.747  1.00 20.00    -0.280 OA
ENDROOT
TORSDOF 0
ENDMDL
MODEL 8
REMARK VINA RESULT:       1.3      2.100      3.467
REMARK  0 active torsions:
REMARK  status: ('A' for Active; 'I' for Inactive)
ROOT
HETATM    1  C1  UNL     1     -32.283   9.404   0.499  1.00 20.00    -0.014 C 
HETATM    2  C2  UNL     1     -32.931   9.493   1.673  1.00 20.00    -0.004 C 
HETATM    3  C3  UNL     1     -32.580   6.445   1.748  1.00 20.00     0.203 A 
HETATM    4  C4  UNL     1     -31.402   8.189   0.409  1.00 20.00     0.126 C 
HETATM    5  C5  UNL     1     -33.486   7.177   2.759  1.00 20.00     0.126 A 
HETATM    6  C6  UNL     1     -32.533   8.380   2.580  1.00 20.00     0.042 A 
HETATM    7  C7  UNL     1     -31.718   8.804   3.786  1.00 20.00     0.038 C 
HETATM    8  N8  UNL     1     -31.742   7.524   1.658  1.00 20.00    -0.237 NA
HETATM    9  O9  UNL     1     -32.625   5.394   1.149  1.00 20.00    -0.280 OA
ENDROOT
TORSDOF 0
ENDMDL
MODEL 9
REMARK VINA RESULT:       2.7      1.324      1.589
REMARK  0 active torsions:
REMARK  status: ('A' for Active; 'I' for Inactive)
ROOT
HETATM    1  C1  UNL     1     -34.904   7.098   3.765  1.00 20.00    -0.014 C 
HETATM    2  C2  UNL     1     -34.691   6.854   2.460  1.00 20.00    -0.004 C 
HETATM    3  C3  UNL     1     -32.009   8.263   2.951  1.00 20.00     0.203 A 
HETATM    4  C4  UNL     1     -33.628   7.240   4.548  1.00 20.00     0.126 C 
HETATM    5  C5  UNL     1     -32.490   7.920   1.527  1.00 20.00     0.126 A 
HETATM    6  C6  UNL     1     -33.233   6.733   2.179  1.00 20.00     0.042 A 
HETATM    7  C7  UNL     1     -32.774   5.337   1.805  1.00 20.00     0.038 C 
HETATM    8  N8  UNL     1     -32.650   7.172   3.473  1.00 20.00    -0.237 NA
HETATM    9  O9  UNL     1     -31.415   9.185   3.465  1.00 20.00    -0.280 OA
ENDROOT
TORSDOF 0
ENDMDL
