MODEL 1
REMARK VINA RESULT:      -1.9      0.000      0.000
REMARK  0 active torsions:
REMARK  status: ('A' for Active; 'I' for Inactive)
ROOT
HETATM    1  C1  UNL     1     -34.205   7.694   4.179  1.00 20.00     0.148 A 
HETATM    2  C2  UNL     1     -34.411   5.713   3.336  1.00 20.00     0.218 A 
HETATM    3  C3  UNL     1     -33.293   7.605   3.168  1.00 20.00     0.061 A 
HETATM    4  C4  UNL     1     -32.279   8.226   2.429  1.00 20.00     0.037 A 
HETATM    5  C5  UNL     1     -31.816   7.380   1.487  1.00 20.00     0.077 A 
HETATM    6  C6  UNL     1     -32.578   6.113   1.614  1.00 20.00     0.253 A 
HETATM    7  N7  UNL     1     -34.905   6.500   4.279  1.00 20.00    -0.253 NA
HETATM    8  N8  UNL     1     -33.436   6.360   2.653  1.00 20.00    -0.272 N 
HETATM    9  O9  UNL     1     -32.531   5.067   1.006  1.00 20.00    -0.268 OA
ENDROOT
TORSDOF 0
ENDMDL
MODEL 2
REMARK VINA RESULT:      -1.5      1.434      2.900
REMARK  0 active torsions:
REMARK  status: ('A' for Active; 'I' for Inactive)
ROOT
HETATM    1  C1  UNL     1     -32.561   7.866   2.017  1.00 20.00     0.148 A 
HETATM    2  C2  UNL     1     -32.459   5.715   1.822  1.00 20.00     0.218 A 
HETATM    3  C3  UNL     1     -33.444   7.351   2.921  1.00 20.00     0.061 A 
HETATM    4  C4  UNL     1     -34.391   7.596   3.922  1.00 20.00     0.037 A 
HETATM    5  C5  UNL     1     -34.878   6.427   4.386  1.00 20.00     0.077 A 
HETATM    6  C6  UNL     1     -34.206   5.336   3.636  1.00 20.00     0.253 A 
HETATM    7  N7  UNL     1     -31.945   6.830   1.329  1.00 20.00    -0.253 NA
HETATM    8  N8  UNL     1     -33.367   6.005   2.785  1.00 20.00    -0.272 N 
HETATM    9  O9  UNL     1     -34.302   4.131   3.686  1.00 20.00    -0.268 OA
ENDROOT
TORSDOF 0
ENDMDL
MODEL 3
REMARK VINA RESULT:      -1.5      1.466      2.115
REMARK  0 active torsions:
REMARK  status: ('A' for Active; 'I' for Inactive)
ROOT
HETATM    1  C1  UNL     1     -34.583   5.928   3.695  1.00 20.00     0.148 A 
HETATM    2  C2  UNL     1     -33.803   7.936   3.880  1.00 20.00     0.218 A 
HETATM    3  C3  UNL     1     -33.636   6.068   2.723  1.00 20.00     0.061 A 
HETATM    4  C4  UNL     1     -32.941   5.490   1.654  1.00 20.00     0.037 A 
HETATM    5  C5  UNL     1     -32.062   6.377   1.146  1.00 20.00     0.077 A 
HETATM    6  C6  UNL     1     -32.187   7.628   1.936  1.00 20.00     0.253 A 
HETATM    7  N7  UNL     1     -34.683   7.107   4.420  1.00 20.00    -0.253 NA
HETATM    8  N8  UNL     1     -33.159   7.330   2.854  1.00 20.00    -0.272 N 
HETATM    9  O9  UNL     1     -31.622   8.696   1.868  1.00 20.00    -0.268 OA
ENDROOT
TORSDOF 0
ENDMDL
MODEL 4
REMARK VINA RESULT:      -1.2      2.096      3.597
REMARK  0 active torsions:
REMARK  status: ('A' for Active; 'I' for Inactive)
ROOT
HETATM    1  C1  UNL     1     -32.515   6.221   1.442  1.00 20.00     0.148 A 
HETATM    2  C2  UNL     1     -32.229   8.098   2.477  1.00 20.00     0.218 A 
HETATM    3  C3  UNL     1     -33.397   6.230   2.484  1.00 20.00     0.061 A 
HETATM    4  C4  UNL     1     -34.409   5.562   3.184  1.00 20.00     0.037 A 
HETATM    5  C5  UNL     1     -34.822   6.318   4.221  1.00 20.00     0.077 A 
HETATM    6  C6  UNL     1     -34.027   7.571   4.203  1.00 20.00     0.253 A 
HETATM    7  N7  UNL     1     -31.784   7.400   1.444  1.00 20.00    -0.253 NA
HETATM    8  N8  UNL     1     -33.204   7.410   3.119  1.00 20.00    -0.272 N 
HETATM    9  O9  UNL     1     -34.026   8.549   4.916  1.00 20.00    -0.268 OA
ENDROOT
TORSDOF 0
ENDMDL
MODEL 5
REMARK VINA RESULT:      -0.9      1.068      1.318
REMARK  0 active torsions:
REMARK  status: ('A' for Active; 'I' for Inactive)
ROOT
HETATM    1  C1  UNL     1     -35.121   6.088   4.449  1.00 20.00     0.148 A 
HETATM    2  C2  UNL     1     -34.086   4.460   3.473  1.00 20.00     0.218 A 
HETATM    3  C3  UNL     1     -34.235   6.656   3.581  1.00 20.00     0.061 A 
HETATM    4  C4  UNL     1     -33.694   7.827   3.037  1.00 20.00     0.037 A 
HETATM    5  C5  UNL     1     -32.750   7.516   2.126  1.00 20.00     0.077 A 
HETATM    6  C6  UNL     1     -32.662   6.035   2.066  1.00 20.00     0.253 A 
HETATM    7  N7  UNL     1     -35.022   4.706   4.376  1.00 20.00    -0.253 NA
HETATM    8  N8  UNL     1     -33.597   5.623   2.979  1.00 20.00    -0.272 N 
HETATM    9  O9  UNL     1     -31.975   5.283   1.412  1.00 20.00    -0.268 OA
ENDROOT
TORSDOF 0
ENDMDL
MODEL 6
REMARK VINA RESULT:       0.1      1.999      3.426
REMARK  0 active torsions:
REMARK  status: ('A' for Active; 'I' for Inactive)
ROOT
HETATM    1  C1  UNL     1     -31.567   7.416   1.007  1.00 20.00     0.148 A 
HETATM    2  C2  UNL     1     -32.387   8.730   2.516  1.00 20.00     0.218 A 
HETATM    3  C3  UNL     1     -32.459   6.675   1.726  1.00 20.00     0.061 A 
HETATM    4  C4  UNL     1     -33.083   5.437   1.923  1.00 20.00     0.037 A 
HETATM    5  C5  UNL     1     -33.946   5.519   2.957  1.00 20.00     0.077 A 
HETATM    6  C6  UNL     1     -33.885   6.908   3.477  1.00 20.00     0.253 A 
HETATM    7  N7  UNL     1     -31.527   8.709   1.510  1.00 20.00    -0.253 NA
HETATM    8  N8  UNL     1     -32.962   7.512   2.664  1.00 20.00    -0.272 N 
HETATM    9  O9  UNL     1     -34.461   7.467   4.383  1.00 20.00    -0.268 OA
ENDROOT
TORSDOF 0
ENDMDL
MODEL 7
REMARK VINA RESULT:       0.5      2.025      3.274
REMARK  0 active torsions:
REMARK  status: ('A' for Active; 'I' for Inactive)
ROOT
HETATM    1  C1  UNL     1     -33.564   5.356   1.722  1.00 20.00     0.148 A 
HETATM    2  C2  UNL     1     -31.861   6.688   1.695  1.00 20.00     0.218 A 
HETATM    3  C3  UNL     1     -33.758   6.256   2.730  1.00 20.00     0.061 A 
HETATM    4  C4  UNL     1     -34.571   6.703   3.778  1.00 20.00     0.037 A 
HETATM    5  C5  UNL     1     -34.006   7.775   4.370  1.00 20.00     0.077 A 
HETATM    6  C6  UNL     1     -32.731   8.053   3.662  1.00 20.00     0.253 A 
HETATM    7  N7  UNL     1     -32.369   5.635   1.075  1.00 20.00    -0.253 NA
HETATM    8  N8  UNL     1     -32.684   7.081   2.698  1.00 20.00    -0.272 N 
HETATM    9  O9  UNL     1     -31.877   8.897   3.817  1.00 20.00    -0.268 OA
ENDROOT
TORSDOF 0
ENDMDL
MODEL 8
REMARK VINA RESULT:       0.6      1.849      2.782
REMARK  0 active torsions:
REMARK  status: ('A' for Active; 'I' for Inactive)
ROOT
HETATM    1  C1  UNL     1     -32.204   5.528   1.063  1.00 20.00     0.148 A 
HETATM    2  C2  UNL     1     -33.630   5.276   2.668  1.00 20.00     0.218 A 
HETATM    3  C3  UNL     1     -32.292   6.733   1.697  1.00 20.00     0.061 A 
HETATM    4  C4  UNL     1     -31.870   8.066   1.773  1.00 20.00     0.037 A 
HETATM    5  C5  UNL     1     -32.492   8.685   2.796  1.00 20.00     0.077 A 
HETATM    6  C6  UNL     1     -33.389   7.691   3.438  1.00 20.00     0.253 A 
HETATM    7  N7  UNL     1     -33.048   4.616   1.679  1.00 20.00    -0.253 NA
HETATM    8  N8  UNL     1     -33.188   6.556   2.698  1.00 20.00    -0.272 N 
HETATM    9  O9  UNL     1     -34.146   7.762   4.380  1.00 20.00    -0.268 OA
ENDROOT
TORSDOF 0
ENDMDL
MODEL 9
REMARK VINA RESULT:       0.8      1.613      2.219
REMARK  0 active torsions:
REMARK  status: ('A' for Active; 'I' for Inactive)
ROOT
HETATM    1  C1  UNL     1     -33.446   8.120   2.898  1.00 20.00     0.148 A 
HETATM    2  C2  UNL     1     -34.453   6.907   4.379  1.00 20.00     0.218 A 
HETATM    3  C3  UNL     1     -33.218   6.819   2.556  1.00 20.00     0.061 A 
HETATM    4  C4  UNL     1     -32.620   5.914   1.670  1.00 20.00     0.037 A 
HETATM    5  C5  UNL     1     -32.888   4.650   2.057  1.00 20.00     0.077 A 
HETATM    6  C6  UNL     1     -33.719   4.728   3.284  1.00 20.00     0.253 A 
HETATM    7  N7  UNL     1     -34.224   8.168   4.046  1.00 20.00    -0.253 NA
HETATM    8  N8  UNL     1     -33.855   6.075   3.492  1.00 20.00    -0.272 N 
HETATM    9  O9  UNL     1     -34.205   3.879   3.997  1.00 20.00    -0.268 OA
ENDROOT
TORSDOF 0
ENDMDL
