MODEL 1
REMARK VINA RESULT:      -2.3      0.000      0.000
REMARK  2 active torsions:
REMARK  status: ('A' for Active; 'I' for Inactive)
REMARK    1  A    between atoms: C2_2  and  C7_7 
REMARK    2  A    between atoms: C6_6  and  C7_7 
ROOT
HETATM    1  C1  UNL     1     -32.333   7.316   2.019  1.00 20.00     0.064 C 
HETATM    2  C4  UNL     1     -33.283   5.272   1.034  1.00 20.00     0.026 C 
HETATM    3  C6  UNL     1     -32.994   6.032   2.331  1.00 20.00     0.099 C 
HETATM    4  N8  UNL     1     -31.811   8.324   1.776  1.00 20.00    -0.197 NA
ENDROOT
BRANCH   3   5
HETATM    5  C7  UNL     1     -34.244   6.264   3.212  1.00 20.00     0.068 C 
HETATM    6  C5  UNL     1     -34.150   7.491   4.122  1.00 20.00     0.019 C 
BRANCH   5   7
HETATM    7  C2  UNL     1     -34.559   5.015   4.039  1.00 20.00     0.128 C 
HETATM    8  C3  UNL     1     -33.534   3.908   4.022  1.00 20.00     0.091 C 
HETATM    9  O9  UNL     1     -35.606   4.891   4.675  1.00 20.00    -0.298 OA
ENDBRANCH   5   7
ENDBRANCH   3   5
TORSDOF 2
ENDMDL
MODEL 2
REMARK VINA RESULT:      -2.1      2.687      4.101
REMARK  2 active torsions:
REMARK  status: ('A' for Active; 'I' for Inactive)
REMARK    1  A    between atoms: C2_2  and  C7_7 
REMARK    2  A    between atoms: C6_6  and  C7_7 
ROOT
HETATM    1  C1  UNL     1     -33.852   4.806   3.783  1.00 20.00     0.064 C 
HETATM    2  C4  UNL     1     -35.206   6.861   3.787  1.00 20.00     0.026 C 
HETATM    3  C6  UNL     1     -33.818   6.263   3.539  1.00 20.00     0.099 C 
HETATM    4  N8  UNL     1     -33.877   3.662   3.976  1.00 20.00    -0.197 NA
ENDROOT
BRANCH   3   5
HETATM    5  C7  UNL     1     -33.249   6.566   2.133  1.00 20.00     0.068 C 
HETATM    6  C5  UNL     1     -32.467   5.407   1.510  1.00 20.00     0.019 C 
BRANCH   5   7
HETATM    7  C2  UNL     1     -32.387   7.831   2.163  1.00 20.00     0.128 C 
HETATM    8  C3  UNL     1     -32.080   8.480   0.836  1.00 20.00     0.091 C 
HETATM    9  O9  UNL     1     -31.936   8.297   3.209  1.00 20.00    -0.298 OA
ENDBRANCH   5   7
ENDBRANCH   3   5
TORSDOF 2
ENDMDL
MODEL 3
REMARK VINA RESULT:      -1.8      1.113      1.277
REMARK  2 active torsions:
REMARK  status: ('A' for Active; 'I' for Inactive)
REMARK    1  A    between atoms: C2_2  and  C7_7 
REMARK    2  A    between atoms: C6_6  and  C7_7 
ROOT
HETATM    1  C1  UNL     1     -32.274   7.889   1.656  1.00 20.00     0.064 C 
HETATM    2  C4  UNL     1     -32.709   5.523   1.140  1.00 20.00     0.026 C 
HETATM    3  C6  UNL     1     -32.635   6.582   2.244  1.00 20.00     0.099 C 
HETATM    4  N8  UNL     1     -31.988   8.915   1.196  1.00 20.00    -0.197 NA
ENDROOT
BRANCH   3   5
HETATM    5  C7  UNL     1     -33.928   6.702   3.083  1.00 20.00     0.068 C 
HETATM    6  C5  UNL     1     -33.904   7.834   4.114  1.00 20.00     0.019 C 
BRANCH   5   7
HETATM    7  C2  UNL     1     -34.251   5.371   3.768  1.00 20.00     0.128 C 
HETATM    8  C3  UNL     1     -35.554   5.290   4.524  1.00 20.00     0.091 C 
HETATM    9  O9  UNL     1     -33.484   4.409   3.734  1.00 20.00    -0.298 OA
ENDBRANCH   5   7
ENDBRANCH   3   5
TORSDOF 2
ENDMDL
MODEL 4
REMARK VINA RESULT:      -1.4      1.103      2.332
REMARK  2 active torsions:
REMARK  status: ('A' for Active; 'I' for Inactive)
REMARK    1  A    between atoms: C2_2  and  C7_7 
REMARK    2  A    between atoms: C6_6  and  C7_7 
ROOT
HETATM    1  C1  UNL     1     -32.412   8.150   1.977  1.00 20.00     0.064 C 
HETATM    2  C4  UNL     1     -32.888   8.077   4.390  1.00 20.00     0.026 C 
HETATM    3  C6  UNL     1     -33.249   7.510   3.014  1.00 20.00     0.099 C 
HETATM    4  N8  UNL     1     -31.757   8.653   1.162  1.00 20.00    -0.197 NA
ENDROOT
BRANCH   3   5
HETATM    5  C7  UNL     1     -33.142   5.970   2.924  1.00 20.00     0.068 C 
HETATM    6  C5  UNL     1     -33.071   5.429   1.494  1.00 20.00     0.019 C 
BRANCH   5   7
HETATM    7  C2  UNL     1     -34.295   5.306   3.683  1.00 20.00     0.128 C 
HETATM    8  C3  UNL     1     -35.511   6.156   3.958  1.00 20.00     0.091 C 
HETATM    9  O9  UNL     1     -34.239   4.142   4.081  1.00 20.00    -0.298 OA
ENDBRANCH   5   7
ENDBRANCH   3   5
TORSDOF 2
ENDMDL
MODEL 5
REMARK VINA RESULT:      -1.2      3.185      4.519
REMARK  2 active torsions:
REMARK  status: ('A' for Active; 'I' for Inactive)
REMARK    1  A    between atoms: C2_2  and  C7_7 
REMARK    2  A    between atoms: C6_6  and  C7_7 
ROOT
HETATM    1  C1  UNL     1     -33.622   7.210   2.922  1.00 20.00     0.064 C 
HETATM    2  C4  UNL     1     -32.465   5.610   1.454  1.00 20.00     0.026 C 
HETATM    3  C6  UNL     1     -32.992   7.041   1.596  1.00 20.00     0.099 C 
HETATM    4  N8  UNL     1     -34.119   7.344   3.962  1.00 20.00    -0.197 NA
ENDROOT
BRANCH   3   5
HETATM    5  C7  UNL     1     -31.918   8.129   1.361  1.00 20.00     0.068 C 
HETATM    6  C5  UNL     1     -31.352   8.739   2.647  1.00 20.00     0.019 C 
BRANCH   5   7
HETATM    7  C2  UNL     1     -32.460   9.231   0.447  1.00 20.00     0.128 C 
HETATM    8  C3  UNL     1     -32.684  10.587   1.071  1.00 20.00     0.091 C 
HETATM    9  O9  UNL     1     -32.730   9.033  -0.737  1.00 20.00    -0.298 OA
ENDBRANCH   5   7
ENDBRANCH   3   5
TORSDOF 2
ENDMDL
MODEL 6
REMARK VINA RESULT:      -1.1      1.717      2.024
REMARK  2 active torsions:
REMARK  status: ('A' for Active; 'I' for Inactive)
REMARK    1  A    between atoms: C2_2  and  C7_7 
REMARK    2  A    between atoms: C6_6  and  C7_7 
ROOT
HETATM    1  C1  UNL     1     -32.359   8.796   1.262  1.00 20.00     0.064 C 
HETATM    2  C4  UNL     1     -32.092   6.359   1.471  1.00 20.00     0.026 C 
HETATM    3  C6  UNL     1     -32.227   7.684   2.226  1.00 20.00     0.099 C 
HETATM    4  N8  UNL     1     -32.460   9.670   0.505  1.00 20.00    -0.197 NA
ENDROOT
BRANCH   3   5
HETATM    5  C7  UNL     1     -33.391   7.707   3.245  1.00 20.00     0.068 C 
HETATM    6  C5  UNL     1     -32.991   8.186   4.643  1.00 20.00     0.019 C 
BRANCH   5   7
HETATM    7  C2  UNL     1     -34.060   6.332   3.329  1.00 20.00     0.128 C 
HETATM    8  C3  UNL     1     -35.399   6.265   4.021  1.00 20.00     0.091 C 
HETATM    9  O9  UNL     1     -33.533   5.314   2.880  1.00 20.00    -0.298 OA
ENDBRANCH   5   7
ENDBRANCH   3   5
TORSDOF 2
ENDMDL
MODEL 7
REMARK VINA RESULT:      -1.1      1.655      2.666
REMARK  2 active torsions:
REMARK  status: ('A' for Active; 'I' for Inactive)
REMARK    1  A    between atoms: C2_2  and  C7_7 
REMARK    2  A    between atoms: C6_6  and  C7_7 
ROOT
HETATM    1  C1  UNL     1     -32.344   5.380   1.084  1.00 20.00     0.064 C 
HETATM    2  C4  UNL     1     -32.163   7.718   1.831  1.00 20.00     0.026 C 
HETATM    3  C6  UNL     1     -33.015   6.446   1.858  1.00 20.00     0.099 C 
HETATM    4  N8  UNL     1     -31.819   4.543   0.475  1.00 20.00    -0.197 NA
ENDROOT
BRANCH   3   5
HETATM    5  C7  UNL     1     -33.355   5.951   3.283  1.00 20.00     0.068 C 
HETATM    6  C5  UNL     1     -33.730   4.468   3.359  1.00 20.00     0.019 C 
BRANCH   5   7
HETATM    7  C2  UNL     1     -34.464   6.808   3.900  1.00 20.00     0.128 C 
HETATM    8  C3  UNL     1     -34.031   8.015   4.695  1.00 20.00     0.091 C 
HETATM    9  O9  UNL     1     -35.657   6.528   3.783  1.00 20.00    -0.298 OA
ENDBRANCH   5   7
ENDBRANCH   3   5
TORSDOF 2
ENDMDL
MODEL 8
REMARK VINA RESULT:      -1.0      0.888      2.007
REMARK  2 active torsions:
REMARK  status: ('A' for Active; 'I' for Inactive)
REMARK    1  A    between atoms: C2_2  and  C7_7 
REMARK    2  A    between atoms: C6_6  and  C7_7 
ROOT
HETATM    1  C1  UNL     1     -32.331   7.187   1.797  1.00 20.00     0.064 C 
HETATM    2  C4  UNL     1     -33.715   5.374   0.874  1.00 20.00     0.026 C 
HETATM    3  C6  UNL     1     -32.757   5.786   1.995  1.00 20.00     0.099 C 
HETATM    4  N8  UNL     1     -31.994   8.287   1.641  1.00 20.00    -0.197 NA
ENDROOT
BRANCH   3   5
HETATM    5  C7  UNL     1     -33.335   5.590   3.416  1.00 20.00     0.068 C 
HETATM    6  C5  UNL     1     -33.892   4.188   3.679  1.00 20.00     0.019 C 
BRANCH   5   7
HETATM    7  C2  UNL     1     -34.402   6.646   3.713  1.00 20.00     0.128 C 
HETATM    8  C3  UNL     1     -33.947   7.895   4.427  1.00 20.00     0.091 C 
HETATM    9  O9  UNL     1     -35.586   6.491   3.413  1.00 20.00    -0.298 OA
ENDBRANCH   5   7
ENDBRANCH   3   5
TORSDOF 2
ENDMDL
MODEL 9
REMARK VINA RESULT:      -0.9      2.587      3.939
REMARK  2 active torsions:
REMARK  status: ('A' for Active; 'I' for Inactive)
REMARK    1  A    between atoms: C2_2  and  C7_7 
REMARK    2  A    between atoms: C6_6  and  C7_7 
ROOT
HETATM    1  C1  UNL     1     -33.382   7.920   4.286  1.00 20.00     0.064 C 
HETATM    2  C4  UNL     1     -35.092   6.230   3.763  1.00 20.00     0.026 C 
HETATM    3  C6  UNL     1     -34.222   7.361   3.207  1.00 20.00     0.099 C 
HETATM    4  N8  UNL     1     -32.724   8.362   5.134  1.00 20.00    -0.197 NA
ENDROOT
BRANCH   3   5
HETATM    5  C7  UNL     1     -33.349   6.943   2.000  1.00 20.00     0.068 C 
HETATM    6  C5  UNL     1     -32.745   5.542   2.119  1.00 20.00     0.019 C 
BRANCH   5   7
HETATM    7  C2  UNL     1     -32.246   7.976   1.752  1.00 20.00     0.128 C 
HETATM    8  C3  UNL     1     -32.609   9.175   0.912  1.00 20.00     0.091 C 
HETATM    9  O9  UNL     1     -31.103   7.838   2.189  1.00 20.00    -0.298 OA
ENDBRANCH   5   7
ENDBRANCH   3   5
TORSDOF 2
ENDMDL
