MODEL 1
REMARK VINA RESULT:       2.9      0.000      0.000
REMARK  2 active torsions:
REMARK  status: ('A' for Active; 'I' for Inactive)
REMARK    1  A    between atoms: C1_1  and  C10_10 
REMARK    2  A    between atoms: C1_1  and  C11_11 
ROOT
HETATM    1  C2  UNL     1     -31.081   6.598   1.159  1.00 20.00     0.009 C 
HETATM    2  C3  UNL     1     -33.515   6.201   0.628  1.00 20.00     0.010 C 
HETATM    3  C4  UNL     1     -32.721   8.510   1.010  1.00 20.00     0.010 C 
HETATM    4  C5  UNL     1     -32.765   5.588   2.748  1.00 20.00     0.022 C 
HETATM    5  C6  UNL     1     -31.971   7.901   3.130  1.00 20.00     0.022 C 
HETATM    6  C7  UNL     1     -32.275   5.606   1.297  1.00 20.00    -0.013 C 
HETATM    7  C8  UNL     1     -31.448   8.014   1.696  1.00 20.00    -0.013 C 
HETATM    8  C9  UNL     1     -33.735   7.458   1.485  1.00 20.00     0.002 C 
HETATM    9  C10 UNL     1     -33.223   7.042   2.910  1.00 20.00     0.026 C 
ENDROOT
BRANCH   9  10
HETATM   10  C1  UNL     1     -34.240   7.227   3.987  1.00 20.00     0.149 C 
HETATM   11  O12 UNL     1     -34.064   8.055   4.880  1.00 20.00    -0.296 OA
BRANCH  10  12
HETATM   12  C11 UNL     1     -35.462   6.342   3.896  1.00 20.00     0.193 C 
HETATM   13 CL13 UNL     1     -35.137   4.751   4.599  1.00 20.00    -0.123 Cl
ENDBRANCH  10  12
ENDBRANCH   9  10
TORSDOF 2
ENDMDL
MODEL 2
REMARK VINA RESULT:       3.1      1.886      2.353
REMARK  2 active torsions:
REMARK  status: ('A' for Active; 'I' for Inactive)
REMARK    1  A    between atoms: C1_1  and  C10_10 
REMARK    2  A    between atoms: C1_1  and  C11_11 
ROOT
HETATM    1  C2  UNL     1     -32.171   7.780   2.296  1.00 20.00     0.009 C 
HETATM    2  C3  UNL     1     -33.951   6.446   1.105  1.00 20.00     0.010 C 
HETATM    3  C4  UNL     1     -34.598   7.935   2.968  1.00 20.00     0.010 C 
HETATM    4  C5  UNL     1     -32.511   5.287   2.526  1.00 20.00     0.022 C 
HETATM    5  C6  UNL     1     -33.161   6.778   4.392  1.00 20.00     0.022 C 
HETATM    6  C7  UNL     1     -32.483   6.455   1.536  1.00 20.00    -0.013 C 
HETATM    7  C8  UNL     1     -33.159   8.007   3.479  1.00 20.00    -0.013 C 
HETATM    8  C9  UNL     1     -34.656   6.482   2.471  1.00 20.00     0.002 C 
HETATM    9  C10 UNL     1     -33.681   5.706   3.425  1.00 20.00     0.026 C 
ENDROOT
BRANCH   9  10
HETATM   10  C1  UNL     1     -34.325   4.561   4.134  1.00 20.00     0.149 C 
HETATM   11  O12 UNL     1     -35.419   4.696   4.679  1.00 20.00    -0.296 OA
BRANCH  10  12
HETATM   12  C11 UNL     1     -33.547   3.265   4.130  1.00 20.00     0.193 C 
HETATM   13 CL13 UNL     1     -32.689   3.045   5.662  1.00 20.00    -0.123 Cl
ENDBRANCH  10  12
ENDBRANCH   9  10
TORSDOF 2
ENDMDL
MODEL 3
REMARK VINA RESULT:       3.6      2.822      3.859
REMARK  2 active torsions:
REMARK  status: ('A' for Active; 'I' for Inactive)
REMARK    1  A    between atoms: C1_1  and  C10_10 
REMARK    2  A    between atoms: C1_1  and  C11_11 
ROOT
HETATM    1  C2  UNL     1     -33.304   5.184   3.433  1.00 20.00     0.009 C 
HETATM    2  C3  UNL     1     -34.851   6.913   2.440  1.00 20.00     0.010 C 
HETATM    3  C4  UNL     1     -33.627   5.379   0.938  1.00 20.00     0.010 C 
HETATM    4  C5  UNL     1     -32.830   7.663   3.327  1.00 20.00     0.022 C 
HETATM    5  C6  UNL     1     -31.604   6.128   1.821  1.00 20.00     0.022 C 
HETATM    6  C7  UNL     1     -33.907   6.611   3.606  1.00 20.00    -0.013 C 
HETATM    7  C8  UNL     1     -32.631   5.013   2.038  1.00 20.00    -0.013 C 
HETATM    8  C9  UNL     1     -33.875   6.862   1.254  1.00 20.00     0.002 C 
HETATM    9  C10 UNL     1     -32.515   7.363   1.857  1.00 20.00     0.026 C 
ENDROOT
BRANCH   9  10
HETATM   10  C1  UNL     1     -31.929   8.526   1.125  1.00 20.00     0.149 C 
HETATM   11  O12 UNL     1     -30.836   8.431   0.571  1.00 20.00    -0.296 OA
BRANCH  10  12
HETATM   12  C11 UNL     1     -32.761   9.788   1.125  1.00 20.00     0.193 C 
HETATM   13 CL13 UNL     1     -32.977  10.396  -0.523  1.00 20.00    -0.123 Cl
ENDBRANCH  10  12
ENDBRANCH   9  10
TORSDOF 2
ENDMDL
MODEL 4
REMARK VINA RESULT:       3.9      2.688      4.012
REMARK  2 active torsions:
REMARK  status: ('A' for Active; 'I' for Inactive)
REMARK    1  A    between atoms: C1_1  and  C10_10 
REMARK    2  A    between atoms: C1_1  and  C11_11 
ROOT
HETATM    1  C2  UNL     1     -35.303   6.377   3.749  1.00 20.00     0.009 C 
HETATM    2  C3  UNL     1     -32.922   5.549   3.841  1.00 20.00     0.010 C 
HETATM    3  C4  UNL     1     -33.485   7.728   4.861  1.00 20.00     0.010 C 
HETATM    4  C5  UNL     1     -33.718   6.302   1.783  1.00 20.00     0.022 C 
HETATM    5  C6  UNL     1     -34.281   8.485   2.805  1.00 20.00     0.022 C 
HETATM    6  C7  UNL     1     -34.211   5.540   3.017  1.00 20.00    -0.013 C 
HETATM    7  C8  UNL     1     -34.797   7.813   4.081  1.00 20.00    -0.013 C 
HETATM    8  C9  UNL     1     -32.576   7.046   3.826  1.00 20.00     0.002 C 
HETATM    9  C10 UNL     1     -33.119   7.550   2.442  1.00 20.00     0.026 C 
ENDROOT
BRANCH   9  10
HETATM   10  C1  UNL     1     -32.084   8.224   1.604  1.00 20.00     0.149 C 
HETATM   11  O12 UNL     1     -31.049   7.636   1.293  1.00 20.00    -0.296 OA
BRANCH  10  12
HETATM   12  C11 UNL     1     -32.398   9.642   1.186  1.00 20.00     0.193 C 
HETATM   13 CL13 UNL     1     -32.716   9.726  -0.553  1.00 20.00    -0.123 Cl
ENDBRANCH  10  12
ENDBRANCH   9  10
TORSDOF 2
ENDMDL
MODEL 5
REMARK VINA RESULT:       4.1      0.789      2.256
REMARK  2 active torsions:
REMARK  status: ('A' for Active; 'I' for Inactive)
REMARK    1  A    between atoms: C1_1  and  C10_10 
REMARK    2  A    between atoms: C1_1  and  C11_11 
ROOT
HETATM    1  C2  UNL     1     -32.394   7.754   0.097  1.00 20.00     0.009 C 
HETATM    2  C3  UNL     1     -31.167   8.252   2.245  1.00 20.00     0.010 C 
HETATM    3  C4  UNL     1     -31.738   5.912   1.692  1.00 20.00     0.010 C 
HETATM    4  C5  UNL     1     -33.423   8.832   2.137  1.00 20.00     0.022 C 
HETATM    5  C6  UNL     1     -33.994   6.487   1.585  1.00 20.00     0.022 C 
HETATM    6  C7  UNL     1     -32.184   8.795   1.239  1.00 20.00    -0.013 C 
HETATM    7  C8  UNL     1     -32.779   6.354   0.663  1.00 20.00    -0.013 C 
HETATM    8  C9  UNL     1     -31.904   7.005   2.760  1.00 20.00     0.002 C 
HETATM    9  C10 UNL     1     -33.422   7.398   2.680  1.00 20.00     0.026 C 
ENDROOT
BRANCH   9  10
HETATM   10  C1  UNL     1     -34.145   7.254   3.979  1.00 20.00     0.149 C 
HETATM   11  O12 UNL     1     -33.827   7.935   4.952  1.00 20.00    -0.296 OA
BRANCH  10  12
HETATM   12  C11 UNL     1     -35.260   6.234   4.000  1.00 20.00     0.193 C 
HETATM   13 CL13 UNL     1     -34.628   4.622   4.367  1.00 20.00    -0.123 Cl
ENDBRANCH  10  12
ENDBRANCH   9  10
TORSDOF 2
ENDMDL
MODEL 6
REMARK VINA RESULT:       4.1      1.803      3.081
REMARK  2 active torsions:
REMARK  status: ('A' for Active; 'I' for Inactive)
REMARK    1  A    between atoms: C1_1  and  C10_10 
REMARK    2  A    between atoms: C1_1  and  C11_11 
ROOT
HETATM    1  C2  UNL     1     -33.692   8.647   2.085  1.00 20.00     0.009 C 
HETATM    2  C3  UNL     1     -33.769   8.351   4.590  1.00 20.00     0.010 C 
HETATM    3  C4  UNL     1     -31.896   7.368   3.312  1.00 20.00     0.010 C 
HETATM    4  C5  UNL     1     -35.287   7.124   3.317  1.00 20.00     0.022 C 
HETATM    5  C6  UNL     1     -33.411   6.138   2.038  1.00 20.00     0.022 C 
HETATM    6  C7  UNL     1     -34.621   8.502   3.328  1.00 20.00    -0.013 C 
HETATM    7  C8  UNL     1     -32.668   7.476   1.997  1.00 20.00    -0.013 C 
HETATM    8  C9  UNL     1     -33.034   7.035   4.290  1.00 20.00     0.002 C 
HETATM    9  C10 UNL     1     -34.058   6.214   3.428  1.00 20.00     0.026 C 
ENDROOT
BRANCH   9  10
HETATM   10  C1  UNL     1     -34.366   4.866   3.990  1.00 20.00     0.149 C 
HETATM   11  O12 UNL     1     -35.372   4.687   4.674  1.00 20.00    -0.296 OA
BRANCH  10  12
HETATM   12  C11 UNL     1     -33.372   3.775   3.664  1.00 20.00     0.193 C 
HETATM   13 CL13 UNL     1     -32.949   2.858   5.117  1.00 20.00    -0.123 Cl
ENDBRANCH  10  12
ENDBRANCH   9  10
TORSDOF 2
ENDMDL
MODEL 7
REMARK VINA RESULT:       4.2      2.468      4.161
REMARK  2 active torsions:
REMARK  status: ('A' for Active; 'I' for Inactive)
REMARK    1  A    between atoms: C1_1  and  C10_10 
REMARK    2  A    between atoms: C1_1  and  C11_11 
ROOT
HETATM    1  C2  UNL     1     -34.695   6.794   5.362  1.00 20.00     0.009 C 
HETATM    2  C3  UNL     1     -34.685   8.603   3.603  1.00 20.00     0.010 C 
HETATM    3  C4  UNL     1     -35.841   6.468   3.137  1.00 20.00     0.010 C 
HETATM    4  C5  UNL     1     -32.693   7.449   3.968  1.00 20.00     0.022 C 
HETATM    5  C6  UNL     1     -33.851   5.311   3.500  1.00 20.00     0.022 C 
HETATM    6  C7  UNL     1     -33.892   7.984   4.756  1.00 20.00    -0.013 C 
HETATM    7  C8  UNL     1     -35.097   5.758   4.269  1.00 20.00    -0.013 C 
HETATM    8  C9  UNL     1     -34.748   7.419   2.624  1.00 20.00     0.002 C 
HETATM    9  C10 UNL     1     -33.408   6.642   2.877  1.00 20.00     0.026 C 
ENDROOT
BRANCH   9  10
HETATM   10  C1  UNL     1     -32.586   6.452   1.645  1.00 20.00     0.149 C 
HETATM   11  O12 UNL     1     -32.773   5.483   0.911  1.00 20.00    -0.296 OA
BRANCH  10  12
HETATM   12  C11 UNL     1     -31.540   7.510   1.383  1.00 20.00     0.193 C 
HETATM   13 CL13 UNL     1     -32.284   8.985   0.750  1.00 20.00    -0.123 Cl
ENDBRANCH  10  12
ENDBRANCH   9  10
TORSDOF 2
ENDMDL
MODEL 8
REMARK VINA RESULT:       4.4      1.479      1.571
REMARK  2 active torsions:
REMARK  status: ('A' for Active; 'I' for Inactive)
REMARK    1  A    between atoms: C1_1  and  C10_10 
REMARK    2  A    between atoms: C1_1  and  C11_11 
ROOT
HETATM    1  C2  UNL     1     -31.166   6.087   1.127  1.00 20.00     0.009 C 
HETATM    2  C3  UNL     1     -33.555   5.513   0.552  1.00 20.00     0.010 C 
HETATM    3  C4  UNL     1     -32.879   7.886   0.688  1.00 20.00     0.010 C 
HETATM    4  C5  UNL     1     -32.873   5.189   2.758  1.00 20.00     0.022 C 
HETATM    5  C6  UNL     1     -32.198   7.567   2.893  1.00 20.00     0.022 C 
HETATM    6  C7  UNL     1     -32.321   5.061   1.336  1.00 20.00    -0.013 C 
HETATM    7  C8  UNL     1     -31.617   7.536   1.477  1.00 20.00    -0.013 C 
HETATM    8  C9  UNL     1     -33.867   6.849   1.245  1.00 20.00     0.002 C 
HETATM    9  C10 UNL     1     -33.401   6.628   2.728  1.00 20.00     0.026 C 
ENDROOT
BRANCH   9  10
HETATM   10  C1  UNL     1     -34.472   6.889   3.735  1.00 20.00     0.149 C 
HETATM   11  O12 UNL     1     -35.338   6.046   3.962  1.00 20.00    -0.296 OA
BRANCH  10  12
HETATM   12  C11 UNL     1     -34.410   8.231   4.428  1.00 20.00     0.193 C 
HETATM   13 CL13 UNL     1     -33.111   8.255   5.629  1.00 20.00    -0.123 Cl
ENDBRANCH  10  12
ENDBRANCH   9  10
TORSDOF 2
ENDMDL
MODEL 9
REMARK VINA RESULT:       4.5      0.789      1.674
REMARK  2 active torsions:
REMARK  status: ('A' for Active; 'I' for Inactive)
REMARK    1  A    between atoms: C1_1  and  C10_10 
REMARK    2  A    between atoms: C1_1  and  C11_11 
ROOT
HETATM    1  C2  UNL     1     -31.395   8.627   0.754  1.00 20.00     0.009 C 
HETATM    2  C3  UNL     1     -31.560   6.262   1.618  1.00 20.00     0.010 C 
HETATM    3  C4  UNL     1     -33.485   7.253   0.426  1.00 20.00     0.010 C 
HETATM    4  C5  UNL     1     -31.639   7.986   3.185  1.00 20.00     0.022 C 
HETATM    5  C6  UNL     1     -33.568   8.978   1.992  1.00 20.00     0.022 C 
HETATM    6  C7  UNL     1     -30.939   7.638   1.868  1.00 20.00    -0.013 C 
HETATM    7  C8  UNL     1     -32.947   8.670   0.626  1.00 20.00    -0.013 C 
HETATM    8  C9  UNL     1     -33.057   6.591   1.744  1.00 20.00     0.002 C 
HETATM    9  C10 UNL     1     -33.104   7.756   2.796  1.00 20.00     0.026 C 
ENDROOT
BRANCH   9  10
HETATM   10  C1  UNL     1     -33.990   7.470   3.963  1.00 20.00     0.149 C 
HETATM   11  O12 UNL     1     -33.771   7.987   5.058  1.00 20.00    -0.296 OA
BRANCH  10  12
HETATM   12  C11 UNL     1     -35.139   6.523   3.700  1.00 20.00     0.193 C 
HETATM   13 CL13 UNL     1     -34.786   4.915   4.347  1.00 20.00    -0.123 Cl
ENDBRANCH  10  12
ENDBRANCH   9  10
TORSDOF 2
ENDMDL
