MODEL 1
REMARK VINA RESULT:       1.7      0.000      0.000
REMARK  0 active torsions:
REMARK  status: ('A' for Active; 'I' for Inactive)
ROOT
HETATM    1  C1  UNL     1     -32.541   9.668   0.060  1.00 20.00     0.015 C 
HETATM    2  C2  UNL     1     -32.469   8.865   0.949  1.00 20.00    -0.076 C 
HETATM    3  C3  UNL     1     -32.701   8.564   3.374  1.00 20.00     0.057 C 
HETATM    4  C4  UNL     1     -33.183   7.428   4.260  1.00 20.00     0.044 C 
HETATM    5  C5  UNL     1     -32.382   7.877   2.042  1.00 20.00     0.218 C 
HETATM    6  C6  UNL     1     -33.890   6.457   3.296  1.00 20.00     0.154 C 
HETATM    7  C7  UNL     1     -30.970   7.267   2.062  1.00 20.00     0.064 C 
HETATM    8  C8  UNL     1     -33.557   5.008   3.685  1.00 20.00     0.049 C 
HETATM    9  C9  UNL     1     -35.414   6.655   3.378  1.00 20.00     0.049 C 
HETATM   10  C10 UNL     1     -33.322   5.853   0.937  1.00 20.00     0.313 C 
HETATM   11  N11 UNL     1     -33.469   6.888   1.946  1.00 20.00     0.114 N 
ENDROOT
TORSDOF 0
ENDMDL
MODEL 2
REMARK VINA RESULT:       2.3      0.544      3.838
REMARK  0 active torsions:
REMARK  status: ('A' for Active; 'I' for Inactive)
ROOT
HETATM    1  C1  UNL     1     -33.883   3.855   4.350  1.00 20.00     0.015 C 
HETATM    2  C2  UNL     1     -33.916   4.962   3.889  1.00 20.00    -0.076 C 
HETATM    3  C3  UNL     1     -33.380   7.315   4.339  1.00 20.00     0.057 C 
HETATM    4  C4  UNL     1     -32.904   8.476   3.484  1.00 20.00     0.044 C 
HETATM    5  C5  UNL     1     -33.955   6.324   3.322  1.00 20.00     0.218 C 
HETATM    6  C6  UNL     1     -32.447   7.825   2.166  1.00 20.00     0.154 C 
HETATM    7  C7  UNL     1     -35.408   6.683   2.963  1.00 20.00     0.064 C 
HETATM    8  C8  UNL     1     -32.876   8.703   0.978  1.00 20.00     0.049 C 
HETATM    9  C9  UNL     1     -30.914   7.688   2.153  1.00 20.00     0.049 C 
HETATM   10  C10 UNL     1     -33.401   5.867   0.937  1.00 20.00     0.313 C 
HETATM   11  N11 UNL     1     -33.004   6.456   2.205  1.00 20.00     0.114 N 
ENDROOT
TORSDOF 0
ENDMDL
MODEL 3
REMARK VINA RESULT:       3.4      1.314      3.197
REMARK  0 active torsions:
REMARK  status: ('A' for Active; 'I' for Inactive)
ROOT
HETATM    1  C1  UNL     1     -31.032   4.564   1.155  1.00 20.00     0.015 C 
HETATM    2  C2  UNL     1     -31.989   5.209   1.481  1.00 20.00    -0.076 C 
HETATM    3  C3  UNL     1     -33.896   5.286   3.026  1.00 20.00     0.057 C 
HETATM    4  C4  UNL     1     -34.639   6.402   3.738  1.00 20.00     0.044 C 
HETATM    5  C5  UNL     1     -33.167   6.003   1.885  1.00 20.00     0.218 C 
HETATM    6  C6  UNL     1     -33.729   7.635   3.582  1.00 20.00     0.154 C 
HETATM    7  C7  UNL     1     -34.093   6.188   0.670  1.00 20.00     0.064 C 
HETATM    8  C8  UNL     1     -34.587   8.880   3.304  1.00 20.00     0.049 C 
HETATM    9  C9  UNL     1     -32.930   7.862   4.878  1.00 20.00     0.049 C 
HETATM   10  C10 UNL     1     -32.284   8.320   1.661  1.00 20.00     0.313 C 
HETATM   11  N11 UNL     1     -32.757   7.260   2.533  1.00 20.00     0.114 N 
ENDROOT
TORSDOF 0
ENDMDL
MODEL 4
REMARK VINA RESULT:       4.4      1.360      2.733
REMARK  0 active torsions:
REMARK  status: ('A' for Active; 'I' for Inactive)
ROOT
HETATM    1  C1  UNL     1     -34.005   4.713  -0.349  1.00 20.00     0.015 C 
HETATM    2  C2  UNL     1     -33.473   5.292   0.557  1.00 20.00    -0.076 C 
HETATM    3  C3  UNL     1     -32.424   7.413   1.211  1.00 20.00     0.057 C 
HETATM    4  C4  UNL     1     -32.363   8.212   2.501  1.00 20.00     0.044 C 
HETATM    5  C5  UNL     1     -32.819   6.006   1.671  1.00 20.00     0.218 C 
HETATM    6  C6  UNL     1     -33.445   7.583   3.398  1.00 20.00     0.154 C 
HETATM    7  C7  UNL     1     -31.585   5.210   2.129  1.00 20.00     0.064 C 
HETATM    8  C8  UNL     1     -32.933   7.498   4.845  1.00 20.00     0.049 C 
HETATM    9  C9  UNL     1     -34.715   8.453   3.373  1.00 20.00     0.049 C 
HETATM   10  C10 UNL     1     -34.155   5.196   3.611  1.00 20.00     0.313 C 
HETATM   11  N11 UNL     1     -33.784   6.301   2.744  1.00 20.00     0.114 N 
ENDROOT
TORSDOF 0
ENDMDL
MODEL 5
REMARK VINA RESULT:       4.4      1.346      3.399
REMARK  0 active torsions:
REMARK  status: ('A' for Active; 'I' for Inactive)
ROOT
HETATM    1  C1  UNL     1     -32.966   8.174   5.821  1.00 20.00     0.015 C 
HETATM    2  C2  UNL     1     -33.207   7.883   4.682  1.00 20.00    -0.076 C 
HETATM    3  C3  UNL     1     -32.509   8.233   2.355  1.00 20.00     0.057 C 
HETATM    4  C4  UNL     1     -32.488   7.361   1.112  1.00 20.00     0.044 C 
HETATM    5  C5  UNL     1     -33.503   7.524   3.281  1.00 20.00     0.218 C 
HETATM    6  C6  UNL     1     -32.714   5.931   1.637  1.00 20.00     0.154 C 
HETATM    7  C7  UNL     1     -34.950   7.928   2.949  1.00 20.00     0.064 C 
HETATM    8  C8  UNL     1     -33.648   5.171   0.683  1.00 20.00     0.049 C 
HETATM    9  C9  UNL     1     -31.370   5.184   1.715  1.00 20.00     0.049 C 
HETATM   10  C10 UNL     1     -34.146   5.131   3.523  1.00 20.00     0.313 C 
HETATM   11  N11 UNL     1     -33.193   6.107   3.025  1.00 20.00     0.114 N 
ENDROOT
TORSDOF 0
ENDMDL
MODEL 6
REMARK VINA RESULT:       4.4      0.833      3.833
REMARK  0 active torsions:
REMARK  status: ('A' for Active; 'I' for Inactive)
ROOT
HETATM    1  C1  UNL     1     -36.168   6.211   3.769  1.00 20.00     0.015 C 
HETATM    2  C2  UNL     1     -35.021   6.231   3.418  1.00 20.00    -0.076 C 
HETATM    3  C3  UNL     1     -33.528   5.899   1.498  1.00 20.00     0.057 C 
HETATM    4  C4  UNL     1     -32.227   6.538   1.044  1.00 20.00     0.044 C 
HETATM    5  C5  UNL     1     -33.610   6.256   2.986  1.00 20.00     0.218 C 
HETATM    6  C6  UNL     1     -32.096   7.807   1.906  1.00 20.00     0.154 C 
HETATM    7  C7  UNL     1     -32.801   5.261   3.836  1.00 20.00     0.064 C 
HETATM    8  C8  UNL     1     -30.632   7.994   2.335  1.00 20.00     0.049 C 
HETATM    9  C9  UNL     1     -32.536   9.039   1.094  1.00 20.00     0.049 C 
HETATM   10  C10 UNL     1     -32.742   8.192   4.291  1.00 20.00     0.313 C 
HETATM   11  N11 UNL     1     -33.082   7.631   2.994  1.00 20.00     0.114 N 
ENDROOT
TORSDOF 0
ENDMDL
