MODEL 1
REMARK VINA RESULT:      -1.7      0.000      0.000
REMARK  1 active torsions:
REMARK  status: ('A' for Active; 'I' for Inactive)
REMARK    1  A    between atoms: C1_1  and  C7_7 
ROOT
HETATM    1  C1  UNL     1     -32.707   8.095   1.629  1.00 20.00    -0.057 C 
HETATM    2  C2  UNL     1     -32.203   8.933   0.934  1.00 20.00     0.276 C 
HETATM    3  O10 UNL     1     -31.709   9.754   0.252  1.00 20.00    -0.274 OA
ENDROOT
BRANCH   1   4
HETATM    4  C7  UNL     1     -33.256   7.184   2.384  1.00 20.00     0.023 A 
HETATM    5  C5  UNL     1     -34.120   7.613   3.483  1.00 20.00     0.021 A 
HETATM    6  C3  UNL     1     -34.699   6.695   4.279  1.00 20.00     0.002 A 
HETATM    7  C4  UNL     1     -34.490   5.273   4.077  1.00 20.00     0.001 A 
HETATM    8  C6  UNL     1     -33.708   4.806   3.086  1.00 20.00     0.012 A 
HETATM    9  C8  UNL     1     -33.036   5.737   2.170  1.00 20.00    -0.027 A 
HETATM   10  C9  UNL     1     -32.260   5.241   1.189  1.00 20.00     0.025 C 
ENDBRANCH   1   4
TORSDOF 1
ENDMDL
MODEL 2
REMARK VINA RESULT:      -1.3      1.969      3.101
REMARK  1 active torsions:
REMARK  status: ('A' for Active; 'I' for Inactive)
REMARK    1  A    between atoms: C1_1  and  C7_7 
ROOT
HETATM    1  C1  UNL     1     -32.406   5.309   1.343  1.00 20.00    -0.057 C 
HETATM    2  C2  UNL     1     -31.844   4.639   0.521  1.00 20.00     0.276 C 
HETATM    3  O10 UNL     1     -31.292   3.983  -0.285  1.00 20.00    -0.274 OA
ENDROOT
BRANCH   1   4
HETATM    4  C7  UNL     1     -33.017   6.035   2.236  1.00 20.00     0.023 A 
HETATM    5  C5  UNL     1     -34.037   5.406   3.073  1.00 20.00     0.021 A 
HETATM    6  C3  UNL     1     -34.685   6.131   4.003  1.00 20.00     0.002 A 
HETATM    7  C4  UNL     1     -34.397   7.540   4.204  1.00 20.00     0.001 A 
HETATM    8  C6  UNL     1     -33.471   8.185   3.472  1.00 20.00     0.012 A 
HETATM    9  C8  UNL     1     -32.717   7.471   2.433  1.00 20.00    -0.027 A 
HETATM   10  C9  UNL     1     -31.798   8.143   1.716  1.00 20.00     0.025 C 
ENDBRANCH   1   4
TORSDOF 1
ENDMDL
MODEL 3
REMARK VINA RESULT:      -0.8      2.794      4.546
REMARK  1 active torsions:
REMARK  status: ('A' for Active; 'I' for Inactive)
REMARK    1  A    between atoms: C1_1  and  C7_7 
ROOT
HETATM    1  C1  UNL     1     -34.387   5.803   3.741  1.00 20.00    -0.057 C 
HETATM    2  C2  UNL     1     -35.187   5.206   4.407  1.00 20.00     0.276 C 
HETATM    3  O10 UNL     1     -35.970   4.620   5.061  1.00 20.00    -0.274 OA
ENDROOT
BRANCH   1   4
HETATM    4  C7  UNL     1     -33.519   6.453   3.017  1.00 20.00     0.023 A 
HETATM    5  C5  UNL     1     -33.047   5.845   1.774  1.00 20.00     0.021 A 
HETATM    6  C3  UNL     1     -32.151   6.492   1.008  1.00 20.00     0.002 A 
HETATM    7  C4  UNL     1     -31.630   7.794   1.382  1.00 20.00     0.001 A 
HETATM    8  C6  UNL     1     -32.019   8.415   2.510  1.00 20.00     0.012 A 
HETATM    9  C8  UNL     1     -32.994   7.780   3.408  1.00 20.00    -0.027 A 
HETATM   10  C9  UNL     1     -33.362   8.424   4.530  1.00 20.00     0.025 C 
ENDBRANCH   1   4
TORSDOF 1
ENDMDL
MODEL 4
REMARK VINA RESULT:      -0.8      2.832      4.615
REMARK  1 active torsions:
REMARK  status: ('A' for Active; 'I' for Inactive)
REMARK    1  A    between atoms: C1_1  and  C7_7 
ROOT
HETATM    1  C1  UNL     1     -33.400   4.829   3.466  1.00 20.00    -0.057 C 
HETATM    2  C2  UNL     1     -33.703   3.817   4.035  1.00 20.00     0.276 C 
HETATM    3  O10 UNL     1     -33.999   2.824   4.591  1.00 20.00    -0.274 OA
ENDROOT
BRANCH   1   4
HETATM    4  C7  UNL     1     -33.072   5.930   2.849  1.00 20.00     0.023 A 
HETATM    5  C5  UNL     1     -32.211   5.843   1.671  1.00 20.00     0.021 A 
HETATM    6  C3  UNL     1     -31.855   6.962   1.015  1.00 20.00     0.002 A 
HETATM    7  C4  UNL     1     -32.307   8.272   1.447  1.00 20.00     0.001 A 
HETATM    8  C6  UNL     1     -33.101   8.429   2.521  1.00 20.00     0.012 A 
HETATM    9  C8  UNL     1     -33.537   7.261   3.298  1.00 20.00    -0.027 A 
HETATM   10  C9  UNL     1     -34.330   7.449   4.368  1.00 20.00     0.025 C 
ENDBRANCH   1   4
TORSDOF 1
ENDMDL
MODEL 5
REMARK VINA RESULT:      -0.7      0.596      2.208
REMARK  1 active torsions:
REMARK  status: ('A' for Active; 'I' for Inactive)
REMARK    1  A    between atoms: C1_1  and  C7_7 
ROOT
HETATM    1  C1  UNL     1     -32.675   8.090   1.560  1.00 20.00    -0.057 C 
HETATM    2  C2  UNL     1     -32.326   9.086   0.988  1.00 20.00     0.276 C 
HETATM    3  O10 UNL     1     -31.984  10.061   0.426  1.00 20.00    -0.274 OA
ENDROOT
BRANCH   1   4
HETATM    4  C7  UNL     1     -33.055   7.009   2.181  1.00 20.00     0.023 A 
HETATM    5  C5  UNL     1     -32.700   5.711   1.610  1.00 20.00     0.021 A 
HETATM    6  C3  UNL     1     -33.080   4.578   2.230  1.00 20.00     0.002 A 
HETATM    7  C4  UNL     1     -33.841   4.606   3.466  1.00 20.00     0.001 A 
HETATM    8  C6  UNL     1     -34.202   5.763   4.049  1.00 20.00     0.012 A 
HETATM    9  C8  UNL     1     -33.831   7.048   3.441  1.00 20.00    -0.027 A 
HETATM   10  C9  UNL     1     -34.208   8.189   4.046  1.00 20.00     0.025 C 
ENDBRANCH   1   4
TORSDOF 1
ENDMDL
MODEL 6
REMARK VINA RESULT:      -0.6      2.710      4.007
REMARK  1 active torsions:
REMARK  status: ('A' for Active; 'I' for Inactive)
REMARK    1  A    between atoms: C1_1  and  C7_7 
ROOT
HETATM    1  C1  UNL     1     -34.284   5.974   3.647  1.00 20.00    -0.057 C 
HETATM    2  C2  UNL     1     -35.059   5.301   4.269  1.00 20.00     0.276 C 
HETATM    3  O10 UNL     1     -35.818   4.640   4.878  1.00 20.00    -0.274 OA
ENDROOT
BRANCH   1   4
HETATM    4  C7  UNL     1     -33.442   6.706   2.973  1.00 20.00     0.023 A 
HETATM    5  C5  UNL     1     -33.144   8.054   3.453  1.00 20.00     0.021 A 
HETATM    6  C3  UNL     1     -32.279   8.832   2.777  1.00 20.00     0.002 A 
HETATM    7  C4  UNL     1     -31.623   8.367   1.569  1.00 20.00     0.001 A 
HETATM    8  C6  UNL     1     -31.848   7.139   1.068  1.00 20.00     0.012 A 
HETATM    9  C8  UNL     1     -32.778   6.223   1.741  1.00 20.00    -0.027 A 
HETATM   10  C9  UNL     1     -32.985   5.002   1.217  1.00 20.00     0.025 C 
ENDBRANCH   1   4
TORSDOF 1
ENDMDL
MODEL 7
REMARK VINA RESULT:      -0.5      2.948      4.153
REMARK  1 active torsions:
REMARK  status: ('A' for Active; 'I' for Inactive)
REMARK    1  A    between atoms: C1_1  and  C7_7 
ROOT
HETATM    1  C1  UNL     1     -33.535   4.438   3.761  1.00 20.00    -0.057 C 
HETATM    2  C2  UNL     1     -33.602   3.312   4.170  1.00 20.00     0.276 C 
HETATM    3  O10 UNL     1     -33.667   2.207   4.569  1.00 20.00    -0.274 OA
ENDROOT
BRANCH   1   4
HETATM    4  C7  UNL     1     -33.462   5.662   3.318  1.00 20.00     0.023 A 
HETATM    5  C5  UNL     1     -34.128   6.722   4.073  1.00 20.00     0.021 A 
HETATM    6  C3  UNL     1     -34.070   7.994   3.640  1.00 20.00     0.002 A 
HETATM    7  C4  UNL     1     -33.355   8.352   2.428  1.00 20.00     0.001 A 
HETATM    8  C6  UNL     1     -32.719   7.431   1.682  1.00 20.00     0.012 A 
HETATM    9  C8  UNL     1     -32.731   6.017   2.081  1.00 20.00    -0.027 A 
HETATM   10  C9  UNL     1     -32.087   5.118   1.315  1.00 20.00     0.025 C 
ENDBRANCH   1   4
TORSDOF 1
ENDMDL
MODEL 8
REMARK VINA RESULT:      -0.1      2.046      3.126
REMARK  1 active torsions:
REMARK  status: ('A' for Active; 'I' for Inactive)
REMARK    1  A    between atoms: C1_1  and  C7_7 
ROOT
HETATM    1  C1  UNL     1     -32.314   5.367   1.372  1.00 20.00    -0.057 C 
HETATM    2  C2  UNL     1     -31.799   4.624   0.584  1.00 20.00     0.276 C 
HETATM    3  O10 UNL     1     -31.294   3.896  -0.190  1.00 20.00    -0.274 OA
ENDROOT
BRANCH   1   4
HETATM    4  C7  UNL     1     -32.874   6.174   2.230  1.00 20.00     0.023 A 
HETATM    5  C5  UNL     1     -32.592   7.605   2.131  1.00 20.00     0.021 A 
HETATM    6  C3  UNL     1     -33.155   8.462   3.003  1.00 20.00     0.002 A 
HETATM    7  C4  UNL     1     -34.047   8.003   4.052  1.00 20.00     0.001 A 
HETATM    8  C6  UNL     1     -34.351   6.701   4.203  1.00 20.00     0.012 A 
HETATM    9  C8  UNL     1     -33.781   5.696   3.297  1.00 20.00    -0.027 A 
HETATM   10  C9  UNL     1     -34.103   4.402   3.472  1.00 20.00     0.025 C 
ENDBRANCH   1   4
TORSDOF 1
ENDMDL
MODEL 9
REMARK VINA RESULT:       0.5      2.347      3.638
REMARK  1 active torsions:
REMARK  status: ('A' for Active; 'I' for Inactive)
REMARK    1  A    between atoms: C1_1  and  C7_7 
ROOT
HETATM    1  C1  UNL     1     -33.300   5.450   1.044  1.00 20.00    -0.057 C 
HETATM    2  C2  UNL     1     -33.535   4.580   0.251  1.00 20.00     0.276 C 
HETATM    3  O10 UNL     1     -33.765   3.728  -0.526  1.00 20.00    -0.274 OA
ENDROOT
BRANCH   1   4
HETATM    4  C7  UNL     1     -33.045   6.395   1.906  1.00 20.00     0.023 A 
HETATM    5  C5  UNL     1     -31.973   7.344   1.608  1.00 20.00     0.021 A 
HETATM    6  C3  UNL     1     -31.687   8.329   2.478  1.00 20.00     0.002 A 
HETATM    7  C4  UNL     1     -32.422   8.482   3.721  1.00 20.00     0.001 A 
HETATM    8  C6  UNL     1     -33.421   7.648   4.061  1.00 20.00     0.012 A 
HETATM    9  C8  UNL     1     -33.800   6.543   3.170  1.00 20.00    -0.027 A 
HETATM   10  C9  UNL     1     -34.802   5.724   3.537  1.00 20.00     0.025 C 
ENDBRANCH   1   4
TORSDOF 1
ENDMDL
