MODEL 1
REMARK VINA RESULT:      -1.1      0.000      0.000
REMARK  3 active torsions:
REMARK  status: ('A' for Active; 'I' for Inactive)
REMARK    1  A    between atoms: C3_3  and  C7_7 
REMARK    2  A    between atoms: C4_4  and  C6_6 
REMARK    3  A    between atoms: C4_4  and  O11_11 
ROOT
HETATM    1  C1  UNL     1     -33.600   4.743   3.503  1.00 20.00     0.074 C 
HETATM    2  C5  UNL     1     -33.605   5.902   1.275  1.00 20.00     0.046 A 
HETATM    3  C6  UNL     1     -32.382   6.363   2.013  1.00 20.00     0.114 A 
HETATM    4  C7  UNL     1     -33.648   6.000   2.791  1.00 20.00     0.079 A 
HETATM    5  N9  UNL     1     -33.561   3.734   4.076  1.00 20.00    -0.196 NA
ENDROOT
BRANCH   4   6
HETATM    6  C3  UNL     1     -34.453   7.108   3.330  1.00 20.00    -0.012 C 
HETATM    7  C2  UNL     1     -34.299   7.618   4.556  1.00 20.00     0.008 C 
ENDBRANCH   4   6
BRANCH   3   8
HETATM    8  C4  UNL     1     -31.942   7.758   1.877  1.00 20.00     0.264 C 
HETATM    9  O10 UNL     1     -31.343   8.376   2.746  1.00 20.00    -0.265 OA
BRANCH   8  10
HETATM   10  O11 UNL     1     -32.307   8.234   0.651  1.00 20.00    -0.326 OA
HETATM   11  C8  UNL     1     -32.297   9.658   0.517  1.00 20.00     0.213 C 
ENDBRANCH   8  10
ENDBRANCH   3   8
TORSDOF 3
ENDMDL
MODEL 2
REMARK VINA RESULT:      -0.3      3.007      4.596
REMARK  3 active torsions:
REMARK  status: ('A' for Active; 'I' for Inactive)
REMARK    1  A    between atoms: C3_3  and  C7_7 
REMARK    2  A    between atoms: C4_4  and  C6_6 
REMARK    3  A    between atoms: C4_4  and  O11_11 
ROOT
HETATM    1  C1  UNL     1     -32.350   7.637   2.462  1.00 20.00     0.074 C 
HETATM    2  C5  UNL     1     -34.747   7.113   2.999  1.00 20.00     0.046 A 
HETATM    3  C6  UNL     1     -33.894   6.263   3.895  1.00 20.00     0.114 A 
HETATM    4  C7  UNL     1     -33.393   6.637   2.499  1.00 20.00     0.079 A 
HETATM    5  N9  UNL     1     -31.512   8.440   2.431  1.00 20.00    -0.196 NA
ENDROOT
BRANCH   4   6
HETATM    6  C3  UNL     1     -33.433   5.592   1.463  1.00 20.00    -0.012 C 
HETATM    7  C2  UNL     1     -32.355   5.138   0.815  1.00 20.00     0.008 C 
ENDBRANCH   4   6
BRANCH   3   8
HETATM    8  C4  UNL     1     -34.325   4.895   4.213  1.00 20.00     0.264 C 
HETATM    9  O10 UNL     1     -35.448   4.602   4.600  1.00 20.00    -0.265 OA
BRANCH   8  10
HETATM   10  O11 UNL     1     -33.288   4.032   4.010  1.00 20.00    -0.326 OA
HETATM   11  C8  UNL     1     -33.239   2.911   4.898  1.00 20.00     0.213 C 
ENDBRANCH   8  10
ENDBRANCH   3   8
TORSDOF 3
ENDMDL
MODEL 3
REMARK VINA RESULT:      -0.1      1.839      2.834
REMARK  3 active torsions:
REMARK  status: ('A' for Active; 'I' for Inactive)
REMARK    1  A    between atoms: C3_3  and  C7_7 
REMARK    2  A    between atoms: C4_4  and  C6_6 
REMARK    3  A    between atoms: C4_4  and  O11_11 
ROOT
HETATM    1  C1  UNL     1     -33.622   7.154   3.131  1.00 20.00     0.074 C 
HETATM    2  C5  UNL     1     -31.397   8.237   2.700  1.00 20.00     0.046 A 
HETATM    3  C6  UNL     1     -32.347   8.739   1.652  1.00 20.00     0.114 A 
HETATM    4  C7  UNL     1     -32.515   7.329   2.217  1.00 20.00     0.079 A 
HETATM    5  N9  UNL     1     -34.510   7.014   3.865  1.00 20.00    -0.196 NA
ENDROOT
BRANCH   4   6
HETATM    6  C3  UNL     1     -32.093   6.203   1.367  1.00 20.00    -0.012 C 
HETATM    7  C2  UNL     1     -32.880   5.171   1.046  1.00 20.00     0.008 C 
ENDBRANCH   4   6
BRANCH   3   8
HETATM    8  C4  UNL     1     -31.857   8.962   0.284  1.00 20.00     0.264 C 
HETATM    9  O10 UNL     1     -30.792   8.537  -0.140  1.00 20.00    -0.265 OA
BRANCH   8  10
HETATM   10  O11 UNL     1     -32.767   9.705  -0.410  1.00 20.00    -0.326 OA
HETATM   11  C8  UNL     1     -33.168  10.927   0.215  1.00 20.00     0.213 C 
ENDBRANCH   8  10
ENDBRANCH   3   8
TORSDOF 3
ENDMDL
MODEL 4
REMARK VINA RESULT:       0.0      2.961      4.183
REMARK  3 active torsions:
REMARK  status: ('A' for Active; 'I' for Inactive)
REMARK    1  A    between atoms: C3_3  and  C7_7 
REMARK    2  A    between atoms: C4_4  and  C6_6 
REMARK    3  A    between atoms: C4_4  and  O11_11 
ROOT
HETATM    1  C1  UNL     1     -32.340   8.839   0.929  1.00 20.00     0.074 C 
HETATM    2  C5  UNL     1     -32.078   6.376   1.348  1.00 20.00     0.046 A 
HETATM    3  C6  UNL     1     -33.428   6.775   1.869  1.00 20.00     0.114 A 
HETATM    4  C7  UNL     1     -32.273   7.776   1.907  1.00 20.00     0.079 A 
HETATM    5  N9  UNL     1     -32.394   9.692   0.145  1.00 20.00    -0.196 NA
ENDROOT
BRANCH   4   6
HETATM    6  C3  UNL     1     -31.639   8.030   3.211  1.00 20.00    -0.012 C 
HETATM    7  C2  UNL     1     -32.154   8.828   4.151  1.00 20.00     0.008 C 
ENDBRANCH   4   6
BRANCH   3   8
HETATM    8  C4  UNL     1     -33.940   6.150   3.097  1.00 20.00     0.264 C 
HETATM    9  O10 UNL     1     -34.759   6.671   3.841  1.00 20.00    -0.265 OA
BRANCH   8  10
HETATM   10  O11 UNL     1     -33.360   4.926   3.261  1.00 20.00    -0.326 OA
HETATM   11  C8  UNL     1     -33.986   4.074   4.226  1.00 20.00     0.213 C 
ENDBRANCH   8  10
ENDBRANCH   3   8
TORSDOF 3
ENDMDL
MODEL 5
REMARK VINA RESULT:       0.5      0.893      1.548
REMARK  3 active torsions:
REMARK  status: ('A' for Active; 'I' for Inactive)
REMARK    1  A    between atoms: C3_3  and  C7_7 
REMARK    2  A    between atoms: C4_4  and  C6_6 
REMARK    3  A    between atoms: C4_4  and  O11_11 
ROOT
HETATM    1  C1  UNL     1     -33.388   4.574   3.443  1.00 20.00     0.074 C 
HETATM    2  C5  UNL     1     -33.323   5.658   1.178  1.00 20.00     0.046 A 
HETATM    3  C6  UNL     1     -32.258   6.307   2.013  1.00 20.00     0.114 A 
HETATM    4  C7  UNL     1     -33.535   5.791   2.677  1.00 20.00     0.079 A 
HETATM    5  N9  UNL     1     -33.270   3.596   4.058  1.00 20.00    -0.196 NA
ENDROOT
BRANCH   4   6
HETATM    6  C3  UNL     1     -34.536   6.789   3.088  1.00 20.00    -0.012 C 
HETATM    7  C2  UNL     1     -35.401   6.612   4.092  1.00 20.00     0.008 C 
ENDBRANCH   4   6
BRANCH   3   8
HETATM    8  C4  UNL     1     -32.002   7.747   1.861  1.00 20.00     0.264 C 
HETATM    9  O10 UNL     1     -32.426   8.425   0.935  1.00 20.00    -0.265 OA
BRANCH   8  10
HETATM   10  O11 UNL     1     -31.231   8.184   2.898  1.00 20.00    -0.326 OA
HETATM   11  C8  UNL     1     -31.940   8.832   3.959  1.00 20.00     0.213 C 
ENDBRANCH   8  10
ENDBRANCH   3   8
TORSDOF 3
ENDMDL
MODEL 6
REMARK VINA RESULT:       0.6      2.901      4.426
REMARK  3 active torsions:
REMARK  status: ('A' for Active; 'I' for Inactive)
REMARK    1  A    between atoms: C3_3  and  C7_7 
REMARK    2  A    between atoms: C4_4  and  C6_6 
REMARK    3  A    between atoms: C4_4  and  O11_11 
ROOT
HETATM    1  C1  UNL     1     -33.464   8.047   4.705  1.00 20.00     0.074 C 
HETATM    2  C5  UNL     1     -35.242   6.596   3.684  1.00 20.00     0.046 A 
HETATM    3  C6  UNL     1     -34.167   5.685   4.203  1.00 20.00     0.114 A 
HETATM    4  C7  UNL     1     -33.800   7.077   3.687  1.00 20.00     0.079 A 
HETATM    5  N9  UNL     1     -33.194   8.826   5.522  1.00 20.00    -0.196 NA
ENDROOT
BRANCH   4   6
HETATM    6  C3  UNL     1     -33.159   7.163   2.365  1.00 20.00    -0.012 C 
HETATM    7  C2  UNL     1     -32.108   7.943   2.092  1.00 20.00     0.008 C 
ENDBRANCH   4   6
BRANCH   3   8
HETATM    8  C4  UNL     1     -33.823   4.474   3.445  1.00 20.00     0.264 C 
HETATM    9  O10 UNL     1     -33.378   4.481   2.306  1.00 20.00    -0.265 OA
BRANCH   8  10
HETATM   10  O11 UNL     1     -34.080   3.372   4.207  1.00 20.00    -0.326 OA
HETATM   11  C8  UNL     1     -32.970   2.870   4.956  1.00 20.00     0.213 C 
ENDBRANCH   8  10
ENDBRANCH   3   8
TORSDOF 3
ENDMDL
MODEL 7
REMARK VINA RESULT:       0.7      1.750      2.468
REMARK  3 active torsions:
REMARK  status: ('A' for Active; 'I' for Inactive)
REMARK    1  A    between atoms: C3_3  and  C7_7 
REMARK    2  A    between atoms: C4_4  and  C6_6 
REMARK    3  A    between atoms: C4_4  and  O11_11 
ROOT
HETATM    1  C1  UNL     1     -35.549   6.408   3.402  1.00 20.00     0.074 C 
HETATM    2  C5  UNL     1     -33.347   7.485   3.950  1.00 20.00     0.046 A 
HETATM    3  C6  UNL     1     -33.402   7.317   2.459  1.00 20.00     0.114 A 
HETATM    4  C7  UNL     1     -34.108   6.306   3.364  1.00 20.00     0.079 A 
HETATM    5  N9  UNL     1     -36.707   6.489   3.432  1.00 20.00    -0.196 NA
ENDROOT
BRANCH   4   6
HETATM    6  C3  UNL     1     -33.469   4.992   3.539  1.00 20.00    -0.012 C 
HETATM    7  C2  UNL     1     -33.981   4.003   4.279  1.00 20.00     0.008 C 
ENDBRANCH   4   6
BRANCH   3   8
HETATM    8  C4  UNL     1     -32.176   6.965   1.728  1.00 20.00     0.264 C 
HETATM    9  O10 UNL     1     -31.888   5.828   1.382  1.00 20.00    -0.265 OA
BRANCH   8  10
HETATM   10  O11 UNL     1     -31.436   8.089   1.511  1.00 20.00    -0.326 OA
HETATM   11  C8  UNL     1     -32.103   9.137   0.800  1.00 20.00     0.213 C 
ENDBRANCH   8  10
ENDBRANCH   3   8
TORSDOF 3
ENDMDL
MODEL 8
REMARK VINA RESULT:       1.0      1.389      1.744
REMARK  3 active torsions:
REMARK  status: ('A' for Active; 'I' for Inactive)
REMARK    1  A    between atoms: C3_3  and  C7_7 
REMARK    2  A    between atoms: C4_4  and  C6_6 
REMARK    3  A    between atoms: C4_4  and  O11_11 
ROOT
HETATM    1  C1  UNL     1     -34.643   6.020   4.078  1.00 20.00     0.074 C 
HETATM    2  C5  UNL     1     -34.562   8.192   2.819  1.00 20.00     0.046 A 
HETATM    3  C6  UNL     1     -33.519   7.293   2.223  1.00 20.00     0.114 A 
HETATM    4  C7  UNL     1     -33.861   7.178   3.709  1.00 20.00     0.079 A 
HETATM    5  N9  UNL     1     -35.271   5.090   4.375  1.00 20.00    -0.196 NA
ENDROOT
BRANCH   4   6
HETATM    6  C3  UNL     1     -32.899   7.740   4.671  1.00 20.00    -0.012 C 
HETATM    7  C2  UNL     1     -33.240   8.524   5.699  1.00 20.00     0.008 C 
ENDBRANCH   4   6
BRANCH   3   8
HETATM    8  C4  UNL     1     -32.244   7.869   1.774  1.00 20.00     0.264 C 
HETATM    9  O10 UNL     1     -31.218   7.222   1.615  1.00 20.00    -0.265 OA
BRANCH   8  10
HETATM   10  O11 UNL     1     -32.394   9.209   1.572  1.00 20.00    -0.326 OA
HETATM   11  C8  UNL     1     -32.379   9.631   0.205  1.00 20.00     0.213 C 
ENDBRANCH   8  10
ENDBRANCH   3   8
TORSDOF 3
ENDMDL
MODEL 9
REMARK VINA RESULT:       1.2      1.568      2.506
REMARK  3 active torsions:
REMARK  status: ('A' for Active; 'I' for Inactive)
REMARK    1  A    between atoms: C3_3  and  C7_7 
REMARK    2  A    between atoms: C4_4  and  C6_6 
REMARK    3  A    between atoms: C4_4  and  O11_11 
ROOT
HETATM    1  C1  UNL     1     -33.993   6.389   3.031  1.00 20.00     0.074 C 
HETATM    2  C5  UNL     1     -31.641   6.564   2.166  1.00 20.00     0.046 A 
HETATM    3  C6  UNL     1     -32.266   7.922   2.034  1.00 20.00     0.114 A 
HETATM    4  C7  UNL     1     -33.134   6.670   1.903  1.00 20.00     0.079 A 
HETATM    5  N9  UNL     1     -34.682   6.163   3.937  1.00 20.00    -0.196 NA
ENDROOT
BRANCH   4   6
HETATM    6  C3  UNL     1     -33.566   6.284   0.549  1.00 20.00    -0.012 C 
HETATM    7  C2  UNL     1     -33.683   5.019   0.133  1.00 20.00     0.008 C 
ENDBRANCH   4   6
BRANCH   3   8
HETATM    8  C4  UNL     1     -31.942   8.754   0.866  1.00 20.00     0.264 C 
HETATM    9  O10 UNL     1     -31.030   8.515   0.087  1.00 20.00    -0.265 OA
BRANCH   8  10
HETATM   10  O11 UNL     1     -32.805   9.809   0.804  1.00 20.00    -0.326 OA
HETATM   11  C8  UNL     1     -32.814  10.522  -0.437  1.00 20.00     0.213 C 
ENDBRANCH   8  10
ENDBRANCH   3   8
TORSDOF 3
ENDMDL
