MODEL 1
REMARK VINA RESULT:      -1.9      0.000      0.000
REMARK  1 active torsions:
REMARK  status: ('A' for Active; 'I' for Inactive)
REMARK    1  A    between atoms: C5_5  and  C8_8 
ROOT
HETATM    1  C1  UNL     1     -34.048   5.801   3.480  1.00 20.00    -0.004 C 
HETATM    2  C2  UNL     1     -33.080   5.208   2.556  1.00 20.00    -0.004 C 
HETATM    3  C3  UNL     1     -34.289   7.098   3.769  1.00 20.00    -0.026 C 
HETATM    4  C4  UNL     1     -32.509   5.831   1.506  1.00 20.00    -0.021 C 
HETATM    5  C6  UNL     1     -33.620   8.350   3.215  1.00 20.00     0.033 C 
HETATM    6  C7  UNL     1     -32.787   7.228   1.186  1.00 20.00     0.028 A 
HETATM    7  C8  UNL     1     -31.908   8.424   1.040  1.00 20.00     0.100 A 
HETATM    8  C9  UNL     1     -32.399   8.053   2.414  1.00 20.00     0.012 A 
ENDROOT
BRANCH   7   9
HETATM    9  C5  UNL     1     -32.463   9.621   0.440  1.00 20.00     0.178 C 
HETATM   10  O10 UNL     1     -32.481  10.640   1.185  1.00 20.00    -0.648 OA
HETATM   11  O11 UNL     1     -32.857   9.481  -0.752  1.00 20.00    -0.648 OA
ENDBRANCH   7   9
TORSDOF 1
ENDMDL
MODEL 2
REMARK VINA RESULT:      -1.2      3.460      4.599
REMARK  1 active torsions:
REMARK  status: ('A' for Active; 'I' for Inactive)
REMARK    1  A    between atoms: C5_5  and  C8_8 
ROOT
HETATM    1  C1  UNL     1     -31.982   8.383   2.385  1.00 20.00    -0.004 C 
HETATM    2  C2  UNL     1     -31.910   7.372   1.330  1.00 20.00    -0.004 C 
HETATM    3  C3  UNL     1     -32.748   8.424   3.497  1.00 20.00    -0.026 C 
HETATM    4  C4  UNL     1     -32.291   6.085   1.445  1.00 20.00    -0.021 C 
HETATM    5  C6  UNL     1     -33.781   7.421   3.993  1.00 20.00     0.033 C 
HETATM    6  C7  UNL     1     -32.864   5.550   2.677  1.00 20.00     0.028 A 
HETATM    7  C8  UNL     1     -34.159   4.873   2.976  1.00 20.00     0.100 A 
HETATM    8  C9  UNL     1     -34.114   6.378   2.982  1.00 20.00     0.012 A 
ENDROOT
BRANCH   7   9
HETATM    9  C5  UNL     1     -34.312   4.210   4.256  1.00 20.00     0.178 C 
HETATM   10  O10 UNL     1     -33.399   3.390   4.552  1.00 20.00    -0.648 OA
HETATM   11  O11 UNL     1     -35.343   4.545   4.905  1.00 20.00    -0.648 OA
ENDBRANCH   7   9
TORSDOF 1
ENDMDL
MODEL 3
REMARK VINA RESULT:      -0.9      1.597      2.899
REMARK  1 active torsions:
REMARK  status: ('A' for Active; 'I' for Inactive)
REMARK    1  A    between atoms: C5_5  and  C8_8 
ROOT
HETATM    1  C1  UNL     1     -34.465   4.327   4.372  1.00 20.00    -0.004 C 
HETATM    2  C2  UNL     1     -35.367   5.480   4.391  1.00 20.00    -0.004 C 
HETATM    3  C3  UNL     1     -33.350   4.110   3.641  1.00 20.00    -0.026 C 
HETATM    4  C4  UNL     1     -35.059   6.728   3.988  1.00 20.00    -0.021 C 
HETATM    5  C6  UNL     1     -32.688   5.007   2.603  1.00 20.00     0.033 C 
HETATM    6  C7  UNL     1     -33.749   7.068   3.441  1.00 20.00     0.028 A 
HETATM    7  C8  UNL     1     -33.320   7.663   2.143  1.00 20.00     0.100 A 
HETATM    8  C9  UNL     1     -33.530   6.175   2.219  1.00 20.00     0.012 A 
ENDROOT
BRANCH   7   9
HETATM    9  C5  UNL     1     -31.955   8.133   2.015  1.00 20.00     0.178 C 
HETATM   10  O10 UNL     1     -31.499   8.153   0.838  1.00 20.00    -0.648 OA
HETATM   11  O11 UNL     1     -31.404   8.461   3.103  1.00 20.00    -0.648 OA
ENDBRANCH   7   9
TORSDOF 1
ENDMDL
MODEL 4
REMARK VINA RESULT:      -0.2      3.019      4.460
REMARK  1 active torsions:
REMARK  status: ('A' for Active; 'I' for Inactive)
REMARK    1  A    between atoms: C5_5  and  C8_8 
ROOT
HETATM    1  C1  UNL     1     -31.628   7.331   1.044  1.00 20.00    -0.004 C 
HETATM    2  C2  UNL     1     -31.682   8.323   2.119  1.00 20.00    -0.004 C 
HETATM    3  C3  UNL     1     -32.211   6.116   0.955  1.00 20.00    -0.026 C 
HETATM    4  C4  UNL     1     -32.640   8.411   3.062  1.00 20.00    -0.021 C 
HETATM    5  C6  UNL     1     -33.109   5.401   1.957  1.00 20.00     0.033 C 
HETATM    6  C7  UNL     1     -33.755   7.470   3.130  1.00 20.00     0.028 A 
HETATM    7  C8  UNL     1     -34.242   6.558   4.204  1.00 20.00     0.100 A 
HETATM    8  C9  UNL     1     -33.151   6.074   3.286  1.00 20.00     0.012 A 
ENDROOT
BRANCH   7   9
HETATM    9  C5  UNL     1     -35.550   5.951   4.054  1.00 20.00     0.178 C 
HETATM   10  O10 UNL     1     -36.358   6.584   3.320  1.00 20.00    -0.648 OA
HETATM   11  O11 UNL     1     -35.704   4.866   4.682  1.00 20.00    -0.648 OA
ENDBRANCH   7   9
TORSDOF 1
ENDMDL
MODEL 5
REMARK VINA RESULT:       1.0      3.986      5.158
REMARK  1 active torsions:
REMARK  status: ('A' for Active; 'I' for Inactive)
REMARK    1  A    between atoms: C5_5  and  C8_8 
ROOT
HETATM    1  C1  UNL     1     -33.609   7.761   2.949  1.00 20.00    -0.004 C 
HETATM    2  C2  UNL     1     -32.999   7.005   1.854  1.00 20.00    -0.004 C 
HETATM    3  C3  UNL     1     -34.271   7.323   4.042  1.00 20.00    -0.026 C 
HETATM    4  C4  UNL     1     -32.614   5.715   1.906  1.00 20.00    -0.021 C 
HETATM    5  C6  UNL     1     -34.587   5.896   4.471  1.00 20.00     0.033 C 
HETATM    6  C7  UNL     1     -32.800   4.895   3.100  1.00 20.00     0.028 A 
HETATM    7  C8  UNL     1     -33.514   3.607   3.340  1.00 20.00     0.100 A 
HETATM    8  C9  UNL     1     -34.298   4.890   3.409  1.00 20.00     0.012 A 
ENDROOT
BRANCH   7   9
HETATM    9  C5  UNL     1     -33.277   2.907   4.587  1.00 20.00     0.178 C 
HETATM   10  O10 UNL     1     -32.737   3.595   5.497  1.00 20.00    -0.648 OA
HETATM   11  O11 UNL     1     -33.646   1.699   4.594  1.00 20.00    -0.648 OA
ENDBRANCH   7   9
TORSDOF 1
ENDMDL
