MODEL 1
REMARK VINA RESULT:      -1.8      0.000      0.000
REMARK  2 active torsions:
REMARK  status: ('A' for Active; 'I' for Inactive)
REMARK    1  A    between atoms: C6_6  and  C9_9 
REMARK    2  A    between atoms: C9_9  and  N10_10 
ROOT
HETATM    1  C1  UNL     1     -33.707   5.190   2.685  1.00 20.00     0.006 C 
HETATM    2  C2  UNL     1     -32.696   5.168   1.804  1.00 20.00     0.004 C 
HETATM    3  C3  UNL     1     -34.088   6.419   3.357  1.00 20.00    -0.040 C 
HETATM    4  C4  UNL     1     -35.183   6.492   4.129  1.00 20.00     0.020 C 
HETATM    5  C7  UNL     1     -31.940   6.412   1.419  1.00 20.00     0.300 C 
HETATM    6  C8  UNL     1     -33.173   7.605   3.134  1.00 20.00     0.310 C 
HETATM    7  N10 UNL     1     -32.669   7.651   1.751  1.00 20.00     0.099 N 
ENDROOT
BRANCH   7   8
HETATM    8  C9  UNL     1     -31.825   8.822   1.535  1.00 20.00     0.299 C 
BRANCH   8   9
HETATM    9  C6  UNL     1     -32.200   9.451   0.232  1.00 20.00    -0.007 C 
HETATM   10  C5  UNL     1     -32.760  10.661   0.122  1.00 20.00     0.008 C 
ENDBRANCH   8   9
ENDBRANCH   7   8
TORSDOF 2
ENDMDL
MODEL 2
REMARK VINA RESULT:      -1.7      1.318      2.594
REMARK  2 active torsions:
REMARK  status: ('A' for Active; 'I' for Inactive)
REMARK    1  A    between atoms: C6_6  and  C9_9 
REMARK    2  A    between atoms: C9_9  and  N10_10 
ROOT
HETATM    1  C1  UNL     1     -34.988   5.125   4.518  1.00 20.00     0.006 C 
HETATM    2  C2  UNL     1     -35.233   6.354   4.038  1.00 20.00     0.004 C 
HETATM    3  C3  UNL     1     -33.923   4.306   3.969  1.00 20.00    -0.040 C 
HETATM    4  C4  UNL     1     -33.570   3.139   4.527  1.00 20.00     0.020 C 
HETATM    5  C7  UNL     1     -34.394   6.973   2.951  1.00 20.00     0.300 C 
HETATM    6  C8  UNL     1     -33.243   4.849   2.729  1.00 20.00     0.310 C 
HETATM    7  N10 UNL     1     -33.085   6.312   2.792  1.00 20.00     0.099 N 
ENDROOT
BRANCH   7   8
HETATM    8  C9  UNL     1     -32.389   6.820   1.613  1.00 20.00     0.299 C 
BRANCH   8   9
HETATM    9  C6  UNL     1     -32.171   8.288   1.779  1.00 20.00    -0.007 C 
HETATM   10  C5  UNL     1     -32.163   9.161   0.764  1.00 20.00     0.008 C 
ENDBRANCH   8   9
ENDBRANCH   7   8
TORSDOF 2
ENDMDL
MODEL 3
REMARK VINA RESULT:      -1.7      0.966      2.125
REMARK  2 active torsions:
REMARK  status: ('A' for Active; 'I' for Inactive)
REMARK    1  A    between atoms: C6_6  and  C9_9 
REMARK    2  A    between atoms: C9_9  and  N10_10 
ROOT
HETATM    1  C1  UNL     1     -34.705   6.157   4.242  1.00 20.00     0.006 C 
HETATM    2  C2  UNL     1     -34.643   7.477   4.008  1.00 20.00     0.004 C 
HETATM    3  C3  UNL     1     -33.912   5.222   3.466  1.00 20.00    -0.040 C 
HETATM    4  C4  UNL     1     -33.851   3.919   3.778  1.00 20.00     0.020 C 
HETATM    5  C7  UNL     1     -33.719   8.067   2.976  1.00 20.00     0.300 C 
HETATM    6  C8  UNL     1     -33.167   5.808   2.284  1.00 20.00     0.310 C 
HETATM    7  N10 UNL     1     -32.634   7.147   2.588  1.00 20.00     0.099 N 
ENDROOT
BRANCH   7   8
HETATM    8  C9  UNL     1     -31.879   7.683   1.458  1.00 20.00     0.299 C 
BRANCH   8   9
HETATM    9  C6  UNL     1     -32.350   9.074   1.183  1.00 20.00    -0.007 C 
HETATM   10  C5  UNL     1     -32.324   9.645  -0.027  1.00 20.00     0.008 C 
ENDBRANCH   8   9
ENDBRANCH   7   8
TORSDOF 2
ENDMDL
MODEL 4
REMARK VINA RESULT:      -0.7      1.880      4.531
REMARK  2 active torsions:
REMARK  status: ('A' for Active; 'I' for Inactive)
REMARK    1  A    between atoms: C6_6  and  C9_9 
REMARK    2  A    between atoms: C9_9  and  N10_10 
ROOT
HETATM    1  C1  UNL     1     -32.678   8.051   2.639  1.00 20.00     0.006 C 
HETATM    2  C2  UNL     1     -32.356   7.169   1.680  1.00 20.00     0.004 C 
HETATM    3  C3  UNL     1     -33.513   7.664   3.761  1.00 20.00    -0.040 C 
HETATM    4  C4  UNL     1     -33.727   8.486   4.799  1.00 20.00     0.020 C 
HETATM    5  C7  UNL     1     -32.791   5.729   1.735  1.00 20.00     0.300 C 
HETATM    6  C8  UNL     1     -34.129   6.282   3.681  1.00 20.00     0.310 C 
HETATM    7  N10 UNL     1     -33.200   5.306   3.087  1.00 20.00     0.099 N 
ENDROOT
BRANCH   7   8
HETATM    8  C9  UNL     1     -33.787   3.969   3.057  1.00 20.00     0.299 C 
BRANCH   8   9
HETATM    9  C6  UNL     1     -33.826   3.430   4.450  1.00 20.00    -0.007 C 
HETATM   10  C5  UNL     1     -32.777   2.869   5.062  1.00 20.00     0.008 C 
ENDBRANCH   8   9
ENDBRANCH   7   8
TORSDOF 2
ENDMDL
MODEL 5
REMARK VINA RESULT:      -0.6      0.660      2.206
REMARK  2 active torsions:
REMARK  status: ('A' for Active; 'I' for Inactive)
REMARK    1  A    between atoms: C6_6  and  C9_9 
REMARK    2  A    between atoms: C9_9  and  N10_10 
ROOT
HETATM    1  C1  UNL     1     -33.571   5.364   2.789  1.00 20.00     0.006 C 
HETATM    2  C2  UNL     1     -34.043   6.392   3.511  1.00 20.00     0.004 C 
HETATM    3  C3  UNL     1     -32.675   5.587   1.669  1.00 20.00    -0.040 C 
HETATM    4  C4  UNL     1     -32.081   4.570   1.027  1.00 20.00     0.020 C 
HETATM    5  C7  UNL     1     -33.634   7.816   3.244  1.00 20.00     0.300 C 
HETATM    6  C8  UNL     1     -32.458   7.033   1.272  1.00 20.00     0.310 C 
HETATM    7  N10 UNL     1     -32.396   7.916   2.449  1.00 20.00     0.099 N 
ENDROOT
BRANCH   7   8
HETATM    8  C9  UNL     1     -32.142   9.300   2.058  1.00 20.00     0.299 C 
BRANCH   8   9
HETATM    9  C6  UNL     1     -32.217   9.399   0.569  1.00 20.00    -0.007 C 
HETATM   10  C5  UNL     1     -32.700  10.463  -0.083  1.00 20.00     0.008 C 
ENDBRANCH   8   9
ENDBRANCH   7   8
TORSDOF 2
ENDMDL
MODEL 6
REMARK VINA RESULT:      -0.5      1.710      4.876
REMARK  2 active torsions:
REMARK  status: ('A' for Active; 'I' for Inactive)
REMARK    1  A    between atoms: C6_6  and  C9_9 
REMARK    2  A    between atoms: C9_9  and  N10_10 
ROOT
HETATM    1  C1  UNL     1     -33.358   8.367   3.179  1.00 20.00     0.006 C 
HETATM    2  C2  UNL     1     -34.129   7.716   4.063  1.00 20.00     0.004 C 
HETATM    3  C3  UNL     1     -32.569   7.643   2.199  1.00 20.00    -0.040 C 
HETATM    4  C4  UNL     1     -31.907   8.276   1.219  1.00 20.00     0.020 C 
HETATM    5  C7  UNL     1     -34.265   6.217   4.059  1.00 20.00     0.300 C 
HETATM    6  C8  UNL     1     -32.538   6.137   2.357  1.00 20.00     0.310 C 
HETATM    7  N10 UNL     1     -33.845   5.608   2.783  1.00 20.00     0.099 N 
ENDROOT
BRANCH   7   8
HETATM    8  C9  UNL     1     -33.816   4.152   2.889  1.00 20.00     0.299 C 
BRANCH   8   9
HETATM    9  C6  UNL     1     -33.845   3.775   4.334  1.00 20.00    -0.007 C 
HETATM   10  C5  UNL     1     -33.107   2.792   4.863  1.00 20.00     0.008 C 
ENDBRANCH   8   9
ENDBRANCH   7   8
TORSDOF 2
ENDMDL
MODEL 7
REMARK VINA RESULT:      -0.4      1.496      4.205
REMARK  2 active torsions:
REMARK  status: ('A' for Active; 'I' for Inactive)
REMARK    1  A    between atoms: C6_6  and  C9_9 
REMARK    2  A    between atoms: C9_9  and  N10_10 
ROOT
HETATM    1  C1  UNL     1     -31.587   7.107   1.065  1.00 20.00     0.006 C 
HETATM    2  C2  UNL     1     -31.682   8.200   1.837  1.00 20.00     0.004 C 
HETATM    3  C3  UNL     1     -32.368   5.918   1.353  1.00 20.00    -0.040 C 
HETATM    4  C4  UNL     1     -32.395   4.871   0.515  1.00 20.00     0.020 C 
HETATM    5  C7  UNL     1     -32.634   8.281   3.001  1.00 20.00     0.300 C 
HETATM    6  C8  UNL     1     -33.143   5.935   2.654  1.00 20.00     0.310 C 
HETATM    7  N10 UNL     1     -33.703   7.267   2.937  1.00 20.00     0.099 N 
ENDROOT
BRANCH   7   8
HETATM    8  C9  UNL     1     -34.485   7.261   4.170  1.00 20.00     0.299 C 
BRANCH   8   9
HETATM    9  C6  UNL     1     -35.494   6.162   4.093  1.00 20.00    -0.007 C 
HETATM   10  C5  UNL     1     -35.356   4.978   4.701  1.00 20.00     0.008 C 
ENDBRANCH   8   9
ENDBRANCH   7   8
TORSDOF 2
ENDMDL
MODEL 8
REMARK VINA RESULT:      -0.2      1.886      4.553
REMARK  2 active torsions:
REMARK  status: ('A' for Active; 'I' for Inactive)
REMARK    1  A    between atoms: C6_6  and  C9_9 
REMARK    2  A    between atoms: C9_9  and  N10_10 
ROOT
HETATM    1  C1  UNL     1     -31.955   7.301   1.531  1.00 20.00     0.006 C 
HETATM    2  C2  UNL     1     -32.415   6.120   1.092  1.00 20.00     0.004 C 
HETATM    3  C3  UNL     1     -32.396   7.851   2.800  1.00 20.00    -0.040 C 
HETATM    4  C4  UNL     1     -31.843   8.956   3.322  1.00 20.00     0.020 C 
HETATM    5  C7  UNL     1     -33.362   5.275   1.903  1.00 20.00     0.300 C 
HETATM    6  C8  UNL     1     -33.519   7.103   3.490  1.00 20.00     0.310 C 
HETATM    7  N10 UNL     1     -33.380   5.646   3.330  1.00 20.00     0.099 N 
ENDROOT
BRANCH   7   8
HETATM    8  C9  UNL     1     -34.441   4.933   4.036  1.00 20.00     0.299 C 
BRANCH   8   9
HETATM    9  C6  UNL     1     -34.012   3.518   4.245  1.00 20.00    -0.007 C 
HETATM   10  C5  UNL     1     -32.959   3.160   4.989  1.00 20.00     0.008 C 
ENDBRANCH   8   9
ENDBRANCH   7   8
TORSDOF 2
ENDMDL
MODEL 9
REMARK VINA RESULT:      -0.1      1.726      4.727
REMARK  2 active torsions:
REMARK  status: ('A' for Active; 'I' for Inactive)
REMARK    1  A    between atoms: C6_6  and  C9_9 
REMARK    2  A    between atoms: C9_9  and  N10_10 
ROOT
HETATM    1  C1  UNL     1     -32.051   8.680   3.246  1.00 20.00     0.006 C 
HETATM    2  C2  UNL     1     -32.608   8.546   4.459  1.00 20.00     0.004 C 
HETATM    3  C3  UNL     1     -32.331   7.729   2.185  1.00 20.00    -0.040 C 
HETATM    4  C4  UNL     1     -31.899   7.924   0.930  1.00 20.00     0.020 C 
HETATM    5  C7  UNL     1     -33.590   7.449   4.774  1.00 20.00     0.300 C 
HETATM    6  C8  UNL     1     -33.134   6.509   2.585  1.00 20.00     0.310 C 
HETATM    7  N10 UNL     1     -34.180   6.844   3.566  1.00 20.00     0.099 N 
ENDROOT
BRANCH   7   8
HETATM    8  C9  UNL     1     -34.977   5.669   3.910  1.00 20.00     0.299 C 
BRANCH   8   9
HETATM    9  C6  UNL     1     -34.155   4.445   3.672  1.00 20.00    -0.007 C 
HETATM   10  C5  UNL     1     -33.800   3.586   4.634  1.00 20.00     0.008 C 
ENDBRANCH   8   9
ENDBRANCH   7   8
TORSDOF 2
ENDMDL
