MODEL 1
REMARK VINA RESULT:       1.6      0.000      0.000
REMARK  1 active torsions:
REMARK  status: ('A' for Active; 'I' for Inactive)
REMARK    1  A    between atoms: C1_1  and  C8_8 
ROOT
HETATM    1  C2  UNL     1     -32.843   6.946   3.957  1.00 20.00     0.019 A 
HETATM    2  C3  UNL     1     -33.822   6.195   2.174  1.00 20.00     0.019 A 
HETATM    3  C4  UNL     1     -34.399   8.115   3.002  1.00 20.00     0.019 A 
HETATM    4  C5  UNL     1     -33.588   5.654   3.593  1.00 20.00     0.038 A 
HETATM    5  C6  UNL     1     -34.166   7.574   4.421  1.00 20.00     0.038 A 
HETATM    6  C7  UNL     1     -35.146   6.823   2.637  1.00 20.00     0.038 A 
HETATM    7  C8  UNL     1     -33.079   7.485   2.540  1.00 20.00     0.050 A 
HETATM    8  C9  UNL     1     -34.898   6.290   4.045  1.00 20.00     0.117 A 
HETATM    9  F11 UNL     1     -35.812   5.690   4.801  1.00 20.00    -0.242 F 
ENDROOT
BRANCH   7  10
HETATM   10  C1  UNL     1     -32.050   8.159   1.686  1.00 20.00     0.228 C 
HETATM   11  O10 UNL     1     -30.896   7.746   1.619  1.00 20.00    -0.279 OA
HETATM   12 CL12 UNL     1     -32.696   9.537   0.849  1.00 20.00    -0.043 Cl
ENDBRANCH   7  10
TORSDOF 1
ENDMDL
MODEL 2
REMARK VINA RESULT:       1.6      0.034      1.522
REMARK  1 active torsions:
REMARK  status: ('A' for Active; 'I' for Inactive)
REMARK    1  A    between atoms: C1_1  and  C8_8 
ROOT
HETATM    1  C2  UNL     1     -34.372   8.128   3.020  1.00 20.00     0.019 A 
HETATM    2  C3  UNL     1     -32.824   6.917   3.935  1.00 20.00     0.019 A 
HETATM    3  C4  UNL     1     -33.834   6.217   2.148  1.00 20.00     0.019 A 
HETATM    4  C5  UNL     1     -34.133   7.556   4.425  1.00 20.00     0.038 A 
HETATM    5  C6  UNL     1     -35.143   6.856   2.637  1.00 20.00     0.038 A 
HETATM    6  C7  UNL     1     -33.594   5.643   3.552  1.00 20.00     0.038 A 
HETATM    7  C8  UNL     1     -33.066   7.488   2.533  1.00 20.00     0.050 A 
HETATM    8  C9  UNL     1     -34.889   6.292   4.030  1.00 20.00     0.117 A 
HETATM    9  F11 UNL     1     -35.805   5.690   4.783  1.00 20.00    -0.242 F 
ENDROOT
BRANCH   7  10
HETATM   10  C1  UNL     1     -32.031   8.165   1.688  1.00 20.00     0.228 C 
HETATM   11  O10 UNL     1     -30.869   7.771   1.651  1.00 20.00    -0.279 OA
HETATM   12 CL12 UNL     1     -32.684   9.516   0.812  1.00 20.00    -0.043 Cl
ENDBRANCH   7  10
TORSDOF 1
ENDMDL
MODEL 3
REMARK VINA RESULT:       2.0      3.334      4.105
REMARK  1 active torsions:
REMARK  status: ('A' for Active; 'I' for Inactive)
REMARK    1  A    between atoms: C1_1  and  C8_8 
ROOT
HETATM    1  C2  UNL     1     -32.069   6.024   2.380  1.00 20.00     0.019 A 
HETATM    2  C3  UNL     1     -32.958   7.901   2.999  1.00 20.00     0.019 A 
HETATM    3  C4  UNL     1     -33.757   6.836   1.288  1.00 20.00     0.019 A 
HETATM    4  C5  UNL     1     -31.541   7.445   2.622  1.00 20.00     0.038 A 
HETATM    5  C6  UNL     1     -32.340   6.379   0.910  1.00 20.00     0.038 A 
HETATM    6  C7  UNL     1     -33.230   8.259   1.530  1.00 20.00     0.038 A 
HETATM    7  C8  UNL     1     -33.484   6.482   2.755  1.00 20.00     0.050 A 
HETATM    8  C9  UNL     1     -31.825   7.791   1.165  1.00 20.00     0.117 A 
HETATM    9  F11 UNL     1     -30.990   8.450   0.366  1.00 20.00    -0.242 F 
ENDROOT
BRANCH   7  10
HETATM   10  C1  UNL     1     -34.424   5.744   3.658  1.00 20.00     0.228 C 
HETATM   11  O10 UNL     1     -35.444   6.267   4.095  1.00 20.00    -0.279 OA
HETATM   12 CL12 UNL     1     -33.886   4.123   3.976  1.00 20.00    -0.043 Cl
ENDBRANCH   7  10
TORSDOF 1
ENDMDL
MODEL 4
REMARK VINA RESULT:       2.0      3.332      4.104
REMARK  1 active torsions:
REMARK  status: ('A' for Active; 'I' for Inactive)
REMARK    1  A    between atoms: C1_1  and  C8_8 
ROOT
HETATM    1  C2  UNL     1     -33.741   6.814   1.276  1.00 20.00     0.019 A 
HETATM    2  C3  UNL     1     -32.059   6.051   2.412  1.00 20.00     0.019 A 
HETATM    3  C4  UNL     1     -32.988   7.927   2.977  1.00 20.00     0.019 A 
HETATM    4  C5  UNL     1     -32.312   6.372   0.930  1.00 20.00     0.038 A 
HETATM    5  C6  UNL     1     -33.240   8.249   1.496  1.00 20.00     0.038 A 
HETATM    6  C7  UNL     1     -31.557   7.486   2.632  1.00 20.00     0.038 A 
HETATM    7  C8  UNL     1     -33.486   6.494   2.754  1.00 20.00     0.050 A 
HETATM    8  C9  UNL     1     -31.822   7.797   1.163  1.00 20.00     0.117 A 
HETATM    9  F11 UNL     1     -30.986   8.452   0.364  1.00 20.00    -0.242 F 
ENDROOT
BRANCH   7  10
HETATM   10  C1  UNL     1     -34.426   5.754   3.655  1.00 20.00     0.228 C 
HETATM   11  O10 UNL     1     -35.444   6.278   4.097  1.00 20.00    -0.279 OA
HETATM   12 CL12 UNL     1     -33.891   4.130   3.966  1.00 20.00    -0.043 Cl
ENDBRANCH   7  10
TORSDOF 1
ENDMDL
MODEL 5
REMARK VINA RESULT:       2.0      3.338      4.032
REMARK  1 active torsions:
REMARK  status: ('A' for Active; 'I' for Inactive)
REMARK    1  A    between atoms: C1_1  and  C8_8 
ROOT
HETATM    1  C2  UNL     1     -33.100   5.629   1.925  1.00 20.00     0.019 A 
HETATM    2  C3  UNL     1     -32.678   6.795   3.703  1.00 20.00     0.019 A 
HETATM    3  C4  UNL     1     -34.538   7.091   2.628  1.00 20.00     0.019 A 
HETATM    4  C5  UNL     1     -31.950   6.541   2.374  1.00 20.00     0.038 A 
HETATM    5  C6  UNL     1     -33.811   6.838   1.299  1.00 20.00     0.038 A 
HETATM    6  C7  UNL     1     -33.388   8.006   3.078  1.00 20.00     0.038 A 
HETATM    7  C8  UNL     1     -33.826   5.884   3.252  1.00 20.00     0.050 A 
HETATM    8  C9  UNL     1     -32.669   7.738   1.760  1.00 20.00     0.117 A 
HETATM    9  F11 UNL     1     -32.088   8.670   1.011  1.00 20.00    -0.242 F 
ENDROOT
BRANCH   7  10
HETATM   10  C1  UNL     1     -34.478   4.835   4.099  1.00 20.00     0.228 C 
HETATM   11  O10 UNL     1     -35.589   5.003   4.592  1.00 20.00    -0.279 OA
HETATM   12 CL12 UNL     1     -33.484   3.421   4.269  1.00 20.00    -0.043 Cl
ENDBRANCH   7  10
TORSDOF 1
ENDMDL
MODEL 6
REMARK VINA RESULT:       2.0      3.339      4.025
REMARK  1 active torsions:
REMARK  status: ('A' for Active; 'I' for Inactive)
REMARK    1  A    between atoms: C1_1  and  C8_8 
ROOT
HETATM    1  C2  UNL     1     -34.531   7.092   2.625  1.00 20.00     0.019 A 
HETATM    2  C3  UNL     1     -33.096   5.626   1.922  1.00 20.00     0.019 A 
HETATM    3  C4  UNL     1     -32.670   6.797   3.697  1.00 20.00     0.019 A 
HETATM    4  C5  UNL     1     -33.807   6.836   1.295  1.00 20.00     0.038 A 
HETATM    5  C6  UNL     1     -33.380   8.006   3.071  1.00 20.00     0.038 A 
HETATM    6  C7  UNL     1     -31.944   6.540   2.368  1.00 20.00     0.038 A 
HETATM    7  C8  UNL     1     -33.819   5.885   3.249  1.00 20.00     0.050 A 
HETATM    8  C9  UNL     1     -32.664   7.735   1.752  1.00 20.00     0.117 A 
HETATM    9  F11 UNL     1     -32.083   8.665   1.000  1.00 20.00    -0.242 F 
ENDROOT
BRANCH   7  10
HETATM   10  C1  UNL     1     -34.472   4.835   4.094  1.00 20.00     0.228 C 
HETATM   11  O10 UNL     1     -35.585   5.000   4.583  1.00 20.00    -0.279 OA
HETATM   12 CL12 UNL     1     -33.474   3.423   4.269  1.00 20.00    -0.043 Cl
ENDBRANCH   7  10
TORSDOF 1
ENDMDL
MODEL 7
REMARK VINA RESULT:       2.1      3.335      4.107
REMARK  1 active torsions:
REMARK  status: ('A' for Active; 'I' for Inactive)
REMARK    1  A    between atoms: C1_1  and  C8_8 
ROOT
HETATM    1  C2  UNL     1     -32.971   7.913   2.984  1.00 20.00     0.019 A 
HETATM    2  C3  UNL     1     -33.730   6.805   1.282  1.00 20.00     0.019 A 
HETATM    3  C4  UNL     1     -32.051   6.034   2.417  1.00 20.00     0.019 A 
HETATM    4  C5  UNL     1     -33.223   8.238   1.505  1.00 20.00     0.038 A 
HETATM    5  C6  UNL     1     -31.543   7.467   2.639  1.00 20.00     0.038 A 
HETATM    6  C7  UNL     1     -32.302   6.358   0.936  1.00 20.00     0.038 A 
HETATM    7  C8  UNL     1     -33.477   6.482   2.759  1.00 20.00     0.050 A 
HETATM    8  C9  UNL     1     -31.808   7.781   1.171  1.00 20.00     0.117 A 
HETATM    9  F11 UNL     1     -30.968   8.434   0.372  1.00 20.00    -0.242 F 
ENDROOT
BRANCH   7  10
HETATM   10  C1  UNL     1     -34.424   5.747   3.656  1.00 20.00     0.228 C 
HETATM   11  O10 UNL     1     -35.443   6.274   4.090  1.00 20.00    -0.279 OA
HETATM   12 CL12 UNL     1     -33.896   4.122   3.973  1.00 20.00    -0.043 Cl
ENDBRANCH   7  10
TORSDOF 1
ENDMDL
MODEL 8
REMARK VINA RESULT:       2.1      3.331      4.013
REMARK  1 active torsions:
REMARK  status: ('A' for Active; 'I' for Inactive)
REMARK    1  A    between atoms: C1_1  and  C8_8 
ROOT
HETATM    1  C2  UNL     1     -32.707   6.827   3.731  1.00 20.00     0.019 A 
HETATM    2  C3  UNL     1     -34.563   7.069   2.638  1.00 20.00     0.019 A 
HETATM    3  C4  UNL     1     -33.075   5.649   1.949  1.00 20.00     0.019 A 
HETATM    4  C5  UNL     1     -33.445   8.016   3.100  1.00 20.00     0.038 A 
HETATM    5  C6  UNL     1     -31.957   6.596   2.410  1.00 20.00     0.038 A 
HETATM    6  C7  UNL     1     -33.814   6.837   1.316  1.00 20.00     0.038 A 
HETATM    7  C8  UNL     1     -33.823   5.883   3.268  1.00 20.00     0.050 A 
HETATM    8  C9  UNL     1     -32.705   7.770   1.789  1.00 20.00     0.117 A 
HETATM    9  F11 UNL     1     -32.144   8.719   1.046  1.00 20.00    -0.242 F 
ENDROOT
BRANCH   7  10
HETATM   10  C1  UNL     1     -34.459   4.816   4.104  1.00 20.00     0.228 C 
HETATM   11  O10 UNL     1     -35.576   4.957   4.590  1.00 20.00    -0.279 OA
HETATM   12 CL12 UNL     1     -33.435   3.422   4.275  1.00 20.00    -0.043 Cl
ENDBRANCH   7  10
TORSDOF 1
ENDMDL
MODEL 9
REMARK VINA RESULT:       2.8      1.320      1.623
REMARK  1 active torsions:
REMARK  status: ('A' for Active; 'I' for Inactive)
REMARK    1  A    between atoms: C1_1  and  C8_8 
ROOT
HETATM    1  C2  UNL     1     -31.704   7.129   2.377  1.00 20.00     0.019 A 
HETATM    2  C3  UNL     1     -33.368   6.822   1.022  1.00 20.00     0.019 A 
HETATM    3  C4  UNL     1     -33.540   8.251   2.644  1.00 20.00     0.019 A 
HETATM    4  C5  UNL     1     -32.514   5.909   1.916  1.00 20.00     0.038 A 
HETATM    5  C6  UNL     1     -32.687   7.339   3.539  1.00 20.00     0.038 A 
HETATM    6  C7  UNL     1     -34.352   7.031   2.183  1.00 20.00     0.038 A 
HETATM    7  C8  UNL     1     -32.558   8.039   1.485  1.00 20.00     0.050 A 
HETATM    8  C9  UNL     1     -33.492   6.133   3.065  1.00 20.00     0.117 A 
HETATM    9  F11 UNL     1     -33.961   5.175   3.859  1.00 20.00    -0.242 F 
ENDROOT
BRANCH   7  10
HETATM   10  C1  UNL     1     -32.030   9.116   0.588  1.00 20.00     0.228 C 
HETATM   11  O10 UNL     1     -31.053   8.936  -0.131  1.00 20.00    -0.279 OA
HETATM   12 CL12 UNL     1     -32.958  10.580   0.709  1.00 20.00    -0.043 Cl
ENDBRANCH   7  10
TORSDOF 1
ENDMDL
