MODEL 1
REMARK VINA RESULT:      -1.5      0.000      0.000
REMARK  1 active torsions:
REMARK  status: ('A' for Active; 'I' for Inactive)
REMARK    1  A    between atoms: C3_3  and  C7_7 
ROOT
HETATM    1  C1  UNL     1     -31.523   7.037   0.904  1.00 20.00    -0.020 C 
HETATM    2  C2  UNL     1     -32.182   5.912   1.231  1.00 20.00    -0.086 C 
HETATM    3  C4  UNL     1     -33.221   5.879   2.324  1.00 20.00     0.045 C 
HETATM    4  C5  UNL     1     -32.486   8.221   2.920  1.00 20.00     0.020 C 
HETATM    5  C6  UNL     1     -31.716   8.362   1.596  1.00 20.00     0.005 C 
HETATM    6  C7  UNL     1     -33.675   7.268   2.791  1.00 20.00     0.059 C 
HETATM    7  C8  UNL     1     -31.922   4.611   0.531  1.00 20.00     0.043 C 
HETATM    8  C10 UNL     1     -32.400   9.348   0.647  1.00 20.00     0.014 C 
ENDROOT
BRANCH   6   9
HETATM    9  C3  UNL     1     -34.393   7.157   4.104  1.00 20.00     0.127 C 
HETATM   10  C9  UNL     1     -35.404   6.050   4.231  1.00 20.00     0.091 C 
HETATM   11  O11 UNL     1     -34.165   7.933   5.031  1.00 20.00    -0.298 OA
ENDBRANCH   6   9
TORSDOF 1
ENDMDL
MODEL 2
REMARK VINA RESULT:       0.2      0.617      2.582
REMARK  1 active torsions:
REMARK  status: ('A' for Active; 'I' for Inactive)
REMARK    1  A    between atoms: C3_3  and  C7_7 
ROOT
HETATM    1  C1  UNL     1     -31.997   7.021   0.556  1.00 20.00    -0.020 C 
HETATM    2  C2  UNL     1     -32.215   8.212   1.142  1.00 20.00    -0.086 C 
HETATM    3  C4  UNL     1     -32.966   8.341   2.443  1.00 20.00     0.045 C 
HETATM    4  C5  UNL     1     -33.550   5.895   2.203  1.00 20.00     0.020 C 
HETATM    5  C6  UNL     1     -32.494   5.707   1.102  1.00 20.00     0.005 C 
HETATM    6  C7  UNL     1     -33.167   7.010   3.178  1.00 20.00     0.059 C 
HETATM    7  C8  UNL     1     -31.728   9.493   0.533  1.00 20.00     0.043 C 
HETATM    8  C10 UNL     1     -31.311   4.869   1.591  1.00 20.00     0.014 C 
ENDROOT
BRANCH   6   9
HETATM    9  C3  UNL     1     -34.226   7.162   4.231  1.00 20.00     0.127 C 
HETATM   10  C9  UNL     1     -35.379   6.197   4.174  1.00 20.00     0.091 C 
HETATM   11  O11 UNL     1     -34.153   8.030   5.099  1.00 20.00    -0.298 OA
ENDBRANCH   6   9
TORSDOF 1
ENDMDL
MODEL 3
REMARK VINA RESULT:       0.4      2.007      4.158
REMARK  1 active torsions:
REMARK  status: ('A' for Active; 'I' for Inactive)
REMARK    1  A    between atoms: C3_3  and  C7_7 
ROOT
HETATM    1  C1  UNL     1     -33.325   5.813   2.819  1.00 20.00    -0.020 C 
HETATM    2  C2  UNL     1     -33.674   7.046   3.228  1.00 20.00    -0.086 C 
HETATM    3  C4  UNL     1     -33.255   8.288   2.481  1.00 20.00     0.045 C 
HETATM    4  C5  UNL     1     -31.760   6.798   1.094  1.00 20.00     0.020 C 
HETATM    5  C6  UNL     1     -32.467   5.534   1.612  1.00 20.00     0.005 C 
HETATM    6  C7  UNL     1     -32.692   8.010   1.082  1.00 20.00     0.059 C 
HETATM    7  C8  UNL     1     -34.500   7.266   4.460  1.00 20.00     0.043 C 
HETATM    8  C10 UNL     1     -33.310   4.871   0.520  1.00 20.00     0.014 C 
ENDROOT
BRANCH   6   9
HETATM    9  C3  UNL     1     -31.961   9.219   0.575  1.00 20.00     0.127 C 
HETATM   10  C9  UNL     1     -32.712  10.522   0.598  1.00 20.00     0.091 C 
HETATM   11  O11 UNL     1     -30.804   9.148   0.163  1.00 20.00    -0.298 OA
ENDBRANCH   6   9
TORSDOF 1
ENDMDL
MODEL 4
REMARK VINA RESULT:       0.6      1.878      3.626
REMARK  1 active torsions:
REMARK  status: ('A' for Active; 'I' for Inactive)
REMARK    1  A    between atoms: C3_3  and  C7_7 
ROOT
HETATM    1  C1  UNL     1     -33.381   6.266   2.979  1.00 20.00    -0.020 C 
HETATM    2  C2  UNL     1     -32.640   6.195   1.859  1.00 20.00    -0.086 C 
HETATM    3  C4  UNL     1     -32.272   7.421   1.061  1.00 20.00     0.045 C 
HETATM    4  C5  UNL     1     -33.876   8.705   2.531  1.00 20.00     0.020 C 
HETATM    5  C6  UNL     1     -33.947   7.546   3.539  1.00 20.00     0.005 C 
HETATM    6  C7  UNL     1     -32.535   8.742   1.795  1.00 20.00     0.059 C 
HETATM    7  C8  UNL     1     -32.134   4.887   1.327  1.00 20.00     0.043 C 
HETATM    8  C10 UNL     1     -33.240   7.894   4.851  1.00 20.00     0.014 C 
ENDROOT
BRANCH   6   9
HETATM    9  C3  UNL     1     -32.512   9.883   0.821  1.00 20.00     0.127 C 
HETATM   10  C9  UNL     1     -32.459   9.524  -0.639  1.00 20.00     0.091 C 
HETATM   11  O11 UNL     1     -32.537  11.054   1.198  1.00 20.00    -0.298 OA
ENDBRANCH   6   9
TORSDOF 1
ENDMDL
MODEL 5
REMARK VINA RESULT:       0.6      2.107      3.729
REMARK  1 active torsions:
REMARK  status: ('A' for Active; 'I' for Inactive)
REMARK    1  A    between atoms: C3_3  and  C7_7 
ROOT
HETATM    1  C1  UNL     1     -33.832   6.300   3.410  1.00 20.00    -0.020 C 
HETATM    2  C2  UNL     1     -33.125   5.823   2.370  1.00 20.00    -0.086 C 
HETATM    3  C4  UNL     1     -32.398   6.730   1.410  1.00 20.00     0.045 C 
HETATM    4  C5  UNL     1     -33.577   8.659   2.537  1.00 20.00     0.020 C 
HETATM    5  C6  UNL     1     -34.005   7.766   3.713  1.00 20.00     0.005 C 
HETATM    6  C7  UNL     1     -32.272   8.178   1.899  1.00 20.00     0.059 C 
HETATM    7  C8  UNL     1     -33.019   4.352   2.095  1.00 20.00     0.043 C 
HETATM    8  C10 UNL     1     -33.250   8.121   4.996  1.00 20.00     0.014 C 
ENDROOT
BRANCH   6   9
HETATM    9  C3  UNL     1     -31.895   9.074   0.755  1.00 20.00     0.127 C 
HETATM   10  C9  UNL     1     -32.710  10.327   0.581  1.00 20.00     0.091 C 
HETATM   11  O11 UNL     1     -30.965   8.799  -0.000  1.00 20.00    -0.298 OA
ENDBRANCH   6   9
TORSDOF 1
ENDMDL
MODEL 6
REMARK VINA RESULT:       0.8      1.415      2.936
REMARK  1 active torsions:
REMARK  status: ('A' for Active; 'I' for Inactive)
REMARK    1  A    between atoms: C3_3  and  C7_7 
ROOT
HETATM    1  C1  UNL     1     -31.894   6.905   0.933  1.00 20.00    -0.020 C 
HETATM    2  C2  UNL     1     -32.359   7.755   1.866  1.00 20.00    -0.086 C 
HETATM    3  C4  UNL     1     -33.287   7.308   2.968  1.00 20.00     0.045 C 
HETATM    4  C5  UNL     1     -33.471   5.104   1.747  1.00 20.00     0.020 C 
HETATM    5  C6  UNL     1     -32.262   5.445   0.860  1.00 20.00     0.005 C 
HETATM    6  C7  UNL     1     -33.387   5.784   3.115  1.00 20.00     0.059 C 
HETATM    7  C8  UNL     1     -31.988   9.208   1.866  1.00 20.00     0.043 C 
HETATM    8  C10 UNL     1     -31.045   4.586   1.210  1.00 20.00     0.014 C 
ENDROOT
BRANCH   6   9
HETATM    9  C3  UNL     1     -34.587   5.428   3.944  1.00 20.00     0.127 C 
HETATM   10  C9  UNL     1     -35.660   6.476   4.066  1.00 20.00     0.091 C 
HETATM   11  O11 UNL     1     -34.688   4.333   4.494  1.00 20.00    -0.298 OA
ENDBRANCH   6   9
TORSDOF 1
ENDMDL
MODEL 7
REMARK VINA RESULT:       1.1      2.218      3.815
REMARK  1 active torsions:
REMARK  status: ('A' for Active; 'I' for Inactive)
REMARK    1  A    between atoms: C3_3  and  C7_7 
ROOT
HETATM    1  C1  UNL     1     -33.734   7.746   3.448  1.00 20.00    -0.020 C 
HETATM    2  C2  UNL     1     -34.239   6.499   3.474  1.00 20.00    -0.086 C 
HETATM    3  C4  UNL     1     -33.758   5.420   2.537  1.00 20.00     0.045 C 
HETATM    4  C5  UNL     1     -32.474   7.223   1.320  1.00 20.00     0.020 C 
HETATM    5  C6  UNL     1     -32.676   8.211   2.482  1.00 20.00     0.005 C 
HETATM    6  C7  UNL     1     -32.459   5.771   1.800  1.00 20.00     0.059 C 
HETATM    7  C8  UNL     1     -35.320   6.103   4.435  1.00 20.00     0.043 C 
HETATM    8  C10 UNL     1     -31.369   8.475   3.232  1.00 20.00     0.014 C 
ENDROOT
BRANCH   6   9
HETATM    9  C3  UNL     1     -32.264   4.844   0.636  1.00 20.00     0.127 C 
HETATM   10  C9  UNL     1     -33.502   4.428  -0.111  1.00 20.00     0.091 C 
HETATM   11  O11 UNL     1     -31.148   4.445   0.308  1.00 20.00    -0.298 OA
ENDBRANCH   6   9
TORSDOF 1
ENDMDL
MODEL 8
REMARK VINA RESULT:       1.2      2.311      4.167
REMARK  1 active torsions:
REMARK  status: ('A' for Active; 'I' for Inactive)
REMARK    1  A    between atoms: C3_3  and  C7_7 
ROOT
HETATM    1  C1  UNL     1     -34.715   5.054   4.431  1.00 20.00    -0.020 C 
HETATM    2  C2  UNL     1     -33.745   4.221   4.016  1.00 20.00    -0.086 C 
HETATM    3  C4  UNL     1     -32.765   4.605   2.935  1.00 20.00     0.045 C 
HETATM    4  C5  UNL     1     -34.198   6.645   2.535  1.00 20.00     0.020 C 
HETATM    5  C6  UNL     1     -34.953   6.427   3.857  1.00 20.00     0.005 C 
HETATM    6  C7  UNL     1     -32.771   6.100   2.595  1.00 20.00     0.059 C 
HETATM    7  C8  UNL     1     -33.578   2.849   4.599  1.00 20.00     0.043 C 
HETATM    8  C10 UNL     1     -34.594   7.492   4.895  1.00 20.00     0.014 C 
ENDROOT
BRANCH   6   9
HETATM    9  C3  UNL     1     -32.074   6.330   1.285  1.00 20.00     0.127 C 
HETATM   10  C9  UNL     1     -31.786   7.759   0.915  1.00 20.00     0.091 C 
HETATM   11  O11 UNL     1     -31.753   5.395   0.553  1.00 20.00    -0.298 OA
ENDBRANCH   6   9
TORSDOF 1
ENDMDL
