MODEL 1
REMARK VINA RESULT:       1.2      0.000      0.000
REMARK  1 active torsions:
REMARK  status: ('A' for Active; 'I' for Inactive)
REMARK    1  A    between atoms: C1_1  and  C4_4 
ROOT
HETATM    1  C1  UNL     1     -33.550   4.946   3.583  1.00 20.00    -0.068 C 
HETATM    2  C2  UNL     1     -33.448   3.897   4.159  1.00 20.00    -0.108 C 
HETATM    3  C6  UNL     1     -33.322   2.621   4.861  1.00 20.00     0.112 C 
ENDROOT
BRANCH   1   4
HETATM    4  C4  UNL     1     -33.674   6.213   2.885  1.00 20.00     0.129 C 
HETATM    5  C5  UNL     1     -32.561   6.529   1.817  1.00 20.00     0.016 C 
HETATM    6  C3  UNL     1     -33.770   6.745   0.880  1.00 20.00     0.182 C 
HETATM    7  C8  UNL     1     -31.687   5.356   1.357  1.00 20.00     0.021 C 
HETATM    8  C9  UNL     1     -31.710   7.775   2.039  1.00 20.00     0.021 C 
HETATM    9  O10 UNL     1     -34.659   6.083   1.817  1.00 20.00    -0.366 OA
HETATM   10  C7  UNL     1     -34.109   7.316   3.848  1.00 20.00     0.061 C 
ENDBRANCH   1   4
TORSDOF 1
ENDMDL
MODEL 2
REMARK VINA RESULT:       1.2      2.120      4.639
REMARK  1 active torsions:
REMARK  status: ('A' for Active; 'I' for Inactive)
REMARK    1  A    between atoms: C1_1  and  C4_4 
ROOT
HETATM    1  C1  UNL     1     -32.422   8.769   1.039  1.00 20.00    -0.068 C 
HETATM    2  C2  UNL     1     -32.598   9.645   0.236  1.00 20.00    -0.108 C 
HETATM    3  C6  UNL     1     -32.813  10.709  -0.742  1.00 20.00     0.112 C 
ENDROOT
BRANCH   1   4
HETATM    4  C4  UNL     1     -32.208   7.710   2.008  1.00 20.00     0.129 C 
HETATM    5  C5  UNL     1     -33.133   6.443   1.869  1.00 20.00     0.016 C 
HETATM    6  C3  UNL     1     -31.789   5.682   1.851  1.00 20.00     0.182 C 
HETATM    7  C8  UNL     1     -33.895   6.283   0.549  1.00 20.00     0.021 C 
HETATM    8  C9  UNL     1     -34.033   6.099   3.051  1.00 20.00     0.021 C 
HETATM    9  O10 UNL     1     -31.056   6.910   1.605  1.00 20.00    -0.366 OA
HETATM   10  C7  UNL     1     -31.961   8.296   3.397  1.00 20.00     0.061 C 
ENDBRANCH   1   4
TORSDOF 1
ENDMDL
MODEL 3
REMARK VINA RESULT:       1.4      1.847      2.682
REMARK  1 active torsions:
REMARK  status: ('A' for Active; 'I' for Inactive)
REMARK    1  A    between atoms: C1_1  and  C4_4 
ROOT
HETATM    1  C1  UNL     1     -33.827   6.125   2.698  1.00 20.00    -0.068 C 
HETATM    2  C2  UNL     1     -34.532   5.760   3.600  1.00 20.00    -0.108 C 
HETATM    3  C6  UNL     1     -35.389   5.315   4.697  1.00 20.00     0.112 C 
ENDROOT
BRANCH   1   4
HETATM    4  C4  UNL     1     -32.977   6.566   1.607  1.00 20.00     0.129 C 
HETATM    5  C5  UNL     1     -32.241   7.943   1.813  1.00 20.00     0.016 C 
HETATM    6  C3  UNL     1     -30.979   7.119   1.476  1.00 20.00     0.182 C 
HETATM    7  C8  UNL     1     -32.195   8.499   3.241  1.00 20.00     0.021 C 
HETATM    8  C9  UNL     1     -32.547   9.057   0.816  1.00 20.00     0.021 C 
HETATM    9  O10 UNL     1     -31.695   5.873   1.683  1.00 20.00    -0.366 OA
HETATM   10  C7  UNL     1     -33.636   6.274   0.261  1.00 20.00     0.061 C 
ENDBRANCH   1   4
TORSDOF 1
ENDMDL
MODEL 4
REMARK VINA RESULT:       2.1      2.068      4.732
REMARK  1 active torsions:
REMARK  status: ('A' for Active; 'I' for Inactive)
REMARK    1  A    between atoms: C1_1  and  C4_4 
ROOT
HETATM    1  C1  UNL     1     -32.515   8.782   1.243  1.00 20.00    -0.068 C 
HETATM    2  C2  UNL     1     -32.696   9.617   0.399  1.00 20.00    -0.108 C 
HETATM    3  C6  UNL     1     -32.915  10.633  -0.629  1.00 20.00     0.112 C 
ENDROOT
BRANCH   1   4
HETATM    4  C4  UNL     1     -32.296   7.774   2.264  1.00 20.00     0.129 C 
HETATM    5  C5  UNL     1     -33.416   7.643   3.363  1.00 20.00     0.016 C 
HETATM    6  C3  UNL     1     -33.405   6.156   2.946  1.00 20.00     0.182 C 
HETATM    7  C8  UNL     1     -34.764   8.308   3.063  1.00 20.00     0.021 C 
HETATM    8  C9  UNL     1     -33.009   7.891   4.812  1.00 20.00     0.021 C 
HETATM    9  O10 UNL     1     -32.664   6.464   1.737  1.00 20.00    -0.366 OA
HETATM   10  C7  UNL     1     -30.831   7.757   2.696  1.00 20.00     0.061 C 
ENDBRANCH   1   4
TORSDOF 1
ENDMDL
MODEL 5
REMARK VINA RESULT:       2.4      2.313      3.401
REMARK  1 active torsions:
REMARK  status: ('A' for Active; 'I' for Inactive)
REMARK    1  A    between atoms: C1_1  and  C4_4 
ROOT
HETATM    1  C1  UNL     1     -33.426   6.962   2.635  1.00 20.00    -0.068 C 
HETATM    2  C2  UNL     1     -34.335   6.679   3.368  1.00 20.00    -0.108 C 
HETATM    3  C6  UNL     1     -35.440   6.333   4.259  1.00 20.00     0.112 C 
ENDROOT
BRANCH   1   4
HETATM    4  C4  UNL     1     -32.328   7.303   1.749  1.00 20.00     0.129 C 
HETATM    5  C5  UNL     1     -32.368   8.744   1.115  1.00 20.00     0.016 C 
HETATM    6  C3  UNL     1     -30.945   8.853   1.706  1.00 20.00     0.182 C 
HETATM    7  C8  UNL     1     -33.328   9.756   1.753  1.00 20.00     0.021 C 
HETATM    8  C9  UNL     1     -32.425   8.839  -0.406  1.00 20.00     0.021 C 
HETATM    9  O10 UNL     1     -31.166   7.689   2.544  1.00 20.00    -0.366 OA
HETATM   10  C7  UNL     1     -31.965   6.115   0.861  1.00 20.00     0.061 C 
ENDBRANCH   1   4
TORSDOF 1
ENDMDL
MODEL 6
REMARK VINA RESULT:       2.5      1.979      3.505
REMARK  1 active torsions:
REMARK  status: ('A' for Active; 'I' for Inactive)
REMARK    1  A    between atoms: C1_1  and  C4_4 
ROOT
HETATM    1  C1  UNL     1     -32.292   6.465   1.664  1.00 20.00    -0.068 C 
HETATM    2  C2  UNL     1     -31.928   5.493   1.060  1.00 20.00    -0.108 C 
HETATM    3  C6  UNL     1     -31.485   4.311   0.323  1.00 20.00     0.112 C 
ENDROOT
BRANCH   1   4
HETATM    4  C4  UNL     1     -32.734   7.639   2.395  1.00 20.00     0.129 C 
HETATM    5  C5  UNL     1     -33.859   7.406   3.471  1.00 20.00     0.016 C 
HETATM    6  C3  UNL     1     -32.859   8.112   4.413  1.00 20.00     0.182 C 
HETATM    7  C8  UNL     1     -34.119   5.957   3.900  1.00 20.00     0.021 C 
HETATM    8  C9  UNL     1     -35.176   8.152   3.281  1.00 20.00     0.021 C 
HETATM    9  O10 UNL     1     -31.780   7.933   3.460  1.00 20.00    -0.366 OA
HETATM   10  C7  UNL     1     -32.842   8.843   1.461  1.00 20.00     0.061 C 
ENDBRANCH   1   4
TORSDOF 1
ENDMDL
MODEL 7
REMARK VINA RESULT:       2.6      1.531      2.968
REMARK  1 active torsions:
REMARK  status: ('A' for Active; 'I' for Inactive)
REMARK    1  A    between atoms: C1_1  and  C4_4 
ROOT
HETATM    1  C1  UNL     1     -33.544   4.486   3.727  1.00 20.00    -0.068 C 
HETATM    2  C2  UNL     1     -33.343   3.383   4.157  1.00 20.00    -0.108 C 
HETATM    3  C6  UNL     1     -33.101   2.039   4.679  1.00 20.00     0.112 C 
ENDROOT
BRANCH   1   4
HETATM    4  C4  UNL     1     -33.786   5.821   3.210  1.00 20.00     0.129 C 
HETATM    5  C5  UNL     1     -35.083   6.544   3.732  1.00 20.00     0.016 C 
HETATM    6  C3  UNL     1     -34.094   7.672   4.099  1.00 20.00     0.182 C 
HETATM    7  C8  UNL     1     -35.755   5.951   4.976  1.00 20.00     0.021 C 
HETATM    8  C9  UNL     1     -36.130   6.940   2.696  1.00 20.00     0.021 C 
HETATM    9  O10 UNL     1     -32.961   6.780   3.938  1.00 20.00    -0.366 OA
HETATM   10  C7  UNL     1     -33.450   5.888   1.721  1.00 20.00     0.061 C 
ENDBRANCH   1   4
TORSDOF 1
ENDMDL
MODEL 8
REMARK VINA RESULT:       2.6      1.413      2.945
REMARK  1 active torsions:
REMARK  status: ('A' for Active; 'I' for Inactive)
REMARK    1  A    between atoms: C1_1  and  C4_4 
ROOT
HETATM    1  C1  UNL     1     -33.115   5.561   2.242  1.00 20.00    -0.068 C 
HETATM    2  C2  UNL     1     -32.432   5.091   1.373  1.00 20.00    -0.108 C 
HETATM    3  C6  UNL     1     -31.601   4.518   0.317  1.00 20.00     0.112 C 
ENDROOT
BRANCH   1   4
HETATM    4  C4  UNL     1     -33.940   6.129   3.293  1.00 20.00     0.129 C 
HETATM    5  C5  UNL     1     -33.574   7.590   3.752  1.00 20.00     0.016 C 
HETATM    6  C3  UNL     1     -35.063   7.869   3.456  1.00 20.00     0.182 C 
HETATM    7  C8  UNL     1     -32.650   8.395   2.830  1.00 20.00     0.021 C 
HETATM    8  C9  UNL     1     -33.177   7.787   5.211  1.00 20.00     0.021 C 
HETATM    9  O10 UNL     1     -35.185   6.626   2.716  1.00 20.00    -0.366 OA
HETATM   10  C7  UNL     1     -34.255   5.078   4.355  1.00 20.00     0.061 C 
ENDBRANCH   1   4
TORSDOF 1
ENDMDL
MODEL 9
REMARK VINA RESULT:       2.8      1.984      2.371
REMARK  1 active torsions:
REMARK  status: ('A' for Active; 'I' for Inactive)
REMARK    1  A    between atoms: C1_1  and  C4_4 
ROOT
HETATM    1  C1  UNL     1     -33.815   7.116   3.488  1.00 20.00    -0.068 C 
HETATM    2  C2  UNL     1     -34.616   6.350   3.950  1.00 20.00    -0.108 C 
HETATM    3  C6  UNL     1     -35.589   5.415   4.512  1.00 20.00     0.112 C 
ENDROOT
BRANCH   1   4
HETATM    4  C4  UNL     1     -32.847   8.043   2.928  1.00 20.00     0.129 C 
HETATM    5  C5  UNL     1     -32.052   7.539   1.666  1.00 20.00     0.016 C 
HETATM    6  C3  UNL     1     -32.562   8.854   1.037  1.00 20.00     0.182 C 
HETATM    7  C8  UNL     1     -32.608   6.307   0.941  1.00 20.00     0.021 C 
HETATM    8  C9  UNL     1     -30.534   7.448   1.785  1.00 20.00     0.021 C 
HETATM    9  O10 UNL     1     -33.540   9.022   2.097  1.00 20.00    -0.366 OA
HETATM   10  C7  UNL     1     -32.089   8.764   4.040  1.00 20.00     0.061 C 
ENDBRANCH   1   4
TORSDOF 1
ENDMDL
