MODEL 1
REMARK VINA RESULT:      -2.4      0.000      0.000
REMARK  3 active torsions:
REMARK  status: ('A' for Active; 'I' for Inactive)
REMARK    1  A    between atoms: C1_1  and  C2_2 
REMARK    2  A    between atoms: C4_4  and  C9_9 
REMARK    3  A    between atoms: C5_5  and  C9_9 
ROOT
HETATM    1  C2  UNL     1     -32.067   8.041   1.911  1.00 20.00    -0.004 C 
HETATM    2  C4  UNL     1     -33.148   7.353   2.311  1.00 20.00    -0.015 C 
ENDROOT
BRANCH   2   3
HETATM    3  C9  UNL     1     -33.413   6.984   3.747  1.00 20.00     0.073 C 
HETATM    4  C8  UNL     1     -33.743   8.214   4.585  1.00 20.00     0.022 C 
BRANCH   3   5
HETATM    5  C5  UNL     1     -34.574   5.993   3.805  1.00 20.00     0.130 C 
HETATM    6  C7  UNL     1     -34.209   4.531   3.892  1.00 20.00     0.091 C 
HETATM    7  O10 UNL     1     -35.754   6.343   3.748  1.00 20.00    -0.298 OA
ENDBRANCH   3   5
ENDBRANCH   2   3
BRANCH   1   8
HETATM    8  C1  UNL     1     -31.821   8.392   0.532  1.00 20.00    -0.005 C 
HETATM    9  C3  UNL     1     -32.176   9.572   0.001  1.00 20.00    -0.031 C 
HETATM   10  C6  UNL     1     -32.862  10.653   0.770  1.00 20.00     0.036 C 
ENDBRANCH   1   8
TORSDOF 3
ENDMDL
MODEL 2
REMARK VINA RESULT:      -1.9      1.116      1.389
REMARK  3 active torsions:
REMARK  status: ('A' for Active; 'I' for Inactive)
REMARK    1  A    between atoms: C1_1  and  C2_2 
REMARK    2  A    between atoms: C4_4  and  C9_9 
REMARK    3  A    between atoms: C5_5  and  C9_9 
ROOT
HETATM    1  C2  UNL     1     -32.731   7.707   2.447  1.00 20.00    -0.004 C 
HETATM    2  C4  UNL     1     -33.380   6.569   2.739  1.00 20.00    -0.015 C 
ENDROOT
BRANCH   2   3
HETATM    3  C9  UNL     1     -34.441   6.468   3.802  1.00 20.00     0.073 C 
HETATM    4  C8  UNL     1     -35.776   7.015   3.309  1.00 20.00     0.022 C 
BRANCH   3   5
HETATM    5  C5  UNL     1     -34.603   5.005   4.213  1.00 20.00     0.130 C 
HETATM    6  C7  UNL     1     -33.493   4.065   3.812  1.00 20.00     0.091 C 
HETATM    7  O10 UNL     1     -35.597   4.587   4.809  1.00 20.00    -0.298 OA
ENDBRANCH   3   5
ENDBRANCH   2   3
BRANCH   1   8
HETATM    8  C1  UNL     1     -31.714   7.796   1.424  1.00 20.00    -0.005 C 
HETATM    9  C3  UNL     1     -31.658   8.796   0.533  1.00 20.00    -0.031 C 
HETATM   10  C6  UNL     1     -32.632   9.927   0.494  1.00 20.00     0.036 C 
ENDBRANCH   1   8
TORSDOF 3
ENDMDL
MODEL 3
REMARK VINA RESULT:      -1.7      2.038      5.065
REMARK  3 active torsions:
REMARK  status: ('A' for Active; 'I' for Inactive)
REMARK    1  A    between atoms: C1_1  and  C2_2 
REMARK    2  A    between atoms: C4_4  and  C9_9 
REMARK    3  A    between atoms: C5_5  and  C9_9 
ROOT
HETATM    1  C2  UNL     1     -33.776   6.799   2.936  1.00 20.00    -0.004 C 
HETATM    2  C4  UNL     1     -33.208   8.008   2.818  1.00 20.00    -0.015 C 
ENDROOT
BRANCH   2   3
HETATM    3  C9  UNL     1     -32.055   8.299   1.895  1.00 20.00     0.073 C 
HETATM    4  C8  UNL     1     -31.632   7.052   1.125  1.00 20.00     0.022 C 
BRANCH   3   5
HETATM    5  C5  UNL     1     -32.459   9.398   0.914  1.00 20.00     0.130 C 
HETATM    6  C7  UNL     1     -32.333   9.072  -0.554  1.00 20.00     0.091 C 
HETATM    7  O10 UNL     1     -32.835  10.512   1.281  1.00 20.00    -0.298 OA
ENDBRANCH   3   5
ENDBRANCH   2   3
BRANCH   1   8
HETATM    8  C1  UNL     1     -34.883   6.529   3.824  1.00 20.00    -0.005 C 
HETATM    9  C3  UNL     1     -35.076   5.341   4.415  1.00 20.00    -0.031 C 
HETATM   10  C6  UNL     1     -34.175   4.166   4.226  1.00 20.00     0.036 C 
ENDBRANCH   1   8
TORSDOF 3
ENDMDL
MODEL 4
REMARK VINA RESULT:      -1.7      2.111      5.133
REMARK  3 active torsions:
REMARK  status: ('A' for Active; 'I' for Inactive)
REMARK    1  A    between atoms: C1_1  and  C2_2 
REMARK    2  A    between atoms: C4_4  and  C9_9 
REMARK    3  A    between atoms: C5_5  and  C9_9 
ROOT
HETATM    1  C2  UNL     1     -33.693   6.820   2.936  1.00 20.00    -0.004 C 
HETATM    2  C4  UNL     1     -33.185   8.034   2.674  1.00 20.00    -0.015 C 
ENDROOT
BRANCH   2   3
HETATM    3  C9  UNL     1     -31.998   8.261   1.776  1.00 20.00     0.073 C 
HETATM    4  C8  UNL     1     -31.533   6.961   1.129  1.00 20.00     0.022 C 
BRANCH   3   5
HETATM    5  C5  UNL     1     -32.372   9.271   0.692  1.00 20.00     0.130 C 
HETATM    6  C7  UNL     1     -32.799  10.639   1.165  1.00 20.00     0.091 C 
HETATM    7  O10 UNL     1     -32.369   8.993  -0.508  1.00 20.00    -0.298 OA
ENDBRANCH   3   5
ENDBRANCH   2   3
BRANCH   1   8
HETATM    8  C1  UNL     1     -34.834   6.611   3.798  1.00 20.00    -0.005 C 
HETATM    9  C3  UNL     1     -35.099   5.437   4.391  1.00 20.00    -0.031 C 
HETATM   10  C6  UNL     1     -34.252   4.218   4.230  1.00 20.00     0.036 C 
ENDBRANCH   1   8
TORSDOF 3
ENDMDL
MODEL 5
REMARK VINA RESULT:      -1.6      1.499      2.093
REMARK  3 active torsions:
REMARK  status: ('A' for Active; 'I' for Inactive)
REMARK    1  A    between atoms: C1_1  and  C2_2 
REMARK    2  A    between atoms: C4_4  and  C9_9 
REMARK    3  A    between atoms: C5_5  and  C9_9 
ROOT
HETATM    1  C2  UNL     1     -32.207   8.021   1.345  1.00 20.00    -0.004 C 
HETATM    2  C4  UNL     1     -33.081   7.371   2.128  1.00 20.00    -0.015 C 
ENDROOT
BRANCH   2   3
HETATM    3  C9  UNL     1     -33.361   5.895   2.015  1.00 20.00     0.073 C 
HETATM    4  C8  UNL     1     -32.086   5.108   1.734  1.00 20.00     0.022 C 
BRANCH   3   5
HETATM    5  C5  UNL     1     -33.997   5.402   3.314  1.00 20.00     0.130 C 
HETATM    6  C7  UNL     1     -34.970   6.339   3.986  1.00 20.00     0.091 C 
HETATM    7  O10 UNL     1     -33.715   4.317   3.824  1.00 20.00    -0.298 OA
ENDBRANCH   3   5
ENDBRANCH   2   3
BRANCH   1   8
HETATM    8  C1  UNL     1     -31.944   9.437   1.460  1.00 20.00    -0.005 C 
HETATM    9  C3  UNL     1     -32.266  10.322   0.506  1.00 20.00    -0.031 C 
HETATM   10  C6  UNL     1     -32.930   9.951  -0.778  1.00 20.00     0.036 C 
ENDBRANCH   1   8
TORSDOF 3
ENDMDL
MODEL 6
REMARK VINA RESULT:      -1.4      0.819      1.846
REMARK  3 active torsions:
REMARK  status: ('A' for Active; 'I' for Inactive)
REMARK    1  A    between atoms: C1_1  and  C2_2 
REMARK    2  A    between atoms: C4_4  and  C9_9 
REMARK    3  A    between atoms: C5_5  and  C9_9 
ROOT
HETATM    1  C2  UNL     1     -32.731   7.361   1.760  1.00 20.00    -0.004 C 
HETATM    2  C4  UNL     1     -32.744   6.157   2.352  1.00 20.00    -0.015 C 
ENDROOT
BRANCH   2   3
HETATM    3  C9  UNL     1     -33.990   5.512   2.897  1.00 20.00     0.073 C 
HETATM    4  C8  UNL     1     -33.656   4.323   3.792  1.00 20.00     0.022 C 
BRANCH   3   5
HETATM    5  C5  UNL     1     -34.787   6.547   3.690  1.00 20.00     0.130 C 
HETATM    6  C7  UNL     1     -33.987   7.574   4.452  1.00 20.00     0.091 C 
HETATM    7  O10 UNL     1     -36.018   6.538   3.748  1.00 20.00    -0.298 OA
ENDBRANCH   3   5
ENDBRANCH   2   3
BRANCH   1   8
HETATM    8  C1  UNL     1     -31.530   7.972   1.239  1.00 20.00    -0.005 C 
HETATM    9  C3  UNL     1     -31.531   9.132   0.565  1.00 20.00    -0.031 C 
HETATM   10  C6  UNL     1     -32.765   9.921   0.277  1.00 20.00     0.036 C 
ENDBRANCH   1   8
TORSDOF 3
ENDMDL
MODEL 7
REMARK VINA RESULT:      -1.2      2.114      5.119
REMARK  3 active torsions:
REMARK  status: ('A' for Active; 'I' for Inactive)
REMARK    1  A    between atoms: C1_1  and  C2_2 
REMARK    2  A    between atoms: C4_4  and  C9_9 
REMARK    3  A    between atoms: C5_5  and  C9_9 
ROOT
HETATM    1  C2  UNL     1     -33.877   5.084   4.027  1.00 20.00    -0.004 C 
HETATM    2  C4  UNL     1     -33.791   5.959   3.013  1.00 20.00    -0.015 C 
ENDROOT
BRANCH   2   3
HETATM    3  C9  UNL     1     -33.771   7.453   3.204  1.00 20.00     0.073 C 
HETATM    4  C8  UNL     1     -34.034   7.831   4.657  1.00 20.00     0.022 C 
BRANCH   3   5
HETATM    5  C5  UNL     1     -32.411   7.997   2.768  1.00 20.00     0.130 C 
HETATM    6  C7  UNL     1     -31.913   7.558   1.413  1.00 20.00     0.091 C 
HETATM    7  O10 UNL     1     -31.725   8.728   3.483  1.00 20.00    -0.298 OA
ENDBRANCH   3   5
ENDBRANCH   2   3
BRANCH   1   8
HETATM    8  C1  UNL     1     -33.895   3.652   3.835  1.00 20.00    -0.005 C 
HETATM    9  C3  UNL     1     -33.341   2.790   4.699  1.00 20.00    -0.031 C 
HETATM   10  C6  UNL     1     -32.645   3.206   5.953  1.00 20.00     0.036 C 
ENDBRANCH   1   8
TORSDOF 3
ENDMDL
MODEL 8
REMARK VINA RESULT:      -1.0      2.364      4.748
REMARK  3 active torsions:
REMARK  status: ('A' for Active; 'I' for Inactive)
REMARK    1  A    between atoms: C1_1  and  C2_2 
REMARK    2  A    between atoms: C4_4  and  C9_9 
REMARK    3  A    between atoms: C5_5  and  C9_9 
ROOT
HETATM    1  C2  UNL     1     -34.293   6.965   4.076  1.00 20.00    -0.004 C 
HETATM    2  C4  UNL     1     -33.915   7.274   2.826  1.00 20.00    -0.015 C 
ENDROOT
BRANCH   2   3
HETATM    3  C9  UNL     1     -32.803   8.239   2.509  1.00 20.00     0.073 C 
HETATM    4  C8  UNL     1     -31.970   8.552   3.746  1.00 20.00     0.022 C 
BRANCH   3   5
HETATM    5  C5  UNL     1     -31.911   7.638   1.423  1.00 20.00     0.130 C 
HETATM    6  C7  UNL     1     -31.926   6.135   1.293  1.00 20.00     0.091 C 
HETATM    7  O10 UNL     1     -31.181   8.324   0.707  1.00 20.00    -0.298 OA
ENDBRANCH   3   5
ENDBRANCH   2   3
BRANCH   1   8
HETATM    8  C1  UNL     1     -35.361   6.038   4.372  1.00 20.00    -0.005 C 
HETATM    9  C3  UNL     1     -35.176   4.712   4.464  1.00 20.00    -0.031 C 
HETATM   10  C6  UNL     1     -33.854   4.045   4.274  1.00 20.00     0.036 C 
ENDBRANCH   1   8
TORSDOF 3
ENDMDL
MODEL 9
REMARK VINA RESULT:      -0.5      1.933      4.991
REMARK  3 active torsions:
REMARK  status: ('A' for Active; 'I' for Inactive)
REMARK    1  A    between atoms: C1_1  and  C2_2 
REMARK    2  A    between atoms: C4_4  and  C9_9 
REMARK    3  A    between atoms: C5_5  and  C9_9 
ROOT
HETATM    1  C2  UNL     1     -33.953   6.835   3.464  1.00 20.00    -0.004 C 
HETATM    2  C4  UNL     1     -33.325   6.174   2.479  1.00 20.00    -0.015 C 
ENDROOT
BRANCH   2   3
HETATM    3  C9  UNL     1     -32.001   6.604   1.903  1.00 20.00     0.073 C 
HETATM    4  C8  UNL     1     -31.836   6.117   0.468  1.00 20.00     0.022 C 
BRANCH   3   5
HETATM    5  C5  UNL     1     -31.904   8.128   1.945  1.00 20.00     0.130 C 
HETATM    6  C7  UNL     1     -32.299   8.864   0.689  1.00 20.00     0.091 C 
HETATM    7  O10 UNL     1     -31.492   8.742   2.930  1.00 20.00    -0.298 OA
ENDBRANCH   3   5
ENDBRANCH   2   3
BRANCH   1   8
HETATM    8  C1  UNL     1     -35.222   6.416   4.012  1.00 20.00    -0.005 C 
HETATM    9  C3  UNL     1     -35.430   5.196   4.529  1.00 20.00    -0.031 C 
HETATM   10  C6  UNL     1     -34.381   4.136   4.599  1.00 20.00     0.036 C 
ENDBRANCH   1   8
TORSDOF 3
ENDMDL
