MODEL 1
REMARK VINA RESULT:      -1.0      0.000      0.000
REMARK  0 active torsions:
REMARK  status: ('A' for Active; 'I' for Inactive)
ROOT
HETATM    1  C1  UNL     1     -32.866   7.194   2.545  1.00 20.00     0.007 C 
HETATM    2  C2  UNL     1     -33.795   5.287   3.434  1.00 20.00     0.226 C 
HETATM    3  C3  UNL     1     -32.128   7.924   1.704  1.00 20.00     0.038 C 
HETATM    4  C4  UNL     1     -33.778   7.706   3.627  1.00 20.00     0.043 C 
HETATM    5  C5  UNL     1     -34.557   6.440   4.064  1.00 20.00     0.083 C 
HETATM    6  C6  UNL     1     -32.985   8.296   4.794  1.00 20.00     0.017 C 
HETATM    7  C7  UNL     1     -35.990   6.441   3.542  1.00 20.00     0.020 C 
HETATM    8  N8  UNL     1     -32.891   5.831   2.539  1.00 20.00    -0.331 N 
HETATM    9  O9  UNL     1     -33.995   4.102   3.654  1.00 20.00    -0.273 OA
HETATM   10  H20 UNL     1     -32.299   5.274   1.932  1.00 20.00     0.168 HD
ENDROOT
TORSDOF 0
ENDMDL
MODEL 2
REMARK VINA RESULT:      -1.0      1.631      2.638
REMARK  0 active torsions:
REMARK  status: ('A' for Active; 'I' for Inactive)
ROOT
HETATM    1  C1  UNL     1     -32.753   7.069   2.454  1.00 20.00     0.007 C 
HETATM    2  C2  UNL     1     -34.574   6.285   3.621  1.00 20.00     0.226 C 
HETATM    3  C3  UNL     1     -31.817   7.948   2.083  1.00 20.00     0.038 C 
HETATM    4  C4  UNL     1     -32.866   5.632   2.024  1.00 20.00     0.043 C 
HETATM    5  C5  UNL     1     -33.947   5.060   2.975  1.00 20.00     0.083 C 
HETATM    6  C6  UNL     1     -33.301   5.517   0.563  1.00 20.00     0.017 C 
HETATM    7  C7  UNL     1     -33.346   4.173   4.059  1.00 20.00     0.020 C 
HETATM    8  N8  UNL     1     -33.776   7.370   3.303  1.00 20.00    -0.331 N 
HETATM    9  O9  UNL     1     -35.569   6.281   4.330  1.00 20.00    -0.273 OA
HETATM   10  H20 UNL     1     -33.932   8.305   3.665  1.00 20.00     0.168 HD
ENDROOT
TORSDOF 0
ENDMDL
MODEL 3
REMARK VINA RESULT:      -0.8      1.576      3.115
REMARK  0 active torsions:
REMARK  status: ('A' for Active; 'I' for Inactive)
ROOT
HETATM    1  C1  UNL     1     -33.777   5.217   3.503  1.00 20.00     0.007 C 
HETATM    2  C2  UNL     1     -32.872   7.047   2.441  1.00 20.00     0.226 C 
HETATM    3  C3  UNL     1     -33.906   3.930   3.835  1.00 20.00     0.038 C 
HETATM    4  C4  UNL     1     -34.537   6.382   4.076  1.00 20.00     0.043 C 
HETATM    5  C5  UNL     1     -33.775   7.612   3.525  1.00 20.00     0.083 C 
HETATM    6  C6  UNL     1     -35.994   6.382   3.611  1.00 20.00     0.017 C 
HETATM    7  C7  UNL     1     -32.919   8.282   4.594  1.00 20.00     0.020 C 
HETATM    8  N8  UNL     1     -32.904   5.669   2.556  1.00 20.00    -0.331 N 
HETATM    9  O9  UNL     1     -32.208   7.708   1.656  1.00 20.00    -0.273 OA
HETATM   10  H20 UNL     1     -32.334   5.046   1.994  1.00 20.00     0.168 HD
ENDROOT
TORSDOF 0
ENDMDL
MODEL 4
REMARK VINA RESULT:      -0.8      2.327      3.762
REMARK  0 active torsions:
REMARK  status: ('A' for Active; 'I' for Inactive)
ROOT
HETATM    1  C1  UNL     1     -33.880   6.903   3.183  1.00 20.00     0.007 C 
HETATM    2  C2  UNL     1     -32.047   8.291   3.264  1.00 20.00     0.226 C 
HETATM    3  C3  UNL     1     -35.013   6.339   3.610  1.00 20.00     0.038 C 
HETATM    4  C4  UNL     1     -33.227   6.720   1.840  1.00 20.00     0.043 C 
HETATM    5  C5  UNL     1     -32.131   7.815   1.824  1.00 20.00     0.083 C 
HETATM    6  C6  UNL     1     -32.614   5.325   1.702  1.00 20.00     0.017 C 
HETATM    7  C7  UNL     1     -32.509   8.989   0.927  1.00 20.00     0.020 C 
HETATM    8  N8  UNL     1     -33.129   7.754   3.939  1.00 20.00    -0.331 N 
HETATM    9  O9  UNL     1     -31.201   9.051   3.711  1.00 20.00    -0.273 OA
HETATM   10  H20 UNL     1     -33.350   7.969   4.905  1.00 20.00     0.168 HD
ENDROOT
TORSDOF 0
ENDMDL
MODEL 5
REMARK VINA RESULT:      -0.7      2.102      3.457
REMARK  0 active torsions:
REMARK  status: ('A' for Active; 'I' for Inactive)
ROOT
HETATM    1  C1  UNL     1     -34.343   6.353   3.459  1.00 20.00     0.007 C 
HETATM    2  C2  UNL     1     -32.511   7.039   2.247  1.00 20.00     0.226 C 
HETATM    3  C3  UNL     1     -35.432   6.489   4.221  1.00 20.00     0.038 C 
HETATM    4  C4  UNL     1     -33.815   5.083   2.851  1.00 20.00     0.043 C 
HETATM    5  C5  UNL     1     -32.726   5.583   1.869  1.00 20.00     0.083 C 
HETATM    6  C6  UNL     1     -33.216   4.160   3.914  1.00 20.00     0.017 C 
HETATM    7  C7  UNL     1     -33.185   5.504   0.417  1.00 20.00     0.020 C 
HETATM    8  N8  UNL     1     -33.527   7.392   3.118  1.00 20.00    -0.331 N 
HETATM    9  O9  UNL     1     -31.628   7.762   1.810  1.00 20.00    -0.273 OA
HETATM   10  H20 UNL     1     -33.659   8.332   3.474  1.00 20.00     0.168 HD
ENDROOT
TORSDOF 0
ENDMDL
MODEL 6
REMARK VINA RESULT:       0.5      1.672      2.765
REMARK  0 active torsions:
REMARK  status: ('A' for Active; 'I' for Inactive)
ROOT
HETATM    1  C1  UNL     1     -32.171   8.262   3.202  1.00 20.00     0.007 C 
HETATM    2  C2  UNL     1     -33.873   6.726   3.018  1.00 20.00     0.226 C 
HETATM    3  C3  UNL     1     -31.353   9.121   3.817  1.00 20.00     0.038 C 
HETATM    4  C4  UNL     1     -32.110   7.825   1.764  1.00 20.00     0.043 C 
HETATM    5  C5  UNL     1     -33.106   6.640   1.709  1.00 20.00     0.083 C 
HETATM    6  C6  UNL     1     -32.538   8.948   0.819  1.00 20.00     0.017 C 
HETATM    7  C7  UNL     1     -32.392   5.295   1.633  1.00 20.00     0.020 C 
HETATM    8  N8  UNL     1     -33.218   7.643   3.819  1.00 20.00    -0.331 N 
HETATM    9  O9  UNL     1     -34.856   6.060   3.308  1.00 20.00    -0.273 OA
HETATM   10  H20 UNL     1     -33.484   7.842   4.778  1.00 20.00     0.168 HD
ENDROOT
TORSDOF 0
ENDMDL
MODEL 7
REMARK VINA RESULT:       1.5      2.084      2.580
REMARK  0 active torsions:
REMARK  status: ('A' for Active; 'I' for Inactive)
ROOT
HETATM    1  C1  UNL     1     -32.364   7.889   1.788  1.00 20.00     0.007 C 
HETATM    2  C2  UNL     1     -31.728   5.697   1.503  1.00 20.00     0.226 C 
HETATM    3  C3  UNL     1     -32.236   9.219   1.756  1.00 20.00     0.038 C 
HETATM    4  C4  UNL     1     -33.598   7.106   2.144  1.00 20.00     0.043 C 
HETATM    5  C5  UNL     1     -33.229   5.657   1.737  1.00 20.00     0.083 C 
HETATM    6  C6  UNL     1     -33.907   7.197   3.638  1.00 20.00     0.017 C 
HETATM    7  C7  UNL     1     -33.928   5.228   0.452  1.00 20.00     0.020 C 
HETATM    8  N8  UNL     1     -31.348   7.027   1.495  1.00 20.00    -0.331 N 
HETATM    9  O9  UNL     1     -31.016   4.724   1.306  1.00 20.00    -0.273 OA
HETATM   10  H20 UNL     1     -30.405   7.340   1.291  1.00 20.00     0.168 HD
ENDROOT
TORSDOF 0
ENDMDL
MODEL 8
REMARK VINA RESULT:       1.8      1.887      3.168
REMARK  0 active torsions:
REMARK  status: ('A' for Active; 'I' for Inactive)
ROOT
HETATM    1  C1  UNL     1     -33.395   7.065   2.869  1.00 20.00     0.007 C 
HETATM    2  C2  UNL     1     -33.400   5.576   1.116  1.00 20.00     0.226 C 
HETATM    3  C3  UNL     1     -33.841   7.652   3.984  1.00 20.00     0.038 C 
HETATM    4  C4  UNL     1     -32.091   7.330   2.166  1.00 20.00     0.043 C 
HETATM    5  C5  UNL     1     -32.006   6.182   1.130  1.00 20.00     0.083 C 
HETATM    6  C6  UNL     1     -32.095   8.695   1.476  1.00 20.00     0.017 C 
HETATM    7  C7  UNL     1     -30.998   5.114   1.540  1.00 20.00     0.020 C 
HETATM    8  N8  UNL     1     -34.091   6.111   2.189  1.00 20.00    -0.331 N 
HETATM    9  O9  UNL     1     -33.799   4.734   0.326  1.00 20.00    -0.273 OA
HETATM   10  H20 UNL     1     -35.028   5.824   2.451  1.00 20.00     0.168 HD
ENDROOT
TORSDOF 0
ENDMDL
MODEL 9
REMARK VINA RESULT:       1.8      2.706      3.507
REMARK  0 active torsions:
REMARK  status: ('A' for Active; 'I' for Inactive)
ROOT
HETATM    1  C1  UNL     1     -31.867   5.621   1.416  1.00 20.00     0.007 C 
HETATM    2  C2  UNL     1     -32.346   7.819   1.901  1.00 20.00     0.226 C 
HETATM    3  C3  UNL     1     -31.098   4.560   1.157  1.00 20.00     0.038 C 
HETATM    4  C4  UNL     1     -33.359   5.633   1.609  1.00 20.00     0.043 C 
HETATM    5  C5  UNL     1     -33.638   7.058   2.148  1.00 20.00     0.083 C 
HETATM    6  C6  UNL     1     -34.096   5.388   0.291  1.00 20.00     0.017 C 
HETATM    7  C7  UNL     1     -33.942   7.056   3.642  1.00 20.00     0.020 C 
HETATM    8  N8  UNL     1     -31.385   6.891   1.541  1.00 20.00    -0.331 N 
HETATM    9  O9  UNL     1     -32.193   9.022   2.049  1.00 20.00    -0.273 OA
HETATM   10  H20 UNL     1     -30.410   7.125   1.384  1.00 20.00     0.168 HD
ENDROOT
TORSDOF 0
ENDMDL
