MODEL 1
REMARK VINA RESULT:      -1.8      0.000      0.000
REMARK  2 active torsions:
REMARK  status: ('A' for Active; 'I' for Inactive)
REMARK    1  A    between atoms: C3_3  and  C6_6 
REMARK    2  A    between atoms: C3_3  and  O10_10 
ROOT
HETATM    1  C1  UNL     1     -33.852   6.292   2.341  1.00 20.00    -0.010 C 
HETATM    2  C2  UNL     1     -32.889   7.182   2.610  1.00 20.00    -0.087 C 
HETATM    3  C4  UNL     1     -33.129   7.880   3.911  1.00 20.00     0.034 C 
HETATM    4  C5  UNL     1     -34.569   7.485   4.257  1.00 20.00     0.023 C 
HETATM    5  C6  UNL     1     -34.890   6.252   3.411  1.00 20.00     0.108 C 
HETATM    6  C7  UNL     1     -31.686   7.476   1.788  1.00 20.00     0.043 C 
ENDROOT
BRANCH   5   7
HETATM    7  C3  UNL     1     -34.717   4.979   4.178  1.00 20.00     0.266 C 
HETATM    8  O9  UNL     1     -35.496   4.584   5.036  1.00 20.00    -0.265 OA
BRANCH   7   9
HETATM    9  O10 UNL     1     -33.576   4.352   3.770  1.00 20.00    -0.326 OA
HETATM   10  C8  UNL     1     -33.268   3.133   4.451  1.00 20.00     0.213 C 
ENDBRANCH   7   9
ENDBRANCH   5   7
TORSDOF 2
ENDMDL
MODEL 2
REMARK VINA RESULT:      -1.0      2.126      3.585
REMARK  2 active torsions:
REMARK  status: ('A' for Active; 'I' for Inactive)
REMARK    1  A    between atoms: C3_3  and  C6_6 
REMARK    2  A    between atoms: C3_3  and  O10_10 
ROOT
HETATM    1  C1  UNL     1     -32.832   9.244   1.917  1.00 20.00    -0.010 C 
HETATM    2  C2  UNL     1     -32.425   9.419   0.653  1.00 20.00    -0.087 C 
HETATM    3  C4  UNL     1     -31.456   8.360   0.233  1.00 20.00     0.034 C 
HETATM    4  C5  UNL     1     -31.098   7.671   1.554  1.00 20.00     0.023 C 
HETATM    5  C6  UNL     1     -32.201   8.048   2.545  1.00 20.00     0.108 C 
HETATM    6  C7  UNL     1     -32.858  10.485  -0.287  1.00 20.00     0.043 C 
ENDROOT
BRANCH   5   7
HETATM    7  C3  UNL     1     -33.244   6.982   2.663  1.00 20.00     0.266 C 
HETATM    8  O9  UNL     1     -33.287   5.984   1.956  1.00 20.00    -0.265 OA
BRANCH   7   9
HETATM    9  O10 UNL     1     -34.112   7.302   3.665  1.00 20.00    -0.326 OA
HETATM   10  C8  UNL     1     -35.115   6.321   3.946  1.00 20.00     0.213 C 
ENDBRANCH   7   9
ENDBRANCH   5   7
TORSDOF 2
ENDMDL
MODEL 3
REMARK VINA RESULT:      -1.0      2.615      4.512
REMARK  2 active torsions:
REMARK  status: ('A' for Active; 'I' for Inactive)
REMARK    1  A    between atoms: C3_3  and  C6_6 
REMARK    2  A    between atoms: C3_3  and  O10_10 
ROOT
HETATM    1  C1  UNL     1     -34.228   7.231   2.512  1.00 20.00    -0.010 C 
HETATM    2  C2  UNL     1     -34.283   6.179   3.338  1.00 20.00    -0.087 C 
HETATM    3  C4  UNL     1     -33.213   5.179   3.030  1.00 20.00     0.034 C 
HETATM    4  C5  UNL     1     -32.674   5.651   1.676  1.00 20.00     0.023 C 
HETATM    5  C6  UNL     1     -33.121   7.106   1.522  1.00 20.00     0.108 C 
HETATM    6  C7  UNL     1     -35.234   5.969   4.459  1.00 20.00     0.043 C 
ENDROOT
BRANCH   5   7
HETATM    7  C3  UNL     1     -32.044   8.072   1.905  1.00 20.00     0.266 C 
HETATM    8  O9  UNL     1     -31.662   8.252   3.054  1.00 20.00    -0.265 OA
BRANCH   7   9
HETATM    9  O10 UNL     1     -31.575   8.699   0.788  1.00 20.00    -0.326 OA
HETATM   10  C8  UNL     1     -32.378   9.783   0.309  1.00 20.00     0.213 C 
ENDBRANCH   7   9
ENDBRANCH   5   7
TORSDOF 2
ENDMDL
MODEL 4
REMARK VINA RESULT:      -0.8      1.919      2.863
REMARK  2 active torsions:
REMARK  status: ('A' for Active; 'I' for Inactive)
REMARK    1  A    between atoms: C3_3  and  C6_6 
REMARK    2  A    between atoms: C3_3  and  O10_10 
ROOT
HETATM    1  C1  UNL     1     -32.235   8.393   2.460  1.00 20.00    -0.010 C 
HETATM    2  C2  UNL     1     -32.427   8.477   1.138  1.00 20.00    -0.087 C 
HETATM    3  C4  UNL     1     -32.981   7.205   0.577  1.00 20.00     0.034 C 
HETATM    4  C5  UNL     1     -32.815   6.214   1.734  1.00 20.00     0.023 C 
HETATM    5  C6  UNL     1     -32.625   7.057   2.996  1.00 20.00     0.108 C 
HETATM    6  C7  UNL     1     -32.175   9.657   0.270  1.00 20.00     0.043 C 
ENDROOT
BRANCH   5   7
HETATM    7  C3  UNL     1     -33.898   7.219   3.764  1.00 20.00     0.266 C 
HETATM    8  O9  UNL     1     -34.080   8.077   4.618  1.00 20.00    -0.265 OA
BRANCH   7   9
HETATM    9  O10 UNL     1     -34.796   6.273   3.364  1.00 20.00    -0.326 OA
HETATM   10  C8  UNL     1     -35.297   5.423   4.399  1.00 20.00     0.213 C 
ENDBRANCH   7   9
ENDBRANCH   5   7
TORSDOF 2
ENDMDL
MODEL 5
REMARK VINA RESULT:      -0.7      2.847      4.537
REMARK  2 active torsions:
REMARK  status: ('A' for Active; 'I' for Inactive)
REMARK    1  A    between atoms: C3_3  and  C6_6 
REMARK    2  A    between atoms: C3_3  and  O10_10 
ROOT
HETATM    1  C1  UNL     1     -33.333   6.367   2.642  1.00 20.00    -0.010 C 
HETATM    2  C2  UNL     1     -34.198   6.715   3.603  1.00 20.00    -0.087 C 
HETATM    3  C4  UNL     1     -33.849   8.038   4.208  1.00 20.00     0.034 C 
HETATM    4  C5  UNL     1     -32.442   8.309   3.665  1.00 20.00     0.023 C 
HETATM    5  C6  UNL     1     -32.268   7.393   2.452  1.00 20.00     0.108 C 
HETATM    6  C7  UNL     1     -35.394   5.955   4.049  1.00 20.00     0.043 C 
ENDROOT
BRANCH   5   7
HETATM    7  C3  UNL     1     -32.535   8.105   1.163  1.00 20.00     0.266 C 
HETATM    8  O9  UNL     1     -32.923   7.553   0.142  1.00 20.00    -0.265 OA
BRANCH   7   9
HETATM    9  O10 UNL     1     -32.279   9.436   1.316  1.00 20.00    -0.326 OA
HETATM   10  C8  UNL     1     -32.521  10.245   0.162  1.00 20.00     0.213 C 
ENDBRANCH   7   9
ENDBRANCH   5   7
TORSDOF 2
ENDMDL
MODEL 6
REMARK VINA RESULT:      -0.5      1.782      2.624
REMARK  2 active torsions:
REMARK  status: ('A' for Active; 'I' for Inactive)
REMARK    1  A    between atoms: C3_3  and  C6_6 
REMARK    2  A    between atoms: C3_3  and  O10_10 
ROOT
HETATM    1  C1  UNL     1     -33.470   6.154   1.742  1.00 20.00    -0.010 C 
HETATM    2  C2  UNL     1     -32.171   6.004   1.458  1.00 20.00    -0.087 C 
HETATM    3  C4  UNL     1     -31.381   7.221   1.824  1.00 20.00     0.034 C 
HETATM    4  C5  UNL     1     -32.464   8.268   2.105  1.00 20.00     0.023 C 
HETATM    5  C6  UNL     1     -33.760   7.490   2.339  1.00 20.00     0.108 C 
HETATM    6  C7  UNL     1     -31.513   4.804   0.881  1.00 20.00     0.043 C 
ENDROOT
BRANCH   5   7
HETATM    7  C3  UNL     1     -34.049   7.296   3.794  1.00 20.00     0.266 C 
HETATM    8  O9  UNL     1     -33.347   7.734   4.696  1.00 20.00    -0.265 OA
BRANCH   7   9
HETATM    9  O10 UNL     1     -35.194   6.569   3.939  1.00 20.00    -0.326 OA
HETATM   10  C8  UNL     1     -35.017   5.229   4.407  1.00 20.00     0.213 C 
ENDBRANCH   7   9
ENDBRANCH   5   7
TORSDOF 2
ENDMDL
MODEL 7
REMARK VINA RESULT:      -0.5      1.041      1.536
REMARK  2 active torsions:
REMARK  status: ('A' for Active; 'I' for Inactive)
REMARK    1  A    between atoms: C3_3  and  C6_6 
REMARK    2  A    between atoms: C3_3  and  O10_10 
ROOT
HETATM    1  C1  UNL     1     -33.299   6.487   1.769  1.00 20.00    -0.010 C 
HETATM    2  C2  UNL     1     -32.787   7.632   2.237  1.00 20.00    -0.087 C 
HETATM    3  C4  UNL     1     -33.181   7.872   3.660  1.00 20.00     0.034 C 
HETATM    4  C5  UNL     1     -34.275   6.827   3.900  1.00 20.00     0.023 C 
HETATM    5  C6  UNL     1     -34.116   5.780   2.796  1.00 20.00     0.108 C 
HETATM    6  C7  UNL     1     -31.907   8.583   1.509  1.00 20.00     0.043 C 
ENDROOT
BRANCH   5   7
HETATM    7  C3  UNL     1     -33.346   4.584   3.259  1.00 20.00     0.266 C 
HETATM    8  O9  UNL     1     -32.247   4.265   2.824  1.00 20.00    -0.265 OA
BRANCH   7   9
HETATM    9  O10 UNL     1     -34.057   3.928   4.221  1.00 20.00    -0.326 OA
HETATM   10  C8  UNL     1     -33.343   2.907   4.924  1.00 20.00     0.213 C 
ENDBRANCH   7   9
ENDBRANCH   5   7
TORSDOF 2
ENDMDL
MODEL 8
REMARK VINA RESULT:       0.0      2.322      4.169
REMARK  2 active torsions:
REMARK  status: ('A' for Active; 'I' for Inactive)
REMARK    1  A    between atoms: C3_3  and  C6_6 
REMARK    2  A    between atoms: C3_3  and  O10_10 
ROOT
HETATM    1  C1  UNL     1     -32.843   5.956   3.589  1.00 20.00    -0.010 C 
HETATM    2  C2  UNL     1     -34.042   5.413   3.834  1.00 20.00    -0.087 C 
HETATM    3  C4  UNL     1     -35.134   6.434   3.776  1.00 20.00     0.034 C 
HETATM    4  C5  UNL     1     -34.368   7.761   3.752  1.00 20.00     0.023 C 
HETATM    5  C6  UNL     1     -32.937   7.422   3.331  1.00 20.00     0.108 C 
HETATM    6  C7  UNL     1     -34.338   3.983   4.106  1.00 20.00     0.043 C 
ENDROOT
BRANCH   5   7
HETATM    7  C3  UNL     1     -32.707   7.653   1.872  1.00 20.00     0.266 C 
HETATM    8  O9  UNL     1     -32.840   6.792   1.012  1.00 20.00    -0.265 OA
BRANCH   7   9
HETATM    9  O10 UNL     1     -32.334   8.949   1.668  1.00 20.00    -0.326 OA
HETATM   10  C8  UNL     1     -32.392   9.400   0.311  1.00 20.00     0.213 C 
ENDBRANCH   7   9
ENDBRANCH   5   7
TORSDOF 2
ENDMDL
MODEL 9
REMARK VINA RESULT:       0.1      3.344      4.806
REMARK  2 active torsions:
REMARK  status: ('A' for Active; 'I' for Inactive)
REMARK    1  A    between atoms: C3_3  and  C6_6 
REMARK    2  A    between atoms: C3_3  and  O10_10 
ROOT
HETATM    1  C1  UNL     1     -31.734   7.049   1.420  1.00 20.00    -0.010 C 
HETATM    2  C2  UNL     1     -32.628   6.064   1.574  1.00 20.00    -0.087 C 
HETATM    3  C4  UNL     1     -33.691   6.431   2.561  1.00 20.00     0.034 C 
HETATM    4  C5  UNL     1     -33.132   7.698   3.218  1.00 20.00     0.023 C 
HETATM    5  C6  UNL     1     -32.051   8.228   2.276  1.00 20.00     0.108 C 
HETATM    6  C7  UNL     1     -32.648   4.755   0.871  1.00 20.00     0.043 C 
ENDROOT
BRANCH   5   7
HETATM    7  C3  UNL     1     -32.559   9.321   1.390  1.00 20.00     0.266 C 
HETATM    8  O9  UNL     1     -33.376  10.163   1.740  1.00 20.00    -0.265 OA
BRANCH   7   9
HETATM    9  O10 UNL     1     -31.974   9.223   0.162  1.00 20.00    -0.326 OA
HETATM   10  C8  UNL     1     -32.598   9.980  -0.879  1.00 20.00     0.213 C 
ENDBRANCH   7   9
ENDBRANCH   5   7
TORSDOF 2
ENDMDL
