MODEL 1
REMARK VINA RESULT:      -0.9      0.000      0.000
REMARK  1 active torsions:
REMARK  status: ('A' for Active; 'I' for Inactive)
REMARK    1  A    between atoms: C1_1  and  C4_4 
ROOT
HETATM    1  C2  UNL     1     -33.160   7.139   3.797  1.00 20.00     0.037 C 
HETATM    2  C3  UNL     1     -33.779   6.179   1.993  1.00 20.00     0.037 C 
HETATM    3  C4  UNL     1     -33.329   7.622   2.335  1.00 20.00     0.058 C 
HETATM    4  C5  UNL     1     -34.137   5.971   3.491  1.00 20.00     0.035 C 
HETATM    5  C7  UNL     1     -35.598   6.300   3.817  1.00 20.00     0.032 C 
HETATM    6 CL9  UNL     1     -33.693   4.378   4.186  1.00 20.00    -0.120 Cl
ENDROOT
BRANCH   3   7
HETATM    7  C1  UNL     1     -32.092   8.162   1.610  1.00 20.00     0.127 C 
HETATM    8  C6  UNL     1     -32.295   9.373   0.739  1.00 20.00     0.091 C 
HETATM    9  O8  UNL     1     -30.989   7.634   1.735  1.00 20.00    -0.298 OA
ENDBRANCH   3   7
TORSDOF 1
ENDMDL
MODEL 2
REMARK VINA RESULT:      -0.6      2.803      4.239
REMARK  1 active torsions:
REMARK  status: ('A' for Active; 'I' for Inactive)
REMARK    1  A    between atoms: C1_1  and  C4_4 
ROOT
HETATM    1  C2  UNL     1     -33.144   8.093   3.155  1.00 20.00     0.037 C 
HETATM    2  C3  UNL     1     -32.987   6.576   1.660  1.00 20.00     0.037 C 
HETATM    3  C4  UNL     1     -33.220   6.546   3.191  1.00 20.00     0.058 C 
HETATM    4  C5  UNL     1     -32.363   7.991   1.816  1.00 20.00     0.035 C 
HETATM    5  C7  UNL     1     -30.842   7.967   2.000  1.00 20.00     0.032 C 
HETATM    6 CL9  UNL     1     -32.814   9.187   0.555  1.00 20.00    -0.120 Cl
ENDROOT
BRANCH   3   7
HETATM    7  C1  UNL     1     -34.516   5.903   3.692  1.00 20.00     0.127 C 
HETATM    8  C6  UNL     1     -34.426   4.475   4.160  1.00 20.00     0.091 C 
HETATM    9  O8  UNL     1     -35.579   6.522   3.712  1.00 20.00    -0.298 OA
ENDBRANCH   3   7
TORSDOF 1
ENDMDL
MODEL 3
REMARK VINA RESULT:      -0.3      2.755      4.077
REMARK  1 active torsions:
REMARK  status: ('A' for Active; 'I' for Inactive)
REMARK    1  A    between atoms: C1_1  and  C4_4 
ROOT
HETATM    1  C2  UNL     1     -33.016   7.919   3.188  1.00 20.00     0.037 C 
HETATM    2  C3  UNL     1     -32.892   6.522   1.578  1.00 20.00     0.037 C 
HETATM    3  C4  UNL     1     -33.027   6.372   3.114  1.00 20.00     0.058 C 
HETATM    4  C5  UNL     1     -32.317   7.948   1.800  1.00 20.00     0.035 C 
HETATM    5  C7  UNL     1     -30.787   7.979   1.891  1.00 20.00     0.032 C 
HETATM    6 CL9  UNL     1     -32.894   9.209   0.661  1.00 20.00    -0.120 Cl
ENDROOT
BRANCH   3   7
HETATM    7  C1  UNL     1     -34.263   5.638   3.642  1.00 20.00     0.127 C 
HETATM    8  C6  UNL     1     -35.502   6.466   3.856  1.00 20.00     0.091 C 
HETATM    9  O8  UNL     1     -34.245   4.431   3.878  1.00 20.00    -0.298 OA
ENDBRANCH   3   7
TORSDOF 1
ENDMDL
MODEL 4
REMARK VINA RESULT:      -0.2      2.666      4.122
REMARK  1 active torsions:
REMARK  status: ('A' for Active; 'I' for Inactive)
REMARK    1  A    between atoms: C1_1  and  C4_4 
ROOT
HETATM    1  C2  UNL     1     -32.783   6.433   1.883  1.00 20.00     0.037 C 
HETATM    2  C3  UNL     1     -33.144   7.934   3.357  1.00 20.00     0.037 C 
HETATM    3  C4  UNL     1     -34.014   6.809   2.744  1.00 20.00     0.058 C 
HETATM    4  C5  UNL     1     -32.232   7.869   2.101  1.00 20.00     0.035 C 
HETATM    5  C7  UNL     1     -32.644   8.852   1.000  1.00 20.00     0.032 C 
HETATM    6 CL9  UNL     1     -30.468   7.991   2.409  1.00 20.00    -0.120 Cl
ENDROOT
BRANCH   3   7
HETATM    7  C1  UNL     1     -34.570   5.751   3.701  1.00 20.00     0.127 C 
HETATM    8  C6  UNL     1     -33.823   4.446   3.775  1.00 20.00     0.091 C 
HETATM    9  O8  UNL     1     -35.577   5.957   4.377  1.00 20.00    -0.298 OA
ENDBRANCH   3   7
TORSDOF 1
ENDMDL
MODEL 5
REMARK VINA RESULT:       0.1      2.220      2.852
REMARK  1 active torsions:
REMARK  status: ('A' for Active; 'I' for Inactive)
REMARK    1  A    between atoms: C1_1  and  C4_4 
ROOT
HETATM    1  C2  UNL     1     -33.352   7.238   0.665  1.00 20.00     0.037 C 
HETATM    2  C3  UNL     1     -32.065   8.082   2.146  1.00 20.00     0.037 C 
HETATM    3  C4  UNL     1     -32.218   8.292   0.619  1.00 20.00     0.058 C 
HETATM    4  C5  UNL     1     -32.749   6.695   1.990  1.00 20.00     0.035 C 
HETATM    5  C7  UNL     1     -31.754   5.548   1.779  1.00 20.00     0.032 C 
HETATM    6 CL9  UNL     1     -33.932   6.260   3.267  1.00 20.00    -0.120 Cl
ENDROOT
BRANCH   3   7
HETATM    7  C1  UNL     1     -32.568   9.703   0.135  1.00 20.00     0.127 C 
HETATM    8  C6  UNL     1     -32.528  10.800   1.166  1.00 20.00     0.091 C 
HETATM    9  O8  UNL     1     -32.866   9.929  -1.036  1.00 20.00    -0.298 OA
ENDBRANCH   3   7
TORSDOF 1
ENDMDL
MODEL 6
REMARK VINA RESULT:       0.1      2.837      4.172
REMARK  1 active torsions:
REMARK  status: ('A' for Active; 'I' for Inactive)
REMARK    1  A    between atoms: C1_1  and  C4_4 
ROOT
HETATM    1  C2  UNL     1     -32.242   8.468   2.967  1.00 20.00     0.037 C 
HETATM    2  C3  UNL     1     -33.474   7.329   1.646  1.00 20.00     0.037 C 
HETATM    3  C4  UNL     1     -33.089   7.183   3.140  1.00 20.00     0.058 C 
HETATM    4  C5  UNL     1     -32.203   8.198   1.438  1.00 20.00     0.035 C 
HETATM    5  C7  UNL     1     -30.979   7.388   0.995  1.00 20.00     0.032 C 
HETATM    6 CL9  UNL     1     -32.404   9.636   0.384  1.00 20.00    -0.120 Cl
ENDROOT
BRANCH   3   7
HETATM    7  C1  UNL     1     -34.228   7.206   4.164  1.00 20.00     0.127 C 
HETATM    8  C6  UNL     1     -35.327   6.194   3.976  1.00 20.00     0.091 C 
HETATM    9  O8  UNL     1     -34.243   8.010   5.094  1.00 20.00    -0.298 OA
ENDBRANCH   3   7
TORSDOF 1
ENDMDL
MODEL 7
REMARK VINA RESULT:       0.2      1.705      2.042
REMARK  1 active torsions:
REMARK  status: ('A' for Active; 'I' for Inactive)
REMARK    1  A    between atoms: C1_1  and  C4_4 
ROOT
HETATM    1  C2  UNL     1     -33.940   6.321   2.429  1.00 20.00     0.037 C 
HETATM    2  C3  UNL     1     -34.206   7.581   4.133  1.00 20.00     0.037 C 
HETATM    3  C4  UNL     1     -32.961   7.081   3.359  1.00 20.00     0.058 C 
HETATM    4  C5  UNL     1     -35.006   6.378   3.558  1.00 20.00     0.035 C 
HETATM    5  C7  UNL     1     -34.990   5.147   4.471  1.00 20.00     0.032 C 
HETATM    6 CL9  UNL     1     -36.684   6.736   3.032  1.00 20.00    -0.120 Cl
ENDROOT
BRANCH   3   7
HETATM    7  C1  UNL     1     -32.052   8.141   2.730  1.00 20.00     0.127 C 
HETATM    8  C6  UNL     1     -32.075   8.248   1.229  1.00 20.00     0.091 C 
HETATM    9  O8  UNL     1     -31.339   8.870   3.418  1.00 20.00    -0.298 OA
ENDBRANCH   3   7
TORSDOF 1
ENDMDL
MODEL 8
REMARK VINA RESULT:       0.3      1.456      1.886
REMARK  1 active torsions:
REMARK  status: ('A' for Active; 'I' for Inactive)
REMARK    1  A    between atoms: C1_1  and  C4_4 
ROOT
HETATM    1  C2  UNL     1     -33.574   6.574   1.529  1.00 20.00     0.037 C 
HETATM    2  C3  UNL     1     -32.866   7.596   3.266  1.00 20.00     0.037 C 
HETATM    3  C4  UNL     1     -32.275   7.352   1.855  1.00 20.00     0.058 C 
HETATM    4  C5  UNL     1     -33.794   6.367   3.053  1.00 20.00     0.035 C 
HETATM    5  C7  UNL     1     -33.197   5.057   3.580  1.00 20.00     0.032 C 
HETATM    6 CL9  UNL     1     -35.482   6.553   3.631  1.00 20.00    -0.120 Cl
ENDROOT
BRANCH   3   7
HETATM    7  C1  UNL     1     -31.945   8.586   1.009  1.00 20.00     0.127 C 
HETATM    8  C6  UNL     1     -32.832   9.788   1.192  1.00 20.00     0.091 C 
HETATM    9  O8  UNL     1     -31.002   8.594   0.220  1.00 20.00    -0.298 OA
ENDBRANCH   3   7
TORSDOF 1
ENDMDL
MODEL 9
REMARK VINA RESULT:       0.3      2.947      4.416
REMARK  1 active torsions:
REMARK  status: ('A' for Active; 'I' for Inactive)
REMARK    1  A    between atoms: C1_1  and  C4_4 
ROOT
HETATM    1  C2  UNL     1     -34.155   6.490   2.817  1.00 20.00     0.037 C 
HETATM    2  C3  UNL     1     -32.724   5.034   2.191  1.00 20.00     0.037 C 
HETATM    3  C4  UNL     1     -33.337   5.408   3.564  1.00 20.00     0.058 C 
HETATM    4  C5  UNL     1     -33.105   6.448   1.673  1.00 20.00     0.035 C 
HETATM    5  C7  UNL     1     -31.983   7.478   1.840  1.00 20.00     0.032 C 
HETATM    6 CL9  UNL     1     -33.764   6.518   0.005  1.00 20.00    -0.120 Cl
ENDROOT
BRANCH   3   7
HETATM    7  C1  UNL     1     -34.106   4.314   4.311  1.00 20.00     0.127 C 
HETATM    8  C6  UNL     1     -33.356   3.044   4.612  1.00 20.00     0.091 C 
HETATM    9  O8  UNL     1     -35.278   4.467   4.651  1.00 20.00    -0.298 OA
ENDBRANCH   3   7
TORSDOF 1
ENDMDL
