MODEL 1
REMARK VINA RESULT:      -2.2      0.000      0.000
REMARK  2 active torsions:
REMARK  status: ('A' for Active; 'I' for Inactive)
REMARK    1  A    between atoms: C1_1  and  C8_8 
REMARK    2  A    between atoms: C3_3  and  C9_9 
ROOT
HETATM    1  C4  UNL     1     -34.011   7.308   3.423  1.00 20.00     0.009 C 
HETATM    2  C5  UNL     1     -33.277   5.903   1.435  1.00 20.00     0.009 C 
HETATM    3  C6  UNL     1     -32.652   8.010   3.430  1.00 20.00     0.012 C 
HETATM    4  C7  UNL     1     -31.923   6.618   1.430  1.00 20.00     0.012 C 
HETATM    5  C8  UNL     1     -33.981   5.924   2.785  1.00 20.00     0.008 C 
HETATM    6  C9  UNL     1     -31.952   7.997   2.076  1.00 20.00     0.047 C 
ENDROOT
BRANCH   5   7
HETATM    7  C1  UNL     1     -33.302   4.953   3.735  1.00 20.00    -0.026 C 
HETATM    8  C2  UNL     1     -33.809   3.757   4.070  1.00 20.00    -0.035 C 
HETATM    9  C10 UNL     1     -33.142   2.801   5.002  1.00 20.00     0.036 C 
ENDBRANCH   5   7
BRANCH   6  10
HETATM   10  C3  UNL     1     -32.643   8.991   1.157  1.00 20.00     0.235 C 
HETATM   11  O11 UNL     1     -32.113   9.477   0.164  1.00 20.00    -0.306 OA
ENDBRANCH   6  10
TORSDOF 2
ENDMDL
MODEL 2
REMARK VINA RESULT:      -2.1      2.356      4.890
REMARK  2 active torsions:
REMARK  status: ('A' for Active; 'I' for Inactive)
REMARK    1  A    between atoms: C1_1  and  C8_8 
REMARK    2  A    between atoms: C3_3  and  C9_9 
ROOT
HETATM    1  C4  UNL     1     -32.898   7.785   3.732  1.00 20.00     0.009 C 
HETATM    2  C5  UNL     1     -31.967   6.493   1.749  1.00 20.00     0.009 C 
HETATM    3  C6  UNL     1     -34.236   7.060   3.578  1.00 20.00     0.012 C 
HETATM    4  C7  UNL     1     -33.300   5.754   1.606  1.00 20.00     0.012 C 
HETATM    5  C8  UNL     1     -32.082   7.843   2.446  1.00 20.00     0.008 C 
HETATM    6  C9  UNL     1     -34.119   5.705   2.889  1.00 20.00     0.047 C 
ENDROOT
BRANCH   5   7
HETATM    7  C1  UNL     1     -32.708   8.857   1.504  1.00 20.00    -0.026 C 
HETATM    8  C2  UNL     1     -32.114   9.306   0.389  1.00 20.00    -0.035 C 
HETATM    9  C10 UNL     1     -32.729  10.301  -0.538  1.00 20.00     0.036 C 
ENDBRANCH   5   7
BRANCH   6  10
HETATM   10  C3  UNL     1     -33.507   4.711   3.863  1.00 20.00     0.235 C 
HETATM   11  O11 UNL     1     -34.076   3.691   4.236  1.00 20.00    -0.306 OA
ENDBRANCH   6  10
TORSDOF 2
ENDMDL
