MODEL 1
REMARK VINA RESULT:       3.8      0.000      0.000
REMARK  1 active torsions:
REMARK  status: ('A' for Active; 'I' for Inactive)
REMARK    1  A    between atoms: C1_1  and  C6_6 
ROOT
HETATM    1  C2  UNL     1     -31.373   6.614   1.949  1.00 20.00     0.010 C 
HETATM    2  C3  UNL     1     -33.562   5.870   2.970  1.00 20.00     0.010 C 
HETATM    3  C4  UNL     1     -33.628   6.774   0.828  1.00 20.00     0.010 C 
HETATM    4  C5  UNL     1     -32.460   7.908   3.814  1.00 20.00     0.010 C 
HETATM    5  C6  UNL     1     -32.544   8.869   1.703  1.00 20.00     0.081 C 
HETATM    6  C7  UNL     1     -32.727   5.888   1.688  1.00 20.00    -0.013 C 
HETATM    7  C8  UNL     1     -31.586   8.034   2.562  1.00 20.00    -0.001 C 
HETATM    8  C9  UNL     1     -33.766   7.374   3.200  1.00 20.00    -0.009 C 
HETATM    9  C10 UNL     1     -33.807   7.994   1.749  1.00 20.00     0.003 C 
ENDROOT
BRANCH   5  10
HETATM   10  C1  UNL     1     -32.018   9.198   0.341  1.00 20.00     0.223 C 
HETATM   11  O11 UNL     1     -30.959   8.734  -0.071  1.00 20.00    -0.279 OA
HETATM   12 CL12 UNL     1     -33.070  10.277  -0.523  1.00 20.00    -0.043 Cl
ENDBRANCH   5  10
TORSDOF 1
ENDMDL
MODEL 2
REMARK VINA RESULT:       4.1      3.502      4.468
REMARK  1 active torsions:
REMARK  status: ('A' for Active; 'I' for Inactive)
REMARK    1  A    between atoms: C1_1  and  C6_6 
ROOT
HETATM    1  C2  UNL     1     -35.073   6.999   2.501  1.00 20.00     0.010 C 
HETATM    2  C3  UNL     1     -32.891   7.693   1.433  1.00 20.00     0.010 C 
HETATM    3  C4  UNL     1     -33.247   5.420   1.770  1.00 20.00     0.010 C 
HETATM    4  C5  UNL     1     -33.257   8.124   3.833  1.00 20.00     0.010 C 
HETATM    5  C6  UNL     1     -33.576   5.859   4.226  1.00 20.00     0.081 C 
HETATM    6  C7  UNL     1     -34.031   6.675   1.389  1.00 20.00    -0.013 C 
HETATM    7  C8  UNL     1     -34.404   7.110   3.908  1.00 20.00    -0.001 C 
HETATM    8  C9  UNL     1     -32.320   7.424   2.832  1.00 20.00    -0.009 C 
HETATM    9  C10 UNL     1     -32.564   5.883   3.069  1.00 20.00     0.003 C 
ENDROOT
BRANCH   5  10
HETATM   10  C1  UNL     1     -34.386   4.608   4.369  1.00 20.00     0.223 C 
HETATM   11  O11 UNL     1     -35.607   4.640   4.484  1.00 20.00    -0.279 OA
HETATM   12 CL12 UNL     1     -33.394   3.182   4.350  1.00 20.00    -0.043 Cl
ENDBRANCH   5  10
TORSDOF 1
ENDMDL
MODEL 3
REMARK VINA RESULT:       4.4      1.879      3.013
REMARK  1 active torsions:
REMARK  status: ('A' for Active; 'I' for Inactive)
REMARK    1  A    between atoms: C1_1  and  C6_6 
ROOT
HETATM    1  C2  UNL     1     -34.909   6.628   1.945  1.00 20.00     0.010 C 
HETATM    2  C3  UNL     1     -35.313   5.553   4.196  1.00 20.00     0.010 C 
HETATM    3  C4  UNL     1     -34.252   7.622   4.169  1.00 20.00     0.010 C 
HETATM    4  C5  UNL     1     -33.583   4.627   2.702  1.00 20.00     0.010 C 
HETATM    5  C6  UNL     1     -32.465   6.660   2.681  1.00 20.00     0.081 C 
HETATM    6  C7  UNL     1     -35.351   6.870   3.420  1.00 20.00    -0.013 C 
HETATM    7  C8  UNL     1     -33.525   5.910   1.866  1.00 20.00    -0.001 C 
HETATM    8  C9  UNL     1     -33.820   5.210   4.107  1.00 20.00    -0.009 C 
HETATM    9  C10 UNL     1     -33.094   6.612   4.083  1.00 20.00     0.003 C 
ENDROOT
BRANCH   5  10
HETATM   10  C1  UNL     1     -32.135   8.021   2.152  1.00 20.00     0.223 C 
HETATM   11  O11 UNL     1     -32.380   8.340   0.993  1.00 20.00    -0.279 OA
HETATM   12 CL12 UNL     1     -31.393   9.029   3.357  1.00 20.00    -0.043 Cl
ENDBRANCH   5  10
TORSDOF 1
ENDMDL
MODEL 4
REMARK VINA RESULT:       4.6      2.865      3.960
REMARK  1 active torsions:
REMARK  status: ('A' for Active; 'I' for Inactive)
REMARK    1  A    between atoms: C1_1  and  C6_6 
ROOT
HETATM    1  C2  UNL     1     -31.614   5.916   1.927  1.00 20.00     0.010 C 
HETATM    2  C3  UNL     1     -31.751   8.363   1.308  1.00 20.00     0.010 C 
HETATM    3  C4  UNL     1     -32.536   7.740   3.407  1.00 20.00     0.010 C 
HETATM    4  C5  UNL     1     -33.283   6.753   0.238  1.00 20.00     0.010 C 
HETATM    5  C6  UNL     1     -34.129   6.130   2.308  1.00 20.00     0.081 C 
HETATM    6  C7  UNL     1     -31.418   7.378   2.430  1.00 20.00    -0.013 C 
HETATM    7  C8  UNL     1     -33.036   5.698   1.322  1.00 20.00    -0.001 C 
HETATM    8  C9  UNL     1     -33.235   8.042   1.077  1.00 20.00    -0.009 C 
HETATM    9  C10 UNL     1     -33.772   7.613   2.498  1.00 20.00     0.003 C 
ENDROOT
BRANCH   5  10
HETATM   10  C1  UNL     1     -34.193   5.302   3.554  1.00 20.00     0.223 C 
HETATM   11  O11 UNL     1     -33.423   4.366   3.747  1.00 20.00    -0.279 OA
HETATM   12 CL12 UNL     1     -35.453   5.832   4.626  1.00 20.00    -0.043 Cl
ENDBRANCH   5  10
TORSDOF 1
ENDMDL
MODEL 5
REMARK VINA RESULT:       4.6      2.995      3.927
REMARK  1 active torsions:
REMARK  status: ('A' for Active; 'I' for Inactive)
REMARK    1  A    between atoms: C1_1  and  C6_6 
ROOT
HETATM    1  C2  UNL     1     -34.073   8.626   2.455  1.00 20.00     0.010 C 
HETATM    2  C3  UNL     1     -31.928   8.505   1.124  1.00 20.00     0.010 C 
HETATM    3  C4  UNL     1     -33.267   6.605   1.178  1.00 20.00     0.010 C 
HETATM    4  C5  UNL     1     -31.828   8.525   3.588  1.00 20.00     0.010 C 
HETATM    5  C6  UNL     1     -33.125   6.603   3.690  1.00 20.00     0.081 C 
HETATM    6  C7  UNL     1     -33.409   8.126   1.136  1.00 20.00    -0.013 C 
HETATM    7  C8  UNL     1     -33.302   8.126   3.717  1.00 20.00    -0.001 C 
HETATM    8  C9  UNL     1     -31.421   7.720   2.341  1.00 20.00    -0.009 C 
HETATM    9  C10 UNL     1     -32.330   6.430   2.386  1.00 20.00     0.003 C 
ENDROOT
BRANCH   5  10
HETATM   10  C1  UNL     1     -34.406   5.835   3.789  1.00 20.00     0.223 C 
HETATM   11  O11 UNL     1     -35.497   6.397   3.784  1.00 20.00    -0.279 OA
HETATM   12 CL12 UNL     1     -34.135   4.123   3.906  1.00 20.00    -0.043 Cl
ENDBRANCH   5  10
TORSDOF 1
ENDMDL
MODEL 6
REMARK VINA RESULT:       4.7      1.447      1.945
REMARK  1 active torsions:
REMARK  status: ('A' for Active; 'I' for Inactive)
REMARK    1  A    between atoms: C1_1  and  C6_6 
ROOT
HETATM    1  C2  UNL     1     -32.537   6.207   4.165  1.00 20.00     0.010 C 
HETATM    2  C3  UNL     1     -34.856   5.216   4.010  1.00 20.00     0.010 C 
HETATM    3  C4  UNL     1     -33.682   5.518   2.025  1.00 20.00     0.010 C 
HETATM    4  C5  UNL     1     -34.593   7.608   4.549  1.00 20.00     0.010 C 
HETATM    5  C6  UNL     1     -33.454   7.966   2.559  1.00 20.00     0.081 C 
HETATM    6  C7  UNL     1     -33.425   5.126   3.480  1.00 20.00    -0.013 C 
HETATM    7  C8  UNL     1     -33.153   7.635   4.025  1.00 20.00    -0.001 C 
HETATM    8  C9  UNL     1     -35.242   6.630   3.554  1.00 20.00    -0.009 C 
HETATM    9  C10 UNL     1     -34.443   6.843   2.209  1.00 20.00     0.003 C 
ENDROOT
BRANCH   5  10
HETATM   10  C1  UNL     1     -32.239   8.070   1.691  1.00 20.00     0.223 C 
HETATM   11  O11 UNL     1     -31.309   7.275   1.786  1.00 20.00    -0.279 OA
HETATM   12 CL12 UNL     1     -32.334   9.411   0.590  1.00 20.00    -0.043 Cl
ENDBRANCH   5  10
TORSDOF 1
ENDMDL
MODEL 7
REMARK VINA RESULT:       4.8      3.112      4.092
REMARK  1 active torsions:
REMARK  status: ('A' for Active; 'I' for Inactive)
REMARK    1  A    between atoms: C1_1  and  C6_6 
ROOT
HETATM    1  C2  UNL     1     -34.638   7.265   2.318  1.00 20.00     0.010 C 
HETATM    2  C3  UNL     1     -32.572   7.669   0.921  1.00 20.00     0.010 C 
HETATM    3  C4  UNL     1     -33.217   5.463   1.271  1.00 20.00     0.010 C 
HETATM    4  C5  UNL     1     -32.482   8.048   3.356  1.00 20.00     0.010 C 
HETATM    5  C6  UNL     1     -33.081   5.841   3.755  1.00 20.00     0.081 C 
HETATM    6  C7  UNL     1     -33.848   6.836   1.046  1.00 20.00    -0.013 C 
HETATM    7  C8  UNL     1     -33.745   7.214   3.599  1.00 20.00    -0.001 C 
HETATM    8  C9  UNL     1     -31.835   7.259   2.203  1.00 20.00    -0.009 C 
HETATM    9  C10 UNL     1     -32.274   5.763   2.449  1.00 20.00     0.003 C 
ENDROOT
BRANCH   5  10
HETATM   10  C1  UNL     1     -34.041   4.720   4.005  1.00 20.00     0.223 C 
HETATM   11  O11 UNL     1     -33.702   3.545   3.903  1.00 20.00    -0.279 OA
HETATM   12 CL12 UNL     1     -35.621   5.298   4.439  1.00 20.00    -0.043 Cl
ENDBRANCH   5  10
TORSDOF 1
ENDMDL
MODEL 8
REMARK VINA RESULT:       4.9      2.073      2.812
REMARK  1 active torsions:
REMARK  status: ('A' for Active; 'I' for Inactive)
REMARK    1  A    between atoms: C1_1  and  C6_6 
ROOT
HETATM    1  C2  UNL     1     -33.146   6.881   4.664  1.00 20.00     0.010 C 
HETATM    2  C3  UNL     1     -35.354   5.672   4.441  1.00 20.00     0.010 C 
HETATM    3  C4  UNL     1     -33.611   4.989   3.061  1.00 20.00     0.010 C 
HETATM    4  C5  UNL     1     -35.143   7.979   3.595  1.00 20.00     0.010 C 
HETATM    5  C6  UNL     1     -33.429   7.335   2.168  1.00 20.00     0.081 C 
HETATM    6  C7  UNL     1     -33.835   5.495   4.485  1.00 20.00    -0.013 C 
HETATM    7  C8  UNL     1     -33.612   7.904   3.580  1.00 20.00    -0.001 C 
HETATM    8  C9  UNL     1     -35.504   6.540   3.184  1.00 20.00    -0.009 C 
HETATM    9  C10 UNL     1     -34.320   6.085   2.245  1.00 20.00     0.003 C 
ENDROOT
BRANCH   5  10
HETATM   10  C1  UNL     1     -32.002   7.105   1.779  1.00 20.00     0.223 C 
HETATM   11  O11 UNL     1     -31.138   7.956   1.967  1.00 20.00    -0.279 OA
HETATM   12 CL12 UNL     1     -31.763   5.541   1.062  1.00 20.00    -0.043 Cl
ENDBRANCH   5  10
TORSDOF 1
ENDMDL
MODEL 9
REMARK VINA RESULT:       4.9      3.111      3.982
REMARK  1 active torsions:
REMARK  status: ('A' for Active; 'I' for Inactive)
REMARK    1  A    between atoms: C1_1  and  C6_6 
ROOT
HETATM    1  C2  UNL     1     -34.037   6.543   0.755  1.00 20.00     0.010 C 
HETATM    2  C3  UNL     1     -31.745   5.480   0.686  1.00 20.00     0.010 C 
HETATM    3  C4  UNL     1     -33.359   4.466   2.018  1.00 20.00     0.010 C 
HETATM    4  C5  UNL     1     -32.060   7.607   1.893  1.00 20.00     0.010 C 
HETATM    5  C6  UNL     1     -33.645   6.626   3.276  1.00 20.00     0.081 C 
HETATM    6  C7  UNL     1     -33.248   5.201   0.682  1.00 20.00    -0.013 C 
HETATM    7  C8  UNL     1     -33.579   7.418   1.965  1.00 20.00    -0.001 C 
HETATM    8  C9  UNL     1     -31.582   6.153   2.055  1.00 20.00    -0.009 C 
HETATM    9  C10 UNL     1     -32.679   5.472   2.963  1.00 20.00     0.003 C 
ENDROOT
BRANCH   5  10
HETATM   10  C1  UNL     1     -35.030   6.235   3.688  1.00 20.00     0.223 C 
HETATM   11  O11 UNL     1     -36.011   6.896   3.361  1.00 20.00    -0.279 OA
HETATM   12 CL12 UNL     1     -35.043   4.785   4.644  1.00 20.00    -0.043 Cl
ENDBRANCH   5  10
TORSDOF 1
ENDMDL
