MODEL 1
REMARK VINA RESULT:      -0.4      0.000      0.000
REMARK  2 active torsions:
REMARK  status: ('A' for Active; 'I' for Inactive)
REMARK    1  A    between atoms: C5_5  and  C7_7 
REMARK    2  A    between atoms: C5_5  and  O11_11 
ROOT
HETATM    1  C1  UNL     1     -31.244   8.808   1.544  1.00 20.00     0.003 A 
HETATM    2  C2  UNL     1     -31.387   7.665   2.218  1.00 20.00    -0.007 A 
HETATM    3  C3  UNL     1     -32.386   9.059   0.708  1.00 20.00    -0.066 A 
HETATM    4  C4  UNL     1     -32.580  10.145  -0.045  1.00 20.00     0.019 C 
HETATM    5  C6  UNL     1     -33.325   7.884   0.827  1.00 20.00     0.061 A 
HETATM    6  C7  UNL     1     -32.699   6.995   1.924  1.00 20.00     0.066 A 
HETATM    7  C8  UNL     1     -32.530   5.547   1.475  1.00 20.00     0.031 C 
ENDROOT
BRANCH   6   8
HETATM    8  C5  UNL     1     -33.499   7.052   3.197  1.00 20.00     0.271 C 
HETATM    9  O10 UNL     1     -33.522   8.017   3.950  1.00 20.00    -0.264 OA
BRANCH   8  10
HETATM   10  O11 UNL     1     -34.176   5.880   3.363  1.00 20.00    -0.326 OA
HETATM   11  C9  UNL     1     -35.383   5.971   4.127  1.00 20.00     0.213 C 
ENDBRANCH   8  10
ENDBRANCH   6   8
TORSDOF 2
ENDMDL
MODEL 2
REMARK VINA RESULT:       0.1      1.853      4.107
REMARK  2 active torsions:
REMARK  status: ('A' for Active; 'I' for Inactive)
REMARK    1  A    between atoms: C5_5  and  C7_7 
REMARK    2  A    between atoms: C5_5  and  O11_11 
ROOT
HETATM    1  C1  UNL     1     -33.310   5.751   2.355  1.00 20.00     0.003 A 
HETATM    2  C2  UNL     1     -32.319   6.411   1.750  1.00 20.00    -0.007 A 
HETATM    3  C3  UNL     1     -34.045   6.620   3.234  1.00 20.00    -0.066 A 
HETATM    4  C4  UNL     1     -35.129   6.283   3.937  1.00 20.00     0.019 C 
HETATM    5  C6  UNL     1     -33.378   7.973   3.225  1.00 20.00     0.061 A 
HETATM    6  C7  UNL     1     -32.278   7.859   2.146  1.00 20.00     0.066 A 
HETATM    7  C8  UNL     1     -30.909   8.288   2.662  1.00 20.00     0.031 C 
ENDROOT
BRANCH   6   8
HETATM    8  C5  UNL     1     -32.638   8.646   0.915  1.00 20.00     0.271 C 
HETATM    9  O10 UNL     1     -32.895   8.141  -0.170  1.00 20.00    -0.264 OA
BRANCH   8  10
HETATM   10  O11 UNL     1     -32.630   9.978   1.206  1.00 20.00    -0.326 OA
HETATM   11  C9  UNL     1     -32.555  10.854   0.077  1.00 20.00     0.213 C 
ENDBRANCH   8  10
ENDBRANCH   6   8
TORSDOF 2
ENDMDL
MODEL 3
REMARK VINA RESULT:       0.2      1.787      4.450
REMARK  2 active torsions:
REMARK  status: ('A' for Active; 'I' for Inactive)
REMARK    1  A    between atoms: C5_5  and  C7_7 
REMARK    2  A    between atoms: C5_5  and  O11_11 
ROOT
HETATM    1  C1  UNL     1     -34.882   5.058   4.311  1.00 20.00     0.003 A 
HETATM    2  C2  UNL     1     -34.887   6.095   3.470  1.00 20.00    -0.007 A 
HETATM    3  C3  UNL     1     -33.736   4.219   4.087  1.00 20.00    -0.066 A 
HETATM    4  C4  UNL     1     -33.407   3.138   4.799  1.00 20.00     0.019 C 
HETATM    5  C6  UNL     1     -32.972   4.770   2.908  1.00 20.00     0.061 A 
HETATM    6  C7  UNL     1     -33.692   6.091   2.560  1.00 20.00     0.066 A 
HETATM    7  C8  UNL     1     -34.077   6.175   1.086  1.00 20.00     0.031 C 
ENDROOT
BRANCH   6   8
HETATM    8  C5  UNL     1     -32.861   7.285   2.946  1.00 20.00     0.271 C 
HETATM    9  O10 UNL     1     -33.009   7.916   3.985  1.00 20.00    -0.264 OA
BRANCH   8  10
HETATM   10  O11 UNL     1     -31.941   7.535   1.972  1.00 20.00    -0.326 OA
HETATM   11  C9  UNL     1     -32.062   8.806   1.324  1.00 20.00     0.213 C 
ENDBRANCH   8  10
ENDBRANCH   6   8
TORSDOF 2
ENDMDL
MODEL 4
REMARK VINA RESULT:       0.4      2.152      3.168
REMARK  2 active torsions:
REMARK  status: ('A' for Active; 'I' for Inactive)
REMARK    1  A    between atoms: C5_5  and  C7_7 
REMARK    2  A    between atoms: C5_5  and  O11_11 
ROOT
HETATM    1  C1  UNL     1     -32.831   6.762   1.977  1.00 20.00     0.003 A 
HETATM    2  C2  UNL     1     -33.936   6.017   2.068  1.00 20.00    -0.007 A 
HETATM    3  C3  UNL     1     -32.711   7.642   3.108  1.00 20.00    -0.066 A 
HETATM    4  C4  UNL     1     -31.691   8.470   3.347  1.00 20.00     0.019 C 
HETATM    5  C6  UNL     1     -33.934   7.468   3.973  1.00 20.00     0.061 A 
HETATM    6  C7  UNL     1     -34.708   6.299   3.325  1.00 20.00     0.066 A 
HETATM    7  C8  UNL     1     -36.168   6.646   3.051  1.00 20.00     0.031 C 
ENDROOT
BRANCH   6   8
HETATM    8  C5  UNL     1     -34.621   5.054   4.165  1.00 20.00     0.271 C 
HETATM    9  O10 UNL     1     -35.462   4.725   4.991  1.00 20.00    -0.264 OA
BRANCH   8  10
HETATM   10  O11 UNL     1     -33.479   4.375   3.858  1.00 20.00    -0.326 OA
HETATM   11  C9  UNL     1     -33.292   3.139   4.555  1.00 20.00     0.213 C 
ENDBRANCH   8  10
ENDBRANCH   6   8
TORSDOF 2
ENDMDL
MODEL 5
REMARK VINA RESULT:       1.6      1.303      2.127
REMARK  2 active torsions:
REMARK  status: ('A' for Active; 'I' for Inactive)
REMARK    1  A    between atoms: C5_5  and  C7_7 
REMARK    2  A    between atoms: C5_5  and  O11_11 
ROOT
HETATM    1  C1  UNL     1     -32.646   9.626   0.616  1.00 20.00     0.003 A 
HETATM    2  C2  UNL     1     -33.123   9.361   1.835  1.00 20.00    -0.007 A 
HETATM    3  C3  UNL     1     -31.514   8.792   0.315  1.00 20.00    -0.066 A 
HETATM    4  C4  UNL     1     -30.848   8.767  -0.843  1.00 20.00     0.019 C 
HETATM    5  C6  UNL     1     -31.209   7.953   1.531  1.00 20.00     0.061 A 
HETATM    6  C7  UNL     1     -32.357   8.263   2.516  1.00 20.00     0.066 A 
HETATM    7  C8  UNL     1     -31.848   8.671   3.895  1.00 20.00     0.031 C 
ENDROOT
BRANCH   6   8
HETATM    8  C5  UNL     1     -33.303   7.098   2.638  1.00 20.00     0.271 C 
HETATM    9  O10 UNL     1     -33.251   6.097   1.935  1.00 20.00    -0.264 OA
BRANCH   8  10
HETATM   10  O11 UNL     1     -34.200   7.341   3.635  1.00 20.00    -0.326 OA
HETATM   11  C9  UNL     1     -35.087   6.260   3.940  1.00 20.00     0.213 C 
ENDBRANCH   8  10
ENDBRANCH   6   8
TORSDOF 2
ENDMDL
MODEL 6
REMARK VINA RESULT:       1.7      1.941      2.955
REMARK  2 active torsions:
REMARK  status: ('A' for Active; 'I' for Inactive)
REMARK    1  A    between atoms: C5_5  and  C7_7 
REMARK    2  A    between atoms: C5_5  and  O11_11 
ROOT
HETATM    1  C1  UNL     1     -32.863   7.758   1.755  1.00 20.00     0.003 A 
HETATM    2  C2  UNL     1     -33.779   6.790   1.831  1.00 20.00    -0.007 A 
HETATM    3  C3  UNL     1     -32.365   8.098   3.061  1.00 20.00    -0.066 A 
HETATM    4  C4  UNL     1     -31.400   8.983   3.322  1.00 20.00     0.019 C 
HETATM    5  C6  UNL     1     -33.121   7.283   4.080  1.00 20.00     0.061 A 
HETATM    6  C7  UNL     1     -34.000   6.328   3.243  1.00 20.00     0.066 A 
HETATM    7  C8  UNL     1     -35.468   6.377   3.653  1.00 20.00     0.031 C 
ENDROOT
BRANCH   6   8
HETATM    8  C5  UNL     1     -33.490   4.914   3.313  1.00 20.00     0.271 C 
HETATM    9  O10 UNL     1     -32.647   4.452   2.555  1.00 20.00    -0.264 OA
BRANCH   8  10
HETATM   10  O11 UNL     1     -34.107   4.256   4.334  1.00 20.00    -0.326 OA
HETATM   11  C9  UNL     1     -33.425   3.095   4.820  1.00 20.00     0.213 C 
ENDBRANCH   8  10
ENDBRANCH   6   8
TORSDOF 2
ENDMDL
MODEL 7
REMARK VINA RESULT:       1.8      1.044      2.945
REMARK  2 active torsions:
REMARK  status: ('A' for Active; 'I' for Inactive)
REMARK    1  A    between atoms: C5_5  and  C7_7 
REMARK    2  A    between atoms: C5_5  and  O11_11 
ROOT
HETATM    1  C1  UNL     1     -33.227   5.445   0.496  1.00 20.00     0.003 A 
HETATM    2  C2  UNL     1     -33.718   6.577   1.007  1.00 20.00    -0.007 A 
HETATM    3  C3  UNL     1     -31.889   5.207   0.966  1.00 20.00    -0.066 A 
HETATM    4  C4  UNL     1     -31.144   4.134   0.691  1.00 20.00     0.019 C 
HETATM    5  C6  UNL     1     -31.475   6.379   1.821  1.00 20.00     0.061 A 
HETATM    6  C7  UNL     1     -32.745   7.251   1.931  1.00 20.00     0.066 A 
HETATM    7  C8  UNL     1     -32.488   8.706   1.554  1.00 20.00     0.031 C 
ENDROOT
BRANCH   6   8
HETATM    8  C5  UNL     1     -33.344   7.171   3.310  1.00 20.00     0.271 C 
HETATM    9  O10 UNL     1     -33.134   7.989   4.196  1.00 20.00    -0.264 OA
BRANCH   8  10
HETATM   10  O11 UNL     1     -34.138   6.067   3.399  1.00 20.00    -0.326 OA
HETATM   11  C9  UNL     1     -35.331   6.228   4.172  1.00 20.00     0.213 C 
ENDBRANCH   8  10
ENDBRANCH   6   8
TORSDOF 2
ENDMDL
MODEL 8
REMARK VINA RESULT:       1.9      1.725      3.720
REMARK  2 active torsions:
REMARK  status: ('A' for Active; 'I' for Inactive)
REMARK    1  A    between atoms: C5_5  and  C7_7 
REMARK    2  A    between atoms: C5_5  and  O11_11 
ROOT
HETATM    1  C1  UNL     1     -33.580   7.553   4.520  1.00 20.00     0.003 A 
HETATM    2  C2  UNL     1     -32.689   8.143   3.720  1.00 20.00    -0.007 A 
HETATM    3  C3  UNL     1     -34.546   6.811   3.756  1.00 20.00    -0.066 A 
HETATM    4  C4  UNL     1     -35.530   6.061   4.259  1.00 20.00     0.019 C 
HETATM    5  C6  UNL     1     -34.256   7.028   2.292  1.00 20.00     0.061 A 
HETATM    6  C7  UNL     1     -32.943   7.842   2.270  1.00 20.00     0.066 A 
HETATM    7  C8  UNL     1     -33.052   9.102   1.419  1.00 20.00     0.031 C 
ENDROOT
BRANCH   6   8
HETATM    8  C5  UNL     1     -31.787   7.000   1.803  1.00 20.00     0.271 C 
HETATM    9  O10 UNL     1     -30.700   7.453   1.470  1.00 20.00    -0.264 OA
BRANCH   8  10
HETATM   10  O11 UNL     1     -32.146   5.685   1.814  1.00 20.00    -0.326 OA
HETATM   11  C9  UNL     1     -31.856   4.958   0.616  1.00 20.00     0.213 C 
ENDBRANCH   8  10
ENDBRANCH   6   8
TORSDOF 2
ENDMDL
MODEL 9
REMARK VINA RESULT:       2.2      1.587      2.444
REMARK  2 active torsions:
REMARK  status: ('A' for Active; 'I' for Inactive)
REMARK    1  A    between atoms: C5_5  and  C7_7 
REMARK    2  A    between atoms: C5_5  and  O11_11 
ROOT
HETATM    1  C1  UNL     1     -33.440   9.002   1.832  1.00 20.00     0.003 A 
HETATM    2  C2  UNL     1     -34.127   8.688   2.933  1.00 20.00    -0.007 A 
HETATM    3  C3  UNL     1     -32.263   8.186   1.710  1.00 20.00    -0.066 A 
HETATM    4  C4  UNL     1     -31.399   8.209   0.691  1.00 20.00     0.019 C 
HETATM    5  C6  UNL     1     -32.172   7.303   2.929  1.00 20.00     0.061 A 
HETATM    6  C7  UNL     1     -33.483   7.569   3.702  1.00 20.00     0.066 A 
HETATM    7  C8  UNL     1     -33.237   7.927   5.163  1.00 20.00     0.031 C 
ENDROOT
BRANCH   6   8
HETATM    8  C5  UNL     1     -34.420   6.395   3.608  1.00 20.00     0.271 C 
HETATM    9  O10 UNL     1     -35.629   6.468   3.785  1.00 20.00    -0.264 OA
BRANCH   8  10
HETATM   10  O11 UNL     1     -33.714   5.271   3.299  1.00 20.00    -0.326 OA
HETATM   11  C9  UNL     1     -33.990   4.128   4.114  1.00 20.00     0.213 C 
ENDBRANCH   8  10
ENDBRANCH   6   8
TORSDOF 2
ENDMDL
