MODEL 1
REMARK VINA RESULT:      -0.3      0.000      0.000
REMARK  0 active torsions:
REMARK  status: ('A' for Active; 'I' for Inactive)
ROOT
HETATM    1  C1  UNL     1     -34.165   4.643   4.042  1.00 20.00     0.223 A 
HETATM    2  C2  UNL     1     -35.437   6.634   3.803  1.00 20.00     0.128 A 
HETATM    3  C3  UNL     1     -33.203   5.705   3.652  1.00 20.00     0.092 A 
HETATM    4  C4  UNL     1     -34.013   6.970   3.481  1.00 20.00     0.026 A 
HETATM    5  C5  UNL     1     -33.240   6.397   2.306  1.00 20.00    -0.029 A 
HETATM    6  C6  UNL     1     -31.996   7.138   1.882  1.00 20.00     0.016 C 
HETATM    7  C7  UNL     1     -33.974   5.763   1.151  1.00 20.00     0.016 C 
HETATM    8  N8  UNL     1     -35.416   5.225   4.138  1.00 20.00    -0.360 N 
HETATM    9  O9  UNL     1     -33.843   3.482   4.235  1.00 20.00    -0.273 OA
HETATM   10  H20 UNL     1     -36.248   4.705   4.397  1.00 20.00     0.162 HD
ENDROOT
TORSDOF 0
ENDMDL
MODEL 2
REMARK VINA RESULT:       0.3      1.995      2.963
REMARK  0 active torsions:
REMARK  status: ('A' for Active; 'I' for Inactive)
ROOT
HETATM    1  C1  UNL     1     -33.899   6.884   3.334  1.00 20.00     0.223 A 
HETATM    2  C2  UNL     1     -32.608   5.515   1.886  1.00 20.00     0.128 A 
HETATM    3  C3  UNL     1     -33.647   7.694   2.115  1.00 20.00     0.092 A 
HETATM    4  C4  UNL     1     -32.809   6.831   1.199  1.00 20.00     0.026 A 
HETATM    5  C5  UNL     1     -32.264   8.155   1.704  1.00 20.00    -0.029 A 
HETATM    6  C6  UNL     1     -32.188   9.286   0.708  1.00 20.00     0.016 C 
HETATM    7  C7  UNL     1     -31.145   8.179   2.714  1.00 20.00     0.016 C 
HETATM    8  N8  UNL     1     -33.309   5.646   3.146  1.00 20.00    -0.360 N 
HETATM    9  O9  UNL     1     -34.529   7.294   4.295  1.00 20.00    -0.273 OA
HETATM   10  H20 UNL     1     -33.347   4.906   3.839  1.00 20.00     0.162 HD
ENDROOT
TORSDOF 0
ENDMDL
MODEL 3
REMARK VINA RESULT:       0.8      1.844      2.565
REMARK  0 active torsions:
REMARK  status: ('A' for Active; 'I' for Inactive)
ROOT
HETATM    1  C1  UNL     1     -33.870   6.574   3.274  1.00 20.00     0.223 A 
HETATM    2  C2  UNL     1     -32.369   8.044   2.168  1.00 20.00     0.128 A 
HETATM    3  C3  UNL     1     -32.881   5.710   2.581  1.00 20.00     0.092 A 
HETATM    4  C4  UNL     1     -31.934   6.644   1.860  1.00 20.00     0.026 A 
HETATM    5  C5  UNL     1     -32.760   5.642   1.073  1.00 20.00    -0.029 A 
HETATM    6  C6  UNL     1     -32.027   4.456   0.497  1.00 20.00     0.016 C 
HETATM    7  C7  UNL     1     -33.898   6.114   0.203  1.00 20.00     0.016 C 
HETATM    8  N8  UNL     1     -33.523   7.891   3.029  1.00 20.00    -0.360 N 
HETATM    9  O9  UNL     1     -34.799   6.136   3.933  1.00 20.00    -0.273 OA
HETATM   10  H20 UNL     1     -34.045   8.677   3.402  1.00 20.00     0.162 HD
ENDROOT
TORSDOF 0
ENDMDL
MODEL 4
REMARK VINA RESULT:       0.9      2.712      3.607
REMARK  0 active torsions:
REMARK  status: ('A' for Active; 'I' for Inactive)
ROOT
HETATM    1  C1  UNL     1     -32.488   7.983   2.488  1.00 20.00     0.223 A 
HETATM    2  C2  UNL     1     -32.677   8.216   4.844  1.00 20.00     0.128 A 
HETATM    3  C3  UNL     1     -33.914   7.728   2.817  1.00 20.00     0.092 A 
HETATM    4  C4  UNL     1     -34.033   7.858   4.318  1.00 20.00     0.026 A 
HETATM    5  C5  UNL     1     -34.371   6.542   3.640  1.00 20.00    -0.029 A 
HETATM    6  C6  UNL     1     -35.831   6.172   3.557  1.00 20.00     0.016 C 
HETATM    7  C7  UNL     1     -33.467   5.347   3.808  1.00 20.00     0.016 C 
HETATM    8  N8  UNL     1     -31.832   8.279   3.670  1.00 20.00    -0.360 N 
HETATM    9  O9  UNL     1     -32.040   7.931   1.354  1.00 20.00    -0.273 OA
HETATM   10  H20 UNL     1     -30.842   8.498   3.710  1.00 20.00     0.162 HD
ENDROOT
TORSDOF 0
ENDMDL
MODEL 5
REMARK VINA RESULT:       1.3      2.452      3.503
REMARK  0 active torsions:
REMARK  status: ('A' for Active; 'I' for Inactive)
ROOT
HETATM    1  C1  UNL     1     -31.940   6.262   1.761  1.00 20.00     0.223 A 
HETATM    2  C2  UNL     1     -32.531   8.557   1.600  1.00 20.00     0.128 A 
HETATM    3  C3  UNL     1     -33.371   6.350   2.149  1.00 20.00     0.092 A 
HETATM    4  C4  UNL     1     -33.745   7.812   2.066  1.00 20.00     0.026 A 
HETATM    5  C5  UNL     1     -33.846   7.076   3.390  1.00 20.00    -0.029 A 
HETATM    6  C6  UNL     1     -35.233   6.751   3.886  1.00 20.00     0.016 C 
HETATM    7  C7  UNL     1     -32.875   7.382   4.503  1.00 20.00     0.016 C 
HETATM    8  N8  UNL     1     -31.515   7.538   1.435  1.00 20.00    -0.360 N 
HETATM    9  O9  UNL     1     -31.311   5.217   1.747  1.00 20.00    -0.273 OA
HETATM   10  H20 UNL     1     -30.570   7.743   1.130  1.00 20.00     0.162 HD
ENDROOT
TORSDOF 0
ENDMDL
MODEL 6
REMARK VINA RESULT:       1.3      2.256      3.334
REMARK  0 active torsions:
REMARK  status: ('A' for Active; 'I' for Inactive)
ROOT
HETATM    1  C1  UNL     1     -32.778   6.007   1.276  1.00 20.00     0.223 A 
HETATM    2  C2  UNL     1     -32.192   7.740   2.791  1.00 20.00     0.128 A 
HETATM    3  C3  UNL     1     -34.023   6.356   2.008  1.00 20.00     0.092 A 
HETATM    4  C4  UNL     1     -33.648   7.447   2.986  1.00 20.00     0.026 A 
HETATM    5  C5  UNL     1     -34.198   6.126   3.494  1.00 20.00    -0.029 A 
HETATM    6  C6  UNL     1     -35.610   6.134   4.026  1.00 20.00     0.016 C 
HETATM    7  C7  UNL     1     -33.297   5.158   4.219  1.00 20.00     0.016 C 
HETATM    8  N8  UNL     1     -31.772   6.836   1.740  1.00 20.00    -0.360 N 
HETATM    9  O9  UNL     1     -32.721   5.135   0.424  1.00 20.00    -0.273 OA
HETATM   10  H20 UNL     1     -30.821   6.797   1.390  1.00 20.00     0.162 HD
ENDROOT
TORSDOF 0
ENDMDL
MODEL 7
REMARK VINA RESULT:       1.4      3.623      4.641
REMARK  0 active torsions:
REMARK  status: ('A' for Active; 'I' for Inactive)
ROOT
HETATM    1  C1  UNL     1     -32.439   9.046   0.506  1.00 20.00     0.223 A 
HETATM    2  C2  UNL     1     -30.694   8.239   1.901  1.00 20.00     0.128 A 
HETATM    3  C3  UNL     1     -33.068   8.725   1.812  1.00 20.00     0.092 A 
HETATM    4  C4  UNL     1     -31.963   8.193   2.697  1.00 20.00     0.026 A 
HETATM    5  C5  UNL     1     -33.156   7.316   2.361  1.00 20.00    -0.029 A 
HETATM    6  C6  UNL     1     -34.156   7.072   3.464  1.00 20.00     0.016 C 
HETATM    7  C7  UNL     1     -32.994   6.135   1.437  1.00 20.00     0.016 C 
HETATM    8  N8  UNL     1     -31.086   8.775   0.614  1.00 20.00    -0.360 N 
HETATM    9  O9  UNL     1     -33.060   9.475  -0.452  1.00 20.00    -0.273 OA
HETATM   10  H20 UNL     1     -30.432   8.919  -0.148  1.00 20.00     0.162 HD
ENDROOT
TORSDOF 0
ENDMDL
MODEL 8
REMARK VINA RESULT:       1.4      1.784      2.533
REMARK  0 active torsions:
REMARK  status: ('A' for Active; 'I' for Inactive)
ROOT
HETATM    1  C1  UNL     1     -35.795   6.302   3.383  1.00 20.00     0.223 A 
HETATM    2  C2  UNL     1     -34.133   4.905   4.345  1.00 20.00     0.128 A 
HETATM    3  C3  UNL     1     -34.534   6.596   2.654  1.00 20.00     0.092 A 
HETATM    4  C4  UNL     1     -33.471   5.721   3.277  1.00 20.00     0.026 A 
HETATM    5  C5  UNL     1     -33.329   7.232   3.314  1.00 20.00    -0.029 A 
HETATM    6  C6  UNL     1     -32.293   7.843   2.404  1.00 20.00     0.016 C 
HETATM    7  C7  UNL     1     -33.488   7.977   4.616  1.00 20.00     0.016 C 
HETATM    8  N8  UNL     1     -35.521   5.319   4.317  1.00 20.00    -0.360 N 
HETATM    9  O9  UNL     1     -36.853   6.862   3.147  1.00 20.00    -0.273 OA
HETATM   10  H20 UNL     1     -36.225   4.939   4.941  1.00 20.00     0.162 HD
ENDROOT
TORSDOF 0
ENDMDL
MODEL 9
REMARK VINA RESULT:       1.6      2.522      3.495
REMARK  0 active torsions:
REMARK  status: ('A' for Active; 'I' for Inactive)
ROOT
HETATM    1  C1  UNL     1     -32.556   7.664   3.081  1.00 20.00     0.223 A 
HETATM    2  C2  UNL     1     -33.093   6.077   1.398  1.00 20.00     0.128 A 
HETATM    3  C3  UNL     1     -33.186   6.515   3.781  1.00 20.00     0.092 A 
HETATM    4  C4  UNL     1     -33.545   5.511   2.710  1.00 20.00     0.026 A 
HETATM    5  C5  UNL     1     -34.633   6.119   3.578  1.00 20.00    -0.029 A 
HETATM    6  C6  UNL     1     -35.251   5.223   4.623  1.00 20.00     0.016 C 
HETATM    7  C7  UNL     1     -35.610   7.105   2.990  1.00 20.00     0.016 C 
HETATM    8  N8  UNL     1     -32.505   7.357   1.733  1.00 20.00    -0.360 N 
HETATM    9  O9  UNL     1     -32.169   8.670   3.654  1.00 20.00    -0.273 OA
HETATM   10  H20 UNL     1     -32.111   7.984   1.040  1.00 20.00     0.162 HD
ENDROOT
TORSDOF 0
ENDMDL
