MODEL 1
REMARK VINA RESULT:      -0.6      0.000      0.000
REMARK  1 active torsions:
REMARK  status: ('A' for Active; 'I' for Inactive)
REMARK    1  A    between atoms: C3_3  and  C7_7 
ROOT
HETATM    1  C1  UNL     1     -34.881   5.099   4.448  1.00 20.00    -0.020 C 
HETATM    2  C2  UNL     1     -33.827   4.414   3.974  1.00 20.00    -0.086 C 
HETATM    3  C4  UNL     1     -32.849   5.018   2.996  1.00 20.00     0.049 C 
HETATM    4  C5  UNL     1     -34.002   7.228   3.405  1.00 20.00     0.023 C 
HETATM    5  C6  UNL     1     -35.189   6.531   4.093  1.00 20.00     0.005 C 
HETATM    6  C7  UNL     1     -33.340   6.326   2.364  1.00 20.00     0.091 C 
HETATM    7  C8  UNL     1     -33.548   3.000   4.393  1.00 20.00     0.043 C 
HETATM    8  C9  UNL     1     -36.453   6.593   3.235  1.00 20.00     0.014 C 
ENDROOT
BRANCH   6   9
HETATM    9  C3  UNL     1     -32.180   7.036   1.732  1.00 20.00     0.177 C 
HETATM   10  O10 UNL     1     -32.148   8.284   1.917  1.00 20.00    -0.648 OA
HETATM   11  O11 UNL     1     -31.385   6.290   1.096  1.00 20.00    -0.648 OA
ENDBRANCH   6   9
TORSDOF 1
ENDMDL
MODEL 2
REMARK VINA RESULT:      -0.4      2.342      4.379
REMARK  1 active torsions:
REMARK  status: ('A' for Active; 'I' for Inactive)
REMARK    1  A    between atoms: C3_3  and  C7_7 
ROOT
HETATM    1  C1  UNL     1     -31.831   6.665   0.949  1.00 20.00    -0.020 C 
HETATM    2  C2  UNL     1     -32.171   7.846   1.494  1.00 20.00    -0.086 C 
HETATM    3  C4  UNL     1     -33.186   7.956   2.605  1.00 20.00     0.049 C 
HETATM    4  C5  UNL     1     -33.119   5.435   2.744  1.00 20.00     0.023 C 
HETATM    5  C6  UNL     1     -32.386   5.337   1.394  1.00 20.00     0.005 C 
HETATM    6  C7  UNL     1     -34.005   6.678   2.820  1.00 20.00     0.091 C 
HETATM    7  C8  UNL     1     -31.556   9.136   1.035  1.00 20.00     0.043 C 
HETATM    8  C9  UNL     1     -33.290   4.760   0.303  1.00 20.00     0.014 C 
ENDROOT
BRANCH   6   9
HETATM    9  C3  UNL     1     -34.684   6.743   4.155  1.00 20.00     0.177 C 
HETATM   10  O10 UNL     1     -35.529   5.832   4.374  1.00 20.00    -0.648 OA
HETATM   11  O11 UNL     1     -34.321   7.705   4.887  1.00 20.00    -0.648 OA
ENDBRANCH   6   9
TORSDOF 1
ENDMDL
MODEL 3
REMARK VINA RESULT:      -0.3      2.527      3.941
REMARK  1 active torsions:
REMARK  status: ('A' for Active; 'I' for Inactive)
REMARK    1  A    between atoms: C3_3  and  C7_7 
ROOT
HETATM    1  C1  UNL     1     -31.903   7.086   1.467  1.00 20.00    -0.020 C 
HETATM    2  C2  UNL     1     -32.259   5.790   1.439  1.00 20.00    -0.086 C 
HETATM    3  C4  UNL     1     -33.355   5.238   2.317  1.00 20.00     0.049 C 
HETATM    4  C5  UNL     1     -33.892   7.628   2.931  1.00 20.00     0.023 C 
HETATM    5  C6  UNL     1     -32.563   8.126   2.335  1.00 20.00     0.005 C 
HETATM    6  C7  UNL     1     -33.784   6.191   3.439  1.00 20.00     0.091 C 
HETATM    7  C8  UNL     1     -31.590   4.805   0.525  1.00 20.00     0.043 C 
HETATM    8  C9  UNL     1     -31.593   8.583   3.426  1.00 20.00     0.014 C 
ENDROOT
BRANCH   6   9
HETATM    9  C3  UNL     1     -35.103   5.742   3.993  1.00 20.00     0.177 C 
HETATM   10  O10 UNL     1     -35.084   4.637   4.601  1.00 20.00    -0.648 OA
HETATM   11  O11 UNL     1     -36.064   6.532   3.777  1.00 20.00    -0.648 OA
ENDBRANCH   6   9
TORSDOF 1
ENDMDL
MODEL 4
REMARK VINA RESULT:       0.0      2.562      3.947
REMARK  1 active torsions:
REMARK  status: ('A' for Active; 'I' for Inactive)
REMARK    1  A    between atoms: C3_3  and  C7_7 
ROOT
HETATM    1  C1  UNL     1     -32.870   7.784   2.407  1.00 20.00    -0.020 C 
HETATM    2  C2  UNL     1     -32.619   6.563   1.903  1.00 20.00    -0.086 C 
HETATM    3  C4  UNL     1     -33.142   5.303   2.548  1.00 20.00     0.049 C 
HETATM    4  C5  UNL     1     -34.525   6.796   4.043  1.00 20.00     0.023 C 
HETATM    5  C6  UNL     1     -33.714   8.037   3.630  1.00 20.00     0.005 C 
HETATM    6  C7  UNL     1     -33.691   5.518   3.963  1.00 20.00     0.091 C 
HETATM    7  C8  UNL     1     -31.802   6.374   0.658  1.00 20.00     0.043 C 
HETATM    8  C9  UNL     1     -32.831   8.540   4.773  1.00 20.00     0.014 C 
ENDROOT
BRANCH   6   9
HETATM    9  C3  UNL     1     -34.523   4.336   4.356  1.00 20.00     0.177 C 
HETATM   10  O10 UNL     1     -33.945   3.217   4.270  1.00 20.00    -0.648 OA
HETATM   11  O11 UNL     1     -35.699   4.614   4.723  1.00 20.00    -0.648 OA
ENDBRANCH   6   9
TORSDOF 1
ENDMDL
MODEL 5
REMARK VINA RESULT:       0.0      2.073      3.472
REMARK  1 active torsions:
REMARK  status: ('A' for Active; 'I' for Inactive)
REMARK    1  A    between atoms: C3_3  and  C7_7 
ROOT
HETATM    1  C1  UNL     1     -33.044   8.188   3.039  1.00 20.00    -0.020 C 
HETATM    2  C2  UNL     1     -33.746   7.061   3.252  1.00 20.00    -0.086 C 
HETATM    3  C4  UNL     1     -33.531   5.813   2.432  1.00 20.00     0.049 C 
HETATM    4  C5  UNL     1     -31.511   6.964   1.444  1.00 20.00     0.023 C 
HETATM    5  C6  UNL     1     -31.960   8.326   2.002  1.00 20.00     0.005 C 
HETATM    6  C7  UNL     1     -32.700   6.045   1.164  1.00 20.00     0.091 C 
HETATM    7  C8  UNL     1     -34.789   6.970   4.328  1.00 20.00     0.043 C 
HETATM    8  C9  UNL     1     -32.425   9.265   0.888  1.00 20.00     0.014 C 
ENDROOT
BRANCH   6   9
HETATM    9  C3  UNL     1     -32.217   4.726   0.641  1.00 20.00     0.177 C 
HETATM   10  O10 UNL     1     -33.040   4.098  -0.081  1.00 20.00    -0.648 OA
HETATM   11  O11 UNL     1     -31.045   4.413   0.993  1.00 20.00    -0.648 OA
ENDBRANCH   6   9
TORSDOF 1
ENDMDL
MODEL 6
REMARK VINA RESULT:       0.2      2.195      3.386
REMARK  1 active torsions:
REMARK  status: ('A' for Active; 'I' for Inactive)
REMARK    1  A    between atoms: C3_3  and  C7_7 
ROOT
HETATM    1  C1  UNL     1     -33.515   6.104   2.894  1.00 20.00    -0.020 C 
HETATM    2  C2  UNL     1     -33.488   7.350   3.398  1.00 20.00    -0.086 C 
HETATM    3  C4  UNL     1     -32.909   8.515   2.634  1.00 20.00     0.049 C 
HETATM    4  C5  UNL     1     -32.773   6.973   0.638  1.00 20.00     0.023 C 
HETATM    5  C6  UNL     1     -33.011   5.736   1.523  1.00 20.00     0.005 C 
HETATM    6  C7  UNL     1     -32.085   8.099   1.409  1.00 20.00     0.091 C 
HETATM    7  C8  UNL     1     -34.041   7.666   4.757  1.00 20.00     0.043 C 
HETATM    8  C9  UNL     1     -31.748   4.881   1.647  1.00 20.00     0.014 C 
ENDROOT
BRANCH   6   9
HETATM    9  C3  UNL     1     -31.891   9.287   0.516  1.00 20.00     0.177 C 
HETATM   10  O10 UNL     1     -32.709  10.232   0.692  1.00 20.00    -0.648 OA
HETATM   11  O11 UNL     1     -30.931   9.186  -0.298  1.00 20.00    -0.648 OA
ENDBRANCH   6   9
TORSDOF 1
ENDMDL
MODEL 7
REMARK VINA RESULT:       0.5      2.034      2.786
REMARK  1 active torsions:
REMARK  status: ('A' for Active; 'I' for Inactive)
REMARK    1  A    between atoms: C3_3  and  C7_7 
ROOT
HETATM    1  C1  UNL     1     -33.048   5.895   2.762  1.00 20.00    -0.020 C 
HETATM    2  C2  UNL     1     -32.651   5.823   1.480  1.00 20.00    -0.086 C 
HETATM    3  C4  UNL     1     -32.329   7.053   0.668  1.00 20.00     0.049 C 
HETATM    4  C5  UNL     1     -32.511   8.364   2.819  1.00 20.00     0.023 C 
HETATM    5  C6  UNL     1     -33.186   7.181   3.535  1.00 20.00     0.005 C 
HETATM    6  C7  UNL     1     -32.799   8.360   1.318  1.00 20.00     0.091 C 
HETATM    7  C8  UNL     1     -32.494   4.509   0.772  1.00 20.00     0.043 C 
HETATM    8  C9  UNL     1     -34.663   7.461   3.816  1.00 20.00     0.014 C 
ENDROOT
BRANCH   6   9
HETATM    9  C3  UNL     1     -32.109   9.517   0.660  1.00 20.00     0.177 C 
HETATM   10  O10 UNL     1     -32.694  10.629   0.773  1.00 20.00    -0.648 OA
HETATM   11  O11 UNL     1     -31.028   9.225   0.075  1.00 20.00    -0.648 OA
ENDBRANCH   6   9
TORSDOF 1
ENDMDL
MODEL 8
REMARK VINA RESULT:       1.0      2.784      3.879
REMARK  1 active torsions:
REMARK  status: ('A' for Active; 'I' for Inactive)
REMARK    1  A    between atoms: C3_3  and  C7_7 
ROOT
HETATM    1  C1  UNL     1     -33.802   6.553   2.360  1.00 20.00    -0.020 C 
HETATM    2  C2  UNL     1     -32.908   5.622   1.983  1.00 20.00    -0.086 C 
HETATM    3  C4  UNL     1     -32.626   4.395   2.815  1.00 20.00     0.049 C 
HETATM    4  C5  UNL     1     -34.603   5.063   4.238  1.00 20.00     0.023 C 
HETATM    5  C6  UNL     1     -34.635   6.468   3.613  1.00 20.00     0.005 C 
HETATM    6  C7  UNL     1     -33.193   4.472   4.238  1.00 20.00     0.091 C 
HETATM    7  C8  UNL     1     -32.134   5.740   0.703  1.00 20.00     0.043 C 
HETATM    8  C9  UNL     1     -34.184   7.539   4.608  1.00 20.00     0.014 C 
ENDROOT
BRANCH   6   9
HETATM    9  C3  UNL     1     -33.212   3.099   4.838  1.00 20.00     0.177 C 
HETATM   10  O10 UNL     1     -33.765   2.210   4.133  1.00 20.00    -0.648 OA
HETATM   11  O11 UNL     1     -32.670   3.011   5.975  1.00 20.00    -0.648 OA
ENDBRANCH   6   9
TORSDOF 1
ENDMDL
MODEL 9
REMARK VINA RESULT:       1.5      2.606      4.434
REMARK  1 active torsions:
REMARK  status: ('A' for Active; 'I' for Inactive)
REMARK    1  A    between atoms: C3_3  and  C7_7 
ROOT
HETATM    1  C1  UNL     1     -32.203   7.002   1.679  1.00 20.00    -0.020 C 
HETATM    2  C2  UNL     1     -33.109   7.561   2.500  1.00 20.00    -0.086 C 
HETATM    3  C4  UNL     1     -33.977   6.738   3.419  1.00 20.00     0.049 C 
HETATM    4  C5  UNL     1     -32.546   4.756   2.788  1.00 20.00     0.023 C 
HETATM    5  C6  UNL     1     -31.929   5.522   1.604  1.00 20.00     0.005 C 
HETATM    6  C7  UNL     1     -33.961   5.238   3.102  1.00 20.00     0.091 C 
HETATM    7  C8  UNL     1     -33.311   9.047   2.560  1.00 20.00     0.043 C 
HETATM    8  C9  UNL     1     -32.415   4.973   0.262  1.00 20.00     0.014 C 
ENDROOT
BRANCH   6   9
HETATM    9  C3  UNL     1     -34.515   4.479   4.269  1.00 20.00     0.177 C 
HETATM   10  O10 UNL     1     -33.829   3.487   4.641  1.00 20.00    -0.648 OA
HETATM   11  O11 UNL     1     -35.601   4.932   4.729  1.00 20.00    -0.648 OA
ENDBRANCH   6   9
TORSDOF 1
ENDMDL
