MODEL 1
REMARK VINA RESULT:       1.1      0.000      0.000
REMARK  1 active torsions:
REMARK  status: ('A' for Active; 'I' for Inactive)
REMARK    1  A    between atoms: C3_3  and  C7_7 
ROOT
HETATM    1  C1  UNL     1     -33.876   4.809   3.509  1.00 20.00    -0.023 C 
HETATM    2  C2  UNL     1     -34.798   5.192   4.407  1.00 20.00    -0.015 C 
HETATM    3  C4  UNL     1     -35.109   6.505   2.531  1.00 20.00     0.029 C 
HETATM    4  C5  UNL     1     -33.678   5.945   2.526  1.00 20.00     0.029 C 
HETATM    5  C6  UNL     1     -35.270   6.577   4.048  1.00 20.00     0.071 C 
HETATM    6  C7  UNL     1     -32.803   7.031   3.185  1.00 20.00     0.116 C 
HETATM    7  S9  UNL     1     -33.915   7.740   4.471  1.00 20.00    -0.148 SA
ENDROOT
BRANCH   6   8
HETATM    8  C3  UNL     1     -32.420   8.123   2.242  1.00 20.00     0.246 C 
HETATM    9  O8  UNL     1     -31.612   7.975   1.330  1.00 20.00    -0.306 OA
ENDBRANCH   6   8
TORSDOF 1
ENDMDL
MODEL 2
REMARK VINA RESULT:       1.1      2.438      3.549
REMARK  1 active torsions:
REMARK  status: ('A' for Active; 'I' for Inactive)
REMARK    1  A    between atoms: C3_3  and  C7_7 
ROOT
HETATM    1  C1  UNL     1     -32.223   7.869   2.202  1.00 20.00    -0.023 C 
HETATM    2  C2  UNL     1     -31.579   6.806   1.692  1.00 20.00    -0.015 C 
HETATM    3  C4  UNL     1     -33.820   6.531   1.193  1.00 20.00     0.029 C 
HETATM    4  C5  UNL     1     -33.679   7.493   2.384  1.00 20.00     0.029 C 
HETATM    5  C6  UNL     1     -32.576   5.695   1.489  1.00 20.00     0.071 C 
HETATM    6  C7  UNL     1     -33.817   6.617   3.646  1.00 20.00     0.116 C 
HETATM    7  S9  UNL     1     -33.005   5.040   3.149  1.00 20.00    -0.148 SA
ENDROOT
BRANCH   6   8
HETATM    8  C3  UNL     1     -35.237   6.323   4.001  1.00 20.00     0.246 C 
HETATM    9  O8  UNL     1     -35.612   5.246   4.451  1.00 20.00    -0.306 OA
ENDBRANCH   6   8
TORSDOF 1
ENDMDL
MODEL 3
REMARK VINA RESULT:       1.4      1.461      2.039
REMARK  1 active torsions:
REMARK  status: ('A' for Active; 'I' for Inactive)
REMARK    1  A    between atoms: C3_3  and  C7_7 
ROOT
HETATM    1  C1  UNL     1     -35.291   7.158   3.713  1.00 20.00    -0.023 C 
HETATM    2  C2  UNL     1     -35.228   5.822   3.829  1.00 20.00    -0.015 C 
HETATM    3  C4  UNL     1     -33.159   6.643   4.453  1.00 20.00     0.029 C 
HETATM    4  C5  UNL     1     -33.877   7.685   3.579  1.00 20.00     0.029 C 
HETATM    5  C6  UNL     1     -33.780   5.407   3.805  1.00 20.00     0.071 C 
HETATM    6  C7  UNL     1     -33.382   7.434   2.140  1.00 20.00     0.116 C 
HETATM    7  S9  UNL     1     -33.187   5.603   2.079  1.00 20.00    -0.148 SA
ENDROOT
BRANCH   6   8
HETATM    8  C3  UNL     1     -32.055   8.058   1.862  1.00 20.00     0.246 C 
HETATM    9  O8  UNL     1     -31.846   8.803   0.910  1.00 20.00    -0.306 OA
ENDBRANCH   6   8
TORSDOF 1
ENDMDL
MODEL 4
REMARK VINA RESULT:       1.6      1.520      2.029
REMARK  1 active torsions:
REMARK  status: ('A' for Active; 'I' for Inactive)
REMARK    1  A    between atoms: C3_3  and  C7_7 
ROOT
HETATM    1  C1  UNL     1     -31.884   5.386   1.704  1.00 20.00    -0.023 C 
HETATM    2  C2  UNL     1     -32.703   5.094   2.727  1.00 20.00    -0.015 C 
HETATM    3  C4  UNL     1     -33.901   6.438   1.277  1.00 20.00     0.029 C 
HETATM    4  C5  UNL     1     -32.397   6.646   1.037  1.00 20.00     0.029 C 
HETATM    5  C6  UNL     1     -33.803   6.122   2.768  1.00 20.00     0.071 C 
HETATM    6  C7  UNL     1     -32.003   7.865   1.896  1.00 20.00     0.116 C 
HETATM    7  S9  UNL     1     -33.065   7.683   3.390  1.00 20.00    -0.148 SA
ENDROOT
BRANCH   6   8
HETATM    8  C3  UNL     1     -32.326   9.168   1.244  1.00 20.00     0.246 C 
HETATM    9  O8  UNL     1     -32.123   9.398   0.057  1.00 20.00    -0.306 OA
ENDBRANCH   6   8
TORSDOF 1
ENDMDL
MODEL 5
REMARK VINA RESULT:       1.8      2.387      3.748
REMARK  1 active torsions:
REMARK  status: ('A' for Active; 'I' for Inactive)
REMARK    1  A    between atoms: C3_3  and  C7_7 
ROOT
HETATM    1  C1  UNL     1     -31.647   8.360   3.261  1.00 20.00    -0.023 C 
HETATM    2  C2  UNL     1     -31.140   7.901   2.105  1.00 20.00    -0.015 C 
HETATM    3  C4  UNL     1     -33.360   8.410   1.705  1.00 20.00     0.029 C 
HETATM    4  C5  UNL     1     -33.152   8.194   3.213  1.00 20.00     0.029 C 
HETATM    5  C6  UNL     1     -32.279   7.439   1.234  1.00 20.00     0.071 C 
HETATM    6  C7  UNL     1     -33.502   6.715   3.474  1.00 20.00     0.116 C 
HETATM    7  S9  UNL     1     -32.909   5.870   1.949  1.00 20.00    -0.148 SA
ENDROOT
BRANCH   6   8
HETATM    8  C3  UNL     1     -34.970   6.476   3.603  1.00 20.00     0.246 C 
HETATM    9  O8  UNL     1     -35.455   5.634   4.352  1.00 20.00    -0.306 OA
ENDBRANCH   6   8
TORSDOF 1
ENDMDL
MODEL 6
REMARK VINA RESULT:       1.8      2.194      3.603
REMARK  1 active torsions:
REMARK  status: ('A' for Active; 'I' for Inactive)
REMARK    1  A    between atoms: C3_3  and  C7_7 
ROOT
HETATM    1  C1  UNL     1     -33.264   7.112   0.607  1.00 20.00    -0.023 C 
HETATM    2  C2  UNL     1     -32.663   8.198   1.119  1.00 20.00    -0.015 C 
HETATM    3  C4  UNL     1     -31.648   6.358   2.082  1.00 20.00     0.029 C 
HETATM    4  C5  UNL     1     -33.037   5.956   1.560  1.00 20.00     0.029 C 
HETATM    5  C6  UNL     1     -31.992   7.810   2.411  1.00 20.00     0.071 C 
HETATM    6  C7  UNL     1     -33.992   6.102   2.762  1.00 20.00     0.116 C 
HETATM    7  S9  UNL     1     -33.316   7.563   3.658  1.00 20.00    -0.148 SA
ENDROOT
BRANCH   6   8
HETATM    8  C3  UNL     1     -33.956   4.928   3.682  1.00 20.00     0.246 C 
HETATM    9  O8  UNL     1     -34.912   4.574   4.365  1.00 20.00    -0.306 OA
ENDBRANCH   6   8
TORSDOF 1
ENDMDL
MODEL 7
REMARK VINA RESULT:       1.8      2.167      3.706
REMARK  1 active torsions:
REMARK  status: ('A' for Active; 'I' for Inactive)
REMARK    1  A    between atoms: C3_3  and  C7_7 
ROOT
HETATM    1  C1  UNL     1     -33.026   8.065   0.707  1.00 20.00    -0.023 C 
HETATM    2  C2  UNL     1     -31.961   8.719   1.199  1.00 20.00    -0.015 C 
HETATM    3  C4  UNL     1     -31.800   6.534   1.934  1.00 20.00     0.029 C 
HETATM    4  C5  UNL     1     -33.261   6.838   1.564  1.00 20.00     0.029 C 
HETATM    5  C6  UNL     1     -31.428   7.947   2.378  1.00 20.00     0.071 C 
HETATM    6  C7  UNL     1     -33.943   7.267   2.879  1.00 20.00     0.116 C 
HETATM    7  S9  UNL     1     -32.610   8.183   3.762  1.00 20.00    -0.148 SA
ENDROOT
BRANCH   6   8
HETATM    8  C3  UNL     1     -34.358   6.110   3.726  1.00 20.00     0.246 C 
HETATM    9  O8  UNL     1     -35.498   5.962   4.155  1.00 20.00    -0.306 OA
ENDBRANCH   6   8
TORSDOF 1
ENDMDL
MODEL 8
REMARK VINA RESULT:       2.0      2.572      3.570
REMARK  1 active torsions:
REMARK  status: ('A' for Active; 'I' for Inactive)
REMARK    1  A    between atoms: C3_3  and  C7_7 
ROOT
HETATM    1  C1  UNL     1     -33.103   7.793   3.870  1.00 20.00    -0.023 C 
HETATM    2  C2  UNL     1     -32.651   7.994   2.621  1.00 20.00    -0.015 C 
HETATM    3  C4  UNL     1     -34.648   6.845   2.430  1.00 20.00     0.029 C 
HETATM    4  C5  UNL     1     -34.068   6.626   3.837  1.00 20.00     0.029 C 
HETATM    5  C6  UNL     1     -33.312   6.996   1.706  1.00 20.00     0.071 C 
HETATM    6  C7  UNL     1     -33.263   5.312   3.756  1.00 20.00     0.116 C 
HETATM    7  S9  UNL     1     -32.558   5.359   2.055  1.00 20.00    -0.148 SA
ENDROOT
BRANCH   6   8
HETATM    8  C3  UNL     1     -34.119   4.095   3.878  1.00 20.00     0.246 C 
HETATM    9  O8  UNL     1     -33.787   3.096   4.506  1.00 20.00    -0.306 OA
ENDBRANCH   6   8
TORSDOF 1
ENDMDL
MODEL 9
REMARK VINA RESULT:       2.1      2.138      3.012
REMARK  1 active torsions:
REMARK  status: ('A' for Active; 'I' for Inactive)
REMARK    1  A    between atoms: C3_3  and  C7_7 
ROOT
HETATM    1  C1  UNL     1     -33.310   7.395   3.381  1.00 20.00    -0.023 C 
HETATM    2  C2  UNL     1     -33.602   6.172   2.907  1.00 20.00    -0.015 C 
HETATM    3  C4  UNL     1     -31.532   6.744   2.050  1.00 20.00     0.029 C 
HETATM    4  C5  UNL     1     -32.282   8.022   2.463  1.00 20.00     0.029 C 
HETATM    5  C6  UNL     1     -32.765   5.923   1.679  1.00 20.00     0.071 C 
HETATM    6  C7  UNL     1     -32.987   8.521   1.185  1.00 20.00     0.116 C 
HETATM    7  S9  UNL     1     -33.459   6.958   0.331  1.00 20.00    -0.148 SA
ENDROOT
BRANCH   6   8
HETATM    8  C3  UNL     1     -32.084   9.296   0.284  1.00 20.00     0.246 C 
HETATM    9  O8  UNL     1     -32.392  10.370  -0.220  1.00 20.00    -0.306 OA
ENDBRANCH   6   8
TORSDOF 1
ENDMDL
