MODEL 1
REMARK VINA RESULT:       2.3      0.000      0.000
REMARK  2 active torsions:
REMARK  status: ('A' for Active; 'I' for Inactive)
REMARK    1  A    between atoms: C4_4  and  C10_10 
REMARK    2  A    between atoms: C5_5  and  C10_10 
ROOT
HETATM    1  C1  UNL     1     -34.850   7.710   4.037  1.00 20.00    -0.026 C 
HETATM    2  C2  UNL     1     -33.575   7.670   4.448  1.00 20.00    -0.024 C 
HETATM    3  C6  UNL     1     -34.124   5.534   3.777  1.00 20.00     0.018 C 
HETATM    4  C7  UNL     1     -34.283   6.839   1.788  1.00 20.00     0.030 C 
HETATM    5  C8  UNL     1     -35.053   6.545   3.100  1.00 20.00     0.010 C 
HETATM    6  C9  UNL     1     -32.919   6.487   3.765  1.00 20.00     0.028 C 
HETATM    7  C10 UNL     1     -32.786   6.789   2.244  1.00 20.00     0.044 C 
ENDROOT
BRANCH   7   8
HETATM    8  C4  UNL     1     -31.995   5.749   1.510  1.00 20.00    -0.019 C 
HETATM    9  C3  UNL     1     -32.520   4.896   0.625  1.00 20.00     0.008 C 
ENDBRANCH   7   8
BRANCH   7  10
HETATM   10  C5  UNL     1     -32.061   8.075   1.967  1.00 20.00     0.136 C 
HETATM   11  C11 UNL     1     -32.552   8.891   0.801  1.00 20.00     0.092 C 
HETATM   12  O12 UNL     1     -31.115   8.445   2.660  1.00 20.00    -0.297 OA
ENDBRANCH   7  10
TORSDOF 2
ENDMDL
MODEL 2
REMARK VINA RESULT:       3.0      1.850      3.553
REMARK  2 active torsions:
REMARK  status: ('A' for Active; 'I' for Inactive)
REMARK    1  A    between atoms: C4_4  and  C10_10 
REMARK    2  A    between atoms: C5_5  and  C10_10 
ROOT
HETATM    1  C1  UNL     1     -32.178   7.301   1.305  1.00 20.00    -0.026 C 
HETATM    2  C2  UNL     1     -33.475   7.082   1.053  1.00 20.00    -0.024 C 
HETATM    3  C6  UNL     1     -32.448   5.018   1.080  1.00 20.00     0.018 C 
HETATM    4  C7  UNL     1     -32.191   5.838   3.305  1.00 20.00     0.030 C 
HETATM    5  C8  UNL     1     -31.614   6.024   1.879  1.00 20.00     0.010 C 
HETATM    6  C9  UNL     1     -33.784   5.661   1.482  1.00 20.00     0.028 C 
HETATM    7  C10 UNL     1     -33.710   5.572   3.033  1.00 20.00     0.044 C 
ENDROOT
BRANCH   7   8
HETATM    8  C4  UNL     1     -34.166   4.247   3.564  1.00 20.00    -0.019 C 
HETATM    9  C3  UNL     1     -33.468   3.507   4.431  1.00 20.00     0.008 C 
ENDBRANCH   7   8
BRANCH   7  10
HETATM   10  C5  UNL     1     -34.596   6.575   3.717  1.00 20.00     0.136 C 
HETATM   11  C11 UNL     1     -33.912   7.727   4.401  1.00 20.00     0.092 C 
HETATM   12  O12 UNL     1     -35.820   6.460   3.717  1.00 20.00    -0.297 OA
ENDBRANCH   7  10
TORSDOF 2
ENDMDL
MODEL 3
REMARK VINA RESULT:       3.0      1.052      3.306
REMARK  2 active torsions:
REMARK  status: ('A' for Active; 'I' for Inactive)
REMARK    1  A    between atoms: C4_4  and  C10_10 
REMARK    2  A    between atoms: C5_5  and  C10_10 
ROOT
HETATM    1  C1  UNL     1     -31.400   6.513   1.310  1.00 20.00    -0.026 C 
HETATM    2  C2  UNL     1     -32.034   7.694   1.333  1.00 20.00    -0.024 C 
HETATM    3  C6  UNL     1     -33.639   6.087   0.938  1.00 20.00     0.018 C 
HETATM    4  C7  UNL     1     -32.815   5.578   3.117  1.00 20.00     0.030 C 
HETATM    5  C8  UNL     1     -32.426   5.451   1.622  1.00 20.00     0.010 C 
HETATM    6  C9  UNL     1     -33.483   7.420   1.685  1.00 20.00     0.028 C 
HETATM    7  C10 UNL     1     -33.565   6.951   3.166  1.00 20.00     0.044 C 
ENDROOT
BRANCH   7   8
HETATM    8  C4  UNL     1     -34.975   6.819   3.658  1.00 20.00    -0.019 C 
HETATM    9  C3  UNL     1     -35.487   5.694   4.167  1.00 20.00     0.008 C 
ENDBRANCH   7   8
BRANCH   7  10
HETATM   10  C5  UNL     1     -32.924   7.918   4.121  1.00 20.00     0.136 C 
HETATM   11  C11 UNL     1     -33.665   8.198   5.400  1.00 20.00     0.092 C 
HETATM   12  O12 UNL     1     -31.846   8.453   3.870  1.00 20.00    -0.297 OA
ENDBRANCH   7  10
TORSDOF 2
ENDMDL
MODEL 4
REMARK VINA RESULT:       3.1      1.251      3.614
REMARK  2 active torsions:
REMARK  status: ('A' for Active; 'I' for Inactive)
REMARK    1  A    between atoms: C4_4  and  C10_10 
REMARK    2  A    between atoms: C5_5  and  C10_10 
ROOT
HETATM    1  C1  UNL     1     -31.810  10.562   0.689  1.00 20.00    -0.026 C 
HETATM    2  C2  UNL     1     -33.040  10.301   1.154  1.00 20.00    -0.024 C 
HETATM    3  C6  UNL     1     -32.656   8.823  -0.573  1.00 20.00     0.018 C 
HETATM    4  C7  UNL     1     -31.036   8.241   1.077  1.00 20.00     0.030 C 
HETATM    5  C8  UNL     1     -31.322   9.313  -0.004  1.00 20.00     0.010 C 
HETATM    6  C9  UNL     1     -33.363   8.866   0.790  1.00 20.00     0.028 C 
HETATM    7  C10 UNL     1     -32.463   7.914   1.630  1.00 20.00     0.044 C 
ENDROOT
BRANCH   7   8
HETATM    8  C4  UNL     1     -32.828   6.470   1.465  1.00 20.00    -0.019 C 
HETATM    9  C3  UNL     1     -31.936   5.482   1.341  1.00 20.00     0.008 C 
ENDBRANCH   7   8
BRANCH   7  10
HETATM   10  C5  UNL     1     -32.574   8.162   3.108  1.00 20.00     0.136 C 
HETATM   11  C11 UNL     1     -33.834   7.690   3.781  1.00 20.00     0.092 C 
HETATM   12  O12 UNL     1     -31.677   8.721   3.737  1.00 20.00    -0.297 OA
ENDBRANCH   7  10
TORSDOF 2
ENDMDL
MODEL 5
REMARK VINA RESULT:       3.2      1.797      3.902
REMARK  2 active torsions:
REMARK  status: ('A' for Active; 'I' for Inactive)
REMARK    1  A    between atoms: C4_4  and  C10_10 
REMARK    2  A    between atoms: C5_5  and  C10_10 
ROOT
HETATM    1  C1  UNL     1     -33.242   6.687   0.515  1.00 20.00    -0.026 C 
HETATM    2  C2  UNL     1     -32.910   5.682   1.337  1.00 20.00    -0.024 C 
HETATM    3  C6  UNL     1     -31.609   7.487   1.939  1.00 20.00     0.018 C 
HETATM    4  C7  UNL     1     -33.842   8.189   2.393  1.00 20.00     0.030 C 
HETATM    5  C8  UNL     1     -32.865   7.973   1.210  1.00 20.00     0.010 C 
HETATM    6  C9  UNL     1     -32.330   6.300   2.593  1.00 20.00     0.028 C 
HETATM    7  C10 UNL     1     -33.466   7.026   3.372  1.00 20.00     0.044 C 
ENDROOT
BRANCH   7   8
HETATM    8  C4  UNL     1     -33.025   7.523   4.715  1.00 20.00    -0.019 C 
HETATM    9  C3  UNL     1     -33.662   8.474   5.406  1.00 20.00     0.008 C 
ENDBRANCH   7   8
BRANCH   7  10
HETATM   10  C5  UNL     1     -34.634   6.129   3.669  1.00 20.00     0.136 C 
HETATM   11  C11 UNL     1     -34.316   4.745   4.167  1.00 20.00     0.092 C 
HETATM   12  O12 UNL     1     -35.794   6.508   3.515  1.00 20.00    -0.297 OA
ENDBRANCH   7  10
TORSDOF 2
ENDMDL
MODEL 6
REMARK VINA RESULT:       3.2      1.686      3.898
REMARK  2 active torsions:
REMARK  status: ('A' for Active; 'I' for Inactive)
REMARK    1  A    between atoms: C4_4  and  C10_10 
REMARK    2  A    between atoms: C5_5  and  C10_10 
ROOT
HETATM    1  C1  UNL     1     -32.494   5.306   0.746  1.00 20.00    -0.026 C 
HETATM    2  C2  UNL     1     -31.905   5.202   1.945  1.00 20.00    -0.024 C 
HETATM    3  C6  UNL     1     -32.216   7.452   1.551  1.00 20.00     0.018 C 
HETATM    4  C7  UNL     1     -34.424   6.560   1.664  1.00 20.00     0.030 C 
HETATM    5  C8  UNL     1     -33.204   6.638   0.712  1.00 20.00     0.010 C 
HETATM    6  C9  UNL     1     -32.242   6.459   2.722  1.00 20.00     0.028 C 
HETATM    7  C10 UNL     1     -33.758   6.446   3.076  1.00 20.00     0.044 C 
ENDROOT
BRANCH   7   8
HETATM    8  C4  UNL     1     -34.153   7.565   3.991  1.00 20.00    -0.019 C 
HETATM    9  C3  UNL     1     -33.335   8.119   4.892  1.00 20.00     0.008 C 
ENDBRANCH   7   8
BRANCH   7  10
HETATM   10  C5  UNL     1     -34.175   5.200   3.806  1.00 20.00     0.136 C 
HETATM   11  C11 UNL     1     -35.500   5.244   4.517  1.00 20.00     0.092 C 
HETATM   12  O12 UNL     1     -33.469   4.193   3.819  1.00 20.00    -0.297 OA
ENDBRANCH   7  10
TORSDOF 2
ENDMDL
MODEL 7
REMARK VINA RESULT:       3.3      1.666      3.186
REMARK  2 active torsions:
REMARK  status: ('A' for Active; 'I' for Inactive)
REMARK    1  A    between atoms: C4_4  and  C10_10 
REMARK    2  A    between atoms: C5_5  and  C10_10 
ROOT
HETATM    1  C1  UNL     1     -31.557   8.314   3.186  1.00 20.00    -0.026 C 
HETATM    2  C2  UNL     1     -32.889   8.447   3.254  1.00 20.00    -0.024 C 
HETATM    3  C6  UNL     1     -32.342   8.369   1.015  1.00 20.00     0.018 C 
HETATM    4  C7  UNL     1     -31.708   6.230   1.856  1.00 20.00     0.030 C 
HETATM    5  C8  UNL     1     -31.238   7.706   1.843  1.00 20.00     0.010 C 
HETATM    6  C9  UNL     1     -33.461   7.905   1.959  1.00 20.00     0.028 C 
HETATM    7  C10 UNL     1     -33.266   6.361   1.926  1.00 20.00     0.044 C 
ENDROOT
BRANCH   7   8
HETATM    8  C4  UNL     1     -33.952   5.711   0.763  1.00 20.00    -0.019 C 
HETATM    9  C3  UNL     1     -33.450   4.677   0.081  1.00 20.00     0.008 C 
ENDBRANCH   7   8
BRANCH   7  10
HETATM   10  C5  UNL     1     -33.843   5.675   3.132  1.00 20.00     0.136 C 
HETATM   11  C11 UNL     1     -35.033   6.329   3.778  1.00 20.00     0.092 C 
HETATM   12  O12 UNL     1     -33.366   4.628   3.568  1.00 20.00    -0.297 OA
ENDBRANCH   7  10
TORSDOF 2
ENDMDL
MODEL 8
REMARK VINA RESULT:       3.4      1.218      2.679
REMARK  2 active torsions:
REMARK  status: ('A' for Active; 'I' for Inactive)
REMARK    1  A    between atoms: C4_4  and  C10_10 
REMARK    2  A    between atoms: C5_5  and  C10_10 
ROOT
HETATM    1  C1  UNL     1     -34.140   6.381   4.660  1.00 20.00    -0.026 C 
HETATM    2  C2  UNL     1     -34.770   6.081   3.516  1.00 20.00    -0.024 C 
HETATM    3  C6  UNL     1     -34.637   8.380   3.617  1.00 20.00     0.018 C 
HETATM    4  C7  UNL     1     -32.367   7.660   3.494  1.00 20.00     0.030 C 
HETATM    5  C8  UNL     1     -33.547   7.758   4.494  1.00 20.00     0.010 C 
HETATM    6  C9  UNL     1     -34.577   7.254   2.575  1.00 20.00     0.028 C 
HETATM    7  C10 UNL     1     -33.083   7.317   2.145  1.00 20.00     0.044 C 
ENDROOT
BRANCH   7   8
HETATM    8  C4  UNL     1     -32.826   8.341   1.081  1.00 20.00    -0.019 C 
HETATM    9  C3  UNL     1     -31.657   8.968   0.912  1.00 20.00     0.008 C 
ENDBRANCH   7   8
BRANCH   7  10
HETATM   10  C5  UNL     1     -32.593   6.028   1.550  1.00 20.00     0.136 C 
HETATM   11  C11 UNL     1     -33.470   5.384   0.511  1.00 20.00     0.092 C 
HETATM   12  O12 UNL     1     -31.525   5.523   1.893  1.00 20.00    -0.297 OA
ENDBRANCH   7  10
TORSDOF 2
ENDMDL
MODEL 9
REMARK VINA RESULT:       3.4      1.632      2.669
REMARK  2 active torsions:
REMARK  status: ('A' for Active; 'I' for Inactive)
REMARK    1  A    between atoms: C4_4  and  C10_10 
REMARK    2  A    between atoms: C5_5  and  C10_10 
ROOT
HETATM    1  C1  UNL     1     -33.970   8.753   2.859  1.00 20.00    -0.026 C 
HETATM    2  C2  UNL     1     -32.719   8.312   2.666  1.00 20.00    -0.024 C 
HETATM    3  C6  UNL     1     -33.388   7.528   4.729  1.00 20.00     0.018 C 
HETATM    4  C7  UNL     1     -34.860   6.464   3.184  1.00 20.00     0.030 C 
HETATM    5  C8  UNL     1     -34.616   7.833   3.867  1.00 20.00     0.010 C 
HETATM    6  C9  UNL     1     -32.538   7.080   3.530  1.00 20.00     0.028 C 
HETATM    7  C10 UNL     1     -33.408   5.925   2.956  1.00 20.00     0.044 C 
ENDROOT
BRANCH   7   8
HETATM    8  C4  UNL     1     -33.165   4.615   3.642  1.00 20.00    -0.019 C 
HETATM    9  C3  UNL     1     -34.101   3.939   4.315  1.00 20.00     0.008 C 
ENDBRANCH   7   8
BRANCH   7  10
HETATM   10  C5  UNL     1     -33.124   5.647   1.507  1.00 20.00     0.136 C 
HETATM   11  C11 UNL     1     -31.740   5.164   1.169  1.00 20.00     0.092 C 
HETATM   12  O12 UNL     1     -33.982   5.804   0.639  1.00 20.00    -0.297 OA
ENDBRANCH   7  10
TORSDOF 2
ENDMDL
