MODEL 1
REMARK VINA RESULT:      -0.8      0.000      0.000
REMARK  1 active torsions:
REMARK  status: ('A' for Active; 'I' for Inactive)
REMARK    1  A    between atoms: C3_3  and  C6_6 
ROOT
HETATM    1  C1  UNL     1     -34.575   7.510   4.334  1.00 20.00    -0.030 C 
HETATM    2  C2  UNL     1     -34.927   6.240   4.099  1.00 20.00    -0.026 C 
HETATM    3  C4  UNL     1     -33.480   8.216   3.592  1.00 20.00     0.032 C 
HETATM    4  C5  UNL     1     -34.267   5.372   3.055  1.00 20.00     0.018 C 
HETATM    5  C6  UNL     1     -33.472   6.226   2.039  1.00 20.00     0.098 C 
HETATM    6  C7  UNL     1     -32.600   7.286   2.732  1.00 20.00    -0.000 C 
HETATM    7  C8  UNL     1     -33.438   4.300   3.774  1.00 20.00     0.015 C 
HETATM    8  C9  UNL     1     -31.793   8.127   1.737  1.00 20.00     0.011 C 
ENDROOT
BRANCH   5   9
HETATM    9  C3  UNL     1     -32.654   5.303   1.149  1.00 20.00     0.178 C 
HETATM   10  O10 UNL     1     -31.435   5.199   1.455  1.00 20.00    -0.648 OA
HETATM   11  O11 UNL     1     -33.304   4.760   0.212  1.00 20.00    -0.648 OA
ENDBRANCH   5   9
TORSDOF 1
ENDMDL
MODEL 2
REMARK VINA RESULT:      -0.4      2.008      3.162
REMARK  1 active torsions:
REMARK  status: ('A' for Active; 'I' for Inactive)
REMARK    1  A    between atoms: C3_3  and  C6_6 
ROOT
HETATM    1  C1  UNL     1     -31.687   7.813   1.662  1.00 20.00    -0.030 C 
HETATM    2  C2  UNL     1     -31.898   6.571   1.211  1.00 20.00    -0.026 C 
HETATM    3  C4  UNL     1     -32.396   8.395   2.848  1.00 20.00     0.032 C 
HETATM    4  C5  UNL     1     -32.870   5.607   1.847  1.00 20.00     0.018 C 
HETATM    5  C6  UNL     1     -33.248   6.057   3.278  1.00 20.00     0.098 C 
HETATM    6  C7  UNL     1     -33.592   7.554   3.341  1.00 20.00    -0.000 C 
HETATM    7  C8  UNL     1     -34.062   5.430   0.898  1.00 20.00     0.015 C 
HETATM    8  C9  UNL     1     -33.986   8.009   4.751  1.00 20.00     0.011 C 
ENDROOT
BRANCH   5   9
HETATM    9  C3  UNL     1     -34.385   5.185   3.788  1.00 20.00     0.178 C 
HETATM   10  O10 UNL     1     -34.087   3.976   3.993  1.00 20.00    -0.648 OA
HETATM   11  O11 UNL     1     -35.485   5.786   3.939  1.00 20.00    -0.648 OA
ENDBRANCH   5   9
TORSDOF 1
ENDMDL
MODEL 3
REMARK VINA RESULT:       0.3      1.974      3.314
REMARK  1 active torsions:
REMARK  status: ('A' for Active; 'I' for Inactive)
REMARK    1  A    between atoms: C3_3  and  C6_6 
ROOT
HETATM    1  C1  UNL     1     -31.936   8.471   1.582  1.00 20.00    -0.030 C 
HETATM    2  C2  UNL     1     -32.683   8.894   2.610  1.00 20.00    -0.026 C 
HETATM    3  C4  UNL     1     -31.885   7.042   1.130  1.00 20.00     0.032 C 
HETATM    4  C5  UNL     1     -33.566   7.985   3.429  1.00 20.00     0.018 C 
HETATM    5  C6  UNL     1     -33.828   6.649   2.693  1.00 20.00     0.098 C 
HETATM    6  C7  UNL     1     -32.539   6.047   2.111  1.00 20.00    -0.000 C 
HETATM    7  C8  UNL     1     -32.940   7.834   4.822  1.00 20.00     0.015 C 
HETATM    8  C9  UNL     1     -32.782   4.714   1.395  1.00 20.00     0.011 C 
ENDROOT
BRANCH   5   9
HETATM    9  C3  UNL     1     -34.531   5.690   3.642  1.00 20.00     0.178 C 
HETATM   10  O10 UNL     1     -33.906   4.623   3.892  1.00 20.00    -0.648 OA
HETATM   11  O11 UNL     1     -35.655   6.088   4.058  1.00 20.00    -0.648 OA
ENDBRANCH   5   9
TORSDOF 1
ENDMDL
MODEL 4
REMARK VINA RESULT:       0.8      1.058      2.933
REMARK  1 active torsions:
REMARK  status: ('A' for Active; 'I' for Inactive)
REMARK    1  A    between atoms: C3_3  and  C6_6 
ROOT
HETATM    1  C1  UNL     1     -32.757   8.661   4.553  1.00 20.00    -0.030 C 
HETATM    2  C2  UNL     1     -31.887   8.761   3.540  1.00 20.00    -0.026 C 
HETATM    3  C4  UNL     1     -33.836   7.622   4.619  1.00 20.00     0.032 C 
HETATM    4  C5  UNL     1     -31.887   7.834   2.348  1.00 20.00     0.018 C 
HETATM    5  C6  UNL     1     -32.694   6.547   2.640  1.00 20.00     0.098 C 
HETATM    6  C7  UNL     1     -34.049   6.851   3.299  1.00 20.00    -0.000 C 
HETATM    7  C8  UNL     1     -32.368   8.625   1.124  1.00 20.00     0.015 C 
HETATM    8  C9  UNL     1     -34.867   5.585   3.577  1.00 20.00     0.011 C 
ENDROOT
BRANCH   5   9
HETATM    9  C3  UNL     1     -32.849   5.756   1.350  1.00 20.00     0.178 C 
HETATM   10  O10 UNL     1     -33.917   5.966   0.713  1.00 20.00    -0.648 OA
HETATM   11  O11 UNL     1     -31.883   4.986   1.083  1.00 20.00    -0.648 OA
ENDBRANCH   5   9
TORSDOF 1
ENDMDL
MODEL 5
REMARK VINA RESULT:       1.1      1.714      3.129
REMARK  1 active torsions:
REMARK  status: ('A' for Active; 'I' for Inactive)
REMARK    1  A    between atoms: C3_3  and  C6_6 
ROOT
HETATM    1  C1  UNL     1     -34.777   5.288   3.968  1.00 20.00    -0.030 C 
HETATM    2  C2  UNL     1     -34.769   6.535   4.455  1.00 20.00    -0.026 C 
HETATM    3  C4  UNL     1     -33.919   4.842   2.821  1.00 20.00     0.032 C 
HETATM    4  C5  UNL     1     -33.891   7.636   3.912  1.00 20.00     0.018 C 
HETATM    5  C6  UNL     1     -32.738   7.061   3.055  1.00 20.00     0.098 C 
HETATM    6  C7  UNL     1     -33.232   5.996   2.062  1.00 20.00    -0.000 C 
HETATM    7  C8  UNL     1     -34.784   8.648   3.184  1.00 20.00     0.015 C 
HETATM    8  C9  UNL     1     -32.103   5.431   1.194  1.00 20.00     0.011 C 
ENDROOT
BRANCH   5   9
HETATM    9  C3  UNL     1     -32.021   8.206   2.357  1.00 20.00     0.178 C 
HETATM   10  O10 UNL     1     -32.389   8.431   1.172  1.00 20.00    -0.648 OA
HETATM   11  O11 UNL     1     -31.144   8.785   3.058  1.00 20.00    -0.648 OA
ENDBRANCH   5   9
TORSDOF 1
ENDMDL
MODEL 6
REMARK VINA RESULT:       1.2      2.309      4.003
REMARK  1 active torsions:
REMARK  status: ('A' for Active; 'I' for Inactive)
REMARK    1  A    between atoms: C3_3  and  C6_6 
ROOT
HETATM    1  C1  UNL     1     -31.779   5.904   1.011  1.00 20.00    -0.030 C 
HETATM    2  C2  UNL     1     -32.063   7.193   1.240  1.00 20.00    -0.026 C 
HETATM    3  C4  UNL     1     -32.338   4.776   1.826  1.00 20.00     0.032 C 
HETATM    4  C5  UNL     1     -32.985   7.660   2.340  1.00 20.00     0.018 C 
HETATM    5  C6  UNL     1     -33.863   6.499   2.865  1.00 20.00     0.098 C 
HETATM    6  C7  UNL     1     -33.042   5.225   3.123  1.00 20.00    -0.000 C 
HETATM    7  C8  UNL     1     -32.137   8.355   3.414  1.00 20.00     0.015 C 
HETATM    8  C9  UNL     1     -33.898   4.073   3.661  1.00 20.00     0.011 C 
ENDROOT
BRANCH   5   9
HETATM    9  C3  UNL     1     -34.607   6.964   4.108  1.00 20.00     0.178 C 
HETATM   10  O10 UNL     1     -34.055   7.901   4.748  1.00 20.00    -0.648 OA
HETATM   11  O11 UNL     1     -35.684   6.348   4.340  1.00 20.00    -0.648 OA
ENDBRANCH   5   9
TORSDOF 1
ENDMDL
MODEL 7
REMARK VINA RESULT:       1.2      2.327      4.088
REMARK  1 active torsions:
REMARK  status: ('A' for Active; 'I' for Inactive)
REMARK    1  A    between atoms: C3_3  and  C6_6 
ROOT
HETATM    1  C1  UNL     1     -31.752   6.258   0.994  1.00 20.00    -0.030 C 
HETATM    2  C2  UNL     1     -32.040   7.517   1.347  1.00 20.00    -0.026 C 
HETATM    3  C4  UNL     1     -32.313   5.055   1.690  1.00 20.00     0.032 C 
HETATM    4  C5  UNL     1     -32.968   7.873   2.483  1.00 20.00     0.018 C 
HETATM    5  C6  UNL     1     -33.847   6.665   2.886  1.00 20.00     0.098 C 
HETATM    6  C7  UNL     1     -33.026   5.372   3.021  1.00 20.00    -0.000 C 
HETATM    7  C8  UNL     1     -32.127   8.459   3.625  1.00 20.00     0.015 C 
HETATM    8  C9  UNL     1     -33.882   4.171   3.438  1.00 20.00     0.011 C 
ENDROOT
BRANCH   5   9
HETATM    9  C3  UNL     1     -34.598   7.003   4.164  1.00 20.00     0.178 C 
HETATM   10  O10 UNL     1     -35.651   6.337   4.364  1.00 20.00    -0.648 OA
HETATM   11  O11 UNL     1     -34.069   7.912   4.863  1.00 20.00    -0.648 OA
ENDBRANCH   5   9
TORSDOF 1
ENDMDL
MODEL 8
REMARK VINA RESULT:       1.3      1.857      2.996
REMARK  1 active torsions:
REMARK  status: ('A' for Active; 'I' for Inactive)
REMARK    1  A    between atoms: C3_3  and  C6_6 
ROOT
HETATM    1  C1  UNL     1     -34.390   4.937   3.256  1.00 20.00    -0.030 C 
HETATM    2  C2  UNL     1     -33.718   4.856   2.101  1.00 20.00    -0.026 C 
HETATM    3  C4  UNL     1     -34.364   6.144   4.145  1.00 20.00     0.032 C 
HETATM    4  C5  UNL     1     -32.862   5.972   1.555  1.00 20.00     0.018 C 
HETATM    5  C6  UNL     1     -33.192   7.318   2.243  1.00 20.00     0.098 C 
HETATM    6  C7  UNL     1     -33.284   7.179   3.771  1.00 20.00    -0.000 C 
HETATM    7  C8  UNL     1     -31.392   5.546   1.660  1.00 20.00     0.015 C 
HETATM    8  C9  UNL     1     -33.593   8.509   4.466  1.00 20.00     0.011 C 
ENDROOT
BRANCH   5   9
HETATM    9  C3  UNL     1     -32.163   8.355   1.822  1.00 20.00     0.178 C 
HETATM   10  O10 UNL     1     -32.450   9.010   0.782  1.00 20.00    -0.648 OA
HETATM   11  O11 UNL     1     -31.148   8.427   2.570  1.00 20.00    -0.648 OA
ENDBRANCH   5   9
TORSDOF 1
ENDMDL
MODEL 9
REMARK VINA RESULT:       1.6      2.412      3.472
REMARK  1 active torsions:
REMARK  status: ('A' for Active; 'I' for Inactive)
REMARK    1  A    between atoms: C3_3  and  C6_6 
ROOT
HETATM    1  C1  UNL     1     -33.096   4.561   1.970  1.00 20.00    -0.030 C 
HETATM    2  C2  UNL     1     -33.804   4.526   3.106  1.00 20.00    -0.026 C 
HETATM    3  C4  UNL     1     -32.511   5.818   1.399  1.00 20.00     0.032 C 
HETATM    4  C5  UNL     1     -34.092   5.745   3.947  1.00 20.00     0.018 C 
HETATM    5  C6  UNL     1     -33.140   6.911   3.585  1.00 20.00     0.098 C 
HETATM    6  C7  UNL     1     -33.023   7.111   2.066  1.00 20.00    -0.000 C 
HETATM    7  C8  UNL     1     -35.584   6.077   3.819  1.00 20.00     0.015 C 
HETATM    8  C9  UNL     1     -32.098   8.275   1.695  1.00 20.00     0.011 C 
ENDROOT
BRANCH   5   9
HETATM    9  C3  UNL     1     -33.609   8.171   4.296  1.00 20.00     0.178 C 
HETATM   10  O10 UNL     1     -34.545   8.796   3.724  1.00 20.00    -0.648 OA
HETATM   11  O11 UNL     1     -32.998   8.431   5.370  1.00 20.00    -0.648 OA
ENDBRANCH   5   9
TORSDOF 1
ENDMDL
