MODEL 1
REMARK VINA RESULT:      -0.0      0.000      0.000
REMARK  1 active torsions:
REMARK  status: ('A' for Active; 'I' for Inactive)
REMARK    1  A    between atoms: C3_3  and  C5_5 
ROOT
HETATM    1  C1  UNL     1     -31.989   6.792   1.493  1.00 20.00     0.050 A 
HETATM    2  C2  UNL     1     -32.849   6.129   2.397  1.00 20.00    -0.026 A 
HETATM    3  C3  UNL     1     -32.354   8.122   1.529  1.00 20.00     0.113 A 
HETATM    4  C4  UNL     1     -33.667   7.105   2.918  1.00 20.00     0.060 A 
HETATM    5  C6  UNL     1     -32.950   4.706   2.814  1.00 20.00     0.041 C 
HETATM    6  C7  UNL     1     -34.764   6.941   3.894  1.00 20.00     0.066 C 
HETATM    7  C8  UNL     1     -34.291   4.443   3.537  1.00 20.00     0.005 C 
HETATM    8  C9  UNL     1     -34.645   5.551   4.552  1.00 20.00     0.007 C 
HETATM    9  O11 UNL     1     -33.384   8.322   2.399  1.00 20.00    -0.311 OA
ENDROOT
BRANCH   3  10
HETATM   10  C5  UNL     1     -31.845   9.254   0.833  1.00 20.00     0.295 C 
HETATM   11  O10 UNL     1     -32.507   9.941   0.024  1.00 20.00    -0.299 OA
ENDBRANCH   3  10
TORSDOF 1
ENDMDL
MODEL 2
REMARK VINA RESULT:       0.1      2.055      4.636
REMARK  1 active torsions:
REMARK  status: ('A' for Active; 'I' for Inactive)
REMARK    1  A    between atoms: C3_3  and  C5_5 
ROOT
HETATM    1  C1  UNL     1     -34.182   7.518   3.912  1.00 20.00     0.050 A 
HETATM    2  C2  UNL     1     -33.254   7.792   2.883  1.00 20.00    -0.026 A 
HETATM    3  C3  UNL     1     -34.473   6.172   3.813  1.00 20.00     0.113 A 
HETATM    4  C4  UNL     1     -33.046   6.593   2.240  1.00 20.00     0.060 A 
HETATM    5  C6  UNL     1     -32.553   9.038   2.479  1.00 20.00     0.041 C 
HETATM    6  C7  UNL     1     -32.181   6.331   1.071  1.00 20.00     0.066 C 
HETATM    7  C8  UNL     1     -31.939   8.887   1.069  1.00 20.00     0.005 C 
HETATM    8  C9  UNL     1     -31.230   7.530   0.873  1.00 20.00     0.007 C 
HETATM    9  O11 UNL     1     -33.782   5.599   2.787  1.00 20.00    -0.311 OA
ENDROOT
BRANCH   3  10
HETATM   10  C5  UNL     1     -35.338   5.340   4.577  1.00 20.00     0.295 C 
HETATM   11  O10 UNL     1     -35.097   4.146   4.861  1.00 20.00    -0.299 OA
ENDBRANCH   3  10
TORSDOF 1
ENDMDL
MODEL 3
REMARK VINA RESULT:       0.3      0.865      1.894
REMARK  1 active torsions:
REMARK  status: ('A' for Active; 'I' for Inactive)
REMARK    1  A    between atoms: C3_3  and  C5_5 
ROOT
HETATM    1  C1  UNL     1     -33.695   8.118   2.612  1.00 20.00     0.050 A 
HETATM    2  C2  UNL     1     -33.992   6.850   3.159  1.00 20.00    -0.026 A 
HETATM    3  C3  UNL     1     -32.584   7.935   1.813  1.00 20.00     0.113 A 
HETATM    4  C4  UNL     1     -33.045   5.992   2.649  1.00 20.00     0.060 A 
HETATM    5  C6  UNL     1     -35.067   6.387   4.074  1.00 20.00     0.041 C 
HETATM    6  C7  UNL     1     -32.888   4.549   2.925  1.00 20.00     0.066 C 
HETATM    7  C8  UNL     1     -34.726   4.998   4.661  1.00 20.00     0.005 C 
HETATM    8  C9  UNL     1     -34.174   4.025   3.597  1.00 20.00     0.007 C 
HETATM    9  O11 UNL     1     -32.178   6.634   1.833  1.00 20.00    -0.311 OA
ENDROOT
BRANCH   3  10
HETATM   10  C5  UNL     1     -31.839   8.849   1.017  1.00 20.00     0.295 C 
HETATM   11  O10 UNL     1     -32.350   9.746   0.309  1.00 20.00    -0.299 OA
ENDBRANCH   3  10
TORSDOF 1
ENDMDL
MODEL 4
REMARK VINA RESULT:       1.0      1.800      4.288
REMARK  1 active torsions:
REMARK  status: ('A' for Active; 'I' for Inactive)
REMARK    1  A    between atoms: C3_3  and  C5_5 
ROOT
HETATM    1  C1  UNL     1     -33.655   5.534   2.694  1.00 20.00     0.050 A 
HETATM    2  C2  UNL     1     -32.900   6.533   2.040  1.00 20.00    -0.026 A 
HETATM    3  C3  UNL     1     -34.426   6.193   3.630  1.00 20.00     0.113 A 
HETATM    4  C4  UNL     1     -33.272   7.723   2.623  1.00 20.00     0.060 A 
HETATM    5  C6  UNL     1     -31.907   6.468   0.937  1.00 20.00     0.041 C 
HETATM    6  C7  UNL     1     -32.761   9.076   2.322  1.00 20.00     0.066 C 
HETATM    7  C8  UNL     1     -31.101   7.785   0.850  1.00 20.00     0.005 C 
HETATM    8  C9  UNL     1     -31.995   9.037   0.984  1.00 20.00     0.007 C 
HETATM    9  O11 UNL     1     -34.195   7.536   3.594  1.00 20.00    -0.311 OA
ENDROOT
BRANCH   3  10
HETATM   10  C5  UNL     1     -35.374   5.709   4.575  1.00 20.00     0.295 C 
HETATM   11  O10 UNL     1     -35.535   4.501   4.857  1.00 20.00    -0.299 OA
ENDBRANCH   3  10
TORSDOF 1
ENDMDL
MODEL 5
REMARK VINA RESULT:       1.4      1.962      4.350
REMARK  1 active torsions:
REMARK  status: ('A' for Active; 'I' for Inactive)
REMARK    1  A    between atoms: C3_3  and  C5_5 
ROOT
HETATM    1  C1  UNL     1     -32.987   5.231   2.238  1.00 20.00     0.050 A 
HETATM    2  C2  UNL     1     -32.640   6.536   1.821  1.00 20.00    -0.026 A 
HETATM    3  C3  UNL     1     -33.785   5.389   3.354  1.00 20.00     0.113 A 
HETATM    4  C4  UNL     1     -33.258   7.387   2.709  1.00 20.00     0.060 A 
HETATM    5  C6  UNL     1     -31.824   7.034   0.685  1.00 20.00     0.041 C 
HETATM    6  C7  UNL     1     -33.198   8.863   2.737  1.00 20.00     0.066 C 
HETATM    7  C8  UNL     1     -31.446   8.519   0.892  1.00 20.00     0.005 C 
HETATM    8  C9  UNL     1     -32.635   9.368   1.393  1.00 20.00     0.007 C 
HETATM    9  O11 UNL     1     -33.953   6.708   3.650  1.00 20.00    -0.311 OA
ENDROOT
BRANCH   3  10
HETATM   10  C5  UNL     1     -34.422   4.434   4.194  1.00 20.00     0.295 C 
HETATM   11  O10 UNL     1     -33.918   3.338   4.526  1.00 20.00    -0.299 OA
ENDBRANCH   3  10
TORSDOF 1
ENDMDL
MODEL 6
REMARK VINA RESULT:       1.4      2.392      3.312
REMARK  1 active torsions:
REMARK  status: ('A' for Active; 'I' for Inactive)
REMARK    1  A    between atoms: C3_3  and  C5_5 
ROOT
HETATM    1  C1  UNL     1     -31.826   6.568   1.314  1.00 20.00     0.050 A 
HETATM    2  C2  UNL     1     -32.527   7.110   2.414  1.00 20.00    -0.026 A 
HETATM    3  C3  UNL     1     -32.419   5.350   1.050  1.00 20.00     0.113 A 
HETATM    4  C4  UNL     1     -33.496   6.186   2.732  1.00 20.00     0.060 A 
HETATM    5  C6  UNL     1     -32.382   8.390   3.154  1.00 20.00     0.041 C 
HETATM    6  C7  UNL     1     -34.487   6.253   3.825  1.00 20.00     0.066 C 
HETATM    7  C8  UNL     1     -33.141   8.333   4.500  1.00 20.00     0.005 C 
HETATM    8  C9  UNL     1     -34.542   7.698   4.364  1.00 20.00     0.007 C 
HETATM    9  O11 UNL     1     -33.442   5.108   1.917  1.00 20.00    -0.311 OA
ENDROOT
BRANCH   3  10
HETATM   10  C5  UNL     1     -32.138   4.364   0.063  1.00 20.00     0.295 C 
HETATM   11  O10 UNL     1     -31.001   3.891  -0.157  1.00 20.00    -0.299 OA
ENDBRANCH   3  10
TORSDOF 1
ENDMDL
MODEL 7
REMARK VINA RESULT:       2.0      1.497      4.334
REMARK  1 active torsions:
REMARK  status: ('A' for Active; 'I' for Inactive)
REMARK    1  A    between atoms: C3_3  and  C5_5 
ROOT
HETATM    1  C1  UNL     1     -32.690   6.255   2.133  1.00 20.00     0.050 A 
HETATM    2  C2  UNL     1     -32.322   7.423   1.429  1.00 20.00    -0.026 A 
HETATM    3  C3  UNL     1     -33.612   6.657   3.079  1.00 20.00     0.113 A 
HETATM    4  C4  UNL     1     -33.051   8.445   1.994  1.00 20.00     0.060 A 
HETATM    5  C6  UNL     1     -31.390   7.650   0.294  1.00 20.00     0.041 C 
HETATM    6  C7  UNL     1     -33.021   9.880   1.642  1.00 20.00     0.066 C 
HETATM    7  C8  UNL     1     -31.065   9.154   0.146  1.00 20.00     0.005 C 
HETATM    8  C9  UNL     1     -32.317  10.047   0.280  1.00 20.00     0.007 C 
HETATM    9  O11 UNL     1     -33.837   7.999   3.001  1.00 20.00    -0.311 OA
ENDROOT
BRANCH   3  10
HETATM   10  C5  UNL     1     -34.325   5.922   4.067  1.00 20.00     0.295 C 
HETATM   11  O10 UNL     1     -35.571   5.915   4.178  1.00 20.00    -0.299 OA
ENDBRANCH   3  10
TORSDOF 1
ENDMDL
MODEL 8
REMARK VINA RESULT:       2.2      2.343      3.393
REMARK  1 active torsions:
REMARK  status: ('A' for Active; 'I' for Inactive)
REMARK    1  A    between atoms: C3_3  and  C5_5 
ROOT
HETATM    1  C1  UNL     1     -33.538   4.972   1.887  1.00 20.00     0.050 A 
HETATM    2  C2  UNL     1     -33.609   6.076   2.766  1.00 20.00    -0.026 A 
HETATM    3  C3  UNL     1     -32.468   5.221   1.051  1.00 20.00     0.113 A 
HETATM    4  C4  UNL     1     -32.575   6.909   2.403  1.00 20.00     0.060 A 
HETATM    5  C6  UNL     1     -34.522   6.395   3.894  1.00 20.00     0.041 C 
HETATM    6  C7  UNL     1     -32.218   8.217   2.989  1.00 20.00     0.066 C 
HETATM    7  C8  UNL     1     -34.411   7.887   4.282  1.00 20.00     0.005 C 
HETATM    8  C9  UNL     1     -32.948   8.378   4.339  1.00 20.00     0.007 C 
HETATM    9  O11 UNL     1     -31.874   6.408   1.360  1.00 20.00    -0.311 OA
ENDROOT
BRANCH   3  10
HETATM   10  C5  UNL     1     -31.922   4.466  -0.024  1.00 20.00     0.295 C 
HETATM   11  O10 UNL     1     -30.868   3.796   0.048  1.00 20.00    -0.299 OA
ENDBRANCH   3  10
TORSDOF 1
ENDMDL
