MODEL 1
REMARK VINA RESULT:      -1.3      0.000      0.000
REMARK  2 active torsions:
REMARK  status: ('A' for Active; 'I' for Inactive)
REMARK    1  A    between atoms: C1_1  and  N9_9 
REMARK    2  A    between atoms: C4_4  and  C8_8 
ROOT
HETATM    1  C2  UNL     1     -31.481   6.845   1.403  1.00 20.00     0.031 C 
HETATM    2  C3  UNL     1     -32.943   8.026   2.907  1.00 20.00     0.130 C 
HETATM    3  C4  UNL     1     -32.008   8.252   1.724  1.00 20.00     0.005 C 
HETATM    4  C5  UNL     1     -32.589   5.880   1.841  1.00 20.00     0.083 C 
HETATM    5  C6  UNL     1     -33.421   5.363   0.672  1.00 20.00     0.032 C 
HETATM    6  N9  UNL     1     -33.383   6.645   2.795  1.00 20.00    -0.355 N 
ENDROOT
BRANCH   3   7
HETATM    7  C8  UNL     1     -32.723   8.905   0.545  1.00 20.00     0.002 C 
HETATM    8  C7  UNL     1     -32.413  10.366   0.440  1.00 20.00     0.005 C 
ENDBRANCH   3   7
BRANCH   6   9
HETATM    9  C1  UNL     1     -34.347   6.100   3.612  1.00 20.00     0.351 C 
HETATM   10  O10 UNL     1     -35.503   6.487   3.749  1.00 20.00    -0.284 OA
ENDBRANCH   6   9
TORSDOF 2
ENDMDL
MODEL 2
REMARK VINA RESULT:       0.1      1.817      2.938
REMARK  2 active torsions:
REMARK  status: ('A' for Active; 'I' for Inactive)
REMARK    1  A    between atoms: C1_1  and  N9_9 
REMARK    2  A    between atoms: C4_4  and  C8_8 
ROOT
HETATM    1  C2  UNL     1     -34.246   6.864   2.016  1.00 20.00     0.031 C 
HETATM    2  C3  UNL     1     -32.985   4.835   2.300  1.00 20.00     0.130 C 
HETATM    3  C4  UNL     1     -32.959   6.165   1.555  1.00 20.00     0.005 C 
HETATM    4  C5  UNL     1     -34.530   6.326   3.423  1.00 20.00     0.083 C 
HETATM    5  C6  UNL     1     -34.122   7.300   4.524  1.00 20.00     0.032 C 
HETATM    6  N9  UNL     1     -33.789   5.071   3.487  1.00 20.00    -0.355 N 
ENDROOT
BRANCH   3   7
HETATM    7  C8  UNL     1     -31.700   6.969   1.864  1.00 20.00     0.002 C 
HETATM    8  C7  UNL     1     -31.884   8.428   1.585  1.00 20.00     0.005 C 
ENDBRANCH   3   7
BRANCH   6   9
HETATM    9  C1  UNL     1     -33.937   4.136   4.487  1.00 20.00     0.351 C 
HETATM   10  O10 UNL     1     -33.288   3.106   4.636  1.00 20.00    -0.284 OA
ENDBRANCH   6   9
TORSDOF 2
ENDMDL
MODEL 3
REMARK VINA RESULT:       0.3      2.389      3.589
REMARK  2 active torsions:
REMARK  status: ('A' for Active; 'I' for Inactive)
REMARK    1  A    between atoms: C1_1  and  N9_9 
REMARK    2  A    between atoms: C4_4  and  C8_8 
ROOT
HETATM    1  C2  UNL     1     -35.223   6.295   3.978  1.00 20.00     0.031 C 
HETATM    2  C3  UNL     1     -33.562   7.379   2.615  1.00 20.00     0.130 C 
HETATM    3  C4  UNL     1     -34.376   7.573   3.889  1.00 20.00     0.005 C 
HETATM    4  C5  UNL     1     -34.402   5.205   3.277  1.00 20.00     0.083 C 
HETATM    5  C6  UNL     1     -33.687   4.280   4.256  1.00 20.00     0.032 C 
HETATM    6  N9  UNL     1     -33.474   5.941   2.426  1.00 20.00    -0.355 N 
ENDROOT
BRANCH   3   7
HETATM    7  C8  UNL     1     -33.485   7.784   5.111  1.00 20.00     0.002 C 
HETATM    8  C7  UNL     1     -32.308   8.655   4.802  1.00 20.00     0.005 C 
ENDBRANCH   3   7
BRANCH   6   9
HETATM    9  C1  UNL     1     -32.699   5.362   1.446  1.00 20.00     0.351 C 
HETATM   10  O10 UNL     1     -31.475   5.363   1.377  1.00 20.00    -0.284 OA
ENDBRANCH   6   9
TORSDOF 2
ENDMDL
MODEL 4
REMARK VINA RESULT:       0.6      2.079      4.044
REMARK  2 active torsions:
REMARK  status: ('A' for Active; 'I' for Inactive)
REMARK    1  A    between atoms: C1_1  and  N9_9 
REMARK    2  A    between atoms: C4_4  and  C8_8 
ROOT
HETATM    1  C2  UNL     1     -34.111   5.323   1.974  1.00 20.00     0.031 C 
HETATM    2  C3  UNL     1     -33.743   7.264   3.348  1.00 20.00     0.130 C 
HETATM    3  C4  UNL     1     -34.308   5.849   3.404  1.00 20.00     0.005 C 
HETATM    4  C5  UNL     1     -32.887   6.066   1.425  1.00 20.00     0.083 C 
HETATM    5  C6  UNL     1     -31.620   5.217   1.446  1.00 20.00     0.032 C 
HETATM    6  N9  UNL     1     -32.777   7.254   2.263  1.00 20.00    -0.355 N 
ENDROOT
BRANCH   3   7
HETATM    7  C8  UNL     1     -33.607   4.993   4.455  1.00 20.00     0.002 C 
HETATM    8  C7  UNL     1     -33.720   3.531   4.155  1.00 20.00     0.005 C 
ENDBRANCH   3   7
BRANCH   6   9
HETATM    9  C1  UNL     1     -31.954   8.323   1.986  1.00 20.00     0.351 C 
HETATM   10  O10 UNL     1     -31.966   9.019   0.977  1.00 20.00    -0.284 OA
ENDBRANCH   6   9
TORSDOF 2
ENDMDL
MODEL 5
REMARK VINA RESULT:       0.9      1.876      3.520
REMARK  2 active torsions:
REMARK  status: ('A' for Active; 'I' for Inactive)
REMARK    1  A    between atoms: C1_1  and  N9_9 
REMARK    2  A    between atoms: C4_4  and  C8_8 
ROOT
HETATM    1  C2  UNL     1     -32.218   8.200   3.358  1.00 20.00     0.031 C 
HETATM    2  C3  UNL     1     -32.988   5.947   3.011  1.00 20.00     0.130 C 
HETATM    3  C4  UNL     1     -33.248   7.180   3.868  1.00 20.00     0.005 C 
HETATM    4  C5  UNL     1     -31.967   7.835   1.890  1.00 20.00     0.083 C 
HETATM    5  C6  UNL     1     -32.707   8.749   0.918  1.00 20.00     0.032 C 
HETATM    6  N9  UNL     1     -32.394   6.445   1.782  1.00 20.00    -0.355 N 
ENDROOT
BRANCH   3   7
HETATM    7  C8  UNL     1     -34.687   7.673   3.741  1.00 20.00     0.002 C 
HETATM    8  C7  UNL     1     -35.669   6.544   3.759  1.00 20.00     0.005 C 
ENDBRANCH   3   7
BRANCH   6   9
HETATM    9  C1  UNL     1     -32.136   5.639   0.696  1.00 20.00     0.351 C 
HETATM   10  O10 UNL     1     -32.779   4.659   0.337  1.00 20.00    -0.284 OA
ENDBRANCH   6   9
TORSDOF 2
ENDMDL
MODEL 6
REMARK VINA RESULT:       1.3      1.597      3.128
REMARK  2 active torsions:
REMARK  status: ('A' for Active; 'I' for Inactive)
REMARK    1  A    between atoms: C1_1  and  N9_9 
REMARK    2  A    between atoms: C4_4  and  C8_8 
ROOT
HETATM    1  C2  UNL     1     -33.083   7.964   2.147  1.00 20.00     0.031 C 
HETATM    2  C3  UNL     1     -34.078   5.773   2.152  1.00 20.00     0.130 C 
HETATM    3  C4  UNL     1     -32.918   6.558   1.551  1.00 20.00     0.005 C 
HETATM    4  C5  UNL     1     -33.771   7.760   3.502  1.00 20.00     0.083 C 
HETATM    5  C6  UNL     1     -32.802   7.849   4.677  1.00 20.00     0.032 C 
HETATM    6  N9  UNL     1     -34.401   6.450   3.397  1.00 20.00    -0.355 N 
ENDROOT
BRANCH   3   7
HETATM    7  C8  UNL     1     -31.568   5.926   1.879  1.00 20.00     0.002 C 
HETATM    8  C7  UNL     1     -31.326   4.678   1.088  1.00 20.00     0.005 C 
ENDBRANCH   3   7
BRANCH   6   9
HETATM    9  C1  UNL     1     -35.317   5.957   4.299  1.00 20.00     0.351 C 
HETATM   10  O10 UNL     1     -35.431   4.796   4.675  1.00 20.00    -0.284 OA
ENDBRANCH   6   9
TORSDOF 2
ENDMDL
MODEL 7
REMARK VINA RESULT:       1.4      2.055      4.173
REMARK  2 active torsions:
REMARK  status: ('A' for Active; 'I' for Inactive)
REMARK    1  A    between atoms: C1_1  and  N9_9 
REMARK    2  A    between atoms: C4_4  and  C8_8 
ROOT
HETATM    1  C2  UNL     1     -33.755   5.204   1.869  1.00 20.00     0.031 C 
HETATM    2  C3  UNL     1     -34.471   5.696   4.113  1.00 20.00     0.130 C 
HETATM    3  C4  UNL     1     -34.024   4.539   3.227  1.00 20.00     0.005 C 
HETATM    4  C5  UNL     1     -33.349   6.648   2.189  1.00 20.00     0.083 C 
HETATM    5  C6  UNL     1     -31.842   6.872   2.108  1.00 20.00     0.032 C 
HETATM    6  N9  UNL     1     -33.877   6.886   3.527  1.00 20.00    -0.355 N 
ENDROOT
BRANCH   3   7
HETATM    7  C8  UNL     1     -32.801   3.824   3.794  1.00 20.00     0.002 C 
HETATM    8  C7  UNL     1     -33.169   2.853   4.872  1.00 20.00     0.005 C 
ENDBRANCH   3   7
BRANCH   6   9
HETATM    9  C1  UNL     1     -33.943   8.125   4.123  1.00 20.00     0.351 C 
HETATM   10  O10 UNL     1     -33.439   8.458   5.190  1.00 20.00    -0.284 OA
ENDBRANCH   6   9
TORSDOF 2
ENDMDL
MODEL 8
REMARK VINA RESULT:       1.6      1.679      3.283
REMARK  2 active torsions:
REMARK  status: ('A' for Active; 'I' for Inactive)
REMARK    1  A    between atoms: C1_1  and  N9_9 
REMARK    2  A    between atoms: C4_4  and  C8_8 
ROOT
HETATM    1  C2  UNL     1     -32.671   7.308   0.914  1.00 20.00     0.031 C 
HETATM    2  C3  UNL     1     -33.762   6.001   2.615  1.00 20.00     0.130 C 
HETATM    3  C4  UNL     1     -32.946   5.857   1.335  1.00 20.00     0.005 C 
HETATM    4  C5  UNL     1     -32.661   8.121   2.214  1.00 20.00     0.083 C 
HETATM    5  C6  UNL     1     -31.252   8.452   2.695  1.00 20.00     0.032 C 
HETATM    6  N9  UNL     1     -33.395   7.295   3.165  1.00 20.00    -0.355 N 
ENDROOT
BRANCH   3   7
HETATM    7  C8  UNL     1     -31.670   5.049   1.558  1.00 20.00     0.002 C 
HETATM    8  C7  UNL     1     -31.300   4.243   0.352  1.00 20.00     0.005 C 
ENDBRANCH   3   7
BRANCH   6   9
HETATM    9  C1  UNL     1     -33.826   7.732   4.397  1.00 20.00     0.351 C 
HETATM   10  O10 UNL     1     -33.136   8.198   5.297  1.00 20.00    -0.284 OA
ENDBRANCH   6   9
TORSDOF 2
ENDMDL
MODEL 9
REMARK VINA RESULT:       1.7      2.342      4.082
REMARK  2 active torsions:
REMARK  status: ('A' for Active; 'I' for Inactive)
REMARK    1  A    between atoms: C1_1  and  N9_9 
REMARK    2  A    between atoms: C4_4  and  C8_8 
ROOT
HETATM    1  C2  UNL     1     -31.700   6.441   2.082  1.00 20.00     0.031 C 
HETATM    2  C3  UNL     1     -33.477   7.380   0.758  1.00 20.00     0.130 C 
HETATM    3  C4  UNL     1     -33.197   6.281   1.777  1.00 20.00     0.005 C 
HETATM    4  C5  UNL     1     -31.389   7.925   1.857  1.00 20.00     0.083 C 
HETATM    5  C6  UNL     1     -31.294   8.715   3.159  1.00 20.00     0.032 C 
HETATM    6  N9  UNL     1     -32.467   8.397   0.997  1.00 20.00    -0.355 N 
ENDROOT
BRANCH   3   7
HETATM    7  C8  UNL     1     -34.076   6.415   3.018  1.00 20.00     0.002 C 
HETATM    8  C7  UNL     1     -34.233   5.111   3.736  1.00 20.00     0.005 C 
ENDBRANCH   3   7
BRANCH   6   9
HETATM    9  C1  UNL     1     -32.469   9.616   0.357  1.00 20.00     0.351 C 
HETATM   10  O10 UNL     1     -32.947   9.870  -0.744  1.00 20.00    -0.284 OA
ENDBRANCH   6   9
TORSDOF 2
ENDMDL
