MODEL 1
REMARK VINA RESULT:      -2.1      0.000      0.000
REMARK  5 active torsions:
REMARK  status: ('A' for Active; 'I' for Inactive)
REMARK    1  A    between atoms: C1_1  and  C5_5 
REMARK    2  A    between atoms: C2_2  and  C9_9 
REMARK    3  A    between atoms: C3_3  and  C6_6 
REMARK    4  A    between atoms: C9_9  and  C11_11 
REMARK    5  A    between atoms: C10_10  and  C11_11 
ROOT
HETATM    1  C4  UNL     1     -31.973   6.257   1.665  1.00 20.00     0.022 A 
HETATM    2  C5  UNL     1     -33.339   6.733   2.008  1.00 20.00     0.020 A 
HETATM    3  C6  UNL     1     -32.581   7.410   0.916  1.00 20.00     0.063 A 
ENDROOT
BRANCH   2   4
HETATM    4  C1  UNL     1     -33.521   7.427   3.317  1.00 20.00    -0.025 C 
HETATM    5  C2  UNL     1     -34.447   7.081   4.223  1.00 20.00    -0.030 C 
BRANCH   5   6
HETATM    6  C9  UNL     1     -35.417   5.951   4.035  1.00 20.00     0.027 C 
BRANCH   6   7
HETATM    7  C11 UNL     1     -34.977   4.660   4.733  1.00 20.00     0.003 C 
BRANCH   7   8
HETATM    8  C10 UNL     1     -33.889   3.904   3.967  1.00 20.00    -0.004 C 
HETATM    9  C8  UNL     1     -33.151   2.928   4.871  1.00 20.00     0.005 C 
ENDBRANCH   7   8
ENDBRANCH   6   7
ENDBRANCH   5   6
ENDBRANCH   2   4
BRANCH   3  10
HETATM   10  C3  UNL     1     -32.003   8.751   1.069  1.00 20.00     0.128 C 
HETATM   11  C7  UNL     1     -32.397   9.778   0.041  1.00 20.00     0.091 C 
HETATM   12  O12 UNL     1     -31.235   9.021   1.991  1.00 20.00    -0.298 OA
ENDBRANCH   3  10
TORSDOF 5
ENDMDL
MODEL 2
REMARK VINA RESULT:      -1.8      2.197      5.642
REMARK  5 active torsions:
REMARK  status: ('A' for Active; 'I' for Inactive)
REMARK    1  A    between atoms: C1_1  and  C5_5 
REMARK    2  A    between atoms: C2_2  and  C9_9 
REMARK    3  A    between atoms: C3_3  and  C6_6 
REMARK    4  A    between atoms: C9_9  and  C11_11 
REMARK    5  A    between atoms: C10_10  and  C11_11 
ROOT
HETATM    1  C4  UNL     1     -33.952   7.513   4.343  1.00 20.00     0.022 A 
HETATM    2  C5  UNL     1     -34.143   7.188   2.905  1.00 20.00     0.020 A 
HETATM    3  C6  UNL     1     -35.046   6.573   3.920  1.00 20.00     0.063 A 
ENDROOT
BRANCH   2   4
HETATM    4  C1  UNL     1     -33.102   6.348   2.241  1.00 20.00    -0.025 C 
HETATM    5  C2  UNL     1     -32.012   6.847   1.640  1.00 20.00    -0.030 C 
BRANCH   5   6
HETATM    6  C9  UNL     1     -31.702   8.314   1.558  1.00 20.00     0.027 C 
BRANCH   6   7
HETATM    7  C11 UNL     1     -31.506   8.806   0.121  1.00 20.00     0.003 C 
BRANCH   7   8
HETATM    8  C10 UNL     1     -32.577   9.806  -0.323  1.00 20.00    -0.004 C 
HETATM    9  C8  UNL     1     -32.864  10.830   0.764  1.00 20.00     0.005 C 
ENDBRANCH   7   8
ENDBRANCH   6   7
ENDBRANCH   5   6
ENDBRANCH   2   4
BRANCH   3  10
HETATM   10  C3  UNL     1     -34.963   5.156   4.298  1.00 20.00     0.128 C 
HETATM   11  C7  UNL     1     -33.795   4.379   3.752  1.00 20.00     0.091 C 
HETATM   12  O12 UNL     1     -35.805   4.632   5.025  1.00 20.00    -0.298 OA
ENDBRANCH   3  10
TORSDOF 5
ENDMDL
MODEL 3
REMARK VINA RESULT:      -1.2      1.938      5.108
REMARK  5 active torsions:
REMARK  status: ('A' for Active; 'I' for Inactive)
REMARK    1  A    between atoms: C1_1  and  C5_5 
REMARK    2  A    between atoms: C2_2  and  C9_9 
REMARK    3  A    between atoms: C3_3  and  C6_6 
REMARK    4  A    between atoms: C9_9  and  C11_11 
REMARK    5  A    between atoms: C10_10  and  C11_11 
ROOT
HETATM    1  C4  UNL     1     -34.115   4.094   3.724  1.00 20.00     0.022 A 
HETATM    2  C5  UNL     1     -33.035   4.862   3.051  1.00 20.00     0.020 A 
HETATM    3  C6  UNL     1     -33.788   5.490   4.176  1.00 20.00     0.063 A 
ENDROOT
BRANCH   2   4
HETATM    4  C1  UNL     1     -33.283   5.323   1.653  1.00 20.00    -0.025 C 
HETATM    5  C2  UNL     1     -32.646   6.357   1.084  1.00 20.00    -0.030 C 
BRANCH   5   6
HETATM    6  C9  UNL     1     -31.604   7.182   1.782  1.00 20.00     0.027 C 
BRANCH   6   7
HETATM    7  C11 UNL     1     -31.837   8.689   1.638  1.00 20.00     0.003 C 
BRANCH   7   8
HETATM    8  C10 UNL     1     -32.164   9.112   0.203  1.00 20.00    -0.004 C 
HETATM    9  C8  UNL     1     -32.687  10.538   0.152  1.00 20.00     0.005 C 
ENDBRANCH   7   8
ENDBRANCH   6   7
ENDBRANCH   5   6
ENDBRANCH   2   4
BRANCH   3  10
HETATM   10  C3  UNL     1     -34.771   6.561   3.969  1.00 20.00     0.128 C 
HETATM   11  C7  UNL     1     -34.284   7.972   4.168  1.00 20.00     0.091 C 
HETATM   12  O12 UNL     1     -35.932   6.317   3.649  1.00 20.00    -0.298 OA
ENDBRANCH   3  10
TORSDOF 5
ENDMDL
MODEL 4
REMARK VINA RESULT:      -1.1      1.467      2.585
REMARK  5 active torsions:
REMARK  status: ('A' for Active; 'I' for Inactive)
REMARK    1  A    between atoms: C1_1  and  C5_5 
REMARK    2  A    between atoms: C2_2  and  C9_9 
REMARK    3  A    between atoms: C3_3  and  C6_6 
REMARK    4  A    between atoms: C9_9  and  C11_11 
REMARK    5  A    between atoms: C10_10  and  C11_11 
ROOT
HETATM    1  C4  UNL     1     -32.010   8.386   2.522  1.00 20.00     0.022 A 
HETATM    2  C5  UNL     1     -31.718   7.321   1.528  1.00 20.00     0.020 A 
HETATM    3  C6  UNL     1     -31.494   8.748   1.156  1.00 20.00     0.063 A 
ENDROOT
BRANCH   2   4
HETATM    4  C1  UNL     1     -32.878   6.582   0.946  1.00 20.00    -0.025 C 
HETATM    5  C2  UNL     1     -33.516   5.581   1.570  1.00 20.00    -0.030 C 
BRANCH   5   6
HETATM    6  C9  UNL     1     -33.144   5.078   2.935  1.00 20.00     0.027 C 
BRANCH   6   7
HETATM    7  C11 UNL     1     -34.332   5.027   3.900  1.00 20.00     0.003 C 
BRANCH   7   8
HETATM    8  C10 UNL     1     -35.181   6.301   3.874  1.00 20.00    -0.004 C 
HETATM    9  C8  UNL     1     -34.401   7.497   4.396  1.00 20.00     0.005 C 
ENDBRANCH   7   8
ENDBRANCH   6   7
ENDBRANCH   5   6
ENDBRANCH   2   4
BRANCH   3  10
HETATM   10  C3  UNL     1     -32.370   9.469   0.225  1.00 20.00     0.128 C 
HETATM   11  C7  UNL     1     -32.880  10.810   0.680  1.00 20.00     0.091 C 
HETATM   12  O12 UNL     1     -32.670   9.002  -0.872  1.00 20.00    -0.298 OA
ENDBRANCH   3  10
TORSDOF 5
ENDMDL
MODEL 5
REMARK VINA RESULT:      -1.1      1.258      1.774
REMARK  5 active torsions:
REMARK  status: ('A' for Active; 'I' for Inactive)
REMARK    1  A    between atoms: C1_1  and  C5_5 
REMARK    2  A    between atoms: C2_2  and  C9_9 
REMARK    3  A    between atoms: C3_3  and  C6_6 
REMARK    4  A    between atoms: C9_9  and  C11_11 
REMARK    5  A    between atoms: C10_10  and  C11_11 
ROOT
HETATM    1  C4  UNL     1     -32.080   8.474   2.705  1.00 20.00     0.022 A 
HETATM    2  C5  UNL     1     -31.820   7.321   1.805  1.00 20.00     0.020 A 
HETATM    3  C6  UNL     1     -31.551   8.704   1.316  1.00 20.00     0.063 A 
ENDROOT
BRANCH   2   4
HETATM    4  C1  UNL     1     -33.000   6.571   1.281  1.00 20.00    -0.025 C 
HETATM    5  C2  UNL     1     -33.998   6.117   2.053  1.00 20.00    -0.030 C 
BRANCH   5   6
HETATM    6  C9  UNL     1     -34.054   6.305   3.542  1.00 20.00     0.027 C 
BRANCH   6   7
HETATM    7  C11 UNL     1     -34.492   5.042   4.290  1.00 20.00     0.003 C 
BRANCH   7   8
HETATM    8  C10 UNL     1     -33.773   3.780   3.809  1.00 20.00    -0.004 C 
HETATM    9  C8  UNL     1     -33.168   3.010   4.972  1.00 20.00     0.005 C 
ENDBRANCH   7   8
ENDBRANCH   6   7
ENDBRANCH   5   6
ENDBRANCH   2   4
BRANCH   3  10
HETATM   10  C3  UNL     1     -32.404   9.371   0.324  1.00 20.00     0.128 C 
HETATM   11  C7  UNL     1     -32.825  10.782   0.634  1.00 20.00     0.091 C 
HETATM   12  O12 UNL     1     -32.754   8.805  -0.710  1.00 20.00    -0.298 OA
ENDBRANCH   3  10
TORSDOF 5
ENDMDL
MODEL 6
REMARK VINA RESULT:      -1.0      1.194      2.081
REMARK  5 active torsions:
REMARK  status: ('A' for Active; 'I' for Inactive)
REMARK    1  A    between atoms: C1_1  and  C5_5 
REMARK    2  A    between atoms: C2_2  and  C9_9 
REMARK    3  A    between atoms: C3_3  and  C6_6 
REMARK    4  A    between atoms: C9_9  and  C11_11 
REMARK    5  A    between atoms: C10_10  and  C11_11 
ROOT
HETATM    1  C4  UNL     1     -32.604   8.736   4.123  1.00 20.00     0.022 A 
HETATM    2  C5  UNL     1     -33.268   7.414   4.263  1.00 20.00     0.020 A 
HETATM    3  C6  UNL     1     -32.121   7.559   3.321  1.00 20.00     0.063 A 
ENDROOT
BRANCH   2   4
HETATM    4  C1  UNL     1     -34.652   7.275   3.721  1.00 20.00    -0.025 C 
HETATM    5  C2  UNL     1     -35.398   6.168   3.852  1.00 20.00    -0.030 C 
BRANCH   5   6
HETATM    6  C9  UNL     1     -34.934   4.929   4.562  1.00 20.00     0.027 C 
BRANCH   6   7
HETATM    7  C11 UNL     1     -33.920   4.117   3.750  1.00 20.00     0.003 C 
BRANCH   7   8
HETATM    8  C10 UNL     1     -33.442   2.857   4.475  1.00 20.00    -0.004 C 
HETATM    9  C8  UNL     1     -32.627   3.204   5.711  1.00 20.00     0.005 C 
ENDBRANCH   7   8
ENDBRANCH   6   7
ENDBRANCH   5   6
ENDBRANCH   2   4
BRANCH   3  10
HETATM   10  C3  UNL     1     -32.290   7.565   1.863  1.00 20.00     0.128 C 
HETATM   11  C7  UNL     1     -32.495   6.228   1.201  1.00 20.00     0.091 C 
HETATM   12  O12 UNL     1     -32.267   8.610   1.215  1.00 20.00    -0.298 OA
ENDBRANCH   3  10
TORSDOF 5
ENDMDL
MODEL 7
REMARK VINA RESULT:      -1.0      1.170      1.411
REMARK  5 active torsions:
REMARK  status: ('A' for Active; 'I' for Inactive)
REMARK    1  A    between atoms: C1_1  and  C5_5 
REMARK    2  A    between atoms: C2_2  and  C9_9 
REMARK    3  A    between atoms: C3_3  and  C6_6 
REMARK    4  A    between atoms: C9_9  and  C11_11 
REMARK    5  A    between atoms: C10_10  and  C11_11 
ROOT
HETATM    1  C4  UNL     1     -31.020   8.404   2.289  1.00 20.00     0.022 A 
HETATM    2  C5  UNL     1     -32.180   7.512   2.031  1.00 20.00     0.020 A 
HETATM    3  C6  UNL     1     -31.753   8.478   0.978  1.00 20.00     0.063 A 
ENDROOT
BRANCH   2   4
HETATM    4  C1  UNL     1     -33.434   7.768   2.799  1.00 20.00    -0.025 C 
HETATM    5  C2  UNL     1     -34.228   6.798   3.278  1.00 20.00    -0.030 C 
BRANCH   5   6
HETATM    6  C9  UNL     1     -33.954   5.332   3.101  1.00 20.00     0.027 C 
BRANCH   6   7
HETATM    7  C11 UNL     1     -34.344   4.498   4.325  1.00 20.00     0.003 C 
BRANCH   7   8
HETATM    8  C10 UNL     1     -33.633   3.143   4.379  1.00 20.00    -0.004 C 
HETATM    9  C8  UNL     1     -32.650   3.080   5.537  1.00 20.00     0.005 C 
ENDBRANCH   7   8
ENDBRANCH   6   7
ENDBRANCH   5   6
ENDBRANCH   2   4
BRANCH   3  10
HETATM   10  C3  UNL     1     -32.523   9.685   0.653  1.00 20.00     0.128 C 
HETATM   11  C7  UNL     1     -32.863   9.900  -0.798  1.00 20.00     0.091 C 
HETATM   12  O12 UNL     1     -32.875  10.480   1.523  1.00 20.00    -0.298 OA
ENDBRANCH   3  10
TORSDOF 5
ENDMDL
MODEL 8
REMARK VINA RESULT:      -1.0      1.641      5.382
REMARK  5 active torsions:
REMARK  status: ('A' for Active; 'I' for Inactive)
REMARK    1  A    between atoms: C1_1  and  C5_5 
REMARK    2  A    between atoms: C2_2  and  C9_9 
REMARK    3  A    between atoms: C3_3  and  C6_6 
REMARK    4  A    between atoms: C9_9  and  C11_11 
REMARK    5  A    between atoms: C10_10  and  C11_11 
ROOT
HETATM    1  C4  UNL     1     -35.246   6.471   4.472  1.00 20.00     0.022 A 
HETATM    2  C5  UNL     1     -34.489   7.233   3.445  1.00 20.00     0.020 A 
HETATM    3  C6  UNL     1     -34.735   5.776   3.241  1.00 20.00     0.063 A 
ENDROOT
BRANCH   2   4
HETATM    4  C1  UNL     1     -33.119   7.705   3.804  1.00 20.00    -0.025 C 
HETATM    5  C2  UNL     1     -32.155   7.951   2.905  1.00 20.00    -0.030 C 
BRANCH   5   6
HETATM    6  C9  UNL     1     -32.333   7.783   1.424  1.00 20.00     0.027 C 
BRANCH   6   7
HETATM    7  C11 UNL     1     -31.528   8.798   0.605  1.00 20.00     0.003 C 
BRANCH   7   8
HETATM    8  C10 UNL     1     -32.411   9.756  -0.198  1.00 20.00    -0.004 C 
HETATM    9  C8  UNL     1     -32.859  10.937   0.649  1.00 20.00     0.005 C 
ENDBRANCH   7   8
ENDBRANCH   6   7
ENDBRANCH   5   6
ENDBRANCH   2   4
BRANCH   3  10
HETATM   10  C3  UNL     1     -33.674   4.770   3.371  1.00 20.00     0.128 C 
HETATM   11  C7  UNL     1     -33.810   3.788   4.503  1.00 20.00     0.091 C 
HETATM   12  O12 UNL     1     -32.723   4.730   2.593  1.00 20.00    -0.298 OA
ENDBRANCH   3  10
TORSDOF 5
ENDMDL
MODEL 9
REMARK VINA RESULT:      -0.8      1.271      1.295
REMARK  5 active torsions:
REMARK  status: ('A' for Active; 'I' for Inactive)
REMARK    1  A    between atoms: C1_1  and  C5_5 
REMARK    2  A    between atoms: C2_2  and  C9_9 
REMARK    3  A    between atoms: C3_3  and  C6_6 
REMARK    4  A    between atoms: C9_9  and  C11_11 
REMARK    5  A    between atoms: C10_10  and  C11_11 
ROOT
HETATM    1  C4  UNL     1     -31.129   7.579   1.614  1.00 20.00     0.022 A 
HETATM    2  C5  UNL     1     -32.529   7.235   1.976  1.00 20.00     0.020 A 
HETATM    3  C6  UNL     1     -32.260   7.944   0.692  1.00 20.00     0.063 A 
ENDROOT
BRANCH   2   4
HETATM    4  C1  UNL     1     -33.152   7.978   3.111  1.00 20.00    -0.025 C 
HETATM    5  C2  UNL     1     -34.228   7.546   3.785  1.00 20.00    -0.030 C 
BRANCH   5   6
HETATM    6  C9  UNL     1     -34.940   6.259   3.485  1.00 20.00     0.027 C 
BRANCH   6   7
HETATM    7  C11 UNL     1     -34.594   5.139   4.471  1.00 20.00     0.003 C 
BRANCH   7   8
HETATM    8  C10 UNL     1     -33.856   3.969   3.815  1.00 20.00    -0.004 C 
HETATM    9  C8  UNL     1     -33.205   3.071   4.856  1.00 20.00     0.005 C 
ENDBRANCH   7   8
ENDBRANCH   6   7
ENDBRANCH   5   6
ENDBRANCH   2   4
BRANCH   3  10
HETATM   10  C3  UNL     1     -32.590   9.359   0.486  1.00 20.00     0.128 C 
HETATM   11  C7  UNL     1     -32.508  10.255   1.693  1.00 20.00     0.091 C 
HETATM   12  O12 UNL     1     -32.916   9.792  -0.619  1.00 20.00    -0.298 OA
ENDBRANCH   3  10
TORSDOF 5
ENDMDL
