MODEL 1
REMARK VINA RESULT:       4.0      0.000      0.000
REMARK  1 active torsions:
REMARK  status: ('A' for Active; 'I' for Inactive)
REMARK    1  A    between atoms: C7_7  and  N11_11 
ROOT
HETATM    1  C1  UNL     1     -32.364   6.383   2.010  1.00 20.00     0.164 C 
HETATM    2  C2  UNL     1     -31.100   8.431   2.494  1.00 20.00     0.013 C 
HETATM    3  C3  UNL     1     -33.320   8.523   1.301  1.00 20.00     0.013 C 
HETATM    4  C4  UNL     1     -31.832   8.560   3.842  1.00 20.00     0.008 C 
HETATM    5  C5  UNL     1     -34.016   8.674   2.663  1.00 20.00     0.008 C 
HETATM    6  C6  UNL     1     -32.002   7.754   1.455  1.00 20.00     0.058 C 
HETATM    7  C7  UNL     1     -33.044   6.423   3.372  1.00 20.00     0.295 C 
HETATM    8  C8  UNL     1     -33.230   7.914   3.752  1.00 20.00     0.026 C 
HETATM    9  O12 UNL     1     -32.128   5.343   1.403  1.00 20.00    -0.295 OA
ENDROOT
BRANCH   7  10
HETATM   10  N11 UNL     1     -34.292   5.679   3.273  1.00 20.00     0.092 N 
HETATM   11  C9  UNL     1     -35.367   6.375   3.984  1.00 20.00     0.310 C 
HETATM   12  C10 UNL     1     -34.129   4.323   3.803  1.00 20.00     0.310 C 
ENDBRANCH   7  10
TORSDOF 1
ENDMDL
MODEL 2
REMARK VINA RESULT:       4.2      1.998      3.945
REMARK  1 active torsions:
REMARK  status: ('A' for Active; 'I' for Inactive)
REMARK    1  A    between atoms: C7_7  and  N11_11 
ROOT
HETATM    1  C1  UNL     1     -34.005   7.371   4.303  1.00 20.00     0.164 C 
HETATM    2  C2  UNL     1     -34.842   5.066   4.421  1.00 20.00     0.013 C 
HETATM    3  C3  UNL     1     -35.738   6.691   2.713  1.00 20.00     0.013 C 
HETATM    4  C4  UNL     1     -33.761   4.626   3.417  1.00 20.00     0.008 C 
HETATM    5  C5  UNL     1     -34.660   6.210   1.728  1.00 20.00     0.008 C 
HETATM    6  C6  UNL     1     -35.259   6.519   4.159  1.00 20.00     0.058 C 
HETATM    7  C7  UNL     1     -32.865   6.961   3.380  1.00 20.00     0.295 C 
HETATM    8  C8  UNL     1     -33.383   5.802   2.493  1.00 20.00     0.026 C 
HETATM    9  O12 UNL     1     -33.931   8.306   5.094  1.00 20.00    -0.295 OA
ENDROOT
BRANCH   7  10
HETATM   10  N11 UNL     1     -32.449   8.139   2.631  1.00 20.00     0.092 N 
HETATM   11  C9  UNL     1     -31.864   7.753   1.344  1.00 20.00     0.310 C 
HETATM   12  C10 UNL     1     -31.492   8.932   3.405  1.00 20.00     0.310 C 
ENDBRANCH   7  10
TORSDOF 1
ENDMDL
MODEL 3
REMARK VINA RESULT:       4.2      1.645      2.800
REMARK  1 active torsions:
REMARK  status: ('A' for Active; 'I' for Inactive)
REMARK    1  A    between atoms: C7_7  and  N11_11 
ROOT
HETATM    1  C1  UNL     1     -33.409   7.516   3.170  1.00 20.00     0.164 C 
HETATM    2  C2  UNL     1     -32.904   8.125   0.846  1.00 20.00     0.013 C 
HETATM    3  C3  UNL     1     -31.208   6.924   2.276  1.00 20.00     0.013 C 
HETATM    4  C4  UNL     1     -33.451   6.766   0.375  1.00 20.00     0.008 C 
HETATM    5  C5  UNL     1     -31.765   5.585   1.765  1.00 20.00     0.008 C 
HETATM    6  C6  UNL     1     -32.298   8.002   2.250  1.00 20.00     0.058 C 
HETATM    7  C7  UNL     1     -34.043   6.200   2.738  1.00 20.00     0.295 C 
HETATM    8  C8  UNL     1     -33.278   5.708   1.484  1.00 20.00     0.026 C 
HETATM    9  O12 UNL     1     -33.755   8.135   4.172  1.00 20.00    -0.295 OA
ENDROOT
BRANCH   7  10
HETATM   10  N11 UNL     1     -33.982   5.281   3.866  1.00 20.00     0.092 N 
HETATM   11  C9  UNL     1     -33.623   3.934   3.417  1.00 20.00     0.310 C 
HETATM   12  C10 UNL     1     -35.260   5.252   4.580  1.00 20.00     0.310 C 
ENDBRANCH   7  10
TORSDOF 1
ENDMDL
MODEL 4
REMARK VINA RESULT:       4.3      1.582      2.351
REMARK  1 active torsions:
REMARK  status: ('A' for Active; 'I' for Inactive)
REMARK    1  A    between atoms: C7_7  and  N11_11 
ROOT
HETATM    1  C1  UNL     1     -33.288   5.523   2.822  1.00 20.00     0.164 C 
HETATM    2  C2  UNL     1     -31.421   5.537   1.228  1.00 20.00     0.013 C 
HETATM    3  C3  UNL     1     -33.750   6.189   0.511  1.00 20.00     0.013 C 
HETATM    4  C4  UNL     1     -31.132   7.006   1.585  1.00 20.00     0.008 C 
HETATM    5  C5  UNL     1     -33.419   7.649   0.856  1.00 20.00     0.008 C 
HETATM    6  C6  UNL     1     -32.918   5.232   1.374  1.00 20.00     0.058 C 
HETATM    7  C7  UNL     1     -32.980   6.945   3.270  1.00 20.00     0.295 C 
HETATM    8  C8  UNL     1     -32.429   7.708   2.039  1.00 20.00     0.026 C 
HETATM    9  O12 UNL     1     -33.795   4.678   3.555  1.00 20.00    -0.295 OA
ENDROOT
BRANCH   7  10
HETATM   10  N11 UNL     1     -34.201   7.517   3.821  1.00 20.00     0.092 N 
HETATM   11  C9  UNL     1     -33.934   8.162   5.109  1.00 20.00     0.310 C 
HETATM   12  C10 UNL     1     -35.230   6.486   3.975  1.00 20.00     0.310 C 
ENDBRANCH   7  10
TORSDOF 1
ENDMDL
MODEL 5
REMARK VINA RESULT:       4.7      1.729      2.749
REMARK  1 active torsions:
REMARK  status: ('A' for Active; 'I' for Inactive)
REMARK    1  A    between atoms: C7_7  and  N11_11 
ROOT
HETATM    1  C1  UNL     1     -32.042   8.168   2.871  1.00 20.00     0.164 C 
HETATM    2  C2  UNL     1     -31.811   8.345   0.433  1.00 20.00     0.013 C 
HETATM    3  C3  UNL     1     -31.267   6.198   1.641  1.00 20.00     0.013 C 
HETATM    4  C4  UNL     1     -33.264   7.867   0.264  1.00 20.00     0.008 C 
HETATM    5  C5  UNL     1     -32.720   5.744   1.433  1.00 20.00     0.008 C 
HETATM    6  C6  UNL     1     -31.186   7.728   1.691  1.00 20.00     0.058 C 
HETATM    7  C7  UNL     1     -33.510   7.781   2.751  1.00 20.00     0.295 C 
HETATM    8  C8  UNL     1     -33.668   6.962   1.446  1.00 20.00     0.026 C 
HETATM    9  O12 UNL     1     -31.580   8.777   3.831  1.00 20.00    -0.295 OA
ENDROOT
BRANCH   7  10
HETATM   10  N11 UNL     1     -33.881   7.051   3.956  1.00 20.00     0.092 N 
HETATM   11  C9  UNL     1     -35.175   6.387   3.781  1.00 20.00     0.310 C 
HETATM   12  C10 UNL     1     -33.925   7.949   5.112  1.00 20.00     0.310 C 
ENDBRANCH   7  10
TORSDOF 1
ENDMDL
MODEL 6
REMARK VINA RESULT:       4.8      1.584      3.491
REMARK  1 active torsions:
REMARK  status: ('A' for Active; 'I' for Inactive)
REMARK    1  A    between atoms: C7_7  and  N11_11 
ROOT
HETATM    1  C1  UNL     1     -33.699   5.157   3.470  1.00 20.00     0.164 C 
HETATM    2  C2  UNL     1     -35.889   6.109   4.042  1.00 20.00     0.013 C 
HETATM    3  C3  UNL     1     -33.761   7.063   5.006  1.00 20.00     0.013 C 
HETATM    4  C4  UNL     1     -35.772   7.082   2.854  1.00 20.00     0.008 C 
HETATM    5  C5  UNL     1     -33.690   8.035   3.817  1.00 20.00     0.008 C 
HETATM    6  C6  UNL     1     -34.500   5.780   4.605  1.00 20.00     0.058 C 
HETATM    7  C7  UNL     1     -33.586   6.037   2.232  1.00 20.00     0.295 C 
HETATM    8  C8  UNL     1     -34.289   7.380   2.554  1.00 20.00     0.026 C 
HETATM    9  O12 UNL     1     -33.191   4.043   3.556  1.00 20.00    -0.295 OA
ENDROOT
BRANCH   7  10
HETATM   10  N11 UNL     1     -32.173   6.172   1.906  1.00 20.00     0.092 N 
HETATM   11  C9  UNL     1     -31.870   7.541   1.480  1.00 20.00     0.310 C 
HETATM   12  C10 UNL     1     -31.790   5.221   0.861  1.00 20.00     0.310 C 
ENDBRANCH   7  10
TORSDOF 1
ENDMDL
MODEL 7
REMARK VINA RESULT:       5.6      1.664      2.869
REMARK  1 active torsions:
REMARK  status: ('A' for Active; 'I' for Inactive)
REMARK    1  A    between atoms: C7_7  and  N11_11 
ROOT
HETATM    1  C1  UNL     1     -33.390   7.693   2.947  1.00 20.00     0.164 C 
HETATM    2  C2  UNL     1     -32.963   9.781   1.730  1.00 20.00     0.013 C 
HETATM    3  C3  UNL     1     -31.134   8.640   3.039  1.00 20.00     0.013 C 
HETATM    4  C4  UNL     1     -32.562   8.970   0.485  1.00 20.00     0.008 C 
HETATM    5  C5  UNL     1     -30.747   7.864   1.770  1.00 20.00     0.008 C 
HETATM    6  C6  UNL     1     -32.623   9.006   3.009  1.00 20.00     0.058 C 
HETATM    7  C7  UNL     1     -33.090   6.855   1.711  1.00 20.00     0.295 C 
HETATM    8  C8  UNL     1     -31.996   7.597   0.904  1.00 20.00     0.026 C 
HETATM    9  O12 UNL     1     -34.177   7.347   3.823  1.00 20.00    -0.295 OA
ENDROOT
BRANCH   7  10
HETATM   10  N11 UNL     1     -32.696   5.525   2.156  1.00 20.00     0.092 N 
HETATM   11  C9  UNL     1     -32.290   4.698   1.017  1.00 20.00     0.310 C 
HETATM   12  C10 UNL     1     -33.789   4.879   2.886  1.00 20.00     0.310 C 
ENDBRANCH   7  10
TORSDOF 1
ENDMDL
MODEL 8
REMARK VINA RESULT:       6.5      2.063      3.884
REMARK  1 active torsions:
REMARK  status: ('A' for Active; 'I' for Inactive)
REMARK    1  A    between atoms: C7_7  and  N11_11 
ROOT
HETATM    1  C1  UNL     1     -33.535   6.788   0.685  1.00 20.00     0.164 C 
HETATM    2  C2  UNL     1     -33.773   6.107   3.031  1.00 20.00     0.013 C 
HETATM    3  C3  UNL     1     -31.597   5.786   1.797  1.00 20.00     0.013 C 
HETATM    4  C4  UNL     1     -33.299   7.501   3.481  1.00 20.00     0.008 C 
HETATM    5  C5  UNL     1     -31.147   7.174   2.283  1.00 20.00     0.008 C 
HETATM    6  C6  UNL     1     -33.126   5.724   1.694  1.00 20.00     0.058 C 
HETATM    7  C7  UNL     1     -33.151   8.206   1.085  1.00 20.00     0.295 C 
HETATM    8  C8  UNL     1     -32.364   8.113   2.417  1.00 20.00     0.026 C 
HETATM    9  O12 UNL     1     -34.120   6.515  -0.359  1.00 20.00    -0.295 OA
ENDROOT
BRANCH   7  10
HETATM   10  N11 UNL     1     -32.390   8.791  -0.011  1.00 20.00     0.092 N 
HETATM   11  C9  UNL     1     -30.985   8.959   0.367  1.00 20.00     0.310 C 
HETATM   12  C10 UNL     1     -32.964  10.078  -0.409  1.00 20.00     0.310 C 
ENDBRANCH   7  10
TORSDOF 1
ENDMDL
MODEL 9
REMARK VINA RESULT:       6.7      1.740      3.280
REMARK  1 active torsions:
REMARK  status: ('A' for Active; 'I' for Inactive)
REMARK    1  A    between atoms: C7_7  and  N11_11 
ROOT
HETATM    1  C1  UNL     1     -32.104   7.116   1.907  1.00 20.00     0.164 C 
HETATM    2  C2  UNL     1     -33.598   5.769   0.500  1.00 20.00     0.013 C 
HETATM    3  C3  UNL     1     -32.310   4.728   2.402  1.00 20.00     0.013 C 
HETATM    4  C4  UNL     1     -34.762   6.060   1.463  1.00 20.00     0.008 C 
HETATM    5  C5  UNL     1     -33.502   5.014   3.330  1.00 20.00     0.008 C 
HETATM    6  C6  UNL     1     -32.265   5.748   1.259  1.00 20.00     0.058 C 
HETATM    7  C7  UNL     1     -33.248   7.504   2.834  1.00 20.00     0.295 C 
HETATM    8  C8  UNL     1     -34.225   6.303   2.888  1.00 20.00     0.026 C 
HETATM    9  O12 UNL     1     -31.132   7.835   1.696  1.00 20.00    -0.295 OA
ENDROOT
BRANCH   7  10
HETATM   10  N11 UNL     1     -32.677   7.861   4.125  1.00 20.00     0.092 N 
HETATM   11  C9  UNL     1     -33.736   8.147   5.097  1.00 20.00     0.310 C 
HETATM   12  C10 UNL     1     -31.785   9.015   3.995  1.00 20.00     0.310 C 
ENDBRANCH   7  10
TORSDOF 1
ENDMDL
