MODEL 1
REMARK VINA RESULT:      -1.1      0.000      0.000
REMARK  2 active torsions:
REMARK  status: ('A' for Active; 'I' for Inactive)
REMARK    1  A    between atoms: C2_2  and  C5_5 
REMARK    2  A    between atoms: C3_3  and  C6_6 
REMARK       I    between atoms: C3_3  and  N9_9 
ROOT
HETATM    1  C4  UNL     1     -35.390   5.704   4.666  1.00 20.00     0.024 A 
HETATM    2  C5  UNL     1     -34.655   4.644   3.893  1.00 20.00     0.021 A 
HETATM    3  C6  UNL     1     -34.821   6.012   3.329  1.00 20.00     0.086 A 
ENDROOT
BRANCH   3   4
HETATM    4  C3  UNL     1     -33.641   6.950   3.263  1.00 20.00     0.224 C 
HETATM    5  N9  UNL     1     -32.811   6.833   2.148  1.00 20.00    -0.360 N 
HETATM    6  C7  UNL     1     -31.637   7.677   1.959  1.00 20.00     0.152 C 
HETATM    7  C8  UNL     1     -33.056   5.857   1.089  1.00 20.00     0.152 C 
HETATM    8  O10 UNL     1     -33.466   7.761   4.176  1.00 20.00    -0.273 OA
ENDBRANCH   3   4
BRANCH   2   9
HETATM    9  C2  UNL     1     -33.375   4.165   4.396  1.00 20.00    -0.031 C 
HETATM   10  C1  UNL     1     -33.131   2.894   4.732  1.00 20.00     0.007 C 
ENDBRANCH   2   9
TORSDOF 2
ENDMDL
MODEL 2
REMARK VINA RESULT:      -0.1      1.654      4.635
REMARK  2 active torsions:
REMARK  status: ('A' for Active; 'I' for Inactive)
REMARK    1  A    between atoms: C2_2  and  C5_5 
REMARK    2  A    between atoms: C3_3  and  C6_6 
REMARK       I    between atoms: C3_3  and  N9_9 
ROOT
HETATM    1  C4  UNL     1     -31.144   8.299   2.509  1.00 20.00     0.024 A 
HETATM    2  C5  UNL     1     -31.870   8.242   1.193  1.00 20.00     0.021 A 
HETATM    3  C6  UNL     1     -32.194   7.274   2.277  1.00 20.00     0.086 A 
ENDROOT
BRANCH   3   4
HETATM    4  C3  UNL     1     -33.488   7.402   3.043  1.00 20.00     0.224 C 
HETATM    5  N9  UNL     1     -34.134   6.213   3.382  1.00 20.00    -0.360 N 
HETATM    6  C7  UNL     1     -35.391   6.193   4.121  1.00 20.00     0.152 C 
HETATM    7  C8  UNL     1     -33.601   4.902   3.021  1.00 20.00     0.152 C 
HETATM    8  O10 UNL     1     -33.908   8.526   3.330  1.00 20.00    -0.273 OA
ENDBRANCH   3   4
BRANCH   2   9
HETATM    9  C2  UNL     1     -32.767   9.332   0.837  1.00 20.00    -0.031 C 
HETATM   10  C1  UNL     1     -32.648  10.067  -0.274  1.00 20.00     0.007 C 
ENDBRANCH   2   9
TORSDOF 2
ENDMDL
MODEL 3
REMARK VINA RESULT:       0.1      2.199      4.851
REMARK  2 active torsions:
REMARK  status: ('A' for Active; 'I' for Inactive)
REMARK    1  A    between atoms: C2_2  and  C5_5 
REMARK    2  A    between atoms: C3_3  and  C6_6 
REMARK       I    between atoms: C3_3  and  N9_9 
ROOT
HETATM    1  C4  UNL     1     -31.641   8.706   2.778  1.00 20.00     0.024 A 
HETATM    2  C5  UNL     1     -31.631   8.534   1.285  1.00 20.00     0.021 A 
HETATM    3  C6  UNL     1     -31.777   7.354   2.181  1.00 20.00     0.086 A 
ENDROOT
BRANCH   3   4
HETATM    4  C3  UNL     1     -33.110   6.657   2.304  1.00 20.00     0.224 C 
HETATM    5  N9  UNL     1     -33.868   6.956   3.436  1.00 20.00    -0.360 N 
HETATM    6  C7  UNL     1     -35.174   6.354   3.680  1.00 20.00     0.152 C 
HETATM    7  C8  UNL     1     -33.411   7.891   4.460  1.00 20.00     0.152 C 
HETATM    8  O10 UNL     1     -33.463   5.874   1.419  1.00 20.00    -0.273 OA
ENDBRANCH   3   4
BRANCH   2   9
HETATM    9  C2  UNL     1     -32.747   9.057   0.509  1.00 20.00    -0.031 C 
HETATM   10  C1  UNL     1     -32.664  10.121  -0.297  1.00 20.00     0.007 C 
ENDBRANCH   2   9
TORSDOF 2
ENDMDL
MODEL 4
REMARK VINA RESULT:       0.3      1.894      2.805
REMARK  2 active torsions:
REMARK  status: ('A' for Active; 'I' for Inactive)
REMARK    1  A    between atoms: C2_2  and  C5_5 
REMARK    2  A    between atoms: C3_3  and  C6_6 
REMARK       I    between atoms: C3_3  and  N9_9 
ROOT
HETATM    1  C4  UNL     1     -33.085   7.951   4.389  1.00 20.00     0.024 A 
HETATM    2  C5  UNL     1     -34.192   7.216   3.685  1.00 20.00     0.021 A 
HETATM    3  C6  UNL     1     -33.439   8.295   2.988  1.00 20.00     0.086 A 
ENDROOT
BRANCH   3   4
HETATM    4  C3  UNL     1     -32.450   7.948   1.903  1.00 20.00     0.224 C 
HETATM    5  N9  UNL     1     -32.186   8.938   0.956  1.00 20.00    -0.360 N 
HETATM    6  C7  UNL     1     -31.252   8.735  -0.144  1.00 20.00     0.152 C 
HETATM    7  C8  UNL     1     -32.828  10.250   0.997  1.00 20.00     0.152 C 
HETATM    8  O10 UNL     1     -31.928   6.830   1.901  1.00 20.00    -0.273 OA
ENDBRANCH   3   4
BRANCH   2   9
HETATM    9  C2  UNL     1     -34.006   5.809   3.358  1.00 20.00    -0.031 C 
HETATM   10  C1  UNL     1     -34.523   4.801   4.068  1.00 20.00     0.007 C 
ENDBRANCH   2   9
TORSDOF 2
ENDMDL
MODEL 5
REMARK VINA RESULT:       0.3      1.372      1.712
REMARK  2 active torsions:
REMARK  status: ('A' for Active; 'I' for Inactive)
REMARK    1  A    between atoms: C2_2  and  C5_5 
REMARK    2  A    between atoms: C3_3  and  C6_6 
REMARK       I    between atoms: C3_3  and  N9_9 
ROOT
HETATM    1  C4  UNL     1     -34.668   6.129   4.420  1.00 20.00     0.024 A 
HETATM    2  C5  UNL     1     -34.532   4.708   3.947  1.00 20.00     0.021 A 
HETATM    3  C6  UNL     1     -34.571   5.830   2.969  1.00 20.00     0.086 A 
ENDROOT
BRANCH   3   4
HETATM    4  C3  UNL     1     -33.314   6.246   2.244  1.00 20.00     0.224 C 
HETATM    5  N9  UNL     1     -32.784   7.492   2.578  1.00 20.00    -0.360 N 
HETATM    6  C7  UNL     1     -31.574   8.016   1.955  1.00 20.00     0.152 C 
HETATM    7  C8  UNL     1     -33.401   8.363   3.575  1.00 20.00     0.152 C 
HETATM    8  O10 UNL     1     -32.822   5.484   1.409  1.00 20.00    -0.273 OA
ENDBRANCH   3   4
BRANCH   2   9
HETATM    9  C2  UNL     1     -33.304   3.983   4.242  1.00 20.00    -0.031 C 
HETATM   10  C1  UNL     1     -33.269   2.748   4.754  1.00 20.00     0.007 C 
ENDBRANCH   2   9
TORSDOF 2
ENDMDL
MODEL 6
REMARK VINA RESULT:       0.4      2.190      4.803
REMARK  2 active torsions:
REMARK  status: ('A' for Active; 'I' for Inactive)
REMARK    1  A    between atoms: C2_2  and  C5_5 
REMARK    2  A    between atoms: C3_3  and  C6_6 
REMARK       I    between atoms: C3_3  and  N9_9 
ROOT
HETATM    1  C4  UNL     1     -31.239   7.291   1.170  1.00 20.00     0.024 A 
HETATM    2  C5  UNL     1     -32.397   8.101   0.655  1.00 20.00     0.021 A 
HETATM    3  C6  UNL     1     -32.545   7.261   1.875  1.00 20.00     0.086 A 
ENDROOT
BRANCH   3   4
HETATM    4  C3  UNL     1     -32.629   7.910   3.235  1.00 20.00     0.224 C 
HETATM    5  N9  UNL     1     -33.728   7.570   4.024  1.00 20.00    -0.360 N 
HETATM    6  C7  UNL     1     -33.932   8.124   5.357  1.00 20.00     0.152 C 
HETATM    7  C8  UNL     1     -34.756   6.635   3.572  1.00 20.00     0.152 C 
HETATM    8  O10 UNL     1     -31.743   8.695   3.582  1.00 20.00    -0.273 OA
ENDBRANCH   3   4
BRANCH   2   9
HETATM    9  C2  UNL     1     -32.325   9.554   0.722  1.00 20.00    -0.031 C 
HETATM   10  C1  UNL     1     -32.729  10.369  -0.259  1.00 20.00     0.007 C 
ENDBRANCH   2   9
TORSDOF 2
ENDMDL
MODEL 7
REMARK VINA RESULT:       0.8      1.883      3.055
REMARK  2 active torsions:
REMARK  status: ('A' for Active; 'I' for Inactive)
REMARK    1  A    between atoms: C2_2  and  C5_5 
REMARK    2  A    between atoms: C3_3  and  C6_6 
REMARK       I    between atoms: C3_3  and  N9_9 
ROOT
HETATM    1  C4  UNL     1     -33.363   6.257   0.964  1.00 20.00     0.024 A 
HETATM    2  C5  UNL     1     -33.197   6.000   2.436  1.00 20.00     0.021 A 
HETATM    3  C6  UNL     1     -32.193   6.810   1.693  1.00 20.00     0.086 A 
ENDROOT
BRANCH   3   4
HETATM    4  C3  UNL     1     -32.127   8.304   1.894  1.00 20.00     0.224 C 
HETATM    5  N9  UNL     1     -32.348   9.097   0.767  1.00 20.00    -0.360 N 
HETATM    6  C7  UNL     1     -32.313  10.554   0.821  1.00 20.00     0.152 C 
HETATM    7  C8  UNL     1     -32.628   8.527  -0.548  1.00 20.00     0.152 C 
HETATM    8  O10 UNL     1     -31.888   8.749   3.019  1.00 20.00    -0.273 OA
ENDBRANCH   3   4
BRANCH   2   9
HETATM    9  C2  UNL     1     -34.140   6.604   3.366  1.00 20.00    -0.031 C 
HETATM   10  C1  UNL     1     -35.049   5.914   4.064  1.00 20.00     0.007 C 
ENDBRANCH   2   9
TORSDOF 2
ENDMDL
MODEL 8
REMARK VINA RESULT:       1.0      1.904      3.942
REMARK  2 active torsions:
REMARK  status: ('A' for Active; 'I' for Inactive)
REMARK    1  A    between atoms: C2_2  and  C5_5 
REMARK    2  A    between atoms: C3_3  and  C6_6 
REMARK       I    between atoms: C3_3  and  N9_9 
ROOT
HETATM    1  C4  UNL     1     -31.972   7.847   1.463  1.00 20.00     0.024 A 
HETATM    2  C5  UNL     1     -32.798   8.325   2.625  1.00 20.00     0.021 A 
HETATM    3  C6  UNL     1     -33.213   7.126   1.846  1.00 20.00     0.086 A 
ENDROOT
BRANCH   3   4
HETATM    4  C3  UNL     1     -33.073   5.748   2.445  1.00 20.00     0.224 C 
HETATM    5  N9  UNL     1     -34.037   5.372   3.380  1.00 20.00    -0.360 N 
HETATM    6  C7  UNL     1     -34.021   4.070   4.036  1.00 20.00     0.152 C 
HETATM    7  C8  UNL     1     -35.133   6.255   3.772  1.00 20.00     0.152 C 
HETATM    8  O10 UNL     1     -32.135   5.031   2.089  1.00 20.00    -0.273 OA
ENDBRANCH   3   4
BRANCH   2   9
HETATM    9  C2  UNL     1     -32.247   8.219   3.969  1.00 20.00    -0.031 C 
HETATM   10  C1  UNL     1     -32.960   8.402   5.086  1.00 20.00     0.007 C 
ENDBRANCH   2   9
TORSDOF 2
ENDMDL
MODEL 9
REMARK VINA RESULT:       1.1      1.475      4.180
REMARK  2 active torsions:
REMARK  status: ('A' for Active; 'I' for Inactive)
REMARK    1  A    between atoms: C2_2  and  C5_5 
REMARK    2  A    between atoms: C3_3  and  C6_6 
REMARK       I    between atoms: C3_3  and  N9_9 
ROOT
HETATM    1  C4  UNL     1     -31.624   5.612   1.979  1.00 20.00     0.024 A 
HETATM    2  C5  UNL     1     -32.151   6.750   1.149  1.00 20.00     0.021 A 
HETATM    3  C6  UNL     1     -33.081   5.739   1.724  1.00 20.00     0.086 A 
ENDROOT
BRANCH   3   4
HETATM    4  C3  UNL     1     -33.972   6.106   2.886  1.00 20.00     0.224 C 
HETATM    5  N9  UNL     1     -34.304   5.077   3.768  1.00 20.00    -0.360 N 
HETATM    6  C7  UNL     1     -35.157   5.293   4.931  1.00 20.00     0.152 C 
HETATM    7  C8  UNL     1     -33.824   3.709   3.590  1.00 20.00     0.152 C 
HETATM    8  O10 UNL     1     -34.357   7.271   3.004  1.00 20.00    -0.273 OA
ENDBRANCH   3   4
BRANCH   2   9
HETATM    9  C2  UNL     1     -32.061   8.105   1.675  1.00 20.00    -0.031 C 
HETATM   10  C1  UNL     1     -32.234   9.207   0.937  1.00 20.00     0.007 C 
ENDBRANCH   2   9
TORSDOF 2
ENDMDL
