MODEL 1
REMARK VINA RESULT:       2.0      0.000      0.000
REMARK  1 active torsions:
REMARK  status: ('A' for Active; 'I' for Inactive)
REMARK    1  A    between atoms: C3_3  and  C9_9 
ROOT
HETATM    1  C1  UNL     1     -33.143   7.866   4.006  1.00 20.00    -0.030 C 
HETATM    2  C2  UNL     1     -32.553   7.138   3.044  1.00 20.00    -0.026 C 
HETATM    3  C4  UNL     1     -34.580   7.666   4.406  1.00 20.00     0.031 C 
HETATM    4  C5  UNL     1     -32.928   4.677   2.761  1.00 20.00     0.022 C 
HETATM    5  C6  UNL     1     -34.803   6.301   2.331  1.00 20.00     0.013 C 
HETATM    6  C7  UNL     1     -34.674   5.128   4.590  1.00 20.00     0.018 C 
HETATM    7  C8  UNL     1     -33.287   6.083   2.244  1.00 20.00     0.009 C 
HETATM    8  C9  UNL     1     -33.986   4.082   3.706  1.00 20.00     0.073 C 
HETATM    9  C10 UNL     1     -35.182   6.371   3.816  1.00 20.00    -0.010 C 
ENDROOT
BRANCH   8  10
HETATM   10  C3  UNL     1     -33.360   3.034   4.577  1.00 20.00     0.223 C 
HETATM   11  O11 UNL     1     -33.547   1.837   4.381  1.00 20.00    -0.279 OA
HETATM   12 CL12 UNL     1     -32.385   3.728   5.837  1.00 20.00    -0.043 Cl
ENDBRANCH   8  10
TORSDOF 1
ENDMDL
MODEL 2
REMARK VINA RESULT:       2.0      2.515      3.785
REMARK  1 active torsions:
REMARK  status: ('A' for Active; 'I' for Inactive)
REMARK    1  A    between atoms: C3_3  and  C9_9 
ROOT
HETATM    1  C1  UNL     1     -32.735   9.322   0.593  1.00 20.00    -0.030 C 
HETATM    2  C2  UNL     1     -32.866   9.711   1.871  1.00 20.00    -0.026 C 
HETATM    3  C4  UNL     1     -31.993   8.074   0.198  1.00 20.00     0.031 C 
HETATM    4  C5  UNL     1     -33.311   8.116   3.752  1.00 20.00     0.022 C 
HETATM    5  C6  UNL     1     -31.110   8.050   2.530  1.00 20.00     0.013 C 
HETATM    6  C7  UNL     1     -32.942   6.405   1.870  1.00 20.00     0.018 C 
HETATM    7  C8  UNL     1     -32.243   8.957   3.028  1.00 20.00     0.009 C 
HETATM    8  C9  UNL     1     -33.304   6.633   3.343  1.00 20.00     0.073 C 
HETATM    9  C10 UNL     1     -31.675   7.168   1.408  1.00 20.00    -0.010 C 
ENDROOT
BRANCH   8  10
HETATM   10  C3  UNL     1     -34.644   6.020   3.622  1.00 20.00     0.223 C 
HETATM   11  O11 UNL     1     -35.685   6.652   3.469  1.00 20.00    -0.279 OA
HETATM   12 CL12 UNL     1     -34.512   4.375   4.163  1.00 20.00    -0.043 Cl
ENDBRANCH   8  10
TORSDOF 1
ENDMDL
MODEL 3
REMARK VINA RESULT:       2.7      2.551      3.729
REMARK  1 active torsions:
REMARK  status: ('A' for Active; 'I' for Inactive)
REMARK    1  A    between atoms: C3_3  and  C9_9 
ROOT
HETATM    1  C1  UNL     1     -32.769   9.170   0.749  1.00 20.00    -0.030 C 
HETATM    2  C2  UNL     1     -32.870   9.537   2.036  1.00 20.00    -0.026 C 
HETATM    3  C4  UNL     1     -32.124   7.878   0.324  1.00 20.00     0.031 C 
HETATM    4  C5  UNL     1     -33.437   7.937   3.879  1.00 20.00     0.022 C 
HETATM    5  C6  UNL     1     -31.247   7.732   2.654  1.00 20.00     0.013 C 
HETATM    6  C7  UNL     1     -33.200   6.248   1.958  1.00 20.00     0.018 C 
HETATM    7  C8  UNL     1     -32.308   8.711   3.174  1.00 20.00     0.009 C 
HETATM    8  C9  UNL     1     -33.544   6.468   3.435  1.00 20.00     0.073 C 
HETATM    9  C10 UNL     1     -31.877   6.922   1.512  1.00 20.00    -0.010 C 
ENDROOT
BRANCH   8  10
HETATM   10  C3  UNL     1     -34.927   5.954   3.701  1.00 20.00     0.223 C 
HETATM   11  O11 UNL     1     -35.119   4.909   4.315  1.00 20.00    -0.279 OA
HETATM   12 CL12 UNL     1     -36.150   6.999   3.046  1.00 20.00    -0.043 Cl
ENDBRANCH   8  10
TORSDOF 1
ENDMDL
MODEL 4
REMARK VINA RESULT:       3.0      4.225      5.379
REMARK  1 active torsions:
REMARK  status: ('A' for Active; 'I' for Inactive)
REMARK    1  A    between atoms: C3_3  and  C9_9 
ROOT
HETATM    1  C1  UNL     1     -34.297   7.150   3.696  1.00 20.00    -0.030 C 
HETATM    2  C2  UNL     1     -34.273   6.547   2.497  1.00 20.00    -0.026 C 
HETATM    3  C4  UNL     1     -33.077   7.786   4.306  1.00 20.00     0.031 C 
HETATM    4  C5  UNL     1     -33.008   7.451   0.531  1.00 20.00     0.022 C 
HETATM    5  C6  UNL     1     -31.769   6.594   2.549  1.00 20.00     0.013 C 
HETATM    6  C7  UNL     1     -32.178   9.099   2.319  1.00 20.00     0.018 C 
HETATM    7  C8  UNL     1     -33.013   6.412   1.669  1.00 20.00     0.009 C 
HETATM    8  C9  UNL     1     -32.156   8.694   0.840  1.00 20.00     0.073 C 
HETATM    9  C10 UNL     1     -31.916   7.926   3.297  1.00 20.00    -0.010 C 
ENDROOT
BRANCH   8  10
HETATM   10  C3  UNL     1     -32.620   9.850   0.005  1.00 20.00     0.223 C 
HETATM   11  O11 UNL     1     -32.984   9.700  -1.157  1.00 20.00    -0.279 OA
HETATM   12 CL12 UNL     1     -32.569  11.351   0.880  1.00 20.00    -0.043 Cl
ENDBRANCH   8  10
TORSDOF 1
ENDMDL
MODEL 5
REMARK VINA RESULT:       3.2      1.642      2.081
REMARK  1 active torsions:
REMARK  status: ('A' for Active; 'I' for Inactive)
REMARK    1  A    between atoms: C3_3  and  C9_9 
ROOT
HETATM    1  C1  UNL     1     -31.289   7.662   2.372  1.00 20.00    -0.030 C 
HETATM    2  C2  UNL     1     -31.359   6.472   1.756  1.00 20.00    -0.026 C 
HETATM    3  C4  UNL     1     -32.503   8.514   2.628  1.00 20.00     0.031 C 
HETATM    4  C5  UNL     1     -33.190   4.814   2.177  1.00 20.00     0.022 C 
HETATM    5  C6  UNL     1     -33.701   7.004   1.045  1.00 20.00     0.013 C 
HETATM    6  C7  UNL     1     -34.120   6.777   3.549  1.00 20.00     0.018 C 
HETATM    7  C8  UNL     1     -32.653   5.897   1.222  1.00 20.00     0.009 C 
HETATM    8  C9  UNL     1     -34.301   5.318   3.114  1.00 20.00     0.073 C 
HETATM    9  C10 UNL     1     -33.823   7.750   2.381  1.00 20.00    -0.010 C 
ENDROOT
BRANCH   8  10
HETATM   10  C3  UNL     1     -34.377   4.446   4.331  1.00 20.00     0.223 C 
HETATM   11  O11 UNL     1     -35.275   4.570   5.158  1.00 20.00    -0.279 OA
HETATM   12 CL12 UNL     1     -33.076   3.296   4.394  1.00 20.00    -0.043 Cl
ENDBRANCH   8  10
TORSDOF 1
ENDMDL
MODEL 6
REMARK VINA RESULT:       3.3      3.749      4.738
REMARK  1 active torsions:
REMARK  status: ('A' for Active; 'I' for Inactive)
REMARK    1  A    between atoms: C3_3  and  C9_9 
ROOT
HETATM    1  C1  UNL     1     -35.310   6.924   3.353  1.00 20.00    -0.030 C 
HETATM    2  C2  UNL     1     -34.797   6.125   2.406  1.00 20.00    -0.026 C 
HETATM    3  C4  UNL     1     -34.455   7.609   4.385  1.00 20.00     0.031 C 
HETATM    4  C5  UNL     1     -32.664   6.629   1.192  1.00 20.00     0.022 C 
HETATM    5  C6  UNL     1     -32.624   6.085   3.650  1.00 20.00     0.013 C 
HETATM    6  C7  UNL     1     -32.585   8.527   2.921  1.00 20.00     0.018 C 
HETATM    7  C8  UNL     1     -33.321   5.802   2.312  1.00 20.00     0.009 C 
HETATM    8  C9  UNL     1     -31.920   7.874   1.704  1.00 20.00     0.073 C 
HETATM    9  C10 UNL     1     -32.949   7.530   4.050  1.00 20.00    -0.010 C 
ENDROOT
BRANCH   8  10
HETATM   10  C3  UNL     1     -31.802   8.886   0.604  1.00 20.00     0.223 C 
HETATM   11  O11 UNL     1     -31.024   8.733  -0.332  1.00 20.00    -0.279 OA
HETATM   12 CL12 UNL     1     -32.871  10.236   0.840  1.00 20.00    -0.043 Cl
ENDBRANCH   8  10
TORSDOF 1
ENDMDL
MODEL 7
REMARK VINA RESULT:       3.4      2.980      4.159
REMARK  1 active torsions:
REMARK  status: ('A' for Active; 'I' for Inactive)
REMARK    1  A    between atoms: C3_3  and  C9_9 
ROOT
HETATM    1  C1  UNL     1     -32.723   9.254   0.154  1.00 20.00    -0.030 C 
HETATM    2  C2  UNL     1     -32.046   9.635   1.249  1.00 20.00    -0.026 C 
HETATM    3  C4  UNL     1     -32.911   7.809  -0.220  1.00 20.00     0.031 C 
HETATM    4  C5  UNL     1     -32.221   8.452   3.451  1.00 20.00     0.022 C 
HETATM    5  C6  UNL     1     -31.156   7.304   1.479  1.00 20.00     0.013 C 
HETATM    6  C7  UNL     1     -33.599   6.820   2.023  1.00 20.00     0.018 C 
HETATM    7  C8  UNL     1     -31.372   8.651   2.182  1.00 20.00     0.009 C 
HETATM    8  C9  UNL     1     -33.079   7.175   3.421  1.00 20.00     0.073 C 
HETATM    9  C10 UNL     1     -32.511   6.846   0.921  1.00 20.00    -0.010 C 
ENDROOT
BRANCH   8  10
HETATM   10  C3  UNL     1     -34.241   7.319   4.358  1.00 20.00     0.223 C 
HETATM   11  O11 UNL     1     -34.259   8.177   5.235  1.00 20.00    -0.279 OA
HETATM   12 CL12 UNL     1     -35.490   6.155   4.035  1.00 20.00    -0.043 Cl
ENDBRANCH   8  10
TORSDOF 1
ENDMDL
MODEL 8
REMARK VINA RESULT:       3.6      2.736      3.166
REMARK  1 active torsions:
REMARK  status: ('A' for Active; 'I' for Inactive)
REMARK    1  A    between atoms: C3_3  and  C9_9 
ROOT
HETATM    1  C1  UNL     1     -32.518   8.231   4.905  1.00 20.00    -0.030 C 
HETATM    2  C2  UNL     1     -31.898   8.690   3.807  1.00 20.00    -0.026 C 
HETATM    3  C4  UNL     1     -33.903   7.645   4.868  1.00 20.00     0.031 C 
HETATM    4  C5  UNL     1     -32.014   7.539   1.584  1.00 20.00     0.022 C 
HETATM    5  C6  UNL     1     -34.074   8.599   2.570  1.00 20.00     0.013 C 
HETATM    6  C7  UNL     1     -33.711   6.092   2.860  1.00 20.00     0.018 C 
HETATM    7  C8  UNL     1     -32.549   8.702   2.440  1.00 20.00     0.009 C 
HETATM    8  C9  UNL     1     -32.955   6.322   1.546  1.00 20.00     0.073 C 
HETATM    9  C10 UNL     1     -34.387   7.365   3.428  1.00 20.00    -0.010 C 
ENDROOT
BRANCH   8  10
HETATM   10  C3  UNL     1     -32.177   5.087   1.202  1.00 20.00     0.223 C 
HETATM   11  O11 UNL     1     -31.136   4.798   1.783  1.00 20.00    -0.279 OA
HETATM   12 CL12 UNL     1     -32.928   4.176  -0.073  1.00 20.00    -0.043 Cl
ENDBRANCH   8  10
TORSDOF 1
ENDMDL
MODEL 9
REMARK VINA RESULT:       3.8      2.857      4.047
REMARK  1 active torsions:
REMARK  status: ('A' for Active; 'I' for Inactive)
REMARK    1  A    between atoms: C3_3  and  C9_9 
ROOT
HETATM    1  C1  UNL     1     -32.675   9.531   0.235  1.00 20.00    -0.030 C 
HETATM    2  C2  UNL     1     -32.056   9.765   1.402  1.00 20.00    -0.026 C 
HETATM    3  C4  UNL     1     -32.830   8.147  -0.336  1.00 20.00     0.031 C 
HETATM    4  C5  UNL     1     -32.329   8.303   3.418  1.00 20.00     0.022 C 
HETATM    5  C6  UNL     1     -31.157   7.427   1.368  1.00 20.00     0.013 C 
HETATM    6  C7  UNL     1     -33.620   6.870   1.721  1.00 20.00     0.018 C 
HETATM    7  C8  UNL     1     -31.419   8.670   2.230  1.00 20.00     0.009 C 
HETATM    8  C9  UNL     1     -33.172   7.039   3.177  1.00 20.00     0.073 C 
HETATM    9  C10 UNL     1     -32.478   7.044   0.687  1.00 20.00    -0.010 C 
ENDROOT
BRANCH   8  10
HETATM   10  C3  UNL     1     -34.380   7.055   4.066  1.00 20.00     0.223 C 
HETATM   11  O11 UNL     1     -35.360   6.353   3.834  1.00 20.00    -0.279 OA
HETATM   12 CL12 UNL     1     -34.197   8.155   5.398  1.00 20.00    -0.043 Cl
ENDBRANCH   8  10
TORSDOF 1
ENDMDL
