MODEL 1
REMARK VINA RESULT:      -0.7      0.000      0.000
REMARK  2 active torsions:
REMARK  status: ('A' for Active; 'I' for Inactive)
REMARK    1  A    between atoms: C1_1  and  C4_4 
REMARK    2  A    between atoms: C2_2  and  C5_5 
ROOT
HETATM    1  C5  UNL     1     -32.724   6.894   1.307  1.00 20.00     0.235 A 
HETATM    2  C6  UNL     1     -32.103   8.225   1.661  1.00 20.00     0.092 A 
HETATM    3  C8  UNL     1     -32.020   8.711   3.075  1.00 20.00     0.049 C 
HETATM    4  C9  UNL     1     -32.008   9.271   0.594  1.00 20.00     0.049 C 
HETATM    5  O10 UNL     1     -31.305   7.063   1.402  1.00 20.00    -0.357 OA
ENDROOT
BRANCH   1   6
HETATM    6  C2  UNL     1     -33.249   6.019   2.324  1.00 20.00    -0.066 C 
HETATM    7  C1  UNL     1     -33.687   5.290   3.173  1.00 20.00    -0.070 C 
BRANCH   7   8
HETATM    8  C4  UNL     1     -34.208   4.429   4.185  1.00 20.00    -0.018 C 
HETATM    9  C3  UNL     1     -35.347   4.763   4.808  1.00 20.00     0.028 C 
HETATM   10  C7  UNL     1     -33.462   3.172   4.522  1.00 20.00     0.057 C 
ENDBRANCH   7   8
ENDBRANCH   1   6
TORSDOF 2
ENDMDL
MODEL 2
REMARK VINA RESULT:      -0.5      0.118      1.116
REMARK  2 active torsions:
REMARK  status: ('A' for Active; 'I' for Inactive)
REMARK    1  A    between atoms: C1_1  and  C4_4 
REMARK    2  A    between atoms: C2_2  and  C5_5 
ROOT
HETATM    1  C5  UNL     1     -32.608   6.816   1.286  1.00 20.00     0.235 A 
HETATM    2  C6  UNL     1     -32.118   8.205   1.624  1.00 20.00     0.092 A 
HETATM    3  C8  UNL     1     -32.195   8.758   3.013  1.00 20.00     0.049 C 
HETATM    4  C9  UNL     1     -32.005   9.207   0.517  1.00 20.00     0.049 C 
HETATM    5  O10 UNL     1     -31.218   7.097   1.493  1.00 20.00    -0.357 OA
ENDROOT
BRANCH   1   6
HETATM    6  C2  UNL     1     -33.156   5.950   2.299  1.00 20.00    -0.066 C 
HETATM    7  C1  UNL     1     -33.613   5.228   3.143  1.00 20.00    -0.070 C 
BRANCH   7   8
HETATM    8  C4  UNL     1     -34.158   4.376   4.149  1.00 20.00    -0.018 C 
HETATM    9  C3  UNL     1     -33.542   3.221   4.437  1.00 20.00     0.028 C 
HETATM   10  C7  UNL     1     -35.411   4.800   4.858  1.00 20.00     0.057 C 
ENDBRANCH   7   8
ENDBRANCH   1   6
TORSDOF 2
ENDMDL
MODEL 3
REMARK VINA RESULT:       0.1      1.472      5.232
REMARK  2 active torsions:
REMARK  status: ('A' for Active; 'I' for Inactive)
REMARK    1  A    between atoms: C1_1  and  C4_4 
REMARK    2  A    between atoms: C2_2  and  C5_5 
ROOT
HETATM    1  C5  UNL     1     -32.612   6.008   2.159  1.00 20.00     0.235 A 
HETATM    2  C6  UNL     1     -33.719   5.659   3.126  1.00 20.00     0.092 A 
HETATM    3  C8  UNL     1     -34.752   6.660   3.544  1.00 20.00     0.049 C 
HETATM    4  C9  UNL     1     -33.523   4.488   4.039  1.00 20.00     0.049 C 
HETATM    5  O10 UNL     1     -33.787   5.304   1.740  1.00 20.00    -0.357 OA
ENDROOT
BRANCH   1   6
HETATM    6  C2  UNL     1     -32.513   7.322   1.577  1.00 20.00    -0.066 C 
HETATM    7  C1  UNL     1     -32.431   8.418   1.092  1.00 20.00    -0.070 C 
BRANCH   7   8
HETATM    8  C4  UNL     1     -32.339   9.719   0.512  1.00 20.00    -0.018 C 
HETATM    9  C3  UNL     1     -31.891   9.847  -0.745  1.00 20.00     0.028 C 
HETATM   10  C7  UNL     1     -32.746  10.908   1.331  1.00 20.00     0.057 C 
ENDBRANCH   7   8
ENDBRANCH   1   6
TORSDOF 2
ENDMDL
MODEL 4
REMARK VINA RESULT:       0.5      1.845      2.507
REMARK  2 active torsions:
REMARK  status: ('A' for Active; 'I' for Inactive)
REMARK    1  A    between atoms: C1_1  and  C4_4 
REMARK    2  A    between atoms: C2_2  and  C5_5 
ROOT
HETATM    1  C5  UNL     1     -32.126   8.041   0.765  1.00 20.00     0.235 A 
HETATM    2  C6  UNL     1     -32.126   9.428   0.166  1.00 20.00     0.092 A 
HETATM    3  C8  UNL     1     -32.896  10.557   0.778  1.00 20.00     0.049 C 
HETATM    4  C9  UNL     1     -31.767   9.577  -1.280  1.00 20.00     0.049 C 
HETATM    5  O10 UNL     1     -31.046   8.957   0.982  1.00 20.00    -0.357 OA
ENDROOT
BRANCH   1   6
HETATM    6  C2  UNL     1     -32.857   7.747   1.971  1.00 20.00    -0.066 C 
HETATM    7  C1  UNL     1     -33.467   7.503   2.977  1.00 20.00    -0.070 C 
BRANCH   7   8
HETATM    8  C4  UNL     1     -34.196   7.216   4.170  1.00 20.00    -0.018 C 
HETATM    9  C3  UNL     1     -33.934   7.915   5.284  1.00 20.00     0.028 C 
HETATM   10  C7  UNL     1     -35.237   6.137   4.141  1.00 20.00     0.057 C 
ENDBRANCH   7   8
ENDBRANCH   1   6
TORSDOF 2
ENDMDL
MODEL 5
REMARK VINA RESULT:       1.2      1.792      5.363
REMARK  2 active torsions:
REMARK  status: ('A' for Active; 'I' for Inactive)
REMARK    1  A    between atoms: C1_1  and  C4_4 
REMARK    2  A    between atoms: C2_2  and  C5_5 
ROOT
HETATM    1  C5  UNL     1     -34.183   7.629   3.472  1.00 20.00     0.235 A 
HETATM    2  C6  UNL     1     -34.226   6.129   3.648  1.00 20.00     0.092 A 
HETATM    3  C8  UNL     1     -33.506   5.200   2.720  1.00 20.00     0.049 C 
HETATM    4  C9  UNL     1     -35.355   5.538   4.434  1.00 20.00     0.049 C 
HETATM    5  O10 UNL     1     -33.353   6.957   4.427  1.00 20.00    -0.357 OA
ENDROOT
BRANCH   1   6
HETATM    6  C2  UNL     1     -33.426   8.235   2.407  1.00 20.00    -0.066 C 
HETATM    7  C1  UNL     1     -32.795   8.741   1.518  1.00 20.00    -0.070 C 
BRANCH   7   8
HETATM    8  C4  UNL     1     -32.051   9.343   0.460  1.00 20.00    -0.018 C 
HETATM    9  C3  UNL     1     -30.970   8.714  -0.024  1.00 20.00     0.028 C 
HETATM   10  C7  UNL     1     -32.502  10.668  -0.081  1.00 20.00     0.057 C 
ENDBRANCH   7   8
ENDBRANCH   1   6
TORSDOF 2
ENDMDL
MODEL 6
REMARK VINA RESULT:       2.1      1.387      2.178
REMARK  2 active torsions:
REMARK  status: ('A' for Active; 'I' for Inactive)
REMARK    1  A    between atoms: C1_1  and  C4_4 
REMARK    2  A    between atoms: C2_2  and  C5_5 
ROOT
HETATM    1  C5  UNL     1     -33.595   6.465   2.744  1.00 20.00     0.235 A 
HETATM    2  C6  UNL     1     -32.569   6.881   1.716  1.00 20.00     0.092 A 
HETATM    3  C8  UNL     1     -31.334   6.075   1.456  1.00 20.00     0.049 C 
HETATM    4  C9  UNL     1     -32.521   8.319   1.301  1.00 20.00     0.049 C 
HETATM    5  O10 UNL     1     -33.782   6.214   1.345  1.00 20.00    -0.357 OA
ENDROOT
BRANCH   1   6
HETATM    6  C2  UNL     1     -33.438   5.255   3.509  1.00 20.00    -0.066 C 
HETATM    7  C1  UNL     1     -33.307   4.245   4.147  1.00 20.00    -0.070 C 
BRANCH   7   8
HETATM    8  C4  UNL     1     -33.146   3.048   4.907  1.00 20.00    -0.018 C 
HETATM    9  C3  UNL     1     -33.455   1.869   4.349  1.00 20.00     0.028 C 
HETATM   10  C7  UNL     1     -32.634   3.146   6.314  1.00 20.00     0.057 C 
ENDBRANCH   7   8
ENDBRANCH   1   6
TORSDOF 2
ENDMDL
MODEL 7
REMARK VINA RESULT:       2.2      1.910      5.304
REMARK  2 active torsions:
REMARK  status: ('A' for Active; 'I' for Inactive)
REMARK    1  A    between atoms: C1_1  and  C4_4 
REMARK    2  A    between atoms: C2_2  and  C5_5 
ROOT
HETATM    1  C5  UNL     1     -34.209   7.748   3.768  1.00 20.00     0.235 A 
HETATM    2  C6  UNL     1     -34.366   6.245   3.778  1.00 20.00     0.092 A 
HETATM    3  C8  UNL     1     -33.875   5.388   2.653  1.00 20.00     0.049 C 
HETATM    4  C9  UNL     1     -35.423   5.648   4.654  1.00 20.00     0.049 C 
HETATM    5  O10 UNL     1     -33.319   6.901   4.504  1.00 20.00    -0.357 OA
ENDROOT
BRANCH   1   6
HETATM    6  C2  UNL     1     -33.557   8.424   2.675  1.00 20.00    -0.066 C 
HETATM    7  C1  UNL     1     -33.014   8.988   1.765  1.00 20.00    -0.070 C 
BRANCH   7   8
HETATM    8  C4  UNL     1     -32.369   9.664   0.685  1.00 20.00    -0.018 C 
HETATM    9  C3  UNL     1     -32.492  10.994   0.576  1.00 20.00     0.028 C 
HETATM   10  C7  UNL     1     -31.570   8.860  -0.298  1.00 20.00     0.057 C 
ENDBRANCH   7   8
ENDBRANCH   1   6
TORSDOF 2
ENDMDL
MODEL 8
REMARK VINA RESULT:       2.2      2.030      5.166
REMARK  2 active torsions:
REMARK  status: ('A' for Active; 'I' for Inactive)
REMARK    1  A    between atoms: C1_1  and  C4_4 
REMARK    2  A    between atoms: C2_2  and  C5_5 
ROOT
HETATM    1  C5  UNL     1     -33.822   4.016   3.354  1.00 20.00     0.235 A 
HETATM    2  C6  UNL     1     -33.328   3.243   4.555  1.00 20.00     0.092 A 
HETATM    3  C8  UNL     1     -32.302   3.802   5.491  1.00 20.00     0.049 C 
HETATM    4  C9  UNL     1     -33.485   1.754   4.555  1.00 20.00     0.049 C 
HETATM    5  O10 UNL     1     -34.573   3.954   4.572  1.00 20.00    -0.357 OA
ENDROOT
BRANCH   1   6
HETATM    6  C2  UNL     1     -33.337   5.342   3.067  1.00 20.00    -0.066 C 
HETATM    7  C1  UNL     1     -32.932   6.447   2.828  1.00 20.00    -0.070 C 
BRANCH   7   8
HETATM    8  C4  UNL     1     -32.446   7.759   2.545  1.00 20.00    -0.018 C 
HETATM    9  C3  UNL     1     -32.277   8.628   3.551  1.00 20.00     0.028 C 
HETATM   10  C7  UNL     1     -32.137   8.126   1.123  1.00 20.00     0.057 C 
ENDBRANCH   7   8
ENDBRANCH   1   6
TORSDOF 2
ENDMDL
