MODEL 1
REMARK VINA RESULT:      -0.3      0.000      0.000
REMARK  2 active torsions:
REMARK  status: ('A' for Active; 'I' for Inactive)
REMARK    1  A    between atoms: C3_3  and  C5_5 
REMARK    2  A    between atoms: C3_3  and  O11_11 
ROOT
HETATM    1  C1  UNL     1     -31.380   4.599   1.015  1.00 20.00     0.013 C 
HETATM    2  C2  UNL     1     -32.022   5.527   1.425  1.00 20.00    -0.096 C 
HETATM    3  C4  UNL     1     -34.285   6.612   1.650  1.00 20.00     0.044 A 
HETATM    4  C5  UNL     1     -32.793   6.641   1.917  1.00 20.00     0.118 A 
HETATM    5  C6  UNL     1     -33.791   6.408   3.061  1.00 20.00    -0.018 A 
HETATM    6  C7  UNL     1     -34.044   7.516   4.056  1.00 20.00     0.017 C 
HETATM    7  C8  UNL     1     -33.937   5.029   3.661  1.00 20.00     0.017 C 
ENDROOT
BRANCH   4   8
HETATM    8  C3  UNL     1     -32.110   7.948   1.820  1.00 20.00     0.280 C 
HETATM    9  O10 UNL     1     -31.405   8.421   2.701  1.00 20.00    -0.263 OA
BRANCH   8  10
HETATM   10  O11 UNL     1     -32.392   8.521   0.614  1.00 20.00    -0.325 OA
HETATM   11  C9  UNL     1     -32.418   9.952   0.605  1.00 20.00     0.213 C 
ENDBRANCH   8  10
ENDBRANCH   4   8
TORSDOF 2
ENDMDL
MODEL 2
REMARK VINA RESULT:      -0.1      1.710      3.401
REMARK  2 active torsions:
REMARK  status: ('A' for Active; 'I' for Inactive)
REMARK    1  A    between atoms: C3_3  and  C5_5 
REMARK    2  A    between atoms: C3_3  and  O11_11 
ROOT
HETATM    1  C1  UNL     1     -32.347   5.146   0.957  1.00 20.00     0.013 C 
HETATM    2  C2  UNL     1     -32.408   6.219   1.493  1.00 20.00    -0.096 C 
HETATM    3  C4  UNL     1     -31.195   8.305   2.216  1.00 20.00     0.044 A 
HETATM    4  C5  UNL     1     -32.481   7.506   2.136  1.00 20.00     0.118 A 
HETATM    5  C6  UNL     1     -32.289   8.773   1.289  1.00 20.00    -0.018 A 
HETATM    6  C7  UNL     1     -33.033  10.033   1.667  1.00 20.00     0.017 C 
HETATM    7  C8  UNL     1     -32.046   8.654  -0.197  1.00 20.00     0.017 C 
ENDROOT
BRANCH   4   8
HETATM    8  C3  UNL     1     -33.387   7.557   3.302  1.00 20.00     0.280 C 
HETATM    9  O10 UNL     1     -33.098   8.070   4.374  1.00 20.00    -0.263 OA
BRANCH   8  10
HETATM   10  O11 UNL     1     -34.568   6.951   2.988  1.00 20.00    -0.325 OA
HETATM   11  C9  UNL     1     -35.189   6.224   4.053  1.00 20.00     0.213 C 
ENDBRANCH   8  10
ENDBRANCH   4   8
TORSDOF 2
ENDMDL
MODEL 3
REMARK VINA RESULT:       0.3      2.385      4.529
REMARK  2 active torsions:
REMARK  status: ('A' for Active; 'I' for Inactive)
REMARK    1  A    between atoms: C3_3  and  C5_5 
REMARK    2  A    between atoms: C3_3  and  O11_11 
ROOT
HETATM    1  C1  UNL     1     -33.456   8.325   5.198  1.00 20.00     0.013 C 
HETATM    2  C2  UNL     1     -33.644   7.475   4.372  1.00 20.00    -0.096 C 
HETATM    3  C4  UNL     1     -34.511   6.894   2.079  1.00 20.00     0.044 A 
HETATM    4  C5  UNL     1     -33.870   6.454   3.380  1.00 20.00     0.118 A 
HETATM    5  C6  UNL     1     -33.058   6.488   2.078  1.00 20.00    -0.018 A 
HETATM    6  C7  UNL     1     -32.696   5.188   1.398  1.00 20.00     0.017 C 
HETATM    7  C8  UNL     1     -32.029   7.574   1.862  1.00 20.00     0.017 C 
ENDROOT
BRANCH   4   8
HETATM    8  C3  UNL     1     -34.280   5.146   3.932  1.00 20.00     0.280 C 
HETATM    9  O10 UNL     1     -35.401   4.901   4.356  1.00 20.00    -0.263 OA
BRANCH   8  10
HETATM   10  O11 UNL     1     -33.225   4.282   3.889  1.00 20.00    -0.325 OA
HETATM   11  C9  UNL     1     -33.386   3.076   4.643  1.00 20.00     0.213 C 
ENDBRANCH   8  10
ENDBRANCH   4   8
TORSDOF 2
ENDMDL
MODEL 4
REMARK VINA RESULT:       0.8      1.712      3.347
REMARK  2 active torsions:
REMARK  status: ('A' for Active; 'I' for Inactive)
REMARK    1  A    between atoms: C3_3  and  C5_5 
REMARK    2  A    between atoms: C3_3  and  O11_11 
ROOT
HETATM    1  C1  UNL     1     -31.624   8.856   1.163  1.00 20.00     0.013 C 
HETATM    2  C2  UNL     1     -32.287   7.970   1.631  1.00 20.00    -0.096 C 
HETATM    3  C4  UNL     1     -33.855   6.042   1.218  1.00 20.00     0.044 A 
HETATM    4  C5  UNL     1     -33.082   6.908   2.193  1.00 20.00     0.118 A 
HETATM    5  C6  UNL     1     -32.667   5.452   1.935  1.00 20.00    -0.018 A 
HETATM    6  C7  UNL     1     -32.938   4.408   2.994  1.00 20.00     0.017 C 
HETATM    7  C8  UNL     1     -31.432   5.156   1.117  1.00 20.00     0.017 C 
ENDROOT
BRANCH   4   8
HETATM    8  C3  UNL     1     -33.740   7.247   3.472  1.00 20.00     0.280 C 
HETATM    9  O10 UNL     1     -33.168   7.767   4.421  1.00 20.00    -0.263 OA
BRANCH   8  10
HETATM   10  O11 UNL     1     -35.055   6.893   3.416  1.00 20.00    -0.325 OA
HETATM   11  C9  UNL     1     -35.477   5.937   4.395  1.00 20.00     0.213 C 
ENDBRANCH   8  10
ENDBRANCH   4   8
TORSDOF 2
ENDMDL
MODEL 5
REMARK VINA RESULT:       1.2      1.829      3.103
REMARK  2 active torsions:
REMARK  status: ('A' for Active; 'I' for Inactive)
REMARK    1  A    between atoms: C3_3  and  C5_5 
REMARK    2  A    between atoms: C3_3  and  O11_11 
ROOT
HETATM    1  C1  UNL     1     -33.926   3.916   4.417  1.00 20.00     0.013 C 
HETATM    2  C2  UNL     1     -33.759   4.831   3.658  1.00 20.00    -0.096 C 
HETATM    3  C4  UNL     1     -34.692   6.929   2.619  1.00 20.00     0.044 A 
HETATM    4  C5  UNL     1     -33.558   5.929   2.747  1.00 20.00     0.118 A 
HETATM    5  C6  UNL     1     -33.420   7.351   3.312  1.00 20.00    -0.018 A 
HETATM    6  C7  UNL     1     -32.533   8.345   2.600  1.00 20.00     0.017 C 
HETATM    7  C8  UNL     1     -33.478   7.574   4.806  1.00 20.00     0.017 C 
ENDROOT
BRANCH   4   8
HETATM    8  C3  UNL     1     -32.821   5.576   1.516  1.00 20.00     0.280 C 
HETATM    9  O10 UNL     1     -31.621   5.341   1.478  1.00 20.00    -0.263 OA
BRANCH   8  10
HETATM   10  O11 UNL     1     -33.683   5.557   0.458  1.00 20.00    -0.325 OA
HETATM   11  C9  UNL     1     -33.716   4.335  -0.286  1.00 20.00     0.213 C 
ENDBRANCH   8  10
ENDBRANCH   4   8
TORSDOF 2
ENDMDL
MODEL 6
REMARK VINA RESULT:       1.2      1.753      3.188
REMARK  2 active torsions:
REMARK  status: ('A' for Active; 'I' for Inactive)
REMARK    1  A    between atoms: C3_3  and  C5_5 
REMARK    2  A    between atoms: C3_3  and  O11_11 
ROOT
HETATM    1  C1  UNL     1     -33.866   3.925   4.427  1.00 20.00     0.013 C 
HETATM    2  C2  UNL     1     -33.781   4.877   3.700  1.00 20.00    -0.096 C 
HETATM    3  C4  UNL     1     -34.789   7.048   2.913  1.00 20.00     0.044 A 
HETATM    4  C5  UNL     1     -33.678   6.020   2.828  1.00 20.00     0.118 A 
HETATM    5  C6  UNL     1     -33.422   7.404   3.442  1.00 20.00    -0.018 A 
HETATM    6  C7  UNL     1     -32.616   8.419   2.666  1.00 20.00     0.017 C 
HETATM    7  C8  UNL     1     -33.266   7.545   4.939  1.00 20.00     0.017 C 
ENDROOT
BRANCH   4   8
HETATM    8  C3  UNL     1     -33.130   5.720   1.489  1.00 20.00     0.280 C 
HETATM    9  O10 UNL     1     -33.754   5.858   0.446  1.00 20.00    -0.263 OA
BRANCH   8  10
HETATM   10  O11 UNL     1     -31.846   5.276   1.611  1.00 20.00    -0.325 OA
HETATM   11  C9  UNL     1     -31.372   4.462   0.534  1.00 20.00     0.213 C 
ENDBRANCH   8  10
ENDBRANCH   4   8
TORSDOF 2
ENDMDL
MODEL 7
REMARK VINA RESULT:       1.3      2.079      3.804
REMARK  2 active torsions:
REMARK  status: ('A' for Active; 'I' for Inactive)
REMARK    1  A    between atoms: C3_3  and  C5_5 
REMARK    2  A    between atoms: C3_3  and  O11_11 
ROOT
HETATM    1  C1  UNL     1     -34.327   5.488  -0.400  1.00 20.00     0.013 C 
HETATM    2  C2  UNL     1     -33.742   5.819   0.595  1.00 20.00    -0.096 C 
HETATM    3  C4  UNL     1     -31.525   6.176   1.738  1.00 20.00     0.044 A 
HETATM    4  C5  UNL     1     -33.040   6.215   1.790  1.00 20.00     0.118 A 
HETATM    5  C6  UNL     1     -32.221   7.514   1.776  1.00 20.00    -0.018 A 
HETATM    6  C7  UNL     1     -32.104   8.327   3.044  1.00 20.00     0.017 C 
HETATM    7  C8  UNL     1     -32.177   8.361   0.525  1.00 20.00     0.017 C 
ENDROOT
BRANCH   4   8
HETATM    8  C3  UNL     1     -33.689   5.793   3.049  1.00 20.00     0.280 C 
HETATM    9  O10 UNL     1     -34.537   6.450   3.636  1.00 20.00    -0.263 OA
BRANCH   8  10
HETATM   10  O11 UNL     1     -33.194   4.581   3.433  1.00 20.00    -0.325 OA
HETATM   11  C9  UNL     1     -33.993   3.863   4.379  1.00 20.00     0.213 C 
ENDBRANCH   8  10
ENDBRANCH   4   8
TORSDOF 2
ENDMDL
MODEL 8
REMARK VINA RESULT:       1.3      1.628      3.214
REMARK  2 active torsions:
REMARK  status: ('A' for Active; 'I' for Inactive)
REMARK    1  A    between atoms: C3_3  and  C5_5 
REMARK    2  A    between atoms: C3_3  and  O11_11 
ROOT
HETATM    1  C1  UNL     1     -31.613   8.725   1.136  1.00 20.00     0.013 C 
HETATM    2  C2  UNL     1     -32.302   7.877   1.634  1.00 20.00    -0.096 C 
HETATM    3  C4  UNL     1     -33.963   6.015   1.288  1.00 20.00     0.044 A 
HETATM    4  C5  UNL     1     -33.129   6.860   2.231  1.00 20.00     0.118 A 
HETATM    5  C6  UNL     1     -32.785   5.383   1.986  1.00 20.00    -0.018 A 
HETATM    6  C7  UNL     1     -33.076   4.368   3.067  1.00 20.00     0.017 C 
HETATM    7  C8  UNL     1     -31.584   5.020   1.144  1.00 20.00     0.017 C 
ENDROOT
BRANCH   4   8
HETATM    8  C3  UNL     1     -33.741   7.247   3.519  1.00 20.00     0.280 C 
HETATM    9  O10 UNL     1     -34.883   6.959   3.850  1.00 20.00    -0.263 OA
BRANCH   8  10
HETATM   10  O11 UNL     1     -32.840   7.959   4.256  1.00 20.00    -0.325 OA
HETATM   11  C9  UNL     1     -33.287   8.359   5.555  1.00 20.00     0.213 C 
ENDBRANCH   8  10
ENDBRANCH   4   8
TORSDOF 2
ENDMDL
MODEL 9
REMARK VINA RESULT:       1.6      1.335      2.644
REMARK  2 active torsions:
REMARK  status: ('A' for Active; 'I' for Inactive)
REMARK    1  A    between atoms: C3_3  and  C5_5 
REMARK    2  A    between atoms: C3_3  and  O11_11 
ROOT
HETATM    1  C1  UNL     1     -32.691   8.458   4.511  1.00 20.00     0.013 C 
HETATM    2  C2  UNL     1     -32.529   7.995   3.415  1.00 20.00    -0.096 C 
HETATM    3  C4  UNL     1     -31.622   6.104   2.019  1.00 20.00     0.044 A 
HETATM    4  C5  UNL     1     -32.335   7.440   2.100  1.00 20.00     0.118 A 
HETATM    5  C6  UNL     1     -33.097   6.164   1.710  1.00 20.00    -0.018 A 
HETATM    6  C7  UNL     1     -33.518   5.966   0.273  1.00 20.00     0.017 C 
HETATM    7  C8  UNL     1     -34.045   5.525   2.697  1.00 20.00     0.017 C 
ENDROOT
BRANCH   4   8
HETATM    8  C3  UNL     1     -32.031   8.438   1.053  1.00 20.00     0.280 C 
HETATM    9  O10 UNL     1     -31.095   8.347   0.270  1.00 20.00    -0.263 OA
BRANCH   8  10
HETATM   10  O11 UNL     1     -32.945   9.449   1.108  1.00 20.00    -0.325 OA
HETATM   11  C9  UNL     1     -32.716  10.534   0.203  1.00 20.00     0.213 C 
ENDBRANCH   8  10
ENDBRANCH   4   8
TORSDOF 2
ENDMDL
