MODEL 1
REMARK VINA RESULT:      -1.0      0.000      0.000
REMARK  1 active torsions:
REMARK  status: ('A' for Active; 'I' for Inactive)
REMARK    1  A    between atoms: C2_2  and  C3_3 
ROOT
HETATM    1  C1  UNL     1     -34.272   7.188   3.570  1.00 20.00    -0.009 C 
HETATM    2  C2  UNL     1     -33.848   5.890   3.500  1.00 20.00    -0.007 C 
HETATM    3  C4  UNL     1     -31.435   7.506   1.166  1.00 20.00     0.002 C 
HETATM    4  C5  UNL     1     -32.569   8.408   1.730  1.00 20.00     0.009 C 
HETATM    5  C6  UNL     1     -31.681   6.097   1.789  1.00 20.00     0.015 C 
HETATM    6  C7  UNL     1     -32.977   7.584   2.915  1.00 20.00     0.021 C 
HETATM    7  C8  UNL     1     -33.146   6.184   2.187  1.00 20.00    -0.007 C 
HETATM    8  C10 UNL     1     -34.062   5.904   0.977  1.00 20.00     0.021 C 
ENDROOT
BRANCH   2   9
HETATM    9  C3  UNL     1     -34.425   4.724   4.152  1.00 20.00     0.152 C 
HETATM   10  C9  UNL     1     -33.591   3.464   4.240  1.00 20.00     0.096 C 
HETATM   11  O11 UNL     1     -35.571   4.754   4.617  1.00 20.00    -0.293 OA
ENDBRANCH   2   9
TORSDOF 1
ENDMDL
MODEL 2
REMARK VINA RESULT:       0.5      1.382      2.725
REMARK  1 active torsions:
REMARK  status: ('A' for Active; 'I' for Inactive)
REMARK    1  A    between atoms: C2_2  and  C3_3 
ROOT
HETATM    1  C1  UNL     1     -32.080   6.156   1.554  1.00 20.00    -0.009 C 
HETATM    2  C2  UNL     1     -33.113   6.648   2.303  1.00 20.00    -0.007 C 
HETATM    3  C4  UNL     1     -32.086   9.731   0.481  1.00 20.00     0.002 C 
HETATM    4  C5  UNL     1     -31.199   8.471   0.272  1.00 20.00     0.009 C 
HETATM    5  C6  UNL     1     -33.208   9.286   1.469  1.00 20.00     0.015 C 
HETATM    6  C7  UNL     1     -32.159   7.413   0.730  1.00 20.00     0.021 C 
HETATM    7  C8  UNL     1     -32.586   8.059   2.115  1.00 20.00    -0.007 C 
HETATM    8  C10 UNL     1     -31.625   8.463   3.253  1.00 20.00     0.021 C 
ENDROOT
BRANCH   2   9
HETATM    9  C3  UNL     1     -33.917   5.944   3.291  1.00 20.00     0.152 C 
HETATM   10  C9  UNL     1     -35.049   6.690   3.962  1.00 20.00     0.096 C 
HETATM   11  O11 UNL     1     -33.679   4.765   3.584  1.00 20.00    -0.293 OA
ENDBRANCH   2   9
TORSDOF 1
ENDMDL
MODEL 3
REMARK VINA RESULT:       0.6      1.170      2.446
REMARK  1 active torsions:
REMARK  status: ('A' for Active; 'I' for Inactive)
REMARK    1  A    between atoms: C2_2  and  C3_3 
ROOT
HETATM    1  C1  UNL     1     -32.327   6.075   1.791  1.00 20.00    -0.009 C 
HETATM    2  C2  UNL     1     -33.334   6.685   2.485  1.00 20.00    -0.007 C 
HETATM    3  C4  UNL     1     -32.022   9.577   0.536  1.00 20.00     0.002 C 
HETATM    4  C5  UNL     1     -31.234   8.242   0.417  1.00 20.00     0.009 C 
HETATM    5  C6  UNL     1     -33.199   9.275   1.515  1.00 20.00     0.015 C 
HETATM    6  C7  UNL     1     -32.286   7.288   0.901  1.00 20.00     0.021 C 
HETATM    7  C8  UNL     1     -32.692   8.038   2.240  1.00 20.00    -0.007 C 
HETATM    8  C10 UNL     1     -31.729   8.426   3.382  1.00 20.00     0.021 C 
ENDROOT
BRANCH   2   9
HETATM    9  C3  UNL     1     -34.215   6.100   3.485  1.00 20.00     0.152 C 
HETATM   10  C9  UNL     1     -34.055   4.631   3.811  1.00 20.00     0.096 C 
HETATM   11  O11 UNL     1     -35.079   6.781   4.051  1.00 20.00    -0.293 OA
ENDBRANCH   2   9
TORSDOF 1
ENDMDL
MODEL 4
REMARK VINA RESULT:       0.8      2.680      4.478
REMARK  1 active torsions:
REMARK  status: ('A' for Active; 'I' for Inactive)
REMARK    1  A    between atoms: C2_2  and  C3_3 
ROOT
HETATM    1  C1  UNL     1     -31.947   8.386   3.177  1.00 20.00    -0.009 C 
HETATM    2  C2  UNL     1     -32.539   8.401   1.944  1.00 20.00    -0.007 C 
HETATM    3  C4  UNL     1     -35.031   6.395   3.855  1.00 20.00     0.002 C 
HETATM    4  C5  UNL     1     -33.723   6.778   4.604  1.00 20.00     0.009 C 
HETATM    5  C6  UNL     1     -34.881   7.005   2.426  1.00 20.00     0.015 C 
HETATM    6  C7  UNL     1     -33.261   7.910   3.735  1.00 20.00     0.021 C 
HETATM    7  C8  UNL     1     -33.375   7.193   2.325  1.00 20.00    -0.007 C 
HETATM    8  C10 UNL     1     -32.682   5.873   1.927  1.00 20.00     0.021 C 
ENDROOT
BRANCH   2   9
HETATM    9  C3  UNL     1     -32.030   8.988   0.714  1.00 20.00     0.152 C 
HETATM   10  C9  UNL     1     -32.685  10.249   0.194  1.00 20.00     0.096 C 
HETATM   11  O11 UNL     1     -31.089   8.469   0.101  1.00 20.00    -0.293 OA
ENDBRANCH   2   9
TORSDOF 1
ENDMDL
MODEL 5
REMARK VINA RESULT:       1.7      2.004      3.544
REMARK  1 active torsions:
REMARK  status: ('A' for Active; 'I' for Inactive)
REMARK    1  A    between atoms: C2_2  and  C3_3 
ROOT
HETATM    1  C1  UNL     1     -32.038   6.708   1.860  1.00 20.00    -0.009 C 
HETATM    2  C2  UNL     1     -33.098   5.943   1.459  1.00 20.00    -0.007 C 
HETATM    3  C4  UNL     1     -34.544   7.544   4.496  1.00 20.00     0.002 C 
HETATM    4  C5  UNL     1     -33.042   7.823   4.211  1.00 20.00     0.009 C 
HETATM    5  C6  UNL     1     -35.015   6.603   3.344  1.00 20.00     0.015 C 
HETATM    6  C7  UNL     1     -32.991   7.449   2.759  1.00 20.00     0.021 C 
HETATM    7  C8  UNL     1     -33.695   6.030   2.851  1.00 20.00    -0.007 C 
HETATM    8  C10 UNL     1     -33.239   4.855   3.741  1.00 20.00     0.021 C 
ENDROOT
BRANCH   2   9
HETATM    9  C3  UNL     1     -33.159   5.014   0.340  1.00 20.00     0.152 C 
HETATM   10  C9  UNL     1     -34.420   4.977  -0.496  1.00 20.00     0.096 C 
HETATM   11  O11 UNL     1     -32.208   4.266   0.079  1.00 20.00    -0.293 OA
ENDBRANCH   2   9
TORSDOF 1
ENDMDL
