MODEL 1
REMARK VINA RESULT:       0.7      0.000      0.000
REMARK  1 active torsions:
REMARK  status: ('A' for Active; 'I' for Inactive)
REMARK    1  A    between atoms: C4_4  and  C5_5 
ROOT
HETATM    1  C1  UNL     1     -33.735   5.674   0.830  1.00 20.00    -0.021 C 
HETATM    2  C2  UNL     1     -33.060   6.748   0.401  1.00 20.00    -0.025 C 
HETATM    3  C3  UNL     1     -33.954   6.811   3.759  1.00 20.00    -0.015 C 
HETATM    4  C4  UNL     1     -33.791   5.546   3.331  1.00 20.00    -0.009 C 
HETATM    5  C6  UNL     1     -33.525   8.083   3.073  1.00 20.00     0.028 C 
HETATM    6  C7  UNL     1     -32.177   8.135   2.332  1.00 20.00     0.012 C 
HETATM    7  C8  UNL     1     -31.687   5.672   1.968  1.00 20.00     0.022 C 
HETATM    8  C9  UNL     1     -33.103   5.096   2.069  1.00 20.00     0.045 C 
HETATM    9  C10 UNL     1     -31.891   7.036   1.299  1.00 20.00     0.009 C 
ENDROOT
BRANCH   4  10
HETATM   10  C5  UNL     1     -34.345   4.500   4.203  1.00 20.00     0.152 C 
HETATM   11  C11 UNL     1     -33.508   3.274   4.451  1.00 20.00     0.096 C 
HETATM   12  O12 UNL     1     -35.461   4.631   4.700  1.00 20.00    -0.293 OA
ENDBRANCH   4  10
TORSDOF 1
ENDMDL
MODEL 2
REMARK VINA RESULT:       1.4      2.532      4.314
REMARK  1 active torsions:
REMARK  status: ('A' for Active; 'I' for Inactive)
REMARK    1  A    between atoms: C4_4  and  C5_5 
ROOT
HETATM    1  C1  UNL     1     -32.597   5.577   2.203  1.00 20.00    -0.021 C 
HETATM    2  C2  UNL     1     -33.291   5.258   3.302  1.00 20.00    -0.025 C 
HETATM    3  C3  UNL     1     -32.354   8.596   3.065  1.00 20.00    -0.015 C 
HETATM    4  C4  UNL     1     -32.507   8.054   1.843  1.00 20.00    -0.009 C 
HETATM    5  C6  UNL     1     -32.809   8.037   4.390  1.00 20.00     0.028 C 
HETATM    6  C7  UNL     1     -34.168   7.320   4.491  1.00 20.00     0.012 C 
HETATM    7  C8  UNL     1     -34.629   6.734   2.066  1.00 20.00     0.022 C 
HETATM    8  C9  UNL     1     -33.205   6.764   1.503  1.00 20.00     0.045 C 
HETATM    9  C10 UNL     1     -34.453   6.192   3.489  1.00 20.00     0.009 C 
ENDROOT
BRANCH   4  10
HETATM   10  C5  UNL     1     -31.928   8.818   0.729  1.00 20.00     0.152 C 
HETATM   11  C11 UNL     1     -32.586  10.117   0.349  1.00 20.00     0.096 C 
HETATM   12  O12 UNL     1     -30.942   8.393   0.129  1.00 20.00    -0.293 OA
ENDBRANCH   4  10
TORSDOF 1
ENDMDL
MODEL 3
REMARK VINA RESULT:       1.4      0.845      2.472
REMARK  1 active torsions:
REMARK  status: ('A' for Active; 'I' for Inactive)
REMARK    1  A    between atoms: C4_4  and  C5_5 
ROOT
HETATM    1  C1  UNL     1     -32.628   7.859   4.385  1.00 20.00    -0.021 C 
HETATM    2  C2  UNL     1     -32.087   8.611   3.419  1.00 20.00    -0.025 C 
HETATM    3  C3  UNL     1     -32.855   5.350   2.496  1.00 20.00    -0.015 C 
HETATM    4  C4  UNL     1     -33.679   5.778   3.469  1.00 20.00    -0.009 C 
HETATM    5  C6  UNL     1     -31.928   6.173   1.638  1.00 20.00     0.028 C 
HETATM    6  C7  UNL     1     -32.380   7.555   1.131  1.00 20.00     0.012 C 
HETATM    7  C8  UNL     1     -34.270   8.103   2.732  1.00 20.00     0.022 C 
HETATM    8  C9  UNL     1     -33.898   7.201   3.912  1.00 20.00     0.045 C 
HETATM    9  C10 UNL     1     -32.917   8.551   2.168  1.00 20.00     0.009 C 
ENDROOT
BRANCH   4  10
HETATM   10  C5  UNL     1     -34.447   4.734   4.162  1.00 20.00     0.152 C 
HETATM   11  C11 UNL     1     -33.773   3.410   4.406  1.00 20.00     0.096 C 
HETATM   12  O12 UNL     1     -35.604   4.945   4.518  1.00 20.00    -0.293 OA
ENDBRANCH   4  10
TORSDOF 1
ENDMDL
MODEL 4
REMARK VINA RESULT:       1.6      2.197      4.343
REMARK  1 active torsions:
REMARK  status: ('A' for Active; 'I' for Inactive)
REMARK    1  A    between atoms: C4_4  and  C5_5 
ROOT
HETATM    1  C1  UNL     1     -35.286   7.425   3.045  1.00 20.00    -0.021 C 
HETATM    2  C2  UNL     1     -35.724   6.290   3.604  1.00 20.00    -0.025 C 
HETATM    3  C3  UNL     1     -32.733   6.015   1.857  1.00 20.00    -0.015 C 
HETATM    4  C4  UNL     1     -32.885   7.257   2.353  1.00 20.00    -0.009 C 
HETATM    5  C6  UNL     1     -33.508   4.773   2.216  1.00 20.00     0.028 C 
HETATM    6  C7  UNL     1     -33.910   4.519   3.680  1.00 20.00     0.012 C 
HETATM    7  C8  UNL     1     -33.717   6.841   4.684  1.00 20.00     0.022 C 
HETATM    8  C9  UNL     1     -33.853   7.695   3.420  1.00 20.00     0.045 C 
HETATM    9  C10 UNL     1     -34.641   5.646   4.423  1.00 20.00     0.009 C 
ENDROOT
BRANCH   4  10
HETATM   10  C5  UNL     1     -32.000   8.284   1.786  1.00 20.00     0.152 C 
HETATM   11  C11 UNL     1     -32.541   9.145   0.677  1.00 20.00     0.096 C 
HETATM   12  O12 UNL     1     -30.853   8.420   2.208  1.00 20.00    -0.293 OA
ENDBRANCH   4  10
TORSDOF 1
ENDMDL
MODEL 5
REMARK VINA RESULT:       2.2      1.136      2.676
REMARK  1 active torsions:
REMARK  status: ('A' for Active; 'I' for Inactive)
REMARK    1  A    between atoms: C4_4  and  C5_5 
ROOT
HETATM    1  C1  UNL     1     -32.452   7.943   4.251  1.00 20.00    -0.021 C 
HETATM    2  C2  UNL     1     -31.859   8.672   3.296  1.00 20.00    -0.025 C 
HETATM    3  C3  UNL     1     -32.778   5.459   2.344  1.00 20.00    -0.015 C 
HETATM    4  C4  UNL     1     -33.594   5.924   3.307  1.00 20.00    -0.009 C 
HETATM    5  C6  UNL     1     -31.798   6.238   1.504  1.00 20.00     0.028 C 
HETATM    6  C7  UNL     1     -32.172   7.644   0.999  1.00 20.00     0.012 C 
HETATM    7  C8  UNL     1     -34.055   8.280   2.576  1.00 20.00     0.022 C 
HETATM    8  C9  UNL     1     -33.746   7.354   3.756  1.00 20.00     0.045 C 
HETATM    9  C10 UNL     1     -32.673   8.661   2.034  1.00 20.00     0.009 C 
ENDROOT
BRANCH   4  10
HETATM   10  C5  UNL     1     -34.424   4.916   3.983  1.00 20.00     0.152 C 
HETATM   11  C11 UNL     1     -35.726   5.368   4.588  1.00 20.00     0.096 C 
HETATM   12  O12 UNL     1     -34.050   3.747   4.052  1.00 20.00    -0.293 OA
ENDBRANCH   4  10
TORSDOF 1
ENDMDL
MODEL 6
REMARK VINA RESULT:       2.2      1.079      1.233
REMARK  1 active torsions:
REMARK  status: ('A' for Active; 'I' for Inactive)
REMARK    1  A    between atoms: C4_4  and  C5_5 
ROOT
HETATM    1  C1  UNL     1     -33.562   7.424   1.013  1.00 20.00    -0.021 C 
HETATM    2  C2  UNL     1     -32.525   8.256   0.855  1.00 20.00    -0.025 C 
HETATM    3  C3  UNL     1     -33.325   7.503   4.152  1.00 20.00    -0.015 C 
HETATM    4  C4  UNL     1     -33.662   6.489   3.334  1.00 20.00    -0.009 C 
HETATM    5  C6  UNL     1     -32.438   8.684   3.846  1.00 20.00     0.028 C 
HETATM    6  C7  UNL     1     -31.174   8.490   2.988  1.00 20.00     0.012 C 
HETATM    7  C8  UNL     1     -31.672   6.296   1.817  1.00 20.00     0.022 C 
HETATM    8  C9  UNL     1     -33.201   6.275   1.917  1.00 20.00     0.045 C 
HETATM    9  C10 UNL     1     -31.334   7.780   1.637  1.00 20.00     0.009 C 
ENDROOT
BRANCH   4  10
HETATM   10  C5  UNL     1     -34.576   5.488   3.902  1.00 20.00     0.152 C 
HETATM   11  C11 UNL     1     -34.062   4.083   4.073  1.00 20.00     0.096 C 
HETATM   12  O12 UNL     1     -35.723   5.799   4.215  1.00 20.00    -0.293 OA
ENDBRANCH   4  10
TORSDOF 1
ENDMDL
MODEL 7
REMARK VINA RESULT:       2.3      2.443      4.213
REMARK  1 active torsions:
REMARK  status: ('A' for Active; 'I' for Inactive)
REMARK    1  A    between atoms: C4_4  and  C5_5 
ROOT
HETATM    1  C1  UNL     1     -31.747   5.746   1.777  1.00 20.00    -0.021 C 
HETATM    2  C2  UNL     1     -32.483   5.036   2.641  1.00 20.00    -0.025 C 
HETATM    3  C3  UNL     1     -32.905   8.480   2.826  1.00 20.00    -0.015 C 
HETATM    4  C4  UNL     1     -32.561   8.106   1.580  1.00 20.00    -0.009 C 
HETATM    5  C6  UNL     1     -33.382   7.605   3.957  1.00 20.00     0.028 C 
HETATM    6  C7  UNL     1     -34.336   6.431   3.666  1.00 20.00     0.012 C 
HETATM    7  C8  UNL     1     -33.987   6.081   1.178  1.00 20.00     0.022 C 
HETATM    8  C9  UNL     1     -32.604   6.715   1.005  1.00 20.00     0.045 C 
HETATM    9  C10 UNL     1     -33.928   5.439   2.569  1.00 20.00     0.009 C 
ENDROOT
BRANCH   4  10
HETATM   10  C5  UNL     1     -32.100   9.185   0.694  1.00 20.00     0.152 C 
HETATM   11  C11 UNL     1     -30.991   8.874  -0.275  1.00 20.00     0.096 C 
HETATM   12  O12 UNL     1     -32.607  10.303   0.759  1.00 20.00    -0.293 OA
ENDBRANCH   4  10
TORSDOF 1
ENDMDL
MODEL 8
REMARK VINA RESULT:       3.0      2.104      3.062
REMARK  1 active torsions:
REMARK  status: ('A' for Active; 'I' for Inactive)
REMARK    1  A    between atoms: C4_4  and  C5_5 
ROOT
HETATM    1  C1  UNL     1     -32.625   8.661   1.023  1.00 20.00    -0.021 C 
HETATM    2  C2  UNL     1     -32.749   9.453   2.095  1.00 20.00    -0.025 C 
HETATM    3  C3  UNL     1     -33.703   6.148   2.584  1.00 20.00    -0.015 C 
HETATM    4  C4  UNL     1     -32.752   6.236   1.636  1.00 20.00    -0.009 C 
HETATM    5  C6  UNL     1     -34.124   7.204   3.574  1.00 20.00     0.028 C 
HETATM    6  C7  UNL     1     -33.063   8.111   4.224  1.00 20.00     0.012 C 
HETATM    7  C8  UNL     1     -31.112   7.859   2.622  1.00 20.00     0.022 C 
HETATM    8  C9  UNL     1     -31.853   7.412   1.358  1.00 20.00     0.045 C 
HETATM    9  C10 UNL     1     -32.083   8.837   3.293  1.00 20.00     0.009 C 
ENDROOT
BRANCH   4  10
HETATM   10  C5  UNL     1     -32.582   5.046   0.790  1.00 20.00     0.152 C 
HETATM   11  C11 UNL     1     -31.233   4.378   0.778  1.00 20.00     0.096 C 
HETATM   12  O12 UNL     1     -33.517   4.626   0.112  1.00 20.00    -0.293 OA
ENDBRANCH   4  10
TORSDOF 1
ENDMDL
MODEL 9
REMARK VINA RESULT:       3.2      1.723      2.945
REMARK  1 active torsions:
REMARK  status: ('A' for Active; 'I' for Inactive)
REMARK    1  A    between atoms: C4_4  and  C5_5 
ROOT
HETATM    1  C1  UNL     1     -31.317   8.357   2.977  1.00 20.00    -0.021 C 
HETATM    2  C2  UNL     1     -30.713   8.153   1.800  1.00 20.00    -0.025 C 
HETATM    3  C3  UNL     1     -33.229   5.887   2.580  1.00 20.00    -0.015 C 
HETATM    4  C4  UNL     1     -33.464   7.080   3.157  1.00 20.00    -0.009 C 
HETATM    5  C6  UNL     1     -32.244   5.566   1.485  1.00 20.00     0.028 C 
HETATM    6  C7  UNL     1     -32.032   6.562   0.331  1.00 20.00     0.012 C 
HETATM    7  C8  UNL     1     -32.939   8.712   1.325  1.00 20.00     0.022 C 
HETATM    8  C9  UNL     1     -32.814   8.396   2.818  1.00 20.00     0.045 C 
HETATM    9  C10 UNL     1     -31.725   8.020   0.697  1.00 20.00     0.009 C 
ENDROOT
BRANCH   4  10
HETATM   10  C5  UNL     1     -34.469   7.084   4.230  1.00 20.00     0.152 C 
HETATM   11  C11 UNL     1     -35.532   6.020   4.202  1.00 20.00     0.096 C 
HETATM   12  O12 UNL     1     -34.435   7.941   5.111  1.00 20.00    -0.293 OA
ENDBRANCH   4  10
TORSDOF 1
ENDMDL
