MODEL 1
REMARK VINA RESULT:      -2.0      0.000      0.000
REMARK  2 active torsions:
REMARK  status: ('A' for Active; 'I' for Inactive)
REMARK    1  A    between atoms: C2_2  and  C3_3 
REMARK    2  A    between atoms: C4_4  and  C5_5 
ROOT
HETATM    1  C1  UNL     1     -32.390   9.575  -0.113  1.00 20.00     0.087 C 
HETATM    2  C2  UNL     1     -31.565   8.698   0.641  1.00 20.00     0.093 C 
HETATM    3  N8  UNL     1     -33.062  10.291  -0.732  1.00 20.00    -0.192 NA
ENDROOT
BRANCH   2   4
HETATM    4  C3  UNL     1     -32.016   8.090   1.746  1.00 20.00     0.012 C 
HETATM    5  C4  UNL     1     -32.834   6.898   1.711  1.00 20.00     0.017 C 
BRANCH   5   6
HETATM    6  C5  UNL     1     -33.288   6.288   2.813  1.00 20.00     0.084 C 
HETATM    7  N9  UNL     1     -34.186   6.765   3.712  1.00 20.00    -0.398 N 
HETATM    8  C6  UNL     1     -35.446   6.075   3.976  1.00 20.00     0.148 C 
HETATM    9  C7  UNL     1     -33.846   7.843   4.637  1.00 20.00     0.148 C 
ENDBRANCH   5   6
ENDBRANCH   2   4
TORSDOF 2
ENDMDL
MODEL 2
REMARK VINA RESULT:      -1.5      1.644      5.106
REMARK  2 active torsions:
REMARK  status: ('A' for Active; 'I' for Inactive)
REMARK    1  A    between atoms: C2_2  and  C3_3 
REMARK    2  A    between atoms: C4_4  and  C5_5 
ROOT
HETATM    1  C1  UNL     1     -34.477   4.769   4.182  1.00 20.00     0.087 C 
HETATM    2  C2  UNL     1     -35.068   6.056   4.062  1.00 20.00     0.093 C 
HETATM    3  N8  UNL     1     -33.997   3.717   4.279  1.00 20.00    -0.192 NA
ENDROOT
BRANCH   2   4
HETATM    4  C3  UNL     1     -34.333   7.141   3.787  1.00 20.00     0.012 C 
HETATM    5  C4  UNL     1     -33.336   7.173   2.739  1.00 20.00     0.017 C 
BRANCH   5   6
HETATM    6  C5  UNL     1     -32.599   8.255   2.462  1.00 20.00     0.084 C 
HETATM    7  N9  UNL     1     -32.235   8.716   1.237  1.00 20.00    -0.398 N 
HETATM    8  C6  UNL     1     -32.621  10.046   0.773  1.00 20.00     0.148 C 
HETATM    9  C7  UNL     1     -31.242   8.022   0.421  1.00 20.00     0.148 C 
ENDBRANCH   5   6
ENDBRANCH   2   4
TORSDOF 2
ENDMDL
MODEL 3
REMARK VINA RESULT:      -0.8      1.461      1.856
REMARK  2 active torsions:
REMARK  status: ('A' for Active; 'I' for Inactive)
REMARK    1  A    between atoms: C2_2  and  C3_3 
REMARK    2  A    between atoms: C4_4  and  C5_5 
ROOT
HETATM    1  C1  UNL     1     -32.126   9.203   0.746  1.00 20.00     0.087 C 
HETATM    2  C2  UNL     1     -31.883   8.129   1.645  1.00 20.00     0.093 C 
HETATM    3  N8  UNL     1     -32.320  10.080   0.011  1.00 20.00    -0.192 NA
ENDROOT
BRANCH   2   4
HETATM    4  C3  UNL     1     -32.886   7.393   2.142  1.00 20.00     0.012 C 
HETATM    5  C4  UNL     1     -32.954   5.956   1.996  1.00 20.00     0.017 C 
BRANCH   5   6
HETATM    6  C5  UNL     1     -33.955   5.216   2.490  1.00 20.00     0.084 C 
HETATM    7  N9  UNL     1     -34.087   4.745   3.757  1.00 20.00    -0.398 N 
HETATM    8  C6  UNL     1     -35.226   5.110   4.595  1.00 20.00     0.148 C 
HETATM    9  C7  UNL     1     -33.245   3.665   4.265  1.00 20.00     0.148 C 
ENDBRANCH   5   6
ENDBRANCH   2   4
TORSDOF 2
ENDMDL
MODEL 4
REMARK VINA RESULT:      -0.8      1.959      5.153
REMARK  2 active torsions:
REMARK  status: ('A' for Active; 'I' for Inactive)
REMARK    1  A    between atoms: C2_2  and  C3_3 
REMARK    2  A    between atoms: C4_4  and  C5_5 
ROOT
HETATM    1  C1  UNL     1     -34.217   4.140   4.380  1.00 20.00     0.087 C 
HETATM    2  C2  UNL     1     -35.168   5.197   4.384  1.00 20.00     0.093 C 
HETATM    3  N8  UNL     1     -33.444   3.275   4.378  1.00 20.00    -0.192 NA
ENDROOT
BRANCH   2   4
HETATM    4  C3  UNL     1     -34.847   6.427   3.961  1.00 20.00     0.012 C 
HETATM    5  C4  UNL     1     -33.686   6.702   3.145  1.00 20.00     0.017 C 
BRANCH   5   6
HETATM    6  C5  UNL     1     -33.362   7.930   2.721  1.00 20.00     0.084 C 
HETATM    7  N9  UNL     1     -32.255   8.299   2.027  1.00 20.00    -0.398 N 
HETATM    8  C6  UNL     1     -32.349   8.914   0.705  1.00 20.00     0.148 C 
HETATM    9  C7  UNL     1     -30.935   8.336   2.651  1.00 20.00     0.148 C 
ENDBRANCH   5   6
ENDBRANCH   2   4
TORSDOF 2
ENDMDL
MODEL 5
REMARK VINA RESULT:      -0.7      1.234      4.766
REMARK  2 active torsions:
REMARK  status: ('A' for Active; 'I' for Inactive)
REMARK    1  A    between atoms: C2_2  and  C3_3 
REMARK    2  A    between atoms: C4_4  and  C5_5 
ROOT
HETATM    1  C1  UNL     1     -34.341   5.969   3.343  1.00 20.00     0.087 C 
HETATM    2  C2  UNL     1     -33.319   5.617   2.420  1.00 20.00     0.093 C 
HETATM    3  N8  UNL     1     -35.175   6.252   4.098  1.00 20.00    -0.192 NA
ENDROOT
BRANCH   2   4
HETATM    4  C3  UNL     1     -32.676   6.547   1.700  1.00 20.00     0.012 C 
HETATM    5  C4  UNL     1     -32.455   7.895   2.173  1.00 20.00     0.017 C 
BRANCH   5   6
HETATM    6  C5  UNL     1     -31.814   8.827   1.457  1.00 20.00     0.084 C 
HETATM    7  N9  UNL     1     -32.324   9.605   0.468  1.00 20.00    -0.398 N 
HETATM    8  C6  UNL     1     -32.331  11.063   0.565  1.00 20.00     0.148 C 
HETATM    9  C7  UNL     1     -32.663   9.055  -0.842  1.00 20.00     0.148 C 
ENDBRANCH   5   6
ENDBRANCH   2   4
TORSDOF 2
ENDMDL
MODEL 6
REMARK VINA RESULT:       0.3      1.727      4.976
REMARK  2 active torsions:
REMARK  status: ('A' for Active; 'I' for Inactive)
REMARK    1  A    between atoms: C2_2  and  C3_3 
REMARK    2  A    between atoms: C4_4  and  C5_5 
ROOT
HETATM    1  C1  UNL     1     -35.059   5.227   4.403  1.00 20.00     0.087 C 
HETATM    2  C2  UNL     1     -35.069   6.548   3.880  1.00 20.00     0.093 C 
HETATM    3  N8  UNL     1     -35.055   4.148   4.830  1.00 20.00    -0.192 NA
ENDROOT
BRANCH   2   4
HETATM    4  C3  UNL     1     -33.993   7.068   3.274  1.00 20.00     0.012 C 
HETATM    5  C4  UNL     1     -33.319   6.418   2.172  1.00 20.00     0.017 C 
BRANCH   5   6
HETATM    6  C5  UNL     1     -32.244   6.934   1.563  1.00 20.00     0.084 C 
HETATM    7  N9  UNL     1     -31.867   8.238   1.517  1.00 20.00    -0.398 N 
HETATM    8  C6  UNL     1     -30.583   8.684   2.053  1.00 20.00     0.148 C 
HETATM    9  C7  UNL     1     -32.596   9.219   0.718  1.00 20.00     0.148 C 
ENDBRANCH   5   6
ENDBRANCH   2   4
TORSDOF 2
ENDMDL
MODEL 7
REMARK VINA RESULT:       0.9      2.941      3.798
REMARK  2 active torsions:
REMARK  status: ('A' for Active; 'I' for Inactive)
REMARK    1  A    between atoms: C2_2  and  C3_3 
REMARK    2  A    between atoms: C4_4  and  C5_5 
ROOT
HETATM    1  C1  UNL     1     -32.735   7.708   2.183  1.00 20.00     0.087 C 
HETATM    2  C2  UNL     1     -33.967   7.509   2.863  1.00 20.00     0.093 C 
HETATM    3  N8  UNL     1     -31.730   7.874   1.626  1.00 20.00    -0.192 NA
ENDROOT
BRANCH   2   4
HETATM    4  C3  UNL     1     -34.084   6.610   3.849  1.00 20.00     0.012 C 
HETATM    5  C4  UNL     1     -34.097   5.183   3.615  1.00 20.00     0.017 C 
BRANCH   5   6
HETATM    6  C5  UNL     1     -34.215   4.280   4.597  1.00 20.00     0.084 C 
HETATM    7  N9  UNL     1     -33.343   3.290   4.919  1.00 20.00    -0.398 N 
HETATM    8  C6  UNL     1     -32.716   3.220   6.237  1.00 20.00     0.148 C 
HETATM    9  C7  UNL     1     -33.171   2.114   4.071  1.00 20.00     0.148 C 
ENDBRANCH   5   6
ENDBRANCH   2   4
TORSDOF 2
ENDMDL
MODEL 8
REMARK VINA RESULT:       0.9      1.591      2.290
REMARK  2 active torsions:
REMARK  status: ('A' for Active; 'I' for Inactive)
REMARK    1  A    between atoms: C2_2  and  C3_3 
REMARK    2  A    between atoms: C4_4  and  C5_5 
ROOT
HETATM    1  C1  UNL     1     -32.456  11.053   0.615  1.00 20.00     0.087 C 
HETATM    2  C2  UNL     1     -32.508   9.963  -0.296  1.00 20.00     0.093 C 
HETATM    3  N8  UNL     1     -32.416  11.945   1.357  1.00 20.00    -0.192 NA
ENDROOT
BRANCH   2   4
HETATM    4  C3  UNL     1     -32.387   8.696   0.121  1.00 20.00     0.012 C 
HETATM    5  C4  UNL     1     -32.053   8.345   1.484  1.00 20.00     0.017 C 
BRANCH   5   6
HETATM    6  C5  UNL     1     -31.930   7.079   1.905  1.00 20.00     0.084 C 
HETATM    7  N9  UNL     1     -32.917   6.159   2.056  1.00 20.00    -0.398 N 
HETATM    8  C6  UNL     1     -32.910   4.899   1.317  1.00 20.00     0.148 C 
HETATM    9  C7  UNL     1     -33.899   6.258   3.133  1.00 20.00     0.148 C 
ENDBRANCH   5   6
ENDBRANCH   2   4
TORSDOF 2
ENDMDL
