MODEL 1
REMARK VINA RESULT:      -1.3      0.000      0.000
REMARK  1 active torsions:
REMARK  status: ('A' for Active; 'I' for Inactive)
REMARK    1  A    between atoms: C4_4  and  O11_11 
ROOT
HETATM    1  C1  UNL     1     -34.844   5.814   4.177  1.00 20.00     0.034 C 
HETATM    2  C2  UNL     1     -34.549   7.101   3.900  1.00 20.00     0.003 C 
HETATM    3  C3  UNL     1     -33.102   4.941   2.698  1.00 20.00     0.017 C 
HETATM    4  C4  UNL     1     -33.969   4.737   3.709  1.00 20.00     0.062 C 
HETATM    5  C5  UNL     1     -32.331   8.331   1.450  1.00 20.00     0.004 C 
HETATM    6  C6  UNL     1     -31.890   6.883   1.359  1.00 20.00     0.065 C 
HETATM    7  C7  UNL     1     -33.092   6.297   2.064  1.00 20.00     0.045 C 
HETATM    8  C8  UNL     1     -33.284   7.368   3.145  1.00 20.00     0.139 C 
HETATM    9  C9  UNL     1     -31.814   9.341   0.481  1.00 20.00     0.065 C 
HETATM   10  N10 UNL     1     -33.178   8.636   2.400  1.00 20.00    -0.289 NA
ENDROOT
BRANCH   4  11
HETATM   11  O11 UNL     1     -34.144   3.528   4.339  1.00 20.00    -0.361 OA
HETATM   12  H22 UNL     1     -35.083   3.307   4.380  1.00 20.00     0.217 HD
ENDBRANCH   4  11
TORSDOF 1
ENDMDL
MODEL 2
REMARK VINA RESULT:      -0.3      1.142      1.989
REMARK  1 active torsions:
REMARK  status: ('A' for Active; 'I' for Inactive)
REMARK    1  A    between atoms: C4_4  and  O11_11 
ROOT
HETATM    1  C1  UNL     1     -33.852   4.375   3.706  1.00 20.00     0.034 C 
HETATM    2  C2  UNL     1     -33.004   4.711   2.713  1.00 20.00     0.003 C 
HETATM    3  C3  UNL     1     -34.689   6.659   3.963  1.00 20.00     0.017 C 
HETATM    4  C4  UNL     1     -34.840   5.340   4.193  1.00 20.00     0.062 C 
HETATM    5  C5  UNL     1     -32.201   7.942   1.554  1.00 20.00     0.004 C 
HETATM    6  C6  UNL     1     -33.386   8.361   2.402  1.00 20.00     0.065 C 
HETATM    7  C7  UNL     1     -33.465   7.092   3.218  1.00 20.00     0.045 C 
HETATM    8  C8  UNL     1     -33.152   6.074   2.114  1.00 20.00     0.139 C 
HETATM    9  C9  UNL     1     -31.329   8.970   0.913  1.00 20.00     0.065 C 
HETATM   10  N10 UNL     1     -31.987   6.658   1.424  1.00 20.00    -0.289 NA
ENDROOT
BRANCH   4  11
HETATM   11  O11 UNL     1     -35.872   4.800   4.923  1.00 20.00    -0.361 OA
HETATM   12  H22 UNL     1     -36.066   5.358   5.687  1.00 20.00     0.217 HD
ENDBRANCH   4  11
TORSDOF 1
ENDMDL
MODEL 3
REMARK VINA RESULT:       1.3      2.584      4.520
REMARK  1 active torsions:
REMARK  status: ('A' for Active; 'I' for Inactive)
REMARK    1  A    between atoms: C4_4  and  O11_11 
ROOT
HETATM    1  C1  UNL     1     -31.852   6.656   0.754  1.00 20.00     0.034 C 
HETATM    2  C2  UNL     1     -32.353   5.593   1.414  1.00 20.00     0.003 C 
HETATM    3  C3  UNL     1     -32.819   8.271   2.315  1.00 20.00     0.017 C 
HETATM    4  C4  UNL     1     -31.933   7.997   1.337  1.00 20.00     0.062 C 
HETATM    5  C5  UNL     1     -34.640   5.598   4.098  1.00 20.00     0.004 C 
HETATM    6  C6  UNL     1     -34.345   7.085   4.131  1.00 20.00     0.065 C 
HETATM    7  C7  UNL     1     -33.723   7.163   2.756  1.00 20.00     0.045 C 
HETATM    8  C8  UNL     1     -32.944   5.842   2.767  1.00 20.00     0.139 C 
HETATM    9  C9  UNL     1     -35.715   5.021   4.959  1.00 20.00     0.065 C 
HETATM   10  N10 UNL     1     -33.922   4.867   3.285  1.00 20.00    -0.289 NA
ENDROOT
BRANCH   4  11
HETATM   11  O11 UNL     1     -31.090   8.928   0.780  1.00 20.00    -0.361 OA
HETATM   12  H22 UNL     1     -30.179   8.751   1.044  1.00 20.00     0.217 HD
ENDBRANCH   4  11
TORSDOF 1
ENDMDL
MODEL 4
REMARK VINA RESULT:       1.5      2.580      4.210
REMARK  1 active torsions:
REMARK  status: ('A' for Active; 'I' for Inactive)
REMARK    1  A    between atoms: C4_4  and  O11_11 
ROOT
HETATM    1  C1  UNL     1     -33.269   8.524   2.931  1.00 20.00     0.034 C 
HETATM    2  C2  UNL     1     -33.916   7.646   3.725  1.00 20.00     0.003 C 
HETATM    3  C3  UNL     1     -32.273   6.767   1.551  1.00 20.00     0.017 C 
HETATM    4  C4  UNL     1     -32.599   8.065   1.713  1.00 20.00     0.062 C 
HETATM    5  C5  UNL     1     -33.594   4.135   3.780  1.00 20.00     0.004 C 
HETATM    6  C6  UNL     1     -32.836   4.350   2.484  1.00 20.00     0.065 C 
HETATM    7  C7  UNL     1     -32.599   5.831   2.672  1.00 20.00     0.045 C 
HETATM    8  C8  UNL     1     -33.952   6.217   3.282  1.00 20.00     0.139 C 
HETATM    9  C9  UNL     1     -33.647   2.783   4.410  1.00 20.00     0.065 C 
HETATM   10  N10 UNL     1     -34.178   5.180   4.307  1.00 20.00    -0.289 NA
ENDROOT
BRANCH   4  11
HETATM   11  O11 UNL     1     -32.298   9.052   0.805  1.00 20.00    -0.361 OA
HETATM   12  H22 UNL     1     -32.718   9.881   1.065  1.00 20.00     0.217 HD
ENDBRANCH   4  11
TORSDOF 1
ENDMDL
