MODEL 1
REMARK VINA RESULT:      -1.9      0.000      0.000
REMARK  1 active torsions:
REMARK  status: ('A' for Active; 'I' for Inactive)
REMARK    1  A    between atoms: C1_1  and  C4_4 
ROOT
HETATM    1  C2  UNL     1     -34.198   7.486   4.173  1.00 20.00     0.014 A 
HETATM    2  C3  UNL     1     -35.178   6.514   3.588  1.00 20.00     0.014 A 
HETATM    3  C4  UNL     1     -33.700   6.253   3.467  1.00 20.00     0.066 A 
ENDROOT
BRANCH   3   4
HETATM    4  C1  UNL     1     -33.052   6.385   2.158  1.00 20.00     0.193 C 
HETATM    5  O5  UNL     1     -33.076   5.488   1.328  1.00 20.00    -0.286 OA
HETATM    6  I6  UNL     1     -32.054   8.132   1.655  1.00 20.00    -0.001 I 
ENDBRANCH   3   4
TORSDOF 1
ENDMDL
MODEL 2
REMARK VINA RESULT:      -1.5      0.623      1.048
REMARK  1 active torsions:
REMARK  status: ('A' for Active; 'I' for Inactive)
REMARK    1  A    between atoms: C1_1  and  C4_4 
ROOT
HETATM    1  C2  UNL     1     -34.884   6.120   4.022  1.00 20.00     0.014 A 
HETATM    2  C3  UNL     1     -34.222   7.406   4.417  1.00 20.00     0.014 A 
HETATM    3  C4  UNL     1     -34.366   7.054   2.961  1.00 20.00     0.066 A 
ENDROOT
BRANCH   3   4
HETATM    4  C1  UNL     1     -33.174   6.680   2.192  1.00 20.00     0.193 C 
HETATM    5  O5  UNL     1     -32.936   5.522   1.884  1.00 20.00    -0.286 OA
HETATM    6  I6  UNL     1     -31.824   8.133   1.584  1.00 20.00    -0.001 I 
ENDBRANCH   3   4
TORSDOF 1
ENDMDL
MODEL 3
REMARK VINA RESULT:      -1.4      2.372      3.221
REMARK  1 active torsions:
REMARK  status: ('A' for Active; 'I' for Inactive)
REMARK    1  A    between atoms: C1_1  and  C4_4 
ROOT
HETATM    1  C2  UNL     1     -31.461   8.338   0.502  1.00 20.00     0.014 A 
HETATM    2  C3  UNL     1     -32.541   9.236   1.030  1.00 20.00     0.014 A 
HETATM    3  C4  UNL     1     -32.025   8.105   1.878  1.00 20.00     0.066 A 
ENDROOT
BRANCH   3   4
HETATM    4  C1  UNL     1     -32.882   6.938   2.118  1.00 20.00     0.193 C 
HETATM    5  O5  UNL     1     -32.800   5.922   1.445  1.00 20.00    -0.286 OA
HETATM    6  I6  UNL     1     -34.291   6.971   3.639  1.00 20.00    -0.001 I 
ENDBRANCH   3   4
TORSDOF 1
ENDMDL
MODEL 4
REMARK VINA RESULT:      -1.3      1.807      2.041
REMARK  1 active torsions:
REMARK  status: ('A' for Active; 'I' for Inactive)
REMARK    1  A    between atoms: C1_1  and  C4_4 
ROOT
HETATM    1  C2  UNL     1     -34.658   6.543   3.803  1.00 20.00     0.014 A 
HETATM    2  C3  UNL     1     -33.930   7.586   4.597  1.00 20.00     0.014 A 
HETATM    3  C4  UNL     1     -33.975   7.683   3.096  1.00 20.00     0.066 A 
ENDROOT
BRANCH   3   4
HETATM    4  C1  UNL     1     -32.755   7.424   2.323  1.00 20.00     0.193 C 
HETATM    5  O5  UNL     1     -31.867   8.255   2.211  1.00 20.00    -0.286 OA
HETATM    6  I6  UNL     1     -32.487   5.599   1.373  1.00 20.00    -0.001 I 
ENDBRANCH   3   4
TORSDOF 1
ENDMDL
MODEL 5
REMARK VINA RESULT:      -1.2      2.677      3.337
REMARK  1 active torsions:
REMARK  status: ('A' for Active; 'I' for Inactive)
REMARK    1  A    between atoms: C1_1  and  C4_4 
ROOT
HETATM    1  C2  UNL     1     -31.716   7.875   1.899  1.00 20.00     0.014 A 
HETATM    2  C3  UNL     1     -32.256   6.518   1.558  1.00 20.00     0.014 A 
HETATM    3  C4  UNL     1     -33.157   7.548   2.184  1.00 20.00     0.066 A 
ENDROOT
BRANCH   3   4
HETATM    4  C1  UNL     1     -33.594   7.371   3.573  1.00 20.00     0.193 C 
HETATM    5  O5  UNL     1     -33.124   8.024   4.492  1.00 20.00    -0.286 OA
HETATM    6  I6  UNL     1     -35.058   5.977   4.038  1.00 20.00    -0.001 I 
ENDBRANCH   3   4
TORSDOF 1
ENDMDL
MODEL 6
REMARK VINA RESULT:      -1.1      1.877      2.078
REMARK  1 active torsions:
REMARK  status: ('A' for Active; 'I' for Inactive)
REMARK    1  A    between atoms: C1_1  and  C4_4 
ROOT
HETATM    1  C2  UNL     1     -34.361   5.047   4.096  1.00 20.00     0.014 A 
HETATM    2  C3  UNL     1     -35.488   6.033   4.179  1.00 20.00     0.014 A 
HETATM    3  C4  UNL     1     -34.374   6.249   3.190  1.00 20.00     0.066 A 
ENDROOT
BRANCH   3   4
HETATM    4  C1  UNL     1     -33.412   7.333   3.417  1.00 20.00     0.193 C 
HETATM    5  O5  UNL     1     -33.349   7.936   4.478  1.00 20.00    -0.286 OA
HETATM    6  I6  UNL     1     -32.095   7.894   1.916  1.00 20.00    -0.001 I 
ENDBRANCH   3   4
TORSDOF 1
ENDMDL
MODEL 7
REMARK VINA RESULT:      -1.1      3.267      4.011
REMARK  1 active torsions:
REMARK  status: ('A' for Active; 'I' for Inactive)
REMARK    1  A    between atoms: C1_1  and  C4_4 
ROOT
HETATM    1  C2  UNL     1     -32.617   9.198  -0.475  1.00 20.00     0.014 A 
HETATM    2  C3  UNL     1     -32.571  10.273   0.570  1.00 20.00     0.014 A 
HETATM    3  C4  UNL     1     -31.715   9.044   0.720  1.00 20.00     0.066 A 
ENDROOT
BRANCH   3   4
HETATM    4  C1  UNL     1     -32.050   8.058   1.753  1.00 20.00     0.193 C 
HETATM    5  O5  UNL     1     -32.088   8.346   2.940  1.00 20.00    -0.286 OA
HETATM    6  I6  UNL     1     -32.480   6.098   1.227  1.00 20.00    -0.001 I 
ENDBRANCH   3   4
TORSDOF 1
ENDMDL
MODEL 8
REMARK VINA RESULT:      -0.8      2.175      2.916
REMARK  1 active torsions:
REMARK  status: ('A' for Active; 'I' for Inactive)
REMARK    1  A    between atoms: C1_1  and  C4_4 
ROOT
HETATM    1  C2  UNL     1     -32.303   8.787   1.144  1.00 20.00     0.014 A 
HETATM    2  C3  UNL     1     -31.581   8.573   2.442  1.00 20.00     0.014 A 
HETATM    3  C4  UNL     1     -31.875   7.400   1.545  1.00 20.00     0.066 A 
ENDROOT
BRANCH   3   4
HETATM    4  C1  UNL     1     -32.891   6.423   1.952  1.00 20.00     0.193 C 
HETATM    5  O5  UNL     1     -32.991   5.329   1.418  1.00 20.00    -0.286 OA
HETATM    6  I6  UNL     1     -34.220   6.871   3.480  1.00 20.00    -0.001 I 
ENDBRANCH   3   4
TORSDOF 1
ENDMDL
MODEL 9
REMARK VINA RESULT:      -0.8      3.060      3.305
REMARK  1 active torsions:
REMARK  status: ('A' for Active; 'I' for Inactive)
REMARK    1  A    between atoms: C1_1  and  C4_4 
ROOT
HETATM    1  C2  UNL     1     -35.160   7.121   3.293  1.00 20.00     0.014 A 
HETATM    2  C3  UNL     1     -33.937   7.304   4.141  1.00 20.00     0.014 A 
HETATM    3  C4  UNL     1     -34.174   5.994   3.438  1.00 20.00     0.066 A 
ENDROOT
BRANCH   3   4
HETATM    4  C1  UNL     1     -34.541   4.812   4.226  1.00 20.00     0.193 C 
HETATM    5  O5  UNL     1     -35.629   4.706   4.772  1.00 20.00    -0.286 OA
HETATM    6  I6  UNL     1     -33.200   3.245   4.446  1.00 20.00    -0.001 I 
ENDBRANCH   3   4
TORSDOF 1
ENDMDL
