MODEL 1
REMARK VINA RESULT:      -2.0      0.000      0.000
REMARK  0 active torsions:
REMARK  status: ('A' for Active; 'I' for Inactive)
ROOT
HETATM    1  C1  UNL     1     -33.167   7.413   2.451  1.00 20.00     0.251 C 
HETATM    2  C2  UNL     1     -32.804   5.953   2.623  1.00 20.00     0.251 C 
HETATM    3  C3  UNL     1     -33.854   7.828   3.735  1.00 20.00     0.271 C 
HETATM    4  C4  UNL     1     -34.076   5.248   3.053  1.00 20.00     0.271 C 
HETATM    5  F5  UNL     1     -32.044   8.151   2.270  1.00 20.00    -0.242 F 
HETATM    6  F6  UNL     1     -32.386   5.445   1.435  1.00 20.00    -0.242 F 
HETATM    7  F7  UNL     1     -32.923   7.943   4.720  1.00 20.00    -0.235 F 
HETATM    8  F8  UNL     1     -33.765   4.111   3.723  1.00 20.00    -0.235 F 
HETATM    9  S9  UNL     1     -34.941   6.426   4.122  1.00 20.00    -0.089 SA
ENDROOT
TORSDOF 0
ENDMDL
MODEL 2
REMARK VINA RESULT:      -1.8      1.637      3.517
REMARK  0 active torsions:
REMARK  status: ('A' for Active; 'I' for Inactive)
ROOT
HETATM    1  C1  UNL     1     -34.799   6.283   3.496  1.00 20.00     0.251 C 
HETATM    2  C2  UNL     1     -33.787   7.350   3.859  1.00 20.00     0.251 C 
HETATM    3  C3  UNL     1     -34.007   5.147   2.883  1.00 20.00     0.271 C 
HETATM    4  C4  UNL     1     -32.967   7.600   2.609  1.00 20.00     0.271 C 
HETATM    5  F5  UNL     1     -35.437   5.851   4.611  1.00 20.00    -0.242 F 
HETATM    6  F6  UNL     1     -34.436   8.491   4.208  1.00 20.00    -0.242 F 
HETATM    7  F7  UNL     1     -33.334   4.492   3.867  1.00 20.00    -0.235 F 
HETATM    8  F8  UNL     1     -31.756   8.106   2.949  1.00 20.00    -0.235 F 
HETATM    9  S9  UNL     1     -32.804   5.982   1.811  1.00 20.00    -0.089 SA
ENDROOT
TORSDOF 0
ENDMDL
MODEL 3
REMARK VINA RESULT:      -1.5      1.535      2.896
REMARK  0 active torsions:
REMARK  status: ('A' for Active; 'I' for Inactive)
ROOT
HETATM    1  C1  UNL     1     -33.479   5.501   3.338  1.00 20.00     0.251 C 
HETATM    2  C2  UNL     1     -33.057   6.155   2.038  1.00 20.00     0.251 C 
HETATM    3  C3  UNL     1     -34.391   6.494   4.028  1.00 20.00     0.271 C 
HETATM    4  C4  UNL     1     -32.527   7.526   2.407  1.00 20.00     0.271 C 
HETATM    5  F5  UNL     1     -34.157   4.355   3.081  1.00 20.00    -0.242 F 
HETATM    6  F6  UNL     1     -32.064   5.426   1.466  1.00 20.00    -0.242 F 
HETATM    7  F7  UNL     1     -35.591   6.516   3.388  1.00 20.00    -0.235 F 
HETATM    8  F8  UNL     1     -32.624   8.356   1.338  1.00 20.00    -0.235 F 
HETATM    9  S9  UNL     1     -33.568   8.092   3.776  1.00 20.00    -0.089 SA
ENDROOT
TORSDOF 0
ENDMDL
MODEL 4
REMARK VINA RESULT:      -1.5      1.491      2.704
REMARK  0 active torsions:
REMARK  status: ('A' for Active; 'I' for Inactive)
ROOT
HETATM    1  C1  UNL     1     -32.770   7.199   2.853  1.00 20.00     0.251 C 
HETATM    2  C2  UNL     1     -34.159   7.342   3.439  1.00 20.00     0.251 C 
HETATM    3  C3  UNL     1     -32.792   5.929   2.028  1.00 20.00     0.271 C 
HETATM    4  C4  UNL     1     -34.473   6.019   4.111  1.00 20.00     0.271 C 
HETATM    5  F5  UNL     1     -32.491   8.261   2.057  1.00 20.00    -0.242 F 
HETATM    6  F6  UNL     1     -34.160   8.331   4.369  1.00 20.00    -0.242 F 
HETATM    7  F7  UNL     1     -33.495   6.153   0.886  1.00 20.00    -0.235 F 
HETATM    8  F8  UNL     1     -35.817   5.854   4.189  1.00 20.00    -0.235 F 
HETATM    9  S9  UNL     1     -33.715   4.755   3.060  1.00 20.00    -0.089 SA
ENDROOT
TORSDOF 0
ENDMDL
MODEL 5
REMARK VINA RESULT:      -1.0      1.952      3.089
REMARK  0 active torsions:
REMARK  status: ('A' for Active; 'I' for Inactive)
ROOT
HETATM    1  C1  UNL     1     -34.633   5.422   4.494  1.00 20.00     0.251 C 
HETATM    2  C2  UNL     1     -34.041   4.699   3.302  1.00 20.00     0.251 C 
HETATM    3  C3  UNL     1     -35.038   6.793   3.992  1.00 20.00     0.271 C 
HETATM    4  C4  UNL     1     -32.989   5.625   2.724  1.00 20.00     0.271 C 
HETATM    5  F5  UNL     1     -35.724   4.756   4.945  1.00 20.00    -0.242 F 
HETATM    6  F6  UNL     1     -33.450   3.548   3.716  1.00 20.00    -0.242 F 
HETATM    7  F7  UNL     1     -36.154   6.673   3.225  1.00 20.00    -0.235 F 
HETATM    8  F8  UNL     1     -32.791   5.332   1.415  1.00 20.00    -0.235 F 
HETATM    9  S9  UNL     1     -33.654   7.297   2.932  1.00 20.00    -0.089 SA
ENDROOT
TORSDOF 0
ENDMDL
MODEL 6
REMARK VINA RESULT:      -1.0      1.815      2.658
REMARK  0 active torsions:
REMARK  status: ('A' for Active; 'I' for Inactive)
ROOT
HETATM    1  C1  UNL     1     -33.163   7.379   3.611  1.00 20.00     0.251 C 
HETATM    2  C2  UNL     1     -33.731   6.258   2.765  1.00 20.00     0.251 C 
HETATM    3  C3  UNL     1     -32.532   8.357   2.641  1.00 20.00     0.271 C 
HETATM    4  C4  UNL     1     -32.603   5.795   1.863  1.00 20.00     0.271 C 
HETATM    5  F5  UNL     1     -34.159   7.990   4.299  1.00 20.00    -0.242 F 
HETATM    6  F6  UNL     1     -34.115   5.233   3.568  1.00 20.00    -0.242 F 
HETATM    7  F7  UNL     1     -33.516   9.039   1.995  1.00 20.00    -0.235 F 
HETATM    8  F8  UNL     1     -33.117   5.206   0.755  1.00 20.00    -0.235 F 
HETATM    9  S9  UNL     1     -31.678   7.294   1.443  1.00 20.00    -0.089 SA
ENDROOT
TORSDOF 0
ENDMDL
MODEL 7
REMARK VINA RESULT:      -0.9      1.599      2.969
REMARK  0 active torsions:
REMARK  status: ('A' for Active; 'I' for Inactive)
ROOT
HETATM    1  C1  UNL     1     -33.235   6.293   1.755  1.00 20.00     0.251 C 
HETATM    2  C2  UNL     1     -33.427   6.293   3.257  1.00 20.00     0.251 C 
HETATM    3  C3  UNL     1     -32.208   7.368   1.464  1.00 20.00     0.271 C 
HETATM    4  C4  UNL     1     -33.716   7.729   3.648  1.00 20.00     0.271 C 
HETATM    5  F5  UNL     1     -32.768   5.088   1.346  1.00 20.00    -0.242 F 
HETATM    6  F6  UNL     1     -34.492   5.515   3.578  1.00 20.00    -0.242 F 
HETATM    7  F7  UNL     1     -30.980   6.924   1.847  1.00 20.00    -0.235 F 
HETATM    8  F8  UNL     1     -33.383   7.925   4.947  1.00 20.00    -0.235 F 
HETATM    9  S9  UNL     1     -32.694   8.741   2.547  1.00 20.00    -0.089 SA
ENDROOT
TORSDOF 0
ENDMDL
MODEL 8
REMARK VINA RESULT:      -0.4      1.475      2.913
REMARK  0 active torsions:
REMARK  status: ('A' for Active; 'I' for Inactive)
ROOT
HETATM    1  C1  UNL     1     -33.963   7.487   3.464  1.00 20.00     0.251 C 
HETATM    2  C2  UNL     1     -32.502   7.576   3.076  1.00 20.00     0.251 C 
HETATM    3  C3  UNL     1     -34.376   6.051   3.209  1.00 20.00     0.271 C 
HETATM    4  C4  UNL     1     -32.399   7.005   1.676  1.00 20.00     0.271 C 
HETATM    5  F5  UNL     1     -34.113   7.783   4.778  1.00 20.00    -0.242 F 
HETATM    6  F6  UNL     1     -32.115   8.877   3.063  1.00 20.00    -0.242 F 
HETATM    7  F7  UNL     1     -33.840   5.257   4.174  1.00 20.00    -0.235 F 
HETATM    8  F8  UNL     1     -31.137   6.559   1.455  1.00 20.00    -0.235 F 
HETATM    9  S9  UNL     1     -33.596   5.647   1.621  1.00 20.00    -0.089 SA
ENDROOT
TORSDOF 0
ENDMDL
