MODEL 1
REMARK VINA RESULT:      -1.7      0.000      0.000
REMARK  1 active torsions:
REMARK  status: ('A' for Active; 'I' for Inactive)
REMARK    1  A    between atoms: C5_5  and  C7_7 
ROOT
HETATM    1  C1  UNL     1     -34.610   4.884   4.281  1.00 20.00    -0.003 A 
HETATM    2  C2  UNL     1     -35.203   6.204   4.197  1.00 20.00    -0.003 A 
HETATM    3  C3  UNL     1     -33.660   4.792   3.332  1.00 20.00    -0.012 A 
HETATM    4  C4  UNL     1     -34.597   6.872   3.200  1.00 20.00    -0.012 A 
HETATM    5  C6  UNL     1     -33.320   6.061   1.093  1.00 20.00     0.032 A 
HETATM    6  C7  UNL     1     -32.258   6.565   2.047  1.00 20.00     0.072 A 
HETATM    7  C8  UNL     1     -33.562   6.043   2.565  1.00 20.00     0.006 A 
ENDROOT
BRANCH   6   8
HETATM    8  C5  UNL     1     -31.951   8.001   2.080  1.00 20.00     0.128 C 
HETATM    9  C9  UNL     1     -32.095   8.753   0.784  1.00 20.00     0.091 C 
HETATM   10  O10 UNL     1     -31.597   8.561   3.115  1.00 20.00    -0.298 OA
ENDBRANCH   6   8
TORSDOF 1
ENDMDL
MODEL 2
REMARK VINA RESULT:      -1.5      2.077      4.082
REMARK  1 active torsions:
REMARK  status: ('A' for Active; 'I' for Inactive)
REMARK    1  A    between atoms: C5_5  and  C7_7 
ROOT
HETATM    1  C1  UNL     1     -31.729   7.544   1.833  1.00 20.00    -0.003 A 
HETATM    2  C2  UNL     1     -32.181   6.346   1.156  1.00 20.00    -0.003 A 
HETATM    3  C3  UNL     1     -32.596   7.818   2.825  1.00 20.00    -0.012 A 
HETATM    4  C4  UNL     1     -33.310   5.927   1.758  1.00 20.00    -0.012 A 
HETATM    5  C6  UNL     1     -35.088   7.178   3.172  1.00 20.00     0.032 A 
HETATM    6  C7  UNL     1     -34.283   6.356   4.157  1.00 20.00     0.072 A 
HETATM    7  C8  UNL     1     -33.672   6.816   2.871  1.00 20.00     0.006 A 
ENDROOT
BRANCH   6   8
HETATM    8  C5  UNL     1     -34.636   4.946   4.366  1.00 20.00     0.128 C 
HETATM    9  C9  UNL     1     -33.558   3.932   4.096  1.00 20.00     0.091 C 
HETATM   10  O10 UNL     1     -35.756   4.611   4.746  1.00 20.00    -0.298 OA
ENDBRANCH   6   8
TORSDOF 1
ENDMDL
MODEL 3
REMARK VINA RESULT:      -1.4      1.128      2.133
REMARK  1 active torsions:
REMARK  status: ('A' for Active; 'I' for Inactive)
REMARK    1  A    between atoms: C5_5  and  C7_7 
ROOT
HETATM    1  C1  UNL     1     -35.619   5.092   4.378  1.00 20.00    -0.003 A 
HETATM    2  C2  UNL     1     -34.368   4.365   4.313  1.00 20.00    -0.003 A 
HETATM    3  C3  UNL     1     -35.382   6.366   4.016  1.00 20.00    -0.012 A 
HETATM    4  C4  UNL     1     -33.408   5.219   3.912  1.00 20.00    -0.012 A 
HETATM    5  C6  UNL     1     -33.221   7.803   4.047  1.00 20.00     0.032 A 
HETATM    6  C7  UNL     1     -33.516   7.488   2.596  1.00 20.00     0.072 A 
HETATM    7  C8  UNL     1     -33.963   6.561   3.683  1.00 20.00     0.006 A 
ENDROOT
BRANCH   6   8
HETATM    8  C5  UNL     1     -32.406   7.128   1.704  1.00 20.00     0.128 C 
HETATM    9  C9  UNL     1     -32.436   5.745   1.111  1.00 20.00     0.091 C 
HETATM   10  O10 UNL     1     -31.499   7.919   1.451  1.00 20.00    -0.298 OA
ENDBRANCH   6   8
TORSDOF 1
ENDMDL
MODEL 4
REMARK VINA RESULT:      -1.1      1.411      2.538
REMARK  1 active torsions:
REMARK  status: ('A' for Active; 'I' for Inactive)
REMARK    1  A    between atoms: C5_5  and  C7_7 
ROOT
HETATM    1  C1  UNL     1     -34.190   6.196   3.301  1.00 20.00    -0.003 A 
HETATM    2  C2  UNL     1     -33.442   5.560   2.235  1.00 20.00    -0.003 A 
HETATM    3  C3  UNL     1     -33.718   7.446   3.456  1.00 20.00    -0.012 A 
HETATM    4  C4  UNL     1     -32.539   6.445   1.774  1.00 20.00    -0.012 A 
HETATM    5  C6  UNL     1     -31.429   8.519   2.866  1.00 20.00     0.032 A 
HETATM    6  C7  UNL     1     -32.437   9.065   1.876  1.00 20.00     0.072 A 
HETATM    7  C8  UNL     1     -32.634   7.719   2.500  1.00 20.00     0.006 A 
ENDROOT
BRANCH   6   8
HETATM    8  C5  UNL     1     -32.052   9.197   0.465  1.00 20.00     0.128 C 
HETATM    9  C9  UNL     1     -32.866  10.146  -0.372  1.00 20.00     0.091 C 
HETATM   10  O10 UNL     1     -31.110   8.564  -0.008  1.00 20.00    -0.298 OA
ENDBRANCH   6   8
TORSDOF 1
ENDMDL
MODEL 5
REMARK VINA RESULT:      -0.8      2.177      4.204
REMARK  1 active torsions:
REMARK  status: ('A' for Active; 'I' for Inactive)
REMARK    1  A    between atoms: C5_5  and  C7_7 
ROOT
HETATM    1  C1  UNL     1     -32.478   8.135   2.718  1.00 20.00    -0.003 A 
HETATM    2  C2  UNL     1     -32.428   7.108   1.696  1.00 20.00    -0.003 A 
HETATM    3  C3  UNL     1     -33.306   7.716   3.692  1.00 20.00    -0.012 A 
HETATM    4  C4  UNL     1     -33.228   6.097   2.080  1.00 20.00    -0.012 A 
HETATM    5  C6  UNL     1     -35.263   6.010   3.686  1.00 20.00     0.032 A 
HETATM    6  C7  UNL     1     -34.120   5.362   4.437  1.00 20.00     0.072 A 
HETATM    7  C8  UNL     1     -33.853   6.386   3.379  1.00 20.00     0.006 A 
ENDROOT
BRANCH   6   8
HETATM    8  C5  UNL     1     -33.828   3.941   4.206  1.00 20.00     0.128 C 
HETATM    9  C9  UNL     1     -33.029   3.233   5.267  1.00 20.00     0.091 C 
HETATM   10  O10 UNL     1     -34.219   3.359   3.196  1.00 20.00    -0.298 OA
ENDBRANCH   6   8
TORSDOF 1
ENDMDL
MODEL 6
REMARK VINA RESULT:      -0.8      1.393      4.215
REMARK  1 active torsions:
REMARK  status: ('A' for Active; 'I' for Inactive)
REMARK    1  A    between atoms: C5_5  and  C7_7 
ROOT
HETATM    1  C1  UNL     1     -32.728   9.925  -0.513  1.00 20.00    -0.003 A 
HETATM    2  C2  UNL     1     -32.690  10.704   0.708  1.00 20.00    -0.003 A 
HETATM    3  C3  UNL     1     -32.512   8.636  -0.194  1.00 20.00    -0.012 A 
HETATM    4  C4  UNL     1     -32.452   9.864   1.732  1.00 20.00    -0.012 A 
HETATM    5  C6  UNL     1     -31.328   7.529   1.834  1.00 20.00     0.032 A 
HETATM    6  C7  UNL     1     -32.812   7.278   2.003  1.00 20.00     0.072 A 
HETATM    7  C8  UNL     1     -32.322   8.479   1.256  1.00 20.00     0.006 A 
ENDROOT
BRANCH   6   8
HETATM    8  C5  UNL     1     -33.411   7.409   3.337  1.00 20.00     0.128 C 
HETATM    9  C9  UNL     1     -34.706   6.679   3.572  1.00 20.00     0.091 C 
HETATM   10  O10 UNL     1     -32.880   8.080   4.220  1.00 20.00    -0.298 OA
ENDBRANCH   6   8
TORSDOF 1
ENDMDL
MODEL 7
REMARK VINA RESULT:      -0.6      1.660      3.851
REMARK  1 active torsions:
REMARK  status: ('A' for Active; 'I' for Inactive)
REMARK    1  A    between atoms: C5_5  and  C7_7 
ROOT
HETATM    1  C1  UNL     1     -32.192   9.143   0.712  1.00 20.00    -0.003 A 
HETATM    2  C2  UNL     1     -31.867   9.203   2.123  1.00 20.00    -0.003 A 
HETATM    3  C3  UNL     1     -32.522   7.873   0.412  1.00 20.00    -0.012 A 
HETATM    4  C4  UNL     1     -32.010   7.968   2.638  1.00 20.00    -0.012 A 
HETATM    5  C6  UNL     1     -31.928   5.615   1.548  1.00 20.00     0.032 A 
HETATM    6  C7  UNL     1     -33.390   5.882   1.842  1.00 20.00     0.072 A 
HETATM    7  C8  UNL     1     -32.441   7.015   1.605  1.00 20.00     0.006 A 
ENDROOT
BRANCH   6   8
HETATM    8  C5  UNL     1     -33.911   5.600   3.185  1.00 20.00     0.128 C 
HETATM    9  C9  UNL     1     -34.721   6.687   3.838  1.00 20.00     0.091 C 
HETATM   10  O10 UNL     1     -33.699   4.527   3.747  1.00 20.00    -0.298 OA
ENDBRANCH   6   8
TORSDOF 1
ENDMDL
MODEL 8
REMARK VINA RESULT:       0.3      1.639      2.485
REMARK  1 active torsions:
REMARK  status: ('A' for Active; 'I' for Inactive)
REMARK    1  A    between atoms: C5_5  and  C7_7 
ROOT
HETATM    1  C1  UNL     1     -35.712   5.759   4.456  1.00 20.00    -0.003 A 
HETATM    2  C2  UNL     1     -34.780   4.655   4.571  1.00 20.00    -0.003 A 
HETATM    3  C3  UNL     1     -35.164   6.687   3.651  1.00 20.00    -0.012 A 
HETATM    4  C4  UNL     1     -33.694   4.947   3.832  1.00 20.00    -0.012 A 
HETATM    5  C6  UNL     1     -32.696   7.202   3.030  1.00 20.00     0.032 A 
HETATM    6  C7  UNL     1     -33.333   6.577   1.807  1.00 20.00     0.072 A 
HETATM    7  C8  UNL     1     -33.839   6.255   3.179  1.00 20.00     0.006 A 
ENDROOT
BRANCH   6   8
HETATM    8  C5  UNL     1     -32.572   5.591   1.031  1.00 20.00     0.128 C 
HETATM    9  C9  UNL     1     -33.355   4.732   0.075  1.00 20.00     0.091 C 
HETATM   10  O10 UNL     1     -31.354   5.475   1.153  1.00 20.00    -0.298 OA
ENDBRANCH   6   8
TORSDOF 1
ENDMDL
MODEL 9
REMARK VINA RESULT:       0.5      1.435      3.271
REMARK  1 active torsions:
REMARK  status: ('A' for Active; 'I' for Inactive)
REMARK    1  A    between atoms: C5_5  and  C7_7 
ROOT
HETATM    1  C1  UNL     1     -32.069   4.612   0.585  1.00 20.00    -0.003 A 
HETATM    2  C2  UNL     1     -33.439   4.950   0.252  1.00 20.00    -0.003 A 
HETATM    3  C3  UNL     1     -31.624   5.509   1.484  1.00 20.00    -0.012 A 
HETATM    4  C4  UNL     1     -33.783   6.042   0.960  1.00 20.00    -0.012 A 
HETATM    5  C6  UNL     1     -32.368   7.937   2.024  1.00 20.00     0.032 A 
HETATM    6  C7  UNL     1     -32.828   7.071   3.177  1.00 20.00     0.072 A 
HETATM    7  C8  UNL     1     -32.669   6.492   1.806  1.00 20.00     0.006 A 
ENDROOT
BRANCH   6   8
HETATM    8  C5  UNL     1     -34.160   7.298   3.753  1.00 20.00     0.128 C 
HETATM    9  C9  UNL     1     -35.038   6.088   3.925  1.00 20.00     0.091 C 
HETATM   10  O10 UNL     1     -34.537   8.421   4.081  1.00 20.00    -0.298 OA
ENDBRANCH   6   8
TORSDOF 1
ENDMDL
