MODEL 1
REMARK VINA RESULT:      -2.5      0.000      0.000
REMARK  5 active torsions:
REMARK  status: ('A' for Active; 'I' for Inactive)
REMARK    1  A    between atoms: C1_1  and  C3_3 
REMARK    2  A    between atoms: C1_1  and  O11_11 
REMARK    3  A    between atoms: C4_4  and  C7_7 
REMARK    4  A    between atoms: C7_7  and  C8_8 
REMARK    5  A    between atoms: C9_9  and  O11_11 
ROOT
HETATM    1  C2  UNL     1     -33.552   7.890   3.905  1.00 20.00     0.020 A 
HETATM    2  C3  UNL     1     -33.717   6.406   3.717  1.00 20.00     0.090 A 
HETATM    3  C4  UNL     1     -33.527   7.310   2.515  1.00 20.00    -0.000 A 
ENDROOT
BRANCH   2   4
HETATM    4  C1  UNL     1     -35.029   5.793   3.946  1.00 20.00     0.263 C 
HETATM    5  O10 UNL     1     -36.095   6.348   3.715  1.00 20.00    -0.265 OA
BRANCH   4   6
HETATM    6  O11 UNL     1     -34.864   4.536   4.449  1.00 20.00    -0.322 OA
BRANCH   6   7
HETATM    7  C9  UNL     1     -33.779   3.788   3.889  1.00 20.00     0.174 C 
HETATM    8  C6  UNL     1     -33.162   2.930   4.972  1.00 20.00     0.034 C 
ENDBRANCH   6   7
ENDBRANCH   4   6
ENDBRANCH   2   4
BRANCH   3   9
HETATM    9  C7  UNL     1     -32.254   7.270   1.743  1.00 20.00     0.005 C 
BRANCH   9  10
HETATM   10  C8  UNL     1     -31.666   8.671   1.500  1.00 20.00    -0.004 C 
HETATM   11  C5  UNL     1     -32.446   9.458   0.457  1.00 20.00     0.005 C 
ENDBRANCH   9  10
ENDBRANCH   3   9
TORSDOF 5
ENDMDL
MODEL 2
REMARK VINA RESULT:      -2.5      2.189      5.216
REMARK  5 active torsions:
REMARK  status: ('A' for Active; 'I' for Inactive)
REMARK    1  A    between atoms: C1_1  and  C3_3 
REMARK    2  A    between atoms: C1_1  and  O11_11 
REMARK    3  A    between atoms: C4_4  and  C7_7 
REMARK    4  A    between atoms: C7_7  and  C8_8 
REMARK    5  A    between atoms: C9_9  and  O11_11 
ROOT
HETATM    1  C2  UNL     1     -33.552   8.118   3.928  1.00 20.00     0.020 A 
HETATM    2  C3  UNL     1     -33.587   7.529   2.543  1.00 20.00     0.090 A 
HETATM    3  C4  UNL     1     -33.853   6.654   3.752  1.00 20.00    -0.000 A 
ENDROOT
BRANCH   2   4
HETATM    4  C1  UNL     1     -32.332   7.358   1.803  1.00 20.00     0.263 C 
HETATM    5  O10 UNL     1     -31.870   6.272   1.478  1.00 20.00    -0.265 OA
BRANCH   4   6
HETATM    6  O11 UNL     1     -31.782   8.580   1.549  1.00 20.00    -0.322 OA
BRANCH   6   7
HETATM    7  C9  UNL     1     -31.972   9.074   0.219  1.00 20.00     0.174 C 
HETATM    8  C6  UNL     1     -32.652  10.425   0.288  1.00 20.00     0.034 C 
ENDBRANCH   6   7
ENDBRANCH   4   6
ENDBRANCH   2   4
BRANCH   3   9
HETATM    9  C7  UNL     1     -35.225   6.134   4.010  1.00 20.00     0.005 C 
BRANCH   9  10
HETATM   10  C8  UNL     1     -35.217   4.702   4.574  1.00 20.00    -0.004 C 
HETATM   11  C5  UNL     1     -33.923   3.963   4.271  1.00 20.00     0.005 C 
ENDBRANCH   9  10
ENDBRANCH   3   9
TORSDOF 5
ENDMDL
MODEL 3
REMARK VINA RESULT:      -2.3      1.210      1.757
REMARK  5 active torsions:
REMARK  status: ('A' for Active; 'I' for Inactive)
REMARK    1  A    between atoms: C1_1  and  C3_3 
REMARK    2  A    between atoms: C1_1  and  O11_11 
REMARK    3  A    between atoms: C4_4  and  C7_7 
REMARK    4  A    between atoms: C7_7  and  C8_8 
REMARK    5  A    between atoms: C9_9  and  O11_11 
ROOT
HETATM    1  C2  UNL     1     -31.976   5.720   1.371  1.00 20.00     0.020 A 
HETATM    2  C3  UNL     1     -33.249   6.405   1.794  1.00 20.00     0.090 A 
HETATM    3  C4  UNL     1     -31.929   7.149   1.843  1.00 20.00    -0.000 A 
ENDROOT
BRANCH   2   4
HETATM    4  C1  UNL     1     -33.892   6.012   3.053  1.00 20.00     0.263 C 
HETATM    5  O10 UNL     1     -34.408   6.800   3.834  1.00 20.00    -0.265 OA
BRANCH   4   6
HETATM    6  O11 UNL     1     -33.815   4.659   3.202  1.00 20.00    -0.322 OA
BRANCH   6   7
HETATM    7  C9  UNL     1     -34.095   4.168   4.517  1.00 20.00     0.174 C 
HETATM    8  C6  UNL     1     -33.224   2.960   4.788  1.00 20.00     0.034 C 
ENDBRANCH   6   7
ENDBRANCH   4   6
ENDBRANCH   2   4
BRANCH   3   9
HETATM    9  C7  UNL     1     -31.656   8.250   0.877  1.00 20.00     0.005 C 
BRANCH   9  10
HETATM   10  C8  UNL     1     -32.547   9.481   1.117  1.00 20.00    -0.004 C 
HETATM   11  C5  UNL     1     -32.700  10.342  -0.127  1.00 20.00     0.005 C 
ENDBRANCH   9  10
ENDBRANCH   3   9
TORSDOF 5
ENDMDL
MODEL 4
REMARK VINA RESULT:      -1.7      1.644      4.789
REMARK  5 active torsions:
REMARK  status: ('A' for Active; 'I' for Inactive)
REMARK    1  A    between atoms: C1_1  and  C3_3 
REMARK    2  A    between atoms: C1_1  and  O11_11 
REMARK    3  A    between atoms: C4_4  and  C7_7 
REMARK    4  A    between atoms: C7_7  and  C8_8 
REMARK    5  A    between atoms: C9_9  and  O11_11 
ROOT
HETATM    1  C2  UNL     1     -35.386   5.865   4.093  1.00 20.00     0.020 A 
HETATM    2  C3  UNL     1     -34.155   6.414   3.422  1.00 20.00     0.090 A 
HETATM    3  C4  UNL     1     -34.072   5.146   4.248  1.00 20.00    -0.000 A 
ENDROOT
BRANCH   2   4
HETATM    4  C1  UNL     1     -33.542   7.642   3.939  1.00 20.00     0.263 C 
HETATM    5  O10 UNL     1     -33.984   8.286   4.880  1.00 20.00    -0.265 OA
BRANCH   4   6
HETATM    6  O11 UNL     1     -32.427   7.936   3.210  1.00 20.00    -0.322 OA
BRANCH   6   7
HETATM    7  C9  UNL     1     -32.477   7.556   1.830  1.00 20.00     0.174 C 
HETATM    8  C6  UNL     1     -32.127   8.756   0.976  1.00 20.00     0.034 C 
ENDBRANCH   6   7
ENDBRANCH   4   6
ENDBRANCH   2   4
BRANCH   3   9
HETATM    9  C7  UNL     1     -33.853   3.831   3.581  1.00 20.00     0.005 C 
BRANCH   9  10
HETATM   10  C8  UNL     1     -33.409   2.737   4.567  1.00 20.00    -0.004 C 
HETATM   11  C5  UNL     1     -32.580   3.288   5.716  1.00 20.00     0.005 C 
ENDBRANCH   9  10
ENDBRANCH   3   9
TORSDOF 5
ENDMDL
MODEL 5
REMARK VINA RESULT:      -1.6      1.267      1.856
REMARK  5 active torsions:
REMARK  status: ('A' for Active; 'I' for Inactive)
REMARK    1  A    between atoms: C1_1  and  C3_3 
REMARK    2  A    between atoms: C1_1  and  O11_11 
REMARK    3  A    between atoms: C4_4  and  C7_7 
REMARK    4  A    between atoms: C7_7  and  C8_8 
REMARK    5  A    between atoms: C9_9  and  O11_11 
ROOT
HETATM    1  C2  UNL     1     -31.541   8.075   2.745  1.00 20.00     0.020 A 
HETATM    2  C3  UNL     1     -32.470   6.997   2.255  1.00 20.00     0.090 A 
HETATM    3  C4  UNL     1     -32.506   8.377   1.630  1.00 20.00    -0.000 A 
ENDROOT
BRANCH   2   4
HETATM    4  C1  UNL     1     -33.587   6.570   3.104  1.00 20.00     0.263 C 
HETATM    5  O10 UNL     1     -34.246   7.328   3.803  1.00 20.00    -0.265 OA
BRANCH   4   6
HETATM    6  O11 UNL     1     -33.760   5.222   2.986  1.00 20.00    -0.322 OA
BRANCH   6   7
HETATM    7  C9  UNL     1     -34.345   4.576   4.122  1.00 20.00     0.174 C 
HETATM    8  C6  UNL     1     -33.536   3.341   4.456  1.00 20.00     0.034 C 
ENDBRANCH   6   7
ENDBRANCH   4   6
ENDBRANCH   2   4
BRANCH   3   9
HETATM    9  C7  UNL     1     -32.007   8.582   0.241  1.00 20.00     0.005 C 
BRANCH   9  10
HETATM   10  C8  UNL     1     -32.534   9.882  -0.390  1.00 20.00    -0.004 C 
HETATM   11  C5  UNL     1     -32.819  10.959   0.646  1.00 20.00     0.005 C 
ENDBRANCH   9  10
ENDBRANCH   3   9
TORSDOF 5
ENDMDL
MODEL 6
REMARK VINA RESULT:      -1.6      2.624      5.313
REMARK  5 active torsions:
REMARK  status: ('A' for Active; 'I' for Inactive)
REMARK    1  A    between atoms: C1_1  and  C3_3 
REMARK    2  A    between atoms: C1_1  and  O11_11 
REMARK    3  A    between atoms: C4_4  and  C7_7 
REMARK    4  A    between atoms: C7_7  and  C8_8 
REMARK    5  A    between atoms: C9_9  and  O11_11 
ROOT
HETATM    1  C2  UNL     1     -32.955   5.901   0.947  1.00 20.00     0.020 A 
HETATM    2  C3  UNL     1     -32.069   6.497   2.008  1.00 20.00     0.090 A 
HETATM    3  C4  UNL     1     -33.448   5.979   2.368  1.00 20.00    -0.000 A 
ENDROOT
BRANCH   2   4
HETATM    4  C1  UNL     1     -31.829   7.945   2.015  1.00 20.00     0.263 C 
HETATM    5  O10 UNL     1     -31.544   8.588   3.015  1.00 20.00    -0.265 OA
BRANCH   4   6
HETATM    6  O11 UNL     1     -31.977   8.436   0.751  1.00 20.00    -0.322 OA
BRANCH   6   7
HETATM    7  C9  UNL     1     -32.362   9.813   0.668  1.00 20.00     0.174 C 
HETATM    8  C6  UNL     1     -32.827  10.110  -0.741  1.00 20.00     0.034 C 
ENDBRANCH   6   7
ENDBRANCH   4   6
ENDBRANCH   2   4
BRANCH   3   9
HETATM    9  C7  UNL     1     -33.592   4.739   3.181  1.00 20.00     0.005 C 
BRANCH   9  10
HETATM   10  C8  UNL     1     -34.691   4.859   4.250  1.00 20.00    -0.004 C 
HETATM   11  C5  UNL     1     -35.414   6.196   4.196  1.00 20.00     0.005 C 
ENDBRANCH   9  10
ENDBRANCH   3   9
TORSDOF 5
ENDMDL
MODEL 7
REMARK VINA RESULT:      -1.3      1.654      2.799
REMARK  5 active torsions:
REMARK  status: ('A' for Active; 'I' for Inactive)
REMARK    1  A    between atoms: C1_1  and  C3_3 
REMARK    2  A    between atoms: C1_1  and  O11_11 
REMARK    3  A    between atoms: C4_4  and  C7_7 
REMARK    4  A    between atoms: C7_7  and  C8_8 
REMARK    5  A    between atoms: C9_9  and  O11_11 
ROOT
HETATM    1  C2  UNL     1     -31.826   5.468   1.339  1.00 20.00     0.020 A 
HETATM    2  C3  UNL     1     -33.164   6.075   1.664  1.00 20.00     0.090 A 
HETATM    3  C4  UNL     1     -31.909   6.922   1.721  1.00 20.00    -0.000 A 
ENDROOT
BRANCH   2   4
HETATM    4  C1  UNL     1     -33.835   5.710   2.916  1.00 20.00     0.263 C 
HETATM    5  O10 UNL     1     -33.639   4.663   3.519  1.00 20.00    -0.265 OA
BRANCH   4   6
HETATM    6  O11 UNL     1     -34.691   6.706   3.282  1.00 20.00    -0.322 OA
BRANCH   6   7
HETATM    7  C9  UNL     1     -34.517   7.207   4.612  1.00 20.00     0.174 C 
HETATM    8  C6  UNL     1     -33.420   8.250   4.606  1.00 20.00     0.034 C 
ENDBRANCH   6   7
ENDBRANCH   4   6
ENDBRANCH   2   4
BRANCH   3   9
HETATM    9  C7  UNL     1     -31.673   7.981   0.700  1.00 20.00     0.005 C 
BRANCH   9  10
HETATM   10  C8  UNL     1     -32.366   9.308   1.055  1.00 20.00    -0.004 C 
HETATM   11  C5  UNL     1     -32.661  10.158  -0.170  1.00 20.00     0.005 C 
ENDBRANCH   9  10
ENDBRANCH   3   9
TORSDOF 5
ENDMDL
MODEL 8
REMARK VINA RESULT:      -1.3      2.416      4.357
REMARK  5 active torsions:
REMARK  status: ('A' for Active; 'I' for Inactive)
REMARK    1  A    between atoms: C1_1  and  C3_3 
REMARK    2  A    between atoms: C1_1  and  O11_11 
REMARK    3  A    between atoms: C4_4  and  C7_7 
REMARK    4  A    between atoms: C7_7  and  C8_8 
REMARK    5  A    between atoms: C9_9  and  O11_11 
ROOT
HETATM    1  C2  UNL     1     -33.726   8.260   4.417  1.00 20.00     0.020 A 
HETATM    2  C3  UNL     1     -33.545   7.918   2.962  1.00 20.00     0.090 A 
HETATM    3  C4  UNL     1     -33.890   6.834   3.964  1.00 20.00    -0.000 A 
ENDROOT
BRANCH   2   4
HETATM    4  C1  UNL     1     -32.199   7.945   2.380  1.00 20.00     0.263 C 
HETATM    5  O10 UNL     1     -31.251   8.543   2.871  1.00 20.00    -0.265 OA
BRANCH   4   6
HETATM    6  O11 UNL     1     -32.186   7.214   1.228  1.00 20.00    -0.322 OA
BRANCH   6   7
HETATM    7  C9  UNL     1     -31.975   5.808   1.396  1.00 20.00     0.174 C 
HETATM    8  C6  UNL     1     -33.088   5.057   0.697  1.00 20.00     0.034 C 
ENDBRANCH   6   7
ENDBRANCH   4   6
ENDBRANCH   2   4
BRANCH   3   9
HETATM    9  C7  UNL     1     -35.240   6.203   3.947  1.00 20.00     0.005 C 
BRANCH   9  10
HETATM   10  C8  UNL     1     -35.234   4.781   4.534  1.00 20.00    -0.004 C 
HETATM   11  C5  UNL     1     -33.953   4.025   4.216  1.00 20.00     0.005 C 
ENDBRANCH   9  10
ENDBRANCH   3   9
TORSDOF 5
ENDMDL
MODEL 9
REMARK VINA RESULT:      -1.1      1.881      2.681
REMARK  5 active torsions:
REMARK  status: ('A' for Active; 'I' for Inactive)
REMARK    1  A    between atoms: C1_1  and  C3_3 
REMARK    2  A    between atoms: C1_1  and  O11_11 
REMARK    3  A    between atoms: C4_4  and  C7_7 
REMARK    4  A    between atoms: C7_7  and  C8_8 
REMARK    5  A    between atoms: C9_9  and  O11_11 
ROOT
HETATM    1  C2  UNL     1     -31.606   8.270   2.586  1.00 20.00     0.020 A 
HETATM    2  C3  UNL     1     -31.985   7.043   1.801  1.00 20.00     0.090 A 
HETATM    3  C4  UNL     1     -32.345   8.421   1.283  1.00 20.00    -0.000 A 
ENDROOT
BRANCH   2   4
HETATM    4  C1  UNL     1     -33.052   6.170   2.302  1.00 20.00     0.263 C 
HETATM    5  O10 UNL     1     -33.442   5.163   1.727  1.00 20.00    -0.265 OA
BRANCH   4   6
HETATM    6  O11 UNL     1     -33.524   6.660   3.485  1.00 20.00    -0.322 OA
BRANCH   6   7
HETATM    7  C9  UNL     1     -34.945   6.605   3.649  1.00 20.00     0.174 C 
HETATM    8  C6  UNL     1     -35.300   5.371   4.451  1.00 20.00     0.034 C 
ENDBRANCH   6   7
ENDBRANCH   4   6
ENDBRANCH   2   4
BRANCH   3   9
HETATM    9  C7  UNL     1     -31.650   8.974   0.086  1.00 20.00     0.005 C 
BRANCH   9  10
HETATM   10  C8  UNL     1     -32.348  10.225  -0.475  1.00 20.00    -0.004 C 
HETATM   11  C5  UNL     1     -33.064  11.026   0.602  1.00 20.00     0.005 C 
ENDBRANCH   9  10
ENDBRANCH   3   9
TORSDOF 5
ENDMDL
