MODEL 1
REMARK VINA RESULT:      -0.5      0.000      0.000
REMARK  2 active torsions:
REMARK  status: ('A' for Active; 'I' for Inactive)
REMARK    1  A    between atoms: C1_1  and  C5_5 
REMARK    2  A    between atoms: C5_5  and  O8_8 
ROOT
HETATM    1  C2  UNL     1     -35.302   5.692   4.470  1.00 20.00     0.007 C 
HETATM    2  C3  UNL     1     -35.466   6.592   3.235  1.00 20.00     0.047 C 
HETATM    3  C4  UNL     1     -33.998   5.164   3.847  1.00 20.00     0.047 C 
HETATM    4  C5  UNL     1     -33.928   6.470   2.994  1.00 20.00     0.136 C 
ENDROOT
BRANCH   4   5
HETATM    5  C1  UNL     1     -33.064   7.618   3.582  1.00 20.00     0.253 C 
HETATM    6  O7  UNL     1     -33.146   7.949   4.761  1.00 20.00    -0.276 OA
HETATM    7 CL9  UNL     1     -32.020   8.328   2.388  1.00 20.00    -0.041 Cl
ENDBRANCH   4   5
BRANCH   4   8
HETATM    8  O8  UNL     1     -33.580   6.244   1.609  1.00 20.00    -0.376 OA
HETATM    9  C6  UNL     1     -32.405   5.466   1.513  1.00 20.00     0.203 C 
ENDBRANCH   4   8
TORSDOF 2
ENDMDL
MODEL 2
REMARK VINA RESULT:      -0.4      1.420      2.503
REMARK  2 active torsions:
REMARK  status: ('A' for Active; 'I' for Inactive)
REMARK    1  A    between atoms: C1_1  and  C5_5 
REMARK    2  A    between atoms: C5_5  and  O8_8 
ROOT
HETATM    1  C2  UNL     1     -34.626   7.813   3.974  1.00 20.00     0.007 C 
HETATM    2  C3  UNL     1     -35.010   6.400   3.510  1.00 20.00     0.047 C 
HETATM    3  C4  UNL     1     -33.219   7.274   4.279  1.00 20.00     0.047 C 
HETATM    4  C5  UNL     1     -33.494   6.110   3.275  1.00 20.00     0.136 C 
ENDROOT
BRANCH   4   5
HETATM    5  C1  UNL     1     -32.985   6.332   1.825  1.00 20.00     0.253 C 
HETATM    6  O7  UNL     1     -33.234   5.535   0.925  1.00 20.00    -0.276 OA
HETATM    7 CL9  UNL     1     -32.058   7.794   1.673  1.00 20.00    -0.041 Cl
ENDBRANCH   4   5
BRANCH   4   8
HETATM    8  O8  UNL     1     -33.076   4.813   3.756  1.00 20.00    -0.376 OA
HETATM    9  C6  UNL     1     -34.192   4.051   4.165  1.00 20.00     0.203 C 
ENDBRANCH   4   8
TORSDOF 2
ENDMDL
MODEL 3
REMARK VINA RESULT:      -0.4      2.446      2.919
REMARK  2 active torsions:
REMARK  status: ('A' for Active; 'I' for Inactive)
REMARK    1  A    between atoms: C1_1  and  C5_5 
REMARK    2  A    between atoms: C5_5  and  O8_8 
ROOT
HETATM    1  C2  UNL     1     -32.988   5.367   1.540  1.00 20.00     0.007 C 
HETATM    2  C3  UNL     1     -33.511   6.717   1.024  1.00 20.00     0.047 C 
HETATM    3  C4  UNL     1     -31.589   6.000   1.625  1.00 20.00     0.047 C 
HETATM    4  C5  UNL     1     -32.275   7.401   1.689  1.00 20.00     0.136 C 
ENDROOT
BRANCH   4   5
HETATM    5  C1  UNL     1     -32.509   7.976   3.111  1.00 20.00     0.253 C 
HETATM    6  O7  UNL     1     -31.678   8.691   3.663  1.00 20.00    -0.276 OA
HETATM    7 CL9  UNL     1     -34.040   7.486   3.771  1.00 20.00    -0.041 Cl
ENDBRANCH   4   5
BRANCH   4   8
HETATM    8  O8  UNL     1     -31.648   8.396   0.847  1.00 20.00    -0.376 OA
HETATM    9  C6  UNL     1     -32.514   9.493   0.646  1.00 20.00     0.203 C 
ENDBRANCH   4   8
TORSDOF 2
ENDMDL
MODEL 4
REMARK VINA RESULT:      -0.3      2.337      2.857
REMARK  2 active torsions:
REMARK  status: ('A' for Active; 'I' for Inactive)
REMARK    1  A    between atoms: C1_1  and  C5_5 
REMARK    2  A    between atoms: C5_5  and  O8_8 
ROOT
HETATM    1  C2  UNL     1     -34.293   7.820   4.322  1.00 20.00     0.007 C 
HETATM    2  C3  UNL     1     -33.089   6.964   3.899  1.00 20.00     0.047 C 
HETATM    3  C4  UNL     1     -35.109   7.126   3.218  1.00 20.00     0.047 C 
HETATM    4  C5  UNL     1     -34.090   5.944   3.269  1.00 20.00     0.136 C 
ENDROOT
BRANCH   4   5
HETATM    5  C1  UNL     1     -34.486   4.746   4.175  1.00 20.00     0.253 C 
HETATM    6  O7  UNL     1     -35.551   4.723   4.784  1.00 20.00    -0.276 OA
HETATM    7 CL9  UNL     1     -33.264   3.511   4.198  1.00 20.00    -0.041 Cl
ENDBRANCH   4   5
BRANCH   4   8
HETATM    8  O8  UNL     1     -33.681   5.468   1.966  1.00 20.00    -0.376 OA
HETATM    9  C6  UNL     1     -32.394   5.951   1.642  1.00 20.00     0.203 C 
ENDBRANCH   4   8
TORSDOF 2
ENDMDL
MODEL 5
REMARK VINA RESULT:      -0.3      2.041      3.159
REMARK  2 active torsions:
REMARK  status: ('A' for Active; 'I' for Inactive)
REMARK    1  A    between atoms: C1_1  and  C5_5 
REMARK    2  A    between atoms: C5_5  and  O8_8 
ROOT
HETATM    1  C2  UNL     1     -32.541   4.816   0.649  1.00 20.00     0.007 C 
HETATM    2  C3  UNL     1     -33.565   5.957   0.746  1.00 20.00     0.047 C 
HETATM    3  C4  UNL     1     -31.763   5.486   1.793  1.00 20.00     0.047 C 
HETATM    4  C5  UNL     1     -33.083   6.208   2.210  1.00 20.00     0.136 C 
ENDROOT
BRANCH   4   5
HETATM    5  C1  UNL     1     -33.915   5.511   3.320  1.00 20.00     0.253 C 
HETATM    6  O7  UNL     1     -33.657   4.372   3.700  1.00 20.00    -0.276 OA
HETATM    7 CL9  UNL     1     -35.195   6.524   3.912  1.00 20.00    -0.041 Cl
ENDBRANCH   4   5
BRANCH   4   8
HETATM    8  O8  UNL     1     -32.908   7.608   2.525  1.00 20.00    -0.376 OA
HETATM    9  C6  UNL     1     -31.890   8.174   1.727  1.00 20.00     0.203 C 
ENDBRANCH   4   8
TORSDOF 2
ENDMDL
MODEL 6
REMARK VINA RESULT:      -0.3      1.265      1.265
REMARK  2 active torsions:
REMARK  status: ('A' for Active; 'I' for Inactive)
REMARK    1  A    between atoms: C1_1  and  C5_5 
REMARK    2  A    between atoms: C5_5  and  O8_8 
ROOT
HETATM    1  C2  UNL     1     -35.184   5.759   4.383  1.00 20.00     0.007 C 
HETATM    2  C3  UNL     1     -35.369   6.616   3.121  1.00 20.00     0.047 C 
HETATM    3  C4  UNL     1     -33.896   5.202   3.753  1.00 20.00     0.047 C 
HETATM    4  C5  UNL     1     -33.838   6.477   2.853  1.00 20.00     0.136 C 
ENDROOT
BRANCH   4   5
HETATM    5  C1  UNL     1     -32.955   7.639   3.381  1.00 20.00     0.253 C 
HETATM    6  O7  UNL     1     -32.072   8.143   2.692  1.00 20.00    -0.276 OA
HETATM    7 CL9  UNL     1     -33.378   8.098   5.003  1.00 20.00    -0.041 Cl
ENDBRANCH   4   5
BRANCH   4   8
HETATM    8  O8  UNL     1     -33.519   6.199   1.470  1.00 20.00    -0.376 OA
HETATM    9  C6  UNL     1     -32.300   5.494   1.372  1.00 20.00     0.203 C 
ENDBRANCH   4   8
TORSDOF 2
ENDMDL
MODEL 7
REMARK VINA RESULT:      -0.2      1.889      3.037
REMARK  2 active torsions:
REMARK  status: ('A' for Active; 'I' for Inactive)
REMARK    1  A    between atoms: C1_1  and  C5_5 
REMARK    2  A    between atoms: C5_5  and  O8_8 
ROOT
HETATM    1  C2  UNL     1     -32.039   5.159   0.628  1.00 20.00     0.007 C 
HETATM    2  C3  UNL     1     -32.012   5.294   2.159  1.00 20.00     0.047 C 
HETATM    3  C4  UNL     1     -33.331   5.992   0.629  1.00 20.00     0.047 C 
HETATM    4  C5  UNL     1     -32.911   6.563   2.020  1.00 20.00     0.136 C 
ENDROOT
BRANCH   4   5
HETATM    5  C1  UNL     1     -32.157   7.920   1.995  1.00 20.00     0.253 C 
HETATM    6  O7  UNL     1     -31.289   8.191   2.820  1.00 20.00    -0.276 OA
HETATM    7 CL9  UNL     1     -32.694   8.944   0.699  1.00 20.00    -0.041 Cl
ENDBRANCH   4   5
BRANCH   4   8
HETATM    8  O8  UNL     1     -33.990   6.611   2.982  1.00 20.00    -0.376 OA
HETATM    9  C6  UNL     1     -33.808   7.687   3.878  1.00 20.00     0.203 C 
ENDBRANCH   4   8
TORSDOF 2
ENDMDL
MODEL 8
REMARK VINA RESULT:      -0.1      2.116      3.195
REMARK  2 active torsions:
REMARK  status: ('A' for Active; 'I' for Inactive)
REMARK    1  A    between atoms: C1_1  and  C5_5 
REMARK    2  A    between atoms: C5_5  and  O8_8 
ROOT
HETATM    1  C2  UNL     1     -32.840   5.254   0.902  1.00 20.00     0.007 C 
HETATM    2  C3  UNL     1     -33.690   6.523   1.067  1.00 20.00     0.047 C 
HETATM    3  C4  UNL     1     -32.125   5.625   2.212  1.00 20.00     0.047 C 
HETATM    4  C5  UNL     1     -33.368   6.489   2.594  1.00 20.00     0.136 C 
ENDROOT
BRANCH   4   5
HETATM    5  C1  UNL     1     -34.428   5.793   3.489  1.00 20.00     0.253 C 
HETATM    6  O7  UNL     1     -35.506   6.322   3.743  1.00 20.00    -0.276 OA
HETATM    7 CL9  UNL     1     -33.893   4.237   4.048  1.00 20.00    -0.041 Cl
ENDBRANCH   4   5
BRANCH   4   8
HETATM    8  O8  UNL     1     -33.031   7.785   3.139  1.00 20.00    -0.376 OA
HETATM    9  C6  UNL     1     -33.422   7.871   4.494  1.00 20.00     0.203 C 
ENDBRANCH   4   8
TORSDOF 2
ENDMDL
MODEL 9
REMARK VINA RESULT:      -0.1      1.233      1.233
REMARK  2 active torsions:
REMARK  status: ('A' for Active; 'I' for Inactive)
REMARK    1  A    between atoms: C1_1  and  C5_5 
REMARK    2  A    between atoms: C5_5  and  O8_8 
ROOT
HETATM    1  C2  UNL     1     -34.666   6.884   4.187  1.00 20.00     0.007 C 
HETATM    2  C3  UNL     1     -34.880   7.177   2.694  1.00 20.00     0.047 C 
HETATM    3  C4  UNL     1     -33.469   6.005   3.790  1.00 20.00     0.047 C 
HETATM    4  C5  UNL     1     -33.384   6.801   2.450  1.00 20.00     0.136 C 
ENDROOT
BRANCH   4   5
HETATM    5  C1  UNL     1     -32.387   7.990   2.430  1.00 20.00     0.253 C 
HETATM    6  O7  UNL     1     -31.725   8.293   3.418  1.00 20.00    -0.276 OA
HETATM    7 CL9  UNL     1     -32.349   8.787   0.887  1.00 20.00    -0.041 Cl
ENDBRANCH   4   5
BRANCH   4   8
HETATM    8  O8  UNL     1     -33.185   5.965   1.287  1.00 20.00    -0.376 OA
HETATM    9  C6  UNL     1     -31.876   5.433   1.276  1.00 20.00     0.203 C 
ENDBRANCH   4   8
TORSDOF 2
ENDMDL
