MODEL 1
REMARK VINA RESULT:      -0.6      0.000      0.000
REMARK  1 active torsions:
REMARK  status: ('A' for Active; 'I' for Inactive)
REMARK    1  A    between atoms: C1_1  and  C3_3 
ROOT
HETATM    1  C1  UNL     1     -33.622   5.294   3.161  1.00 20.00    -0.010 C 
HETATM    2  C2  UNL     1     -33.625   6.624   3.344  1.00 20.00    -0.066 C 
HETATM    3  C4  UNL     1     -32.946   4.633   1.988  1.00 20.00     0.042 C 
HETATM    4  C5  UNL     1     -34.095   7.430   4.517  1.00 20.00     0.035 C 
HETATM    5  C6  UNL     1     -32.409   5.608   0.931  1.00 20.00     0.005 C 
HETATM    6  C7  UNL     1     -32.961   8.436   4.660  1.00 20.00     0.005 C 
HETATM    7  C8  UNL     1     -31.852   6.884   1.564  1.00 20.00     0.009 C 
HETATM    8  C9  UNL     1     -32.479   8.735   3.240  1.00 20.00     0.009 C 
HETATM    9  C10 UNL     1     -32.953   7.565   2.373  1.00 20.00     0.015 C 
ENDROOT
BRANCH   1  10
HETATM   10  C3  UNL     1     -34.256   4.399   4.136  1.00 20.00     0.152 C 
HETATM   11  C11 UNL     1     -33.491   3.179   4.578  1.00 20.00     0.096 C 
HETATM   12  O12 UNL     1     -35.384   4.642   4.568  1.00 20.00    -0.293 OA
ENDBRANCH   1  10
TORSDOF 1
ENDMDL
MODEL 2
REMARK VINA RESULT:       0.7      2.184      3.860
REMARK  1 active torsions:
REMARK  status: ('A' for Active; 'I' for Inactive)
REMARK    1  A    between atoms: C1_1  and  C3_3 
ROOT
HETATM    1  C1  UNL     1     -32.376   7.353   1.963  1.00 20.00    -0.010 C 
HETATM    2  C2  UNL     1     -33.127   6.922   2.989  1.00 20.00    -0.066 C 
HETATM    3  C4  UNL     1     -31.831   6.427   0.905  1.00 20.00     0.042 C 
HETATM    4  C5  UNL     1     -33.878   7.706   4.022  1.00 20.00     0.035 C 
HETATM    5  C6  UNL     1     -32.061   4.936   1.186  1.00 20.00     0.005 C 
HETATM    6  C7  UNL     1     -35.201   6.953   4.063  1.00 20.00     0.005 C 
HETATM    7  C8  UNL     1     -33.412   4.684   1.855  1.00 20.00     0.009 C 
HETATM    8  C9  UNL     1     -34.856   5.481   3.832  1.00 20.00     0.009 C 
HETATM    9  C10 UNL     1     -33.478   5.465   3.166  1.00 20.00     0.015 C 
ENDROOT
BRANCH   1  10
HETATM   10  C3  UNL     1     -32.074   8.780   1.797  1.00 20.00     0.152 C 
HETATM   11  C11 UNL     1     -32.502   9.449   0.517  1.00 20.00     0.096 C 
HETATM   12  O12 UNL     1     -31.481   9.400   2.680  1.00 20.00    -0.293 OA
ENDBRANCH   1  10
TORSDOF 1
ENDMDL
MODEL 3
REMARK VINA RESULT:       1.3      2.098      3.571
REMARK  1 active torsions:
REMARK  status: ('A' for Active; 'I' for Inactive)
REMARK    1  A    between atoms: C1_1  and  C3_3 
ROOT
HETATM    1  C1  UNL     1     -32.793   6.404   1.936  1.00 20.00    -0.010 C 
HETATM    2  C2  UNL     1     -32.334   7.641   1.684  1.00 20.00    -0.066 C 
HETATM    3  C4  UNL     1     -33.745   6.101   3.064  1.00 20.00     0.042 C 
HETATM    4  C5  UNL     1     -31.527   8.147   0.528  1.00 20.00     0.035 C 
HETATM    5  C6  UNL     1     -34.016   7.284   4.003  1.00 20.00     0.005 C 
HETATM    6  C7  UNL     1     -32.248   9.450   0.210  1.00 20.00     0.005 C 
HETATM    7  C8  UNL     1     -34.063   8.612   3.248  1.00 20.00     0.009 C 
HETATM    8  C9  UNL     1     -32.721  10.009   1.552  1.00 20.00     0.009 C 
HETATM    9  C10 UNL     1     -32.735   8.829   2.526  1.00 20.00     0.015 C 
ENDROOT
BRANCH   1  10
HETATM   10  C3  UNL     1     -32.411   5.272   1.084  1.00 20.00     0.152 C 
HETATM   11  C11 UNL     1     -33.442   4.722   0.134  1.00 20.00     0.096 C 
HETATM   12  O12 UNL     1     -31.281   4.787   1.157  1.00 20.00    -0.293 OA
ENDBRANCH   1  10
TORSDOF 1
ENDMDL
MODEL 4
REMARK VINA RESULT:       1.5      0.700      2.790
REMARK  1 active torsions:
REMARK  status: ('A' for Active; 'I' for Inactive)
REMARK    1  A    between atoms: C1_1  and  C3_3 
ROOT
HETATM    1  C1  UNL     1     -33.928   5.960   3.788  1.00 20.00    -0.010 C 
HETATM    2  C2  UNL     1     -33.004   5.945   2.813  1.00 20.00    -0.066 C 
HETATM    3  C4  UNL     1     -34.420   7.234   4.427  1.00 20.00     0.042 C 
HETATM    4  C5  UNL     1     -32.526   4.808   1.964  1.00 20.00     0.035 C 
HETATM    5  C6  UNL     1     -33.662   8.496   3.995  1.00 20.00     0.005 C 
HETATM    6  C7  UNL     1     -32.494   5.458   0.587  1.00 20.00     0.005 C 
HETATM    7  C8  UNL     1     -33.256   8.441   2.522  1.00 20.00     0.009 C 
HETATM    8  C9  UNL     1     -32.081   6.912   0.816  1.00 20.00     0.009 C 
HETATM    9  C10 UNL     1     -32.378   7.214   2.287  1.00 20.00     0.015 C 
ENDROOT
BRANCH   1  10
HETATM   10  C3  UNL     1     -34.543   4.715   4.261  1.00 20.00     0.152 C 
HETATM   11  C11 UNL     1     -33.676   3.485   4.345  1.00 20.00     0.096 C 
HETATM   12  O12 UNL     1     -35.735   4.683   4.570  1.00 20.00    -0.293 OA
ENDBRANCH   1  10
TORSDOF 1
ENDMDL
MODEL 5
REMARK VINA RESULT:       1.6      2.169      3.732
REMARK  1 active torsions:
REMARK  status: ('A' for Active; 'I' for Inactive)
REMARK    1  A    between atoms: C1_1  and  C3_3 
ROOT
HETATM    1  C1  UNL     1     -32.455   7.092   2.028  1.00 20.00    -0.010 C 
HETATM    2  C2  UNL     1     -33.229   6.697   3.051  1.00 20.00    -0.066 C 
HETATM    3  C4  UNL     1     -31.917   6.136   0.994  1.00 20.00     0.042 C 
HETATM    4  C5  UNL     1     -33.975   7.515   4.060  1.00 20.00     0.035 C 
HETATM    5  C6  UNL     1     -32.184   4.656   1.297  1.00 20.00     0.005 C 
HETATM    6  C7  UNL     1     -35.315   6.792   4.097  1.00 20.00     0.005 C 
HETATM    7  C8  UNL     1     -33.549   4.445   1.953  1.00 20.00     0.009 C 
HETATM    8  C9  UNL     1     -35.001   5.310   3.895  1.00 20.00     0.009 C 
HETATM    9  C10 UNL     1     -33.615   5.251   3.249  1.00 20.00     0.015 C 
ENDROOT
BRANCH   1  10
HETATM   10  C3  UNL     1     -32.119   8.509   1.841  1.00 20.00     0.152 C 
HETATM   11  C11 UNL     1     -31.356   9.205   2.937  1.00 20.00     0.096 C 
HETATM   12  O12 UNL     1     -32.464   9.104   0.819  1.00 20.00    -0.293 OA
ENDBRANCH   1  10
TORSDOF 1
ENDMDL
MODEL 6
REMARK VINA RESULT:       1.7      1.277      3.077
REMARK  1 active torsions:
REMARK  status: ('A' for Active; 'I' for Inactive)
REMARK    1  A    between atoms: C1_1  and  C3_3 
ROOT
HETATM    1  C1  UNL     1     -33.992   6.688   3.374  1.00 20.00    -0.010 C 
HETATM    2  C2  UNL     1     -33.188   6.008   2.541  1.00 20.00    -0.066 C 
HETATM    3  C4  UNL     1     -33.687   8.088   3.843  1.00 20.00     0.042 C 
HETATM    4  C5  UNL     1     -33.411   4.697   1.852  1.00 20.00     0.035 C 
HETATM    5  C6  UNL     1     -32.305   8.609   3.429  1.00 20.00     0.005 C 
HETATM    6  C7  UNL     1     -32.908   5.009   0.449  1.00 20.00     0.005 C 
HETATM    7  C8  UNL     1     -31.907   8.125   2.034  1.00 20.00     0.009 C 
HETATM    8  C9  UNL     1     -31.738   5.977   0.624  1.00 20.00     0.009 C 
HETATM    9  C10 UNL     1     -31.902   6.598   2.014  1.00 20.00     0.015 C 
ENDROOT
BRANCH   1  10
HETATM   10  C3  UNL     1     -35.252   6.103   3.848  1.00 20.00     0.152 C 
HETATM   11  C11 UNL     1     -35.178   4.910   4.764  1.00 20.00     0.096 C 
HETATM   12  O12 UNL     1     -36.333   6.577   3.496  1.00 20.00    -0.293 OA
ENDBRANCH   1  10
TORSDOF 1
ENDMDL
MODEL 7
REMARK VINA RESULT:       1.8      1.930      4.368
REMARK  1 active torsions:
REMARK  status: ('A' for Active; 'I' for Inactive)
REMARK    1  A    between atoms: C1_1  and  C3_3 
ROOT
HETATM    1  C1  UNL     1     -33.383   6.108   2.741  1.00 20.00    -0.010 C 
HETATM    2  C2  UNL     1     -33.337   4.837   3.173  1.00 20.00    -0.066 C 
HETATM    3  C4  UNL     1     -34.494   7.057   3.112  1.00 20.00     0.042 C 
HETATM    4  C5  UNL     1     -32.246   3.819   3.042  1.00 20.00     0.035 C 
HETATM    5  C6  UNL     1     -35.653   6.408   3.881  1.00 20.00     0.005 C 
HETATM    6  C7  UNL     1     -32.225   3.225   4.445  1.00 20.00     0.005 C 
HETATM    7  C8  UNL     1     -35.164   5.328   4.846  1.00 20.00     0.009 C 
HETATM    8  C9  UNL     1     -33.676   3.229   4.927  1.00 20.00     0.009 C 
HETATM    9  C10 UNL     1     -34.410   4.256   4.062  1.00 20.00     0.015 C 
ENDROOT
BRANCH   1  10
HETATM   10  C3  UNL     1     -32.312   6.657   1.902  1.00 20.00     0.152 C 
HETATM   11  C11 UNL     1     -32.008   8.128   2.015  1.00 20.00     0.096 C 
HETATM   12  O12 UNL     1     -31.690   5.930   1.126  1.00 20.00    -0.293 OA
ENDBRANCH   1  10
TORSDOF 1
ENDMDL
MODEL 8
REMARK VINA RESULT:       1.9      1.886      3.094
REMARK  1 active torsions:
REMARK  status: ('A' for Active; 'I' for Inactive)
REMARK    1  A    between atoms: C1_1  and  C3_3 
ROOT
HETATM    1  C1  UNL     1     -32.555   6.325   1.560  1.00 20.00    -0.010 C 
HETATM    2  C2  UNL     1     -33.552   6.519   2.440  1.00 20.00    -0.066 C 
HETATM    3  C4  UNL     1     -31.495   7.361   1.286  1.00 20.00     0.042 C 
HETATM    4  C5  UNL     1     -34.579   5.556   2.952  1.00 20.00     0.035 C 
HETATM    5  C6  UNL     1     -31.740   8.716   1.964  1.00 20.00     0.005 C 
HETATM    6  C7  UNL     1     -34.569   5.876   4.441  1.00 20.00     0.005 C 
HETATM    7  C8  UNL     1     -32.367   8.556   3.349  1.00 20.00     0.009 C 
HETATM    8  C9  UNL     1     -34.318   7.380   4.549  1.00 20.00     0.009 C 
HETATM    9  C10 UNL     1     -33.691   7.805   3.219  1.00 20.00     0.015 C 
ENDROOT
BRANCH   1  10
HETATM   10  C3  UNL     1     -32.426   5.055   0.838  1.00 20.00     0.152 C 
HETATM   11  C11 UNL     1     -31.144   4.279   0.995  1.00 20.00     0.096 C 
HETATM   12  O12 UNL     1     -33.340   4.647   0.120  1.00 20.00    -0.293 OA
ENDBRANCH   1  10
TORSDOF 1
ENDMDL
MODEL 9
REMARK VINA RESULT:       2.0      1.744      4.184
REMARK  1 active torsions:
REMARK  status: ('A' for Active; 'I' for Inactive)
REMARK    1  A    between atoms: C1_1  and  C3_3 
ROOT
HETATM    1  C1  UNL     1     -33.003   6.790   2.439  1.00 20.00    -0.010 C 
HETATM    2  C2  UNL     1     -33.744   5.767   2.896  1.00 20.00    -0.066 C 
HETATM    3  C4  UNL     1     -33.162   8.202   2.941  1.00 20.00     0.042 C 
HETATM    4  C5  UNL     1     -33.612   4.298   2.636  1.00 20.00     0.035 C 
HETATM    5  C6  UNL     1     -34.349   8.408   3.891  1.00 20.00     0.005 C 
HETATM    6  C7  UNL     1     -33.802   3.730   4.037  1.00 20.00     0.005 C 
HETATM    7  C8  UNL     1     -34.565   7.202   4.805  1.00 20.00     0.009 C 
HETATM    8  C9  UNL     1     -34.818   4.641   4.727  1.00 20.00     0.009 C 
HETATM    9  C10 UNL     1     -34.807   5.960   3.950  1.00 20.00     0.015 C 
ENDROOT
BRANCH   1  10
HETATM   10  C3  UNL     1     -31.955   6.571   1.435  1.00 20.00     0.152 C 
HETATM   11  C11 UNL     1     -31.334   7.779   0.785  1.00 20.00     0.096 C 
HETATM   12  O12 UNL     1     -31.607   5.428   1.133  1.00 20.00    -0.293 OA
ENDBRANCH   1  10
TORSDOF 1
ENDMDL
