MODEL 1
REMARK VINA RESULT:      -2.3      0.000      0.000
REMARK  1 active torsions:
REMARK  status: ('A' for Active; 'I' for Inactive)
REMARK    1  A    between atoms: C1_1  and  C4_4 
ROOT
HETATM    1  C2  UNL     1     -35.457   6.304   3.485  1.00 20.00     0.041 A 
HETATM    2  C3  UNL     1     -34.483   5.584   4.367  1.00 20.00     0.100 A 
HETATM    3  C4  UNL     1     -34.026   6.795   3.582  1.00 20.00     0.050 A 
HETATM    4  C5  UNL     1     -33.786   8.062   4.364  1.00 20.00     0.026 C 
HETATM    5 CL8  UNL     1     -33.981   3.968   3.941  1.00 20.00    -0.124 Cl
ENDROOT
BRANCH   3   6
HETATM    6  C1  UNL     1     -33.170   6.591   2.389  1.00 20.00     0.228 C 
HETATM    7  O6  UNL     1     -33.202   5.547   1.744  1.00 20.00    -0.279 OA
HETATM    8 CL7  UNL     1     -32.173   7.974   2.055  1.00 20.00    -0.043 Cl
ENDBRANCH   3   6
TORSDOF 1
ENDMDL
MODEL 2
REMARK VINA RESULT:      -1.8      0.797      2.943
REMARK  1 active torsions:
REMARK  status: ('A' for Active; 'I' for Inactive)
REMARK    1  A    between atoms: C1_1  and  C4_4 
ROOT
HETATM    1  C2  UNL     1     -33.339   7.427   4.481  1.00 20.00     0.041 A 
HETATM    2  C3  UNL     1     -33.570   7.907   3.081  1.00 20.00     0.100 A 
HETATM    3  C4  UNL     1     -34.147   6.578   3.519  1.00 20.00     0.050 A 
HETATM    4  C5  UNL     1     -35.639   6.523   3.738  1.00 20.00     0.026 C 
HETATM    5 CL8  UNL     1     -32.221   8.007   1.980  1.00 20.00    -0.124 Cl
ENDROOT
BRANCH   3   6
HETATM    6  C1  UNL     1     -33.511   5.330   3.036  1.00 20.00     0.228 C 
HETATM    7  O6  UNL     1     -32.852   5.301   2.001  1.00 20.00    -0.279 OA
HETATM    8 CL7  UNL     1     -33.818   3.987   4.096  1.00 20.00    -0.043 Cl
ENDBRANCH   3   6
TORSDOF 1
ENDMDL
MODEL 3
REMARK VINA RESULT:      -1.4      1.813      3.416
REMARK  1 active torsions:
REMARK  status: ('A' for Active; 'I' for Inactive)
REMARK    1  A    between atoms: C1_1  and  C4_4 
ROOT
HETATM    1  C2  UNL     1     -33.542   5.697   1.265  1.00 20.00     0.041 A 
HETATM    2  C3  UNL     1     -32.235   6.141   1.847  1.00 20.00     0.100 A 
HETATM    3  C4  UNL     1     -33.356   5.710   2.769  1.00 20.00     0.050 A 
HETATM    4  C5  UNL     1     -33.200   4.375   3.453  1.00 20.00     0.026 C 
HETATM    5 CL8  UNL     1     -31.757   7.812   1.697  1.00 20.00    -0.124 Cl
ENDROOT
BRANCH   3   6
HETATM    6  C1  UNL     1     -34.098   6.748   3.523  1.00 20.00     0.228 C 
HETATM    7  O6  UNL     1     -33.604   7.844   3.769  1.00 20.00    -0.279 OA
HETATM    8 CL7  UNL     1     -35.687   6.213   3.982  1.00 20.00    -0.043 Cl
ENDBRANCH   3   6
TORSDOF 1
ENDMDL
MODEL 4
REMARK VINA RESULT:      -1.0      1.899      3.239
REMARK  1 active torsions:
REMARK  status: ('A' for Active; 'I' for Inactive)
REMARK    1  A    between atoms: C1_1  and  C4_4 
ROOT
HETATM    1  C2  UNL     1     -34.074   7.859   2.611  1.00 20.00     0.041 A 
HETATM    2  C3  UNL     1     -32.947   7.656   3.577  1.00 20.00     0.100 A 
HETATM    3  C4  UNL     1     -33.618   6.453   2.948  1.00 20.00     0.050 A 
HETATM    4  C5  UNL     1     -32.836   5.713   1.892  1.00 20.00     0.026 C 
HETATM    5 CL8  UNL     1     -33.180   8.066   5.257  1.00 20.00    -0.124 Cl
ENDROOT
BRANCH   3   6
HETATM    6  C1  UNL     1     -34.536   5.635   3.775  1.00 20.00     0.228 C 
HETATM    7  O6  UNL     1     -35.612   6.075   4.170  1.00 20.00    -0.279 OA
HETATM    8 CL7  UNL     1     -33.901   4.047   4.082  1.00 20.00    -0.043 Cl
ENDBRANCH   3   6
TORSDOF 1
ENDMDL
MODEL 5
REMARK VINA RESULT:      -0.9      1.735      3.665
REMARK  1 active torsions:
REMARK  status: ('A' for Active; 'I' for Inactive)
REMARK    1  A    between atoms: C1_1  and  C4_4 
ROOT
HETATM    1  C2  UNL     1     -32.961   8.058   1.319  1.00 20.00     0.041 A 
HETATM    2  C3  UNL     1     -31.754   7.800   2.168  1.00 20.00     0.100 A 
HETATM    3  C4  UNL     1     -32.855   6.763   2.099  1.00 20.00     0.050 A 
HETATM    4  C5  UNL     1     -32.561   5.510   1.313  1.00 20.00     0.026 C 
HETATM    5 CL8  UNL     1     -31.491   8.771   3.594  1.00 20.00    -0.124 Cl
ENDROOT
BRANCH   3   6
HETATM    6  C1  UNL     1     -33.763   6.608   3.260  1.00 20.00     0.228 C 
HETATM    7  O6  UNL     1     -34.235   7.580   3.843  1.00 20.00    -0.279 OA
HETATM    8 CL7  UNL     1     -34.046   4.939   3.652  1.00 20.00    -0.043 Cl
ENDBRANCH   3   6
TORSDOF 1
ENDMDL
MODEL 6
REMARK VINA RESULT:      -0.5      2.275      2.663
REMARK  1 active torsions:
REMARK  status: ('A' for Active; 'I' for Inactive)
REMARK    1  A    between atoms: C1_1  and  C4_4 
ROOT
HETATM    1  C2  UNL     1     -33.822   6.475   1.096  1.00 20.00     0.041 A 
HETATM    2  C3  UNL     1     -32.850   5.650   1.883  1.00 20.00     0.100 A 
HETATM    3  C4  UNL     1     -33.082   7.096   2.265  1.00 20.00     0.050 A 
HETATM    4  C5  UNL     1     -33.875   7.348   3.523  1.00 20.00     0.026 C 
HETATM    5 CL8  UNL     1     -31.368   5.124   1.125  1.00 20.00    -0.124 Cl
ENDROOT
BRANCH   3   6
HETATM    6  C1  UNL     1     -32.040   8.098   1.937  1.00 20.00     0.228 C 
HETATM    7  O6  UNL     1     -30.956   8.111   2.512  1.00 20.00    -0.279 OA
HETATM    8 CL7  UNL     1     -32.552   9.188   0.685  1.00 20.00    -0.043 Cl
ENDBRANCH   3   6
TORSDOF 1
ENDMDL
MODEL 7
REMARK VINA RESULT:      -0.5      2.104      3.603
REMARK  1 active torsions:
REMARK  status: ('A' for Active; 'I' for Inactive)
REMARK    1  A    between atoms: C1_1  and  C4_4 
ROOT
HETATM    1  C2  UNL     1     -31.542   8.097   2.594  1.00 20.00     0.041 A 
HETATM    2  C3  UNL     1     -32.559   8.677   1.659  1.00 20.00     0.100 A 
HETATM    3  C4  UNL     1     -32.781   7.297   2.241  1.00 20.00     0.050 A 
HETATM    4  C5  UNL     1     -33.842   7.170   3.305  1.00 20.00     0.026 C 
HETATM    5 CL8  UNL     1     -32.140   8.912  -0.018  1.00 20.00    -0.124 Cl
ENDROOT
BRANCH   3   6
HETATM    6  C1  UNL     1     -32.584   6.115   1.370  1.00 20.00     0.228 C 
HETATM    7  O6  UNL     1     -31.586   5.406   1.460  1.00 20.00    -0.279 OA
HETATM    8 CL7  UNL     1     -33.905   5.891   0.263  1.00 20.00    -0.043 Cl
ENDBRANCH   3   6
TORSDOF 1
ENDMDL
MODEL 8
REMARK VINA RESULT:      -0.4      1.909      2.491
REMARK  1 active torsions:
REMARK  status: ('A' for Active; 'I' for Inactive)
REMARK    1  A    between atoms: C1_1  and  C4_4 
ROOT
HETATM    1  C2  UNL     1     -33.107   5.047   3.552  1.00 20.00     0.041 A 
HETATM    2  C3  UNL     1     -34.433   5.506   3.024  1.00 20.00     0.100 A 
HETATM    3  C4  UNL     1     -33.159   6.090   2.452  1.00 20.00     0.050 A 
HETATM    4  C5  UNL     1     -32.769   5.645   1.065  1.00 20.00     0.026 C 
HETATM    5 CL8  UNL     1     -35.488   6.434   4.058  1.00 20.00    -0.124 Cl
ENDROOT
BRANCH   3   6
HETATM    6  C1  UNL     1     -32.776   7.472   2.827  1.00 20.00     0.228 C 
HETATM    7  O6  UNL     1     -33.004   7.923   3.946  1.00 20.00    -0.279 OA
HETATM    8 CL7  UNL     1     -31.999   8.313   1.520  1.00 20.00    -0.043 Cl
ENDBRANCH   3   6
TORSDOF 1
ENDMDL
MODEL 9
REMARK VINA RESULT:      -0.4      2.049      3.609
REMARK  1 active torsions:
REMARK  status: ('A' for Active; 'I' for Inactive)
REMARK    1  A    between atoms: C1_1  and  C4_4 
ROOT
HETATM    1  C2  UNL     1     -31.426   8.080   2.345  1.00 20.00     0.041 A 
HETATM    2  C3  UNL     1     -32.543   8.777   1.631  1.00 20.00     0.100 A 
HETATM    3  C4  UNL     1     -32.771   7.395   2.205  1.00 20.00     0.050 A 
HETATM    4  C5  UNL     1     -33.628   7.305   3.443  1.00 20.00     0.026 C 
HETATM    5 CL8  UNL     1     -32.418   9.050  -0.088  1.00 20.00    -0.124 Cl
ENDROOT
BRANCH   3   6
HETATM    6  C1  UNL     1     -32.837   6.239   1.280  1.00 20.00     0.228 C 
HETATM    7  O6  UNL     1     -33.774   6.090   0.501  1.00 20.00    -0.279 OA
HETATM    8 CL7  UNL     1     -31.466   5.186   1.451  1.00 20.00    -0.043 Cl
ENDBRANCH   3   6
TORSDOF 1
ENDMDL
