MODEL 1
REMARK VINA RESULT:      -1.9      0.000      0.000
REMARK  2 active torsions:
REMARK  status: ('A' for Active; 'I' for Inactive)
REMARK    1  A    between atoms: C3_3  and  C6_6 
REMARK    2  A    between atoms: C3_3  and  O10_10 
ROOT
HETATM    1  C1  UNL     1     -32.427   6.594   1.406  1.00 20.00    -0.002 C 
HETATM    2  C2  UNL     1     -32.377   7.796   1.991  1.00 20.00     0.130 C 
HETATM    3  C4  UNL     1     -33.126   5.437   2.048  1.00 20.00     0.046 C 
HETATM    4  C5  UNL     1     -33.925   7.184   3.657  1.00 20.00     0.189 C 
HETATM    5  C6  UNL     1     -33.437   5.743   3.515  1.00 20.00     0.113 C 
HETATM    6  O9  UNL     1     -32.970   8.139   3.178  1.00 20.00    -0.362 OA
ENDROOT
BRANCH   5   7
HETATM    7  C3  UNL     1     -34.470   4.798   4.041  1.00 20.00     0.265 C 
HETATM    8  O8  UNL     1     -35.550   5.149   4.500  1.00 20.00    -0.265 OA
BRANCH   7   9
HETATM    9  O10 UNL     1     -34.019   3.517   3.926  1.00 20.00    -0.326 OA
HETATM   10  C7  UNL     1     -33.095   3.097   4.935  1.00 20.00     0.213 C 
ENDBRANCH   7   9
ENDBRANCH   5   7
TORSDOF 2
ENDMDL
MODEL 2
REMARK VINA RESULT:      -1.8      0.962      1.602
REMARK  2 active torsions:
REMARK  status: ('A' for Active; 'I' for Inactive)
REMARK    1  A    between atoms: C3_3  and  C6_6 
REMARK    2  A    between atoms: C3_3  and  O10_10 
ROOT
HETATM    1  C1  UNL     1     -32.796   8.193   3.109  1.00 20.00    -0.002 C 
HETATM    2  C2  UNL     1     -32.291   7.876   1.912  1.00 20.00     0.130 C 
HETATM    3  C4  UNL     1     -33.601   7.216   3.907  1.00 20.00     0.046 C 
HETATM    4  C5  UNL     1     -32.842   5.598   2.150  1.00 20.00     0.189 C 
HETATM    5  C6  UNL     1     -34.009   6.023   3.040  1.00 20.00     0.113 C 
HETATM    6  O9  UNL     1     -32.387   6.656   1.295  1.00 20.00    -0.362 OA
ENDROOT
BRANCH   5   7
HETATM    7  C3  UNL     1     -34.443   4.875   3.896  1.00 20.00     0.265 C 
HETATM    8  O8  UNL     1     -35.442   4.885   4.602  1.00 20.00    -0.265 OA
BRANCH   7   9
HETATM    9  O10 UNL     1     -33.560   3.844   3.757  1.00 20.00    -0.326 OA
HETATM   10  C7  UNL     1     -33.316   3.080   4.942  1.00 20.00     0.213 C 
ENDBRANCH   7   9
ENDBRANCH   5   7
TORSDOF 2
ENDMDL
MODEL 3
REMARK VINA RESULT:      -1.4      1.961      4.468
REMARK  2 active torsions:
REMARK  status: ('A' for Active; 'I' for Inactive)
REMARK    1  A    between atoms: C3_3  and  C6_6 
REMARK    2  A    between atoms: C3_3  and  O10_10 
ROOT
HETATM    1  C1  UNL     1     -34.129   5.234   3.211  1.00 20.00    -0.002 C 
HETATM    2  C2  UNL     1     -34.834   5.939   4.102  1.00 20.00     0.130 C 
HETATM    3  C4  UNL     1     -33.146   5.889   2.291  1.00 20.00     0.046 C 
HETATM    4  C5  UNL     1     -33.577   7.896   3.728  1.00 20.00     0.189 C 
HETATM    5  C6  UNL     1     -33.331   7.408   2.301  1.00 20.00     0.113 C 
HETATM    6  O9  UNL     1     -34.728   7.287   4.328  1.00 20.00    -0.362 OA
ENDROOT
BRANCH   5   7
HETATM    7  C3  UNL     1     -32.127   8.087   1.729  1.00 20.00     0.265 C 
HETATM    8  O8  UNL     1     -31.037   7.548   1.588  1.00 20.00    -0.265 OA
BRANCH   7   9
HETATM    9  O10 UNL     1     -32.442   9.372   1.401  1.00 20.00    -0.326 OA
HETATM   10  C7  UNL     1     -32.422   9.672   0.001  1.00 20.00     0.213 C 
ENDBRANCH   7   9
ENDBRANCH   5   7
TORSDOF 2
ENDMDL
MODEL 4
REMARK VINA RESULT:      -1.2      1.650      4.726
REMARK  2 active torsions:
REMARK  status: ('A' for Active; 'I' for Inactive)
REMARK    1  A    between atoms: C3_3  and  C6_6 
REMARK    2  A    between atoms: C3_3  and  O10_10 
ROOT
HETATM    1  C1  UNL     1     -34.750   6.962   4.076  1.00 20.00    -0.002 C 
HETATM    2  C2  UNL     1     -34.606   5.641   3.924  1.00 20.00     0.130 C 
HETATM    3  C4  UNL     1     -33.887   7.937   3.337  1.00 20.00     0.046 C 
HETATM    4  C5  UNL     1     -33.127   5.890   2.107  1.00 20.00     0.189 C 
HETATM    5  C6  UNL     1     -32.688   7.224   2.710  1.00 20.00     0.113 C 
HETATM    6  O9  UNL     1     -33.726   5.019   3.076  1.00 20.00    -0.362 OA
ENDROOT
BRANCH   5   7
HETATM    7  C3  UNL     1     -32.061   8.079   1.654  1.00 20.00     0.265 C 
HETATM    8  O8  UNL     1     -31.030   7.791   1.060  1.00 20.00    -0.265 OA
BRANCH   7   9
HETATM    9  O10 UNL     1     -32.814   9.202   1.471  1.00 20.00    -0.326 OA
HETATM   10  C7  UNL     1     -32.483   9.983   0.318  1.00 20.00     0.213 C 
ENDBRANCH   7   9
ENDBRANCH   5   7
TORSDOF 2
ENDMDL
MODEL 5
REMARK VINA RESULT:      -1.2      1.455      4.066
REMARK  2 active torsions:
REMARK  status: ('A' for Active; 'I' for Inactive)
REMARK    1  A    between atoms: C3_3  and  C6_6 
REMARK    2  A    between atoms: C3_3  and  O10_10 
ROOT
HETATM    1  C1  UNL     1     -34.319   4.290   4.189  1.00 20.00    -0.002 C 
HETATM    2  C2  UNL     1     -35.277   5.135   4.584  1.00 20.00     0.130 C 
HETATM    3  C4  UNL     1     -33.260   4.702   3.216  1.00 20.00     0.046 C 
HETATM    4  C5  UNL     1     -34.230   6.985   3.570  1.00 20.00     0.189 C 
HETATM    5  C6  UNL     1     -33.634   6.024   2.542  1.00 20.00     0.113 C 
HETATM    6  O9  UNL     1     -35.393   6.450   4.215  1.00 20.00    -0.362 OA
ENDROOT
BRANCH   5   7
HETATM    7  C3  UNL     1     -32.435   6.644   1.898  1.00 20.00     0.265 C 
HETATM    8  O8  UNL     1     -31.612   6.022   1.239  1.00 20.00    -0.265 OA
BRANCH   7   9
HETATM    9  O10 UNL     1     -32.416   7.982   2.163  1.00 20.00    -0.326 OA
HETATM   10  C7  UNL     1     -32.106   8.825   1.049  1.00 20.00     0.213 C 
ENDBRANCH   7   9
ENDBRANCH   5   7
TORSDOF 2
ENDMDL
MODEL 6
REMARK VINA RESULT:      -0.3      1.718      2.523
REMARK  2 active torsions:
REMARK  status: ('A' for Active; 'I' for Inactive)
REMARK    1  A    between atoms: C3_3  and  C6_6 
REMARK    2  A    between atoms: C3_3  and  O10_10 
ROOT
HETATM    1  C1  UNL     1     -31.712   7.819   1.574  1.00 20.00    -0.002 C 
HETATM    2  C2  UNL     1     -31.706   6.628   0.965  1.00 20.00     0.130 C 
HETATM    3  C4  UNL     1     -32.663   8.128   2.687  1.00 20.00     0.046 C 
HETATM    4  C5  UNL     1     -33.168   5.677   2.549  1.00 20.00     0.189 C 
HETATM    5  C6  UNL     1     -33.764   7.068   2.762  1.00 20.00     0.113 C 
HETATM    6  O9  UNL     1     -32.494   5.554   1.290  1.00 20.00    -0.362 OA
ENDROOT
BRANCH   5   7
HETATM    7  C3  UNL     1     -34.461   7.127   4.085  1.00 20.00     0.265 C 
HETATM    8  O8  UNL     1     -34.094   7.822   5.023  1.00 20.00    -0.265 OA
BRANCH   7   9
HETATM    9  O10 UNL     1     -35.545   6.300   4.066  1.00 20.00    -0.326 OA
HETATM   10  C7  UNL     1     -35.348   5.014   4.662  1.00 20.00     0.213 C 
ENDBRANCH   7   9
ENDBRANCH   5   7
TORSDOF 2
ENDMDL
MODEL 7
REMARK VINA RESULT:      -0.0      1.568      3.597
REMARK  2 active torsions:
REMARK  status: ('A' for Active; 'I' for Inactive)
REMARK    1  A    between atoms: C3_3  and  C6_6 
REMARK    2  A    between atoms: C3_3  and  O10_10 
ROOT
HETATM    1  C1  UNL     1     -34.409   4.426   4.248  1.00 20.00    -0.002 C 
HETATM    2  C2  UNL     1     -35.342   5.325   4.580  1.00 20.00     0.130 C 
HETATM    3  C4  UNL     1     -33.312   4.752   3.284  1.00 20.00     0.046 C 
HETATM    4  C5  UNL     1     -34.200   7.084   3.508  1.00 20.00     0.189 C 
HETATM    5  C6  UNL     1     -33.619   6.054   2.541  1.00 20.00     0.113 C 
HETATM    6  O9  UNL     1     -35.398   6.625   4.149  1.00 20.00    -0.362 OA
ENDROOT
BRANCH   5   7
HETATM    7  C3  UNL     1     -32.382   6.598   1.899  1.00 20.00     0.265 C 
HETATM    8  O8  UNL     1     -32.144   7.791   1.769  1.00 20.00    -0.265 OA
BRANCH   7   9
HETATM    9  O10 UNL     1     -31.586   5.566   1.497  1.00 20.00    -0.326 OA
HETATM   10  C7  UNL     1     -32.085   4.796   0.398  1.00 20.00     0.213 C 
ENDBRANCH   7   9
ENDBRANCH   5   7
TORSDOF 2
ENDMDL
MODEL 8
REMARK VINA RESULT:       0.0      1.804      2.281
REMARK  2 active torsions:
REMARK  status: ('A' for Active; 'I' for Inactive)
REMARK    1  A    between atoms: C3_3  and  C6_6 
REMARK    2  A    between atoms: C3_3  and  O10_10 
ROOT
HETATM    1  C1  UNL     1     -32.438   5.751   1.173  1.00 20.00    -0.002 C 
HETATM    2  C2  UNL     1     -31.601   6.763   0.919  1.00 20.00     0.130 C 
HETATM    3  C4  UNL     1     -33.410   5.802   2.310  1.00 20.00     0.046 C 
HETATM    4  C5  UNL     1     -32.669   8.191   2.458  1.00 20.00     0.189 C 
HETATM    5  C6  UNL     1     -33.067   6.952   3.259  1.00 20.00     0.113 C 
HETATM    6  O9  UNL     1     -31.548   7.954   1.597  1.00 20.00    -0.362 OA
ENDROOT
BRANCH   5   7
HETATM    7  C3  UNL     1     -34.231   7.268   4.144  1.00 20.00     0.265 C 
HETATM    8  O8  UNL     1     -34.210   8.112   5.031  1.00 20.00    -0.265 OA
BRANCH   7   9
HETATM    9  O10 UNL     1     -35.290   6.479   3.804  1.00 20.00    -0.326 OA
HETATM   10  C7  UNL     1     -35.448   5.290   4.585  1.00 20.00     0.213 C 
ENDBRANCH   7   9
ENDBRANCH   5   7
TORSDOF 2
ENDMDL
MODEL 9
REMARK VINA RESULT:       0.1      1.674      3.867
REMARK  2 active torsions:
REMARK  status: ('A' for Active; 'I' for Inactive)
REMARK    1  A    between atoms: C3_3  and  C6_6 
REMARK    2  A    between atoms: C3_3  and  O10_10 
ROOT
HETATM    1  C1  UNL     1     -35.521   6.255   4.303  1.00 20.00    -0.002 C 
HETATM    2  C2  UNL     1     -35.326   5.000   4.724  1.00 20.00     0.130 C 
HETATM    3  C4  UNL     1     -34.610   6.900   3.308  1.00 20.00     0.046 C 
HETATM    4  C5  UNL     1     -33.665   4.587   3.106  1.00 20.00     0.189 C 
HETATM    5  C6  UNL     1     -33.330   6.078   3.140  1.00 20.00     0.113 C 
HETATM    6  O9  UNL     1     -34.344   4.148   4.290  1.00 20.00    -0.362 OA
ENDROOT
BRANCH   5   7
HETATM    7  C3  UNL     1     -32.615   6.469   1.885  1.00 20.00     0.265 C 
HETATM    8  O8  UNL     1     -32.021   7.529   1.736  1.00 20.00    -0.265 OA
BRANCH   7   9
HETATM    9  O10 UNL     1     -32.733   5.471   0.963  1.00 20.00    -0.326 OA
HETATM   10  C7  UNL     1     -31.511   4.817   0.604  1.00 20.00     0.213 C 
ENDBRANCH   7   9
ENDBRANCH   5   7
TORSDOF 2
ENDMDL
