MODEL 1
REMARK VINA RESULT:      -1.7      0.000      0.000
REMARK  1 active torsions:
REMARK  status: ('A' for Active; 'I' for Inactive)
REMARK    1  A    between atoms: C1_1  and  C2_2 
ROOT
HETATM    1  C2  UNL     1     -33.624   5.754   2.421  1.00 20.00     0.100 A 
HETATM    2  C3  UNL     1     -33.325   5.210   3.793  1.00 20.00     0.104 A 
HETATM    3  C4  UNL     1     -34.198   6.437   3.653  1.00 20.00    -0.017 A 
HETATM    4  C5  UNL     1     -35.690   6.339   3.860  1.00 20.00     0.017 C 
HETATM    5  C6  UNL     1     -33.614   7.745   4.126  1.00 20.00     0.017 C 
HETATM    6 CL9  UNL     1     -33.972   3.660   4.261  1.00 20.00    -0.123 Cl
ENDROOT
BRANCH   1   7
HETATM    7  C1  UNL     1     -32.547   6.384   1.647  1.00 20.00     0.225 C 
HETATM    8  O7  UNL     1     -32.436   7.604   1.569  1.00 20.00    -0.279 OA
HETATM    9 CL8  UNL     1     -31.507   5.209   0.898  1.00 20.00    -0.043 Cl
ENDBRANCH   1   7
TORSDOF 1
ENDMDL
MODEL 2
REMARK VINA RESULT:      -1.4      2.132      3.840
REMARK  1 active torsions:
REMARK  status: ('A' for Active; 'I' for Inactive)
REMARK    1  A    between atoms: C1_1  and  C2_2 
ROOT
HETATM    1  C2  UNL     1     -33.746   7.307   2.495  1.00 20.00     0.100 A 
HETATM    2  C3  UNL     1     -32.296   7.523   2.153  1.00 20.00     0.104 A 
HETATM    3  C4  UNL     1     -32.940   6.188   1.856  1.00 20.00    -0.017 A 
HETATM    4  C5  UNL     1     -33.292   5.808   0.439  1.00 20.00     0.017 C 
HETATM    5  C6  UNL     1     -32.491   5.015   2.694  1.00 20.00     0.017 C 
HETATM    6 CL9  UNL     1     -31.870   8.648   0.890  1.00 20.00    -0.123 Cl
ENDROOT
BRANCH   1   7
HETATM    7  C1  UNL     1     -34.149   7.234   3.905  1.00 20.00     0.225 C 
HETATM    8  O7  UNL     1     -33.591   7.902   4.771  1.00 20.00    -0.279 OA
HETATM    9 CL8  UNL     1     -35.461   6.121   4.154  1.00 20.00    -0.043 Cl
ENDBRANCH   1   7
TORSDOF 1
ENDMDL
MODEL 3
REMARK VINA RESULT:      -1.3      1.956      3.353
REMARK  1 active torsions:
REMARK  status: ('A' for Active; 'I' for Inactive)
REMARK    1  A    between atoms: C1_1  and  C2_2 
ROOT
HETATM    1  C2  UNL     1     -33.305   5.233   3.711  1.00 20.00     0.100 A 
HETATM    2  C3  UNL     1     -33.610   5.567   2.275  1.00 20.00     0.104 A 
HETATM    3  C4  UNL     1     -33.947   6.565   3.359  1.00 20.00    -0.017 A 
HETATM    4  C5  UNL     1     -33.106   7.804   3.544  1.00 20.00     0.017 C 
HETATM    5  C6  UNL     1     -35.412   6.790   3.644  1.00 20.00     0.017 C 
HETATM    6 CL9  UNL     1     -32.297   5.821   1.156  1.00 20.00    -0.123 Cl
ENDROOT
BRANCH   1   7
HETATM    7  C1  UNL     1     -34.078   4.180   4.384  1.00 20.00     0.225 C 
HETATM    8  O7  UNL     1     -35.264   4.329   4.662  1.00 20.00    -0.279 OA
HETATM    9 CL8  UNL     1     -33.117   2.770   4.711  1.00 20.00    -0.043 Cl
ENDBRANCH   1   7
TORSDOF 1
ENDMDL
MODEL 4
REMARK VINA RESULT:      -1.3      2.637      3.220
REMARK  1 active torsions:
REMARK  status: ('A' for Active; 'I' for Inactive)
REMARK    1  A    between atoms: C1_1  and  C2_2 
ROOT
HETATM    1  C2  UNL     1     -32.770   8.111   1.223  1.00 20.00     0.100 A 
HETATM    2  C3  UNL     1     -31.992   6.914   1.702  1.00 20.00     0.104 A 
HETATM    3  C4  UNL     1     -32.595   7.863   2.713  1.00 20.00    -0.017 A 
HETATM    4  C5  UNL     1     -33.824   7.466   3.493  1.00 20.00     0.017 C 
HETATM    5  C6  UNL     1     -31.632   8.711   3.507  1.00 20.00     0.017 C 
HETATM    6 CL9  UNL     1     -32.631   5.313   1.436  1.00 20.00    -0.123 Cl
ENDROOT
BRANCH   1   7
HETATM    7  C1  UNL     1     -32.060   9.210   0.556  1.00 20.00     0.225 C 
HETATM    8  O7  UNL     1     -30.977   9.037   0.004  1.00 20.00    -0.279 OA
HETATM    9 CL8  UNL     1     -32.932  10.710   0.658  1.00 20.00    -0.043 Cl
ENDBRANCH   1   7
TORSDOF 1
ENDMDL
MODEL 5
REMARK VINA RESULT:      -0.9      2.148      3.579
REMARK  1 active torsions:
REMARK  status: ('A' for Active; 'I' for Inactive)
REMARK    1  A    between atoms: C1_1  and  C2_2 
ROOT
HETATM    1  C2  UNL     1     -32.875   6.945   3.121  1.00 20.00     0.100 A 
HETATM    2  C3  UNL     1     -33.169   6.504   1.712  1.00 20.00     0.104 A 
HETATM    3  C4  UNL     1     -32.432   7.803   1.946  1.00 20.00    -0.017 A 
HETATM    4  C5  UNL     1     -30.948   7.897   1.685  1.00 20.00     0.017 C 
HETATM    5  C6  UNL     1     -33.176   9.076   1.624  1.00 20.00     0.017 C 
HETATM    6 CL9  UNL     1     -32.376   5.090   1.071  1.00 20.00    -0.123 Cl
ENDROOT
BRANCH   1   7
HETATM    7  C1  UNL     1     -33.982   7.371   3.987  1.00 20.00     0.225 C 
HETATM    8  O7  UNL     1     -33.849   8.273   4.809  1.00 20.00    -0.279 OA
HETATM    9 CL8  UNL     1     -35.432   6.458   3.692  1.00 20.00    -0.043 Cl
ENDBRANCH   1   7
TORSDOF 1
ENDMDL
MODEL 6
REMARK VINA RESULT:      -0.5      2.117      2.436
REMARK  1 active torsions:
REMARK  status: ('A' for Active; 'I' for Inactive)
REMARK    1  A    between atoms: C1_1  and  C2_2 
ROOT
HETATM    1  C2  UNL     1     -33.315   6.470   3.255  1.00 20.00     0.100 A 
HETATM    2  C3  UNL     1     -33.843   7.705   3.937  1.00 20.00     0.104 A 
HETATM    3  C4  UNL     1     -34.785   6.562   3.633  1.00 20.00    -0.017 A 
HETATM    4  C5  UNL     1     -35.268   5.656   4.739  1.00 20.00     0.017 C 
HETATM    5  C6  UNL     1     -35.821   6.802   2.563  1.00 20.00     0.017 C 
HETATM    6 CL9  UNL     1     -33.327   8.074   5.562  1.00 20.00    -0.123 Cl
ENDROOT
BRANCH   1   7
HETATM    7  C1  UNL     1     -32.894   6.550   1.850  1.00 20.00     0.225 C 
HETATM    8  O7  UNL     1     -33.015   5.598   1.085  1.00 20.00    -0.279 OA
HETATM    9 CL8  UNL     1     -32.234   8.108   1.452  1.00 20.00    -0.043 Cl
ENDBRANCH   1   7
TORSDOF 1
ENDMDL
MODEL 7
REMARK VINA RESULT:      -0.5      2.355      3.637
REMARK  1 active torsions:
REMARK  status: ('A' for Active; 'I' for Inactive)
REMARK    1  A    between atoms: C1_1  and  C2_2 
ROOT
HETATM    1  C2  UNL     1     -31.886   7.197   1.568  1.00 20.00     0.100 A 
HETATM    2  C3  UNL     1     -32.865   8.300   1.265  1.00 20.00     0.104 A 
HETATM    3  C4  UNL     1     -32.572   7.940   2.703  1.00 20.00    -0.017 A 
HETATM    4  C5  UNL     1     -31.710   8.839   3.555  1.00 20.00     0.017 C 
HETATM    5  C6  UNL     1     -33.681   7.269   3.476  1.00 20.00     0.017 C 
HETATM    6 CL9  UNL     1     -32.292   9.782   0.545  1.00 20.00    -0.123 Cl
ENDROOT
BRANCH   1   7
HETATM    7  C1  UNL     1     -32.247   5.809   1.251  1.00 20.00     0.225 C 
HETATM    8  O7  UNL     1     -31.561   4.862   1.627  1.00 20.00    -0.279 OA
HETATM    9 CL8  UNL     1     -33.709   5.710   0.317  1.00 20.00    -0.043 Cl
ENDBRANCH   1   7
TORSDOF 1
ENDMDL
MODEL 8
REMARK VINA RESULT:      -0.1      2.554      3.687
REMARK  1 active torsions:
REMARK  status: ('A' for Active; 'I' for Inactive)
REMARK    1  A    between atoms: C1_1  and  C2_2 
ROOT
HETATM    1  C2  UNL     1     -34.410   7.464   3.438  1.00 20.00     0.100 A 
HETATM    2  C3  UNL     1     -33.108   7.250   4.163  1.00 20.00     0.104 A 
HETATM    3  C4  UNL     1     -33.139   7.179   2.653  1.00 20.00    -0.017 A 
HETATM    4  C5  UNL     1     -32.574   8.306   1.824  1.00 20.00     0.017 C 
HETATM    5  C6  UNL     1     -32.930   5.819   2.032  1.00 20.00     0.017 C 
HETATM    6 CL9  UNL     1     -32.370   8.581   5.014  1.00 20.00    -0.123 Cl
ENDROOT
BRANCH   1   7
HETATM    7  C1  UNL     1     -35.469   6.453   3.547  1.00 20.00     0.225 C 
HETATM    8  O7  UNL     1     -36.568   6.611   3.025  1.00 20.00    -0.279 OA
HETATM    9 CL8  UNL     1     -34.962   5.073   4.475  1.00 20.00    -0.043 Cl
ENDBRANCH   1   7
TORSDOF 1
ENDMDL
MODEL 9
REMARK VINA RESULT:      -0.1      2.667      3.421
REMARK  1 active torsions:
REMARK  status: ('A' for Active; 'I' for Inactive)
REMARK    1  A    between atoms: C1_1  and  C2_2 
ROOT
HETATM    1  C2  UNL     1     -32.105   7.827   1.921  1.00 20.00     0.100 A 
HETATM    2  C3  UNL     1     -33.504   7.709   2.466  1.00 20.00     0.104 A 
HETATM    3  C4  UNL     1     -32.917   6.566   1.669  1.00 20.00    -0.017 A 
HETATM    4  C5  UNL     1     -32.463   5.305   2.362  1.00 20.00     0.017 C 
HETATM    5  C6  UNL     1     -33.508   6.317   0.303  1.00 20.00     0.017 C 
HETATM    6 CL9  UNL     1     -33.748   7.607   4.190  1.00 20.00    -0.123 Cl
ENDROOT
BRANCH   1   7
HETATM    7  C1  UNL     1     -31.835   8.777   0.835  1.00 20.00     0.225 C 
HETATM    8  O7  UNL     1     -30.942   8.582   0.015  1.00 20.00    -0.279 OA
HETATM    9 CL8  UNL     1     -32.906  10.145   0.880  1.00 20.00    -0.043 Cl
ENDBRANCH   1   7
TORSDOF 1
ENDMDL
