MODEL 1
REMARK VINA RESULT:      -0.7      0.000      0.000
REMARK  1 active torsions:
REMARK  status: ('A' for Active; 'I' for Inactive)
REMARK    1  A    between atoms: C5_5  and  C7_7 
ROOT
HETATM    1  C1  UNL     1     -33.668   8.001   4.224  1.00 20.00    -0.026 A 
HETATM    2  C2  UNL     1     -32.572   8.391   3.556  1.00 20.00    -0.013 A 
HETATM    3  C3  UNL     1     -33.915   6.040   2.665  1.00 20.00    -0.019 A 
HETATM    4  C4  UNL     1     -32.817   6.417   1.985  1.00 20.00    -0.071 A 
HETATM    5  C6  UNL     1     -34.481   6.805   3.828  1.00 20.00     0.054 A 
HETATM    6  C7  UNL     1     -32.059   7.676   2.340  1.00 20.00     0.123 A 
HETATM    7  C8  UNL     1     -32.264   5.581   0.864  1.00 20.00     0.044 C 
ENDROOT
BRANCH   6   8
HETATM    8  C5  UNL     1     -32.202   8.646   1.206  1.00 20.00     0.230 C 
HETATM    9  O9  UNL     1     -33.123   9.456   1.162  1.00 20.00    -0.279 OA
HETATM   10 CL10 UNL     1     -30.939   8.463   0.026  1.00 20.00    -0.043 Cl
ENDBRANCH   6   8
TORSDOF 1
ENDMDL
MODEL 2
REMARK VINA RESULT:      -0.6      2.479      3.191
REMARK  1 active torsions:
REMARK  status: ('A' for Active; 'I' for Inactive)
REMARK    1  A    between atoms: C5_5  and  C7_7 
ROOT
HETATM    1  C1  UNL     1     -34.363   7.391   4.696  1.00 20.00    -0.026 A 
HETATM    2  C2  UNL     1     -34.577   6.717   3.557  1.00 20.00    -0.013 A 
HETATM    3  C3  UNL     1     -32.311   8.441   3.686  1.00 20.00    -0.019 A 
HETATM    4  C4  UNL     1     -32.512   7.773   2.535  1.00 20.00    -0.071 A 
HETATM    5  C6  UNL     1     -33.186   8.296   4.899  1.00 20.00     0.054 A 
HETATM    6  C7  UNL     1     -33.652   6.794   2.377  1.00 20.00     0.123 A 
HETATM    7  C8  UNL     1     -31.635   8.000   1.335  1.00 20.00     0.044 C 
ENDROOT
BRANCH   6   8
HETATM    8  C5  UNL     1     -33.073   5.420   2.222  1.00 20.00     0.230 C 
HETATM    9  O9  UNL     1     -32.329   5.134   1.288  1.00 20.00    -0.279 OA
HETATM   10 CL10 UNL     1     -33.583   4.347   3.491  1.00 20.00    -0.043 Cl
ENDBRANCH   6   8
TORSDOF 1
ENDMDL
MODEL 3
REMARK VINA RESULT:      -0.6      2.833      4.154
REMARK  1 active torsions:
REMARK  status: ('A' for Active; 'I' for Inactive)
REMARK    1  A    between atoms: C5_5  and  C7_7 
ROOT
HETATM    1  C1  UNL     1     -32.598   6.096   1.329  1.00 20.00    -0.026 A 
HETATM    2  C2  UNL     1     -33.180   5.481   2.369  1.00 20.00    -0.013 A 
HETATM    3  C3  UNL     1     -32.470   8.226   2.665  1.00 20.00    -0.019 A 
HETATM    4  C4  UNL     1     -33.052   7.624   3.718  1.00 20.00    -0.071 A 
HETATM    5  C6  UNL     1     -32.214   7.545   1.350  1.00 20.00     0.054 A 
HETATM    6  C7  UNL     1     -33.516   6.187   3.651  1.00 20.00     0.123 A 
HETATM    7  C8  UNL     1     -33.232   8.339   5.028  1.00 20.00     0.044 C 
ENDROOT
BRANCH   6   8
HETATM    8  C5  UNL     1     -35.012   6.171   3.745  1.00 20.00     0.230 C 
HETATM    9  O9  UNL     1     -35.705   6.996   3.155  1.00 20.00    -0.279 OA
HETATM   10 CL10 UNL     1     -35.591   4.883   4.759  1.00 20.00    -0.043 Cl
ENDBRANCH   6   8
TORSDOF 1
ENDMDL
MODEL 4
REMARK VINA RESULT:      -0.6      3.074      3.715
REMARK  1 active torsions:
REMARK  status: ('A' for Active; 'I' for Inactive)
REMARK    1  A    between atoms: C5_5  and  C7_7 
ROOT
HETATM    1  C1  UNL     1     -33.224   8.297   3.823  1.00 20.00    -0.026 A 
HETATM    2  C2  UNL     1     -34.204   7.383   3.775  1.00 20.00    -0.013 A 
HETATM    3  C3  UNL     1     -32.066   7.152   1.904  1.00 20.00    -0.019 A 
HETATM    4  C4  UNL     1     -33.041   6.228   1.841  1.00 20.00    -0.071 A 
HETATM    5  C6  UNL     1     -32.029   8.259   2.919  1.00 20.00     0.054 A 
HETATM    6  C7  UNL     1     -34.194   6.225   2.819  1.00 20.00     0.123 A 
HETATM    7  C8  UNL     1     -33.055   5.175   0.767  1.00 20.00     0.044 C 
ENDROOT
BRANCH   6   8
HETATM    8  C5  UNL     1     -34.087   4.995   3.668  1.00 20.00     0.230 C 
HETATM    9  O9  UNL     1     -33.148   4.212   3.554  1.00 20.00    -0.279 OA
HETATM   10 CL10 UNL     1     -35.416   4.848   4.778  1.00 20.00    -0.043 Cl
ENDBRANCH   6   8
TORSDOF 1
ENDMDL
MODEL 5
REMARK VINA RESULT:      -0.2      2.106      3.175
REMARK  1 active torsions:
REMARK  status: ('A' for Active; 'I' for Inactive)
REMARK    1  A    between atoms: C5_5  and  C7_7 
ROOT
HETATM    1  C1  UNL     1     -31.953   6.980   1.359  1.00 20.00    -0.026 A 
HETATM    2  C2  UNL     1     -32.535   7.994   2.017  1.00 20.00    -0.013 A 
HETATM    3  C3  UNL     1     -33.496   5.356   2.506  1.00 20.00    -0.019 A 
HETATM    4  C4  UNL     1     -34.092   6.361   3.173  1.00 20.00    -0.071 A 
HETATM    5  C6  UNL     1     -32.344   5.547   1.561  1.00 20.00     0.054 A 
HETATM    6  C7  UNL     1     -33.626   7.792   3.028  1.00 20.00     0.123 A 
HETATM    7  C8  UNL     1     -35.278   6.116   4.064  1.00 20.00     0.044 C 
ENDROOT
BRANCH   6   8
HETATM    8  C5  UNL     1     -33.054   8.234   4.341  1.00 20.00     0.230 C 
HETATM    9  O9  UNL     1     -33.654   8.062   5.398  1.00 20.00    -0.279 OA
HETATM   10 CL10 UNL     1     -31.498   8.987   4.156  1.00 20.00    -0.043 Cl
ENDBRANCH   6   8
TORSDOF 1
ENDMDL
MODEL 6
REMARK VINA RESULT:      -0.1      2.082      2.921
REMARK  1 active torsions:
REMARK  status: ('A' for Active; 'I' for Inactive)
REMARK    1  A    between atoms: C5_5  and  C7_7 
ROOT
HETATM    1  C1  UNL     1     -34.109   6.945   4.080  1.00 20.00    -0.026 A 
HETATM    2  C2  UNL     1     -34.233   6.410   2.856  1.00 20.00    -0.013 A 
HETATM    3  C3  UNL     1     -32.294   8.467   3.228  1.00 20.00    -0.019 A 
HETATM    4  C4  UNL     1     -32.407   7.943   1.994  1.00 20.00    -0.071 A 
HETATM    5  C6  UNL     1     -33.100   8.004   4.408  1.00 20.00     0.054 A 
HETATM    6  C7  UNL     1     -33.365   6.812   1.699  1.00 20.00     0.123 A 
HETATM    7  C8  UNL     1     -31.613   8.484   0.837  1.00 20.00     0.044 C 
ENDROOT
BRANCH   6   8
HETATM    8  C5  UNL     1     -32.563   5.595   1.349  1.00 20.00     0.230 C 
HETATM    9  O9  UNL     1     -31.480   5.362   1.877  1.00 20.00    -0.279 OA
HETATM   10 CL10 UNL     1     -33.350   4.614   0.149  1.00 20.00    -0.043 Cl
ENDBRANCH   6   8
TORSDOF 1
ENDMDL
MODEL 7
REMARK VINA RESULT:       0.0      2.254      2.773
REMARK  1 active torsions:
REMARK  status: ('A' for Active; 'I' for Inactive)
REMARK    1  A    between atoms: C5_5  and  C7_7 
ROOT
HETATM    1  C1  UNL     1     -34.410   7.607   3.612  1.00 20.00    -0.026 A 
HETATM    2  C2  UNL     1     -33.249   7.178   3.095  1.00 20.00    -0.013 A 
HETATM    3  C3  UNL     1     -35.018   5.237   4.202  1.00 20.00    -0.019 A 
HETATM    4  C4  UNL     1     -33.857   4.790   3.689  1.00 20.00    -0.071 A 
HETATM    5  C6  UNL     1     -35.438   6.680   4.186  1.00 20.00     0.054 A 
HETATM    6  C7  UNL     1     -32.871   5.727   3.031  1.00 20.00     0.123 A 
HETATM    7  C8  UNL     1     -33.466   3.342   3.783  1.00 20.00     0.044 C 
ENDROOT
BRANCH   6   8
HETATM    8  C5  UNL     1     -32.802   5.387   1.572  1.00 20.00     0.230 C 
HETATM    9  O9  UNL     1     -33.763   5.548   0.826  1.00 20.00    -0.279 OA
HETATM   10 CL10 UNL     1     -31.244   4.765   1.118  1.00 20.00    -0.043 Cl
ENDBRANCH   6   8
TORSDOF 1
ENDMDL
MODEL 8
REMARK VINA RESULT:       0.2      2.051      2.752
REMARK  1 active torsions:
REMARK  status: ('A' for Active; 'I' for Inactive)
REMARK    1  A    between atoms: C5_5  and  C7_7 
ROOT
HETATM    1  C1  UNL     1     -32.736   8.296   2.526  1.00 20.00    -0.026 A 
HETATM    2  C2  UNL     1     -32.054   7.271   1.993  1.00 20.00    -0.013 A 
HETATM    3  C3  UNL     1     -34.247   6.670   3.712  1.00 20.00    -0.019 A 
HETATM    4  C4  UNL     1     -33.573   5.630   3.188  1.00 20.00    -0.071 A 
HETATM    5  C6  UNL     1     -33.930   8.108   3.412  1.00 20.00     0.054 A 
HETATM    6  C7  UNL     1     -32.427   5.835   2.224  1.00 20.00     0.123 A 
HETATM    7  C8  UNL     1     -33.899   4.213   3.569  1.00 20.00     0.044 C 
ENDROOT
BRANCH   6   8
HETATM    8  C5  UNL     1     -32.839   5.301   0.885  1.00 20.00     0.230 C 
HETATM    9  O9  UNL     1     -33.912   5.603   0.372  1.00 20.00    -0.279 OA
HETATM   10 CL10 UNL     1     -31.637   4.247   0.204  1.00 20.00    -0.043 Cl
ENDBRANCH   6   8
TORSDOF 1
ENDMDL
MODEL 9
REMARK VINA RESULT:       0.2      1.410      2.790
REMARK  1 active torsions:
REMARK  status: ('A' for Active; 'I' for Inactive)
REMARK    1  A    between atoms: C5_5  and  C7_7 
ROOT
HETATM    1  C1  UNL     1     -32.463   4.796   1.458  1.00 20.00    -0.026 A 
HETATM    2  C2  UNL     1     -32.669   6.038   0.993  1.00 20.00    -0.013 A 
HETATM    3  C3  UNL     1     -33.579   5.426   3.624  1.00 20.00    -0.019 A 
HETATM    4  C4  UNL     1     -33.796   6.675   3.173  1.00 20.00    -0.071 A 
HETATM    5  C6  UNL     1     -32.861   4.367   2.838  1.00 20.00     0.054 A 
HETATM    6  C7  UNL     1     -33.308   7.121   1.814  1.00 20.00     0.123 A 
HETATM    7  C8  UNL     1     -34.570   7.678   3.983  1.00 20.00     0.044 C 
ENDROOT
BRANCH   6   8
HETATM    8  C5  UNL     1     -32.247   8.161   2.013  1.00 20.00     0.230 C 
HETATM    9  O9  UNL     1     -31.510   8.151   2.995  1.00 20.00    -0.279 OA
HETATM   10 CL10 UNL     1     -32.216   9.320   0.719  1.00 20.00    -0.043 Cl
ENDBRANCH   6   8
TORSDOF 1
ENDMDL
