MODEL 1
REMARK VINA RESULT:      -2.6      0.000      0.000
REMARK  2 active torsions:
REMARK  status: ('A' for Active; 'I' for Inactive)
REMARK    1  A    between atoms: C5_5  and  C7_7 
REMARK    2  A    between atoms: C7_7  and  O8_8 
ROOT
HETATM    1  C1  UNL     1     -33.709   7.891   3.712  1.00 20.00     0.013 C 
HETATM    2  C2  UNL     1     -33.785   5.905   2.146  1.00 20.00     0.013 C 
HETATM    3  C3  UNL     1     -32.299   8.218   3.229  1.00 20.00     0.079 C 
HETATM    4  C4  UNL     1     -32.375   6.232   1.663  1.00 20.00     0.079 C 
HETATM    5  C5  UNL     1     -34.018   6.391   3.583  1.00 20.00     0.009 C 
HETATM    6  C6  UNL     1     -32.063   7.711   1.816  1.00 20.00     0.243 C 
HETATM    7  F9  UNL     1     -32.832   8.423   0.952  1.00 20.00    -0.206 F 
HETATM    8  F10 UNL     1     -30.773   7.941   1.463  1.00 20.00    -0.206 F 
ENDROOT
BRANCH   5   9
HETATM    9  C7  UNL     1     -35.449   6.096   4.027  1.00 20.00     0.168 C 
BRANCH   9  10
HETATM   10  O8  UNL     1     -35.481   4.805   4.608  1.00 20.00    -0.400 OA
HETATM   11  H22 UNL     1     -34.825   4.263   4.138  1.00 20.00     0.209 HD
ENDBRANCH   9  10
ENDBRANCH   5   9
TORSDOF 2
ENDMDL
MODEL 2
REMARK VINA RESULT:      -2.4      3.038      4.199
REMARK  2 active torsions:
REMARK  status: ('A' for Active; 'I' for Inactive)
REMARK    1  A    between atoms: C5_5  and  C7_7 
REMARK    2  A    between atoms: C7_7  and  O8_8 
ROOT
HETATM    1  C1  UNL     1     -33.228   6.057   1.945  1.00 20.00     0.013 C 
HETATM    2  C2  UNL     1     -33.401   8.221   3.245  1.00 20.00     0.013 C 
HETATM    3  C3  UNL     1     -33.994   5.332   3.048  1.00 20.00     0.079 C 
HETATM    4  C4  UNL     1     -34.167   7.496   4.348  1.00 20.00     0.079 C 
HETATM    5  C5  UNL     1     -32.461   7.270   2.491  1.00 20.00     0.009 C 
HETATM    6  C6  UNL     1     -34.904   6.281   3.809  1.00 20.00     0.243 C 
HETATM    7  F9  UNL     1     -35.907   6.693   2.991  1.00 20.00    -0.206 F 
HETATM    8  F10 UNL     1     -35.492   5.617   4.836  1.00 20.00    -0.206 F 
ENDROOT
BRANCH   5   9
HETATM    9  C7  UNL     1     -31.742   8.007   1.362  1.00 20.00     0.168 C 
BRANCH   9  10
HETATM   10  O8  UNL     1     -32.447   9.203   1.087  1.00 20.00    -0.400 OA
HETATM   11  H22 UNL     1     -33.214   9.227   1.683  1.00 20.00     0.209 HD
ENDBRANCH   9  10
ENDBRANCH   5   9
TORSDOF 2
ENDMDL
MODEL 3
REMARK VINA RESULT:      -2.2      0.961      1.990
REMARK  2 active torsions:
REMARK  status: ('A' for Active; 'I' for Inactive)
REMARK    1  A    between atoms: C5_5  and  C7_7 
REMARK    2  A    between atoms: C7_7  and  O8_8 
ROOT
HETATM    1  C1  UNL     1     -32.899   5.490   2.233  1.00 20.00     0.013 C 
HETATM    2  C2  UNL     1     -33.844   7.196   3.845  1.00 20.00     0.013 C 
HETATM    3  C3  UNL     1     -32.590   6.603   1.235  1.00 20.00     0.079 C 
HETATM    4  C4  UNL     1     -33.534   8.309   2.847  1.00 20.00     0.079 C 
HETATM    5  C5  UNL     1     -34.085   5.854   3.139  1.00 20.00     0.009 C 
HETATM    6  C6  UNL     1     -32.379   7.934   1.935  1.00 20.00     0.243 C 
HETATM    7  F9  UNL     1     -31.233   7.879   2.664  1.00 20.00    -0.206 F 
HETATM    8  F10 UNL     1     -32.199   8.909   1.008  1.00 20.00    -0.206 F 
ENDROOT
BRANCH   5   9
HETATM    9  C7  UNL     1     -34.344   4.748   4.159  1.00 20.00     0.168 C 
BRANCH   9  10
HETATM   10  O8  UNL     1     -35.664   4.890   4.650  1.00 20.00    -0.400 OA
HETATM   11  H22 UNL     1     -36.180   4.140   4.307  1.00 20.00     0.209 HD
ENDBRANCH   9  10
ENDBRANCH   5   9
TORSDOF 2
ENDMDL
MODEL 4
REMARK VINA RESULT:      -1.1      3.238      4.060
REMARK  2 active torsions:
REMARK  status: ('A' for Active; 'I' for Inactive)
REMARK    1  A    between atoms: C5_5  and  C7_7 
REMARK    2  A    between atoms: C7_7  and  O8_8 
ROOT
HETATM    1  C1  UNL     1     -33.225   7.833   3.573  1.00 20.00     0.013 C 
HETATM    2  C2  UNL     1     -32.820   6.037   1.837  1.00 20.00     0.013 C 
HETATM    3  C3  UNL     1     -34.440   7.065   4.085  1.00 20.00     0.079 C 
HETATM    4  C4  UNL     1     -34.035   5.269   2.349  1.00 20.00     0.079 C 
HETATM    5  C5  UNL     1     -32.957   7.546   2.088  1.00 20.00     0.009 C 
HETATM    6  C6  UNL     1     -34.313   5.576   3.811  1.00 20.00     0.243 C 
HETATM    7  F9  UNL     1     -33.311   5.065   4.574  1.00 20.00    -0.206 F 
HETATM    8  F10 UNL     1     -35.451   4.946   4.198  1.00 20.00    -0.206 F 
ENDROOT
BRANCH   5   9
HETATM    9  C7  UNL     1     -31.710   8.287   1.612  1.00 20.00     0.168 C 
BRANCH   9  10
HETATM   10  O8  UNL     1     -32.099   9.247   0.647  1.00 20.00    -0.400 OA
HETATM   11  H22 UNL     1     -31.363   9.336   0.018  1.00 20.00     0.209 HD
ENDBRANCH   9  10
ENDBRANCH   5   9
TORSDOF 2
ENDMDL
MODEL 5
REMARK VINA RESULT:      -1.0      2.404      3.299
REMARK  2 active torsions:
REMARK  status: ('A' for Active; 'I' for Inactive)
REMARK    1  A    between atoms: C5_5  and  C7_7 
REMARK    2  A    between atoms: C7_7  and  O8_8 
ROOT
HETATM    1  C1  UNL     1     -32.869   5.155   3.163  1.00 20.00     0.013 C 
HETATM    2  C2  UNL     1     -34.908   4.953   4.647  1.00 20.00     0.013 C 
HETATM    3  C3  UNL     1     -33.376   6.499   2.648  1.00 20.00     0.079 C 
HETATM    4  C4  UNL     1     -35.416   6.296   4.132  1.00 20.00     0.079 C 
HETATM    5  C5  UNL     1     -34.024   4.246   3.609  1.00 20.00     0.009 C 
HETATM    6  C6  UNL     1     -34.273   7.182   3.666  1.00 20.00     0.243 C 
HETATM    7  F9  UNL     1     -33.527   7.553   4.740  1.00 20.00    -0.206 F 
HETATM    8  F10 UNL     1     -34.773   8.325   3.132  1.00 20.00    -0.206 F 
ENDROOT
BRANCH   5   9
HETATM    9  C7  UNL     1     -33.489   2.928   4.166  1.00 20.00     0.168 C 
BRANCH   9  10
HETATM   10  O8  UNL     1     -32.759   3.202   5.347  1.00 20.00    -0.400 OA
HETATM   11  H22 UNL     1     -32.077   3.856   5.116  1.00 20.00     0.209 HD
ENDBRANCH   9  10
ENDBRANCH   5   9
TORSDOF 2
ENDMDL
MODEL 6
REMARK VINA RESULT:      -0.6      2.201      2.925
REMARK  2 active torsions:
REMARK  status: ('A' for Active; 'I' for Inactive)
REMARK    1  A    between atoms: C5_5  and  C7_7 
REMARK    2  A    between atoms: C7_7  and  O8_8 
ROOT
HETATM    1  C1  UNL     1     -33.857   5.942   3.526  1.00 20.00     0.013 C 
HETATM    2  C2  UNL     1     -32.421   7.837   2.662  1.00 20.00     0.013 C 
HETATM    3  C3  UNL     1     -33.751   5.244   2.173  1.00 20.00     0.079 C 
HETATM    4  C4  UNL     1     -32.315   7.140   1.309  1.00 20.00     0.079 C 
HETATM    5  C5  UNL     1     -33.721   7.466   3.390  1.00 20.00     0.009 C 
HETATM    6  C6  UNL     1     -32.477   5.635   1.443  1.00 20.00     0.243 C 
HETATM    7  F9  UNL     1     -31.408   5.127   2.109  1.00 20.00    -0.206 F 
HETATM    8  F10 UNL     1     -32.470   5.067   0.211  1.00 20.00    -0.206 F 
ENDROOT
BRANCH   5   9
HETATM    9  C7  UNL     1     -33.781   8.137   4.761  1.00 20.00     0.168 C 
BRANCH   9  10
HETATM   10  O8  UNL     1     -32.459   8.410   5.186  1.00 20.00    -0.400 OA
HETATM   11  H22 UNL     1     -32.039   7.554   5.381  1.00 20.00     0.209 HD
ENDBRANCH   9  10
ENDBRANCH   5   9
TORSDOF 2
ENDMDL
MODEL 7
REMARK VINA RESULT:      -0.5      2.520      3.437
REMARK  2 active torsions:
REMARK  status: ('A' for Active; 'I' for Inactive)
REMARK    1  A    between atoms: C5_5  and  C7_7 
REMARK    2  A    between atoms: C7_7  and  O8_8 
ROOT
HETATM    1  C1  UNL     1     -32.160   7.341   1.908  1.00 20.00     0.013 C 
HETATM    2  C2  UNL     1     -33.508   5.465   2.941  1.00 20.00     0.013 C 
HETATM    3  C3  UNL     1     -33.057   8.366   2.598  1.00 20.00     0.079 C 
HETATM    4  C4  UNL     1     -34.404   6.490   3.631  1.00 20.00     0.079 C 
HETATM    5  C5  UNL     1     -32.904   6.023   1.645  1.00 20.00     0.009 C 
HETATM    6  C6  UNL     1     -33.674   7.801   3.866  1.00 20.00     0.243 C 
HETATM    7  F9  UNL     1     -32.697   7.610   4.791  1.00 20.00    -0.206 F 
HETATM    8  F10 UNL     1     -34.532   8.710   4.394  1.00 20.00    -0.206 F 
ENDROOT
BRANCH   5   9
HETATM    9  C7  UNL     1     -31.973   4.998   0.999  1.00 20.00     0.168 C 
BRANCH   9  10
HETATM   10  O8  UNL     1     -32.702   4.287   0.015  1.00 20.00    -0.400 OA
HETATM   11  H22 UNL     1     -33.585   4.692  -0.035  1.00 20.00     0.209 HD
ENDBRANCH   9  10
ENDBRANCH   5   9
TORSDOF 2
ENDMDL
MODEL 8
REMARK VINA RESULT:      -0.5      3.021      4.172
REMARK  2 active torsions:
REMARK  status: ('A' for Active; 'I' for Inactive)
REMARK    1  A    between atoms: C5_5  and  C7_7 
REMARK    2  A    between atoms: C7_7  and  O8_8 
ROOT
HETATM    1  C1  UNL     1     -33.590   5.251   2.475  1.00 20.00     0.013 C 
HETATM    2  C2  UNL     1     -33.498   7.731   2.967  1.00 20.00     0.013 C 
HETATM    3  C3  UNL     1     -34.394   5.027   3.753  1.00 20.00     0.079 C 
HETATM    4  C4  UNL     1     -34.302   7.507   4.245  1.00 20.00     0.079 C 
HETATM    5  C5  UNL     1     -32.684   6.487   2.585  1.00 20.00     0.009 C 
HETATM    6  C6  UNL     1     -35.177   6.269   4.143  1.00 20.00     0.243 C 
HETATM    7  F9  UNL     1     -36.155   6.486   3.227  1.00 20.00    -0.206 F 
HETATM    8  F10 UNL     1     -35.800   6.056   5.330  1.00 20.00    -0.206 F 
ENDROOT
BRANCH   5   9
HETATM    9  C7  UNL     1     -31.927   6.718   1.278  1.00 20.00     0.168 C 
BRANCH   9  10
HETATM   10  O8  UNL     1     -31.633   5.459   0.701  1.00 20.00    -0.400 OA
HETATM   11  H22 UNL     1     -30.665   5.374   0.679  1.00 20.00     0.209 HD
ENDBRANCH   9  10
ENDBRANCH   5   9
TORSDOF 2
ENDMDL
MODEL 9
REMARK VINA RESULT:      -0.4      2.128      2.469
REMARK  2 active torsions:
REMARK  status: ('A' for Active; 'I' for Inactive)
REMARK    1  A    between atoms: C5_5  and  C7_7 
REMARK    2  A    between atoms: C7_7  and  O8_8 
ROOT
HETATM    1  C1  UNL     1     -32.791   7.849   2.273  1.00 20.00     0.013 C 
HETATM    2  C2  UNL     1     -33.984   5.830   3.225  1.00 20.00     0.013 C 
HETATM    3  C3  UNL     1     -31.881   6.930   1.463  1.00 20.00     0.079 C 
HETATM    4  C4  UNL     1     -33.074   4.911   2.414  1.00 20.00     0.079 C 
HETATM    5  C5  UNL     1     -33.295   7.163   3.552  1.00 20.00     0.009 C 
HETATM    6  C6  UNL     1     -32.556   5.602   1.164  1.00 20.00     0.243 C 
HETATM    7  F9  UNL     1     -33.589   5.809   0.306  1.00 20.00    -0.206 F 
HETATM    8  F10 UNL     1     -31.682   4.785   0.524  1.00 20.00    -0.206 F 
ENDROOT
BRANCH   5   9
HETATM    9  C7  UNL     1     -34.241   8.084   4.321  1.00 20.00     0.168 C 
BRANCH   9  10
HETATM   10  O8  UNL     1     -33.606   8.476   5.523  1.00 20.00    -0.400 OA
HETATM   11  H22 UNL     1     -32.668   8.232   5.445  1.00 20.00     0.209 HD
ENDBRANCH   9  10
ENDBRANCH   5   9
TORSDOF 2
ENDMDL
