MODEL 1
REMARK VINA RESULT:      -0.5      0.000      0.000
REMARK  1 active torsions:
REMARK  status: ('A' for Active; 'I' for Inactive)
REMARK    1  A    between atoms: C1_1  and  C3_3 
ROOT
HETATM    1  C1  UNL     1     -32.640   7.183   2.013  1.00 20.00    -0.007 C 
HETATM    2  C2  UNL     1     -32.536   5.871   1.753  1.00 20.00    -0.016 C 
HETATM    3  C4  UNL     1     -33.701   7.578   2.997  1.00 20.00     0.058 C 
HETATM    4  C5  UNL     1     -34.079   6.319   3.785  1.00 20.00     0.052 C 
HETATM    5  C6  UNL     1     -31.610   5.162   0.821  1.00 20.00     0.056 C 
HETATM    6  C7  UNL     1     -35.534   6.303   4.218  1.00 20.00     0.022 C 
HETATM    7  S9  UNL     1     -33.693   4.926   2.665  1.00 20.00    -0.129 SA
ENDROOT
BRANCH   1   8
HETATM    8  C3  UNL     1     -31.813   8.222   1.403  1.00 20.00     0.266 C 
HETATM    9  O8  UNL     1     -32.289   9.199   0.835  1.00 20.00    -0.302 OA
ENDBRANCH   1   8
TORSDOF 1
ENDMDL
MODEL 2
REMARK VINA RESULT:       0.2      2.664      4.198
REMARK  1 active torsions:
REMARK  status: ('A' for Active; 'I' for Inactive)
REMARK    1  A    between atoms: C1_1  and  C3_3 
ROOT
HETATM    1  C1  UNL     1     -33.536   5.492   2.912  1.00 20.00    -0.007 C 
HETATM    2  C2  UNL     1     -34.293   6.427   3.506  1.00 20.00    -0.016 C 
HETATM    3  C4  UNL     1     -32.493   5.996   1.960  1.00 20.00     0.058 C 
HETATM    4  C5  UNL     1     -32.274   7.481   2.273  1.00 20.00     0.052 C 
HETATM    5  C6  UNL     1     -35.415   6.258   4.476  1.00 20.00     0.056 C 
HETATM    6  C7  UNL     1     -31.904   8.299   1.048  1.00 20.00     0.022 C 
HETATM    7  S9  UNL     1     -33.848   8.046   3.013  1.00 20.00    -0.129 SA
ENDROOT
BRANCH   1   8
HETATM    8  C3  UNL     1     -33.672   4.052   3.120  1.00 20.00     0.266 C 
HETATM    9  O8  UNL     1     -33.873   3.558   4.225  1.00 20.00    -0.302 OA
ENDBRANCH   1   8
TORSDOF 1
ENDMDL
MODEL 3
REMARK VINA RESULT:       0.2      2.677      4.236
REMARK  1 active torsions:
REMARK  status: ('A' for Active; 'I' for Inactive)
REMARK    1  A    between atoms: C1_1  and  C3_3 
ROOT
HETATM    1  C1  UNL     1     -34.222   6.242   3.444  1.00 20.00    -0.007 C 
HETATM    2  C2  UNL     1     -33.535   7.386   3.587  1.00 20.00    -0.016 C 
HETATM    3  C4  UNL     1     -33.777   5.342   2.331  1.00 20.00     0.058 C 
HETATM    4  C5  UNL     1     -32.356   5.769   1.943  1.00 20.00     0.052 C 
HETATM    5  C6  UNL     1     -33.734   8.491   4.571  1.00 20.00     0.056 C 
HETATM    6  C7  UNL     1     -32.053   5.558   0.470  1.00 20.00     0.022 C 
HETATM    7  S9  UNL     1     -32.248   7.533   2.410  1.00 20.00    -0.129 SA
ENDROOT
BRANCH   1   8
HETATM    8  C3  UNL     1     -35.353   5.839   4.276  1.00 20.00     0.266 C 
HETATM    9  O8  UNL     1     -35.482   4.701   4.714  1.00 20.00    -0.302 OA
ENDBRANCH   1   8
TORSDOF 1
ENDMDL
MODEL 4
REMARK VINA RESULT:       0.3      1.998      2.627
REMARK  1 active torsions:
REMARK  status: ('A' for Active; 'I' for Inactive)
REMARK    1  A    between atoms: C1_1  and  C3_3 
ROOT
HETATM    1  C1  UNL     1     -32.856   6.013   2.031  1.00 20.00    -0.007 C 
HETATM    2  C2  UNL     1     -32.754   7.293   2.421  1.00 20.00    -0.016 C 
HETATM    3  C4  UNL     1     -33.859   5.177   2.770  1.00 20.00     0.058 C 
HETATM    4  C5  UNL     1     -34.823   6.141   3.470  1.00 20.00     0.052 C 
HETATM    5  C6  UNL     1     -31.851   8.367   1.912  1.00 20.00     0.056 C 
HETATM    6  C7  UNL     1     -35.363   5.595   4.781  1.00 20.00     0.022 C 
HETATM    7  S9  UNL     1     -33.860   7.675   3.723  1.00 20.00    -0.129 SA
ENDROOT
BRANCH   1   8
HETATM    8  C3  UNL     1     -32.062   5.399   0.970  1.00 20.00     0.266 C 
HETATM    9  O8  UNL     1     -32.500   4.514   0.241  1.00 20.00    -0.302 OA
ENDBRANCH   1   8
TORSDOF 1
ENDMDL
MODEL 5
REMARK VINA RESULT:       0.5      2.542      3.760
REMARK  1 active torsions:
REMARK  status: ('A' for Active; 'I' for Inactive)
REMARK    1  A    between atoms: C1_1  and  C3_3 
ROOT
HETATM    1  C1  UNL     1     -34.145   6.174   3.467  1.00 20.00    -0.007 C 
HETATM    2  C2  UNL     1     -33.411   5.116   3.091  1.00 20.00    -0.016 C 
HETATM    3  C4  UNL     1     -33.725   7.500   2.907  1.00 20.00     0.058 C 
HETATM    4  C5  UNL     1     -32.839   7.217   1.688  1.00 20.00     0.052 C 
HETATM    5  C6  UNL     1     -33.552   3.682   3.480  1.00 20.00     0.056 C 
HETATM    6  C7  UNL     1     -31.764   8.268   1.477  1.00 20.00     0.022 C 
HETATM    7  S9  UNL     1     -32.118   5.566   2.000  1.00 20.00    -0.129 SA
ENDROOT
BRANCH   1   8
HETATM    8  C3  UNL     1     -35.289   6.116   4.374  1.00 20.00     0.266 C 
HETATM    9  O8  UNL     1     -35.788   5.058   4.746  1.00 20.00    -0.302 OA
ENDBRANCH   1   8
TORSDOF 1
ENDMDL
MODEL 6
REMARK VINA RESULT:       0.6      1.949      2.929
REMARK  1 active torsions:
REMARK  status: ('A' for Active; 'I' for Inactive)
REMARK    1  A    between atoms: C1_1  and  C3_3 
ROOT
HETATM    1  C1  UNL     1     -33.273   6.065   2.724  1.00 20.00    -0.007 C 
HETATM    2  C2  UNL     1     -34.303   6.448   3.494  1.00 20.00    -0.016 C 
HETATM    3  C4  UNL     1     -32.761   4.674   2.953  1.00 20.00     0.058 C 
HETATM    4  C5  UNL     1     -33.859   3.905   3.697  1.00 20.00     0.052 C 
HETATM    5  C6  UNL     1     -35.021   7.757   3.530  1.00 20.00     0.056 C 
HETATM    6  C7  UNL     1     -33.309   2.850   4.641  1.00 20.00     0.022 C 
HETATM    7  S9  UNL     1     -34.809   5.184   4.593  1.00 20.00    -0.129 SA
ENDROOT
BRANCH   1   8
HETATM    8  C3  UNL     1     -32.630   6.903   1.715  1.00 20.00     0.266 C 
HETATM    9  O8  UNL     1     -32.000   7.917   1.997  1.00 20.00    -0.302 OA
ENDBRANCH   1   8
TORSDOF 1
ENDMDL
MODEL 7
REMARK VINA RESULT:       0.7      1.094      2.953
REMARK  1 active torsions:
REMARK  status: ('A' for Active; 'I' for Inactive)
REMARK    1  A    between atoms: C1_1  and  C3_3 
ROOT
HETATM    1  C1  UNL     1     -32.579   7.867   2.018  1.00 20.00    -0.007 C 
HETATM    2  C2  UNL     1     -33.300   7.285   2.989  1.00 20.00    -0.016 C 
HETATM    3  C4  UNL     1     -31.883   6.940   1.068  1.00 20.00     0.058 C 
HETATM    4  C5  UNL     1     -32.560   5.570   1.194  1.00 20.00     0.052 C 
HETATM    5  C6  UNL     1     -34.085   7.915   4.091  1.00 20.00     0.056 C 
HETATM    6  C7  UNL     1     -31.608   4.412   0.955  1.00 20.00     0.022 C 
HETATM    7  S9  UNL     1     -33.252   5.538   2.886  1.00 20.00    -0.129 SA
ENDROOT
BRANCH   1   8
HETATM    8  C3  UNL     1     -32.426   9.310   1.845  1.00 20.00     0.266 C 
HETATM    9  O8  UNL     1     -32.461   9.854   0.746  1.00 20.00    -0.302 OA
ENDBRANCH   1   8
TORSDOF 1
ENDMDL
MODEL 8
REMARK VINA RESULT:       1.0      2.228      3.503
REMARK  1 active torsions:
REMARK  status: ('A' for Active; 'I' for Inactive)
REMARK    1  A    between atoms: C1_1  and  C3_3 
ROOT
HETATM    1  C1  UNL     1     -33.510   7.208   3.451  1.00 20.00    -0.007 C 
HETATM    2  C2  UNL     1     -33.466   5.958   2.964  1.00 20.00    -0.016 C 
HETATM    3  C4  UNL     1     -32.762   8.246   2.668  1.00 20.00     0.058 C 
HETATM    4  C5  UNL     1     -32.526   7.673   1.266  1.00 20.00     0.052 C 
HETATM    5  C6  UNL     1     -34.079   4.710   3.507  1.00 20.00     0.056 C 
HETATM    6  C7  UNL     1     -31.233   8.158   0.635  1.00 20.00     0.022 C 
HETATM    7  S9  UNL     1     -32.530   5.858   1.489  1.00 20.00    -0.129 SA
ENDROOT
BRANCH   1   8
HETATM    8  C3  UNL     1     -34.211   7.604   4.669  1.00 20.00     0.266 C 
HETATM    9  O8  UNL     1     -33.720   8.360   5.501  1.00 20.00    -0.302 OA
ENDBRANCH   1   8
TORSDOF 1
ENDMDL
MODEL 9
REMARK VINA RESULT:       1.1      2.871      3.475
REMARK  1 active torsions:
REMARK  status: ('A' for Active; 'I' for Inactive)
REMARK    1  A    between atoms: C1_1  and  C3_3 
ROOT
HETATM    1  C1  UNL     1     -33.603   5.163   3.248  1.00 20.00    -0.007 C 
HETATM    2  C2  UNL     1     -32.936   5.744   2.239  1.00 20.00    -0.016 C 
HETATM    3  C4  UNL     1     -34.125   6.085   4.309  1.00 20.00     0.058 C 
HETATM    4  C5  UNL     1     -34.147   7.497   3.711  1.00 20.00     0.052 C 
HETATM    5  C6  UNL     1     -32.282   5.116   1.053  1.00 20.00     0.056 C 
HETATM    6  C7  UNL     1     -33.896   8.583   4.742  1.00 20.00     0.022 C 
HETATM    7  S9  UNL     1     -32.855   7.483   2.417  1.00 20.00    -0.129 SA
ENDROOT
BRANCH   1   8
HETATM    8  C3  UNL     1     -33.832   3.726   3.379  1.00 20.00     0.266 C 
HETATM    9  O8  UNL     1     -33.780   3.142   4.456  1.00 20.00    -0.302 OA
ENDBRANCH   1   8
TORSDOF 1
ENDMDL
