MODEL 1
REMARK VINA RESULT:       0.6      0.000      0.000
REMARK  1 active torsions:
REMARK  status: ('A' for Active; 'I' for Inactive)
REMARK    1  A    between atoms: C4_4  and  C10_10 
ROOT
HETATM    1  C1  UNL     1     -31.303   6.997   1.614  1.00 20.00     0.174 C 
HETATM    2  C2  UNL     1     -31.549   8.460   1.721  1.00 20.00     0.025 A 
HETATM    3  C3  UNL     1     -32.973   8.628   2.095  1.00 20.00     0.030 A 
HETATM    4  C4  UNL     1     -33.557   7.254   2.198  1.00 20.00     0.130 C 
HETATM    5  C5  UNL     1     -32.470   9.235   0.797  1.00 20.00    -0.035 A 
HETATM    6  C6  UNL     1     -32.299  10.735   0.764  1.00 20.00     0.016 C 
HETATM    7  C7  UNL     1     -32.885   8.656  -0.530  1.00 20.00     0.016 C 
HETATM    8  O11 UNL     1     -32.584   6.341   1.653  1.00 20.00    -0.385 OA
ENDROOT
BRANCH   4   9
HETATM    9  C10 UNL     1     -33.841   6.851   3.638  1.00 20.00     0.007 C 
HETATM   10  C8  UNL     1     -33.626   8.034   4.584  1.00 20.00     0.012 C 
HETATM   11  C9  UNL     1     -35.263   6.309   3.778  1.00 20.00     0.012 C 
ENDBRANCH   4   9
TORSDOF 1
ENDMDL
MODEL 2
REMARK VINA RESULT:       0.7      0.997      4.001
REMARK  1 active torsions:
REMARK  status: ('A' for Active; 'I' for Inactive)
REMARK    1  A    between atoms: C4_4  and  C10_10 
ROOT
HETATM    1  C1  UNL     1     -31.833   6.351   1.895  1.00 20.00     0.174 C 
HETATM    2  C2  UNL     1     -33.285   6.434   2.208  1.00 20.00     0.025 A 
HETATM    3  C3  UNL     1     -33.657   7.867   2.130  1.00 20.00     0.030 A 
HETATM    4  C4  UNL     1     -32.412   8.618   1.777  1.00 20.00     0.130 C 
HETATM    5  C5  UNL     1     -33.850   7.120   3.438  1.00 20.00    -0.035 A 
HETATM    6  C6  UNL     1     -35.266   6.770   3.825  1.00 20.00     0.016 C 
HETATM    7  C7  UNL     1     -32.966   7.412   4.623  1.00 20.00     0.016 C 
HETATM    8  O11 UNL     1     -31.313   7.693   1.903  1.00 20.00    -0.385 OA
ENDROOT
BRANCH   4   9
HETATM    9  C10 UNL     1     -32.437   9.144   0.349  1.00 20.00     0.007 C 
HETATM   10  C8  UNL     1     -32.802  10.629   0.325  1.00 20.00     0.012 C 
HETATM   11  C9  UNL     1     -31.090   8.917  -0.335  1.00 20.00     0.012 C 
ENDBRANCH   4   9
TORSDOF 1
ENDMDL
MODEL 3
REMARK VINA RESULT:       1.2      1.674      3.157
REMARK  1 active torsions:
REMARK  status: ('A' for Active; 'I' for Inactive)
REMARK    1  A    between atoms: C4_4  and  C10_10 
ROOT
HETATM    1  C1  UNL     1     -32.133   7.979   1.416  1.00 20.00     0.174 C 
HETATM    2  C2  UNL     1     -32.847   6.821   0.813  1.00 20.00     0.025 A 
HETATM    3  C3  UNL     1     -33.429   6.047   1.936  1.00 20.00     0.030 A 
HETATM    4  C4  UNL     1     -33.043   6.757   3.196  1.00 20.00     0.130 C 
HETATM    5  C5  UNL     1     -32.432   5.374   1.008  1.00 20.00    -0.035 A 
HETATM    6  C6  UNL     1     -32.981   4.368   0.026  1.00 20.00     0.016 C 
HETATM    7  C7  UNL     1     -31.046   5.036   1.492  1.00 20.00     0.016 C 
HETATM    8  O11 UNL     1     -32.063   7.750   2.836  1.00 20.00    -0.385 OA
ENDROOT
BRANCH   4   9
HETATM    9  C10 UNL     1     -34.225   7.461   3.848  1.00 20.00     0.007 C 
HETATM   10  C8  UNL     1     -35.362   6.475   4.118  1.00 20.00     0.012 C 
HETATM   11  C9  UNL     1     -33.796   8.146   5.146  1.00 20.00     0.012 C 
ENDBRANCH   4   9
TORSDOF 1
ENDMDL
MODEL 4
REMARK VINA RESULT:       1.5      0.654      1.140
REMARK  1 active torsions:
REMARK  status: ('A' for Active; 'I' for Inactive)
REMARK    1  A    between atoms: C4_4  and  C10_10 
ROOT
HETATM    1  C1  UNL     1     -31.250   7.163   1.767  1.00 20.00     0.174 C 
HETATM    2  C2  UNL     1     -31.725   8.571   1.858  1.00 20.00     0.025 A 
HETATM    3  C3  UNL     1     -33.207   8.522   1.862  1.00 20.00     0.030 A 
HETATM    4  C4  UNL     1     -33.592   7.079   1.765  1.00 20.00     0.130 C 
HETATM    5  C5  UNL     1     -32.491   9.280   0.757  1.00 20.00    -0.035 A 
HETATM    6  C6  UNL     1     -32.538  10.788   0.820  1.00 20.00     0.016 C 
HETATM    7  C7  UNL     1     -32.476   8.745  -0.651  1.00 20.00     0.016 C 
HETATM    8  O11 UNL     1     -32.392   6.343   1.455  1.00 20.00    -0.385 OA
ENDROOT
BRANCH   4   9
HETATM    9  C10 UNL     1     -34.161   6.543   3.070  1.00 20.00     0.007 C 
HETATM   10  C8  UNL     1     -33.552   5.182   3.410  1.00 20.00     0.012 C 
HETATM   11  C9  UNL     1     -33.923   7.532   4.211  1.00 20.00     0.012 C 
ENDBRANCH   4   9
TORSDOF 1
ENDMDL
MODEL 5
REMARK VINA RESULT:       1.6      1.091      1.406
REMARK  1 active torsions:
REMARK  status: ('A' for Active; 'I' for Inactive)
REMARK    1  A    between atoms: C4_4  and  C10_10 
ROOT
HETATM    1  C1  UNL     1     -31.635   5.831   1.372  1.00 20.00     0.174 C 
HETATM    2  C2  UNL     1     -31.544   7.277   1.712  1.00 20.00     0.025 A 
HETATM    3  C3  UNL     1     -32.866   7.673   2.253  1.00 20.00     0.030 A 
HETATM    4  C4  UNL     1     -33.729   6.451   2.220  1.00 20.00     0.130 C 
HETATM    5  C5  UNL     1     -32.335   8.365   1.009  1.00 20.00    -0.035 A 
HETATM    6  C6  UNL     1     -31.841   9.782   1.172  1.00 20.00     0.016 C 
HETATM    7  C7  UNL     1     -32.962   8.106  -0.336  1.00 20.00     0.016 C 
HETATM    8  O11 UNL     1     -33.023   5.457   1.451  1.00 20.00    -0.385 OA
ENDROOT
BRANCH   4   9
HETATM    9  C10 UNL     1     -33.991   5.889   3.609  1.00 20.00     0.007 C 
HETATM   10  C8  UNL     1     -35.412   6.215   4.068  1.00 20.00     0.012 C 
HETATM   11  C9  UNL     1     -33.757   4.378   3.634  1.00 20.00     0.012 C 
ENDBRANCH   4   9
TORSDOF 1
ENDMDL
MODEL 6
REMARK VINA RESULT:       1.8      1.334      4.403
REMARK  1 active torsions:
REMARK  status: ('A' for Active; 'I' for Inactive)
REMARK    1  A    between atoms: C4_4  and  C10_10 
ROOT
HETATM    1  C1  UNL     1     -33.619   8.154   4.691  1.00 20.00     0.174 C 
HETATM    2  C2  UNL     1     -33.421   6.691   4.506  1.00 20.00     0.025 A 
HETATM    3  C3  UNL     1     -33.326   6.455   3.045  1.00 20.00     0.030 A 
HETATM    4  C4  UNL     1     -33.478   7.787   2.381  1.00 20.00     0.130 C 
HETATM    5  C5  UNL     1     -34.430   5.776   3.838  1.00 20.00    -0.035 A 
HETATM    6  C6  UNL     1     -34.282   4.295   4.089  1.00 20.00     0.016 C 
HETATM    7  C7  UNL     1     -35.864   6.209   3.676  1.00 20.00     0.016 C 
HETATM    8  O11 UNL     1     -33.903   8.717   3.397  1.00 20.00    -0.385 OA
ENDROOT
BRANCH   4   9
HETATM    9  C10 UNL     1     -32.171   8.290   1.786  1.00 20.00     0.007 C 
HETATM   10  C8  UNL     1     -31.340   7.127   1.242  1.00 20.00     0.012 C 
HETATM   11  C9  UNL     1     -32.437   9.314   0.682  1.00 20.00     0.012 C 
ENDBRANCH   4   9
TORSDOF 1
ENDMDL
MODEL 7
REMARK VINA RESULT:       1.9      1.550      4.427
REMARK  1 active torsions:
REMARK  status: ('A' for Active; 'I' for Inactive)
REMARK    1  A    between atoms: C4_4  and  C10_10 
ROOT
HETATM    1  C1  UNL     1     -33.664   8.328   4.028  1.00 20.00     0.174 C 
HETATM    2  C2  UNL     1     -33.952   6.930   4.447  1.00 20.00     0.025 A 
HETATM    3  C3  UNL     1     -33.766   6.079   3.247  1.00 20.00     0.030 A 
HETATM    4  C4  UNL     1     -33.375   6.991   2.127  1.00 20.00     0.130 C 
HETATM    5  C5  UNL     1     -35.123   6.114   3.930  1.00 20.00    -0.035 A 
HETATM    6  C6  UNL     1     -35.517   4.899   4.734  1.00 20.00     0.016 C 
HETATM    7  C7  UNL     1     -36.293   6.793   3.267  1.00 20.00     0.016 C 
HETATM    8  O11 UNL     1     -33.580   8.340   2.591  1.00 20.00    -0.385 OA
ENDROOT
BRANCH   4   9
HETATM    9  C10 UNL     1     -31.913   6.833   1.736  1.00 20.00     0.007 C 
HETATM   10  C8  UNL     1     -31.688   5.514   0.997  1.00 20.00     0.012 C 
HETATM   11  C9  UNL     1     -31.453   8.010   0.875  1.00 20.00     0.012 C 
ENDBRANCH   4   9
TORSDOF 1
ENDMDL
MODEL 8
REMARK VINA RESULT:       2.3      1.220      3.992
REMARK  1 active torsions:
REMARK  status: ('A' for Active; 'I' for Inactive)
REMARK    1  A    between atoms: C4_4  and  C10_10 
ROOT
HETATM    1  C1  UNL     1     -33.050   5.715   0.861  1.00 20.00     0.174 C 
HETATM    2  C2  UNL     1     -34.099   6.245   1.774  1.00 20.00     0.025 A 
HETATM    3  C3  UNL     1     -33.442   7.255   2.638  1.00 20.00     0.030 A 
HETATM    4  C4  UNL     1     -32.003   7.304   2.228  1.00 20.00     0.130 C 
HETATM    5  C5  UNL     1     -34.096   6.043   3.277  1.00 20.00    -0.035 A 
HETATM    6  C6  UNL     1     -35.402   6.270   4.000  1.00 20.00     0.016 C 
HETATM    7  C7  UNL     1     -33.254   4.960   3.901  1.00 20.00     0.016 C 
HETATM    8  O11 UNL     1     -31.779   6.186   1.345  1.00 20.00    -0.385 OA
ENDROOT
BRANCH   4   9
HETATM    9  C10 UNL     1     -31.657   8.584   1.481  1.00 20.00     0.007 C 
HETATM   10  C8  UNL     1     -31.151   8.270   0.073  1.00 20.00     0.012 C 
HETATM   11  C9  UNL     1     -32.866   9.516   1.416  1.00 20.00     0.012 C 
ENDBRANCH   4   9
TORSDOF 1
ENDMDL
MODEL 9
REMARK VINA RESULT:       2.3      1.695      2.812
REMARK  1 active torsions:
REMARK  status: ('A' for Active; 'I' for Inactive)
REMARK    1  A    between atoms: C4_4  and  C10_10 
ROOT
HETATM    1  C1  UNL     1     -34.240   8.198   3.745  1.00 20.00     0.174 C 
HETATM    2  C2  UNL     1     -33.709   8.055   2.362  1.00 20.00     0.025 A 
HETATM    3  C3  UNL     1     -33.077   6.716   2.284  1.00 20.00     0.030 A 
HETATM    4  C4  UNL     1     -33.236   6.085   3.631  1.00 20.00     0.130 C 
HETATM    5  C5  UNL     1     -32.233   7.953   2.027  1.00 20.00    -0.035 A 
HETATM    6  C6  UNL     1     -31.837   8.227   0.597  1.00 20.00     0.016 C 
HETATM    7  C7  UNL     1     -31.192   8.389   3.025  1.00 20.00     0.016 C 
HETATM    8  O11 UNL     1     -33.707   7.112   4.526  1.00 20.00    -0.385 OA
ENDROOT
BRANCH   4   9
HETATM    9  C10 UNL     1     -34.251   4.951   3.623  1.00 20.00     0.007 C 
HETATM   10  C8  UNL     1     -33.631   3.664   4.167  1.00 20.00     0.012 C 
HETATM   11  C9  UNL     1     -35.490   5.329   4.434  1.00 20.00     0.012 C 
ENDBRANCH   4   9
TORSDOF 1
ENDMDL
