MODEL 1
REMARK VINA RESULT:       1.8      0.000      0.000
REMARK  1 active torsions:
REMARK  status: ('A' for Active; 'I' for Inactive)
REMARK    1  A    between atoms: C3_3  and  C8_8 
ROOT
HETATM    1  C1  UNL     1     -31.570   6.798   1.667  1.00 20.00    -0.025 C 
HETATM    2  C2  UNL     1     -32.365   7.870   1.803  1.00 20.00    -0.024 C 
HETATM    3  C4  UNL     1     -33.703   6.124   1.131  1.00 20.00     0.018 C 
HETATM    4  C5  UNL     1     -32.443   5.571   1.803  1.00 20.00     0.013 C 
HETATM    5  C6  UNL     1     -33.768   7.359   2.044  1.00 20.00     0.024 C 
HETATM    6  C7  UNL     1     -32.879   5.462   3.295  1.00 20.00     0.005 C 
HETATM    7  C8  UNL     1     -33.855   6.694   3.455  1.00 20.00     0.027 C 
HETATM    8  C10 UNL     1     -33.484   4.094   3.605  1.00 20.00     0.012 C 
HETATM    9  C11 UNL     1     -33.428   7.620   4.598  1.00 20.00     0.024 C 
ENDROOT
BRANCH   7  10
HETATM   10  C3  UNL     1     -35.286   6.299   3.735  1.00 20.00     0.132 C 
HETATM   11  C9  UNL     1     -35.502   5.220   4.762  1.00 20.00     0.091 C 
HETATM   12  O12 UNL     1     -36.229   6.835   3.155  1.00 20.00    -0.298 OA
ENDBRANCH   7  10
TORSDOF 1
ENDMDL
MODEL 2
REMARK VINA RESULT:       2.5      0.823      1.031
REMARK  1 active torsions:
REMARK  status: ('A' for Active; 'I' for Inactive)
REMARK    1  A    between atoms: C3_3  and  C8_8 
ROOT
HETATM    1  C1  UNL     1     -31.744   7.260   1.727  1.00 20.00    -0.025 C 
HETATM    2  C2  UNL     1     -32.585   8.270   1.996  1.00 20.00    -0.024 C 
HETATM    3  C4  UNL     1     -33.858   6.535   1.180  1.00 20.00     0.018 C 
HETATM    4  C5  UNL     1     -32.551   5.982   1.757  1.00 20.00     0.013 C 
HETATM    5  C6  UNL     1     -33.953   7.664   2.219  1.00 20.00     0.024 C 
HETATM    6  C7  UNL     1     -32.934   5.696   3.240  1.00 20.00     0.005 C 
HETATM    7  C8  UNL     1     -33.963   6.853   3.555  1.00 20.00     0.027 C 
HETATM    8  C10 UNL     1     -33.462   4.275   3.421  1.00 20.00     0.012 C 
HETATM    9  C11 UNL     1     -33.545   7.677   4.777  1.00 20.00     0.024 C 
ENDROOT
BRANCH   7  10
HETATM   10  C3  UNL     1     -35.363   6.358   3.830  1.00 20.00     0.132 C 
HETATM   11  C9  UNL     1     -36.447   6.844   2.906  1.00 20.00     0.091 C 
HETATM   12  O12 UNL     1     -35.605   5.592   4.762  1.00 20.00    -0.298 OA
ENDBRANCH   7  10
TORSDOF 1
ENDMDL
MODEL 3
REMARK VINA RESULT:       3.0      1.640      3.312
REMARK  1 active torsions:
REMARK  status: ('A' for Active; 'I' for Inactive)
REMARK    1  A    between atoms: C3_3  and  C8_8 
ROOT
HETATM    1  C1  UNL     1     -32.620   9.546   1.244  1.00 20.00    -0.025 C 
HETATM    2  C2  UNL     1     -32.023   8.727   0.366  1.00 20.00    -0.024 C 
HETATM    3  C4  UNL     1     -31.321   8.090   2.462  1.00 20.00     0.018 C 
HETATM    4  C5  UNL     1     -32.658   8.829   2.574  1.00 20.00     0.013 C 
HETATM    5  C6  UNL     1     -31.672   7.456   1.107  1.00 20.00     0.024 C 
HETATM    6  C7  UNL     1     -33.692   7.668   2.460  1.00 20.00     0.005 C 
HETATM    7  C8  UNL     1     -32.976   6.673   1.463  1.00 20.00     0.027 C 
HETATM    8  C10 UNL     1     -34.045   7.093   3.830  1.00 20.00     0.012 C 
HETATM    9  C11 UNL     1     -33.851   6.350   0.247  1.00 20.00     0.024 C 
ENDROOT
BRANCH   7  10
HETATM   10  C3  UNL     1     -32.610   5.348   2.092  1.00 20.00     0.132 C 
HETATM   11  C9  UNL     1     -31.405   4.643   1.530  1.00 20.00     0.091 C 
HETATM   12  O12 UNL     1     -33.263   4.871   3.019  1.00 20.00    -0.298 OA
ENDBRANCH   7  10
TORSDOF 1
ENDMDL
MODEL 4
REMARK VINA RESULT:       3.2      1.446      2.355
REMARK  1 active torsions:
REMARK  status: ('A' for Active; 'I' for Inactive)
REMARK    1  A    between atoms: C3_3  and  C8_8 
ROOT
HETATM    1  C1  UNL     1     -32.523   8.437   1.252  1.00 20.00    -0.025 C 
HETATM    2  C2  UNL     1     -33.163   7.412   0.671  1.00 20.00    -0.024 C 
HETATM    3  C4  UNL     1     -31.774   6.515   2.270  1.00 20.00     0.018 C 
HETATM    4  C5  UNL     1     -32.083   7.973   2.622  1.00 20.00     0.013 C 
HETATM    5  C6  UNL     1     -33.162   6.266   1.658  1.00 20.00     0.024 C 
HETATM    6  C7  UNL     1     -33.355   7.840   3.511  1.00 20.00     0.005 C 
HETATM    7  C8  UNL     1     -34.095   6.604   2.864  1.00 20.00     0.027 C 
HETATM    8  C10 UNL     1     -32.996   7.697   4.989  1.00 20.00     0.012 C 
HETATM    9  C11 UNL     1     -35.532   6.944   2.453  1.00 20.00     0.024 C 
ENDROOT
BRANCH   7  10
HETATM   10  C3  UNL     1     -34.183   5.405   3.780  1.00 20.00     0.132 C 
HETATM   11  C9  UNL     1     -35.392   5.323   4.673  1.00 20.00     0.091 C 
HETATM   12  O12 UNL     1     -33.312   4.537   3.793  1.00 20.00    -0.298 OA
ENDBRANCH   7  10
TORSDOF 1
ENDMDL
MODEL 5
REMARK VINA RESULT:       3.7      1.777      3.583
REMARK  1 active torsions:
REMARK  status: ('A' for Active; 'I' for Inactive)
REMARK    1  A    between atoms: C3_3  and  C8_8 
ROOT
HETATM    1  C1  UNL     1     -35.730   6.138   4.015  1.00 20.00    -0.025 C 
HETATM    2  C2  UNL     1     -35.589   7.119   3.111  1.00 20.00    -0.024 C 
HETATM    3  C4  UNL     1     -33.625   7.019   4.305  1.00 20.00     0.018 C 
HETATM    4  C5  UNL     1     -34.343   5.669   4.390  1.00 20.00     0.013 C 
HETATM    5  C6  UNL     1     -34.106   7.296   2.872  1.00 20.00     0.024 C 
HETATM    6  C7  UNL     1     -33.755   4.899   3.169  1.00 20.00     0.005 C 
HETATM    7  C8  UNL     1     -33.539   6.054   2.112  1.00 20.00     0.027 C 
HETATM    8  C10 UNL     1     -32.505   4.110   3.550  1.00 20.00     0.012 C 
HETATM    9  C11 UNL     1     -34.256   5.763   0.789  1.00 20.00     0.024 C 
ENDROOT
BRANCH   7  10
HETATM   10  C3  UNL     1     -32.088   6.295   1.769  1.00 20.00     0.132 C 
HETATM   11  C9  UNL     1     -31.605   7.719   1.832  1.00 20.00     0.091 C 
HETATM   12  O12 UNL     1     -31.336   5.372   1.457  1.00 20.00    -0.298 OA
ENDBRANCH   7  10
TORSDOF 1
ENDMDL
MODEL 6
REMARK VINA RESULT:       3.7      1.459      3.474
REMARK  1 active torsions:
REMARK  status: ('A' for Active; 'I' for Inactive)
REMARK    1  A    between atoms: C3_3  and  C8_8 
ROOT
HETATM    1  C1  UNL     1     -34.240   7.456   4.795  1.00 20.00    -0.025 C 
HETATM    2  C2  UNL     1     -34.849   6.303   4.480  1.00 20.00    -0.024 C 
HETATM    3  C4  UNL     1     -34.889   7.619   2.593  1.00 20.00     0.018 C 
HETATM    4  C5  UNL     1     -33.743   8.069   3.505  1.00 20.00     0.013 C 
HETATM    5  C6  UNL     1     -34.747   6.138   2.980  1.00 20.00     0.024 C 
HETATM    6  C7  UNL     1     -32.551   7.203   2.996  1.00 20.00     0.005 C 
HETATM    7  C8  UNL     1     -33.264   5.857   2.577  1.00 20.00     0.027 C 
HETATM    8  C10 UNL     1     -31.774   7.912   1.889  1.00 20.00     0.012 C 
HETATM    9  C11 UNL     1     -32.656   4.641   3.284  1.00 20.00     0.024 C 
ENDROOT
BRANCH   7  10
HETATM   10  C3  UNL     1     -33.193   5.571   1.095  1.00 20.00     0.132 C 
HETATM   11  C9  UNL     1     -32.000   4.790   0.613  1.00 20.00     0.091 C 
HETATM   12  O12 UNL     1     -34.068   5.956   0.321  1.00 20.00    -0.298 OA
ENDBRANCH   7  10
TORSDOF 1
ENDMDL
MODEL 7
REMARK VINA RESULT:       3.8      1.929      3.579
REMARK  1 active torsions:
REMARK  status: ('A' for Active; 'I' for Inactive)
REMARK    1  A    between atoms: C3_3  and  C8_8 
ROOT
HETATM    1  C1  UNL     1     -32.510   5.006   2.448  1.00 20.00    -0.025 C 
HETATM    2  C2  UNL     1     -31.726   5.372   1.423  1.00 20.00    -0.024 C 
HETATM    3  C4  UNL     1     -33.804   6.282   1.037  1.00 20.00     0.018 C 
HETATM    4  C5  UNL     1     -33.635   6.013   2.535  1.00 20.00     0.013 C 
HETATM    5  C6  UNL     1     -32.320   6.631   0.833  1.00 20.00     0.024 C 
HETATM    6  C7  UNL     1     -33.033   7.355   3.051  1.00 20.00     0.005 C 
HETATM    7  C8  UNL     1     -32.144   7.820   1.831  1.00 20.00     0.027 C 
HETATM    8  C10 UNL     1     -34.125   8.331   3.483  1.00 20.00     0.012 C 
HETATM    9  C11 UNL     1     -30.688   8.066   2.242  1.00 20.00     0.024 C 
ENDROOT
BRANCH   7  10
HETATM   10  C3  UNL     1     -32.627   9.095   1.182  1.00 20.00     0.132 C 
HETATM   11  C9  UNL     1     -32.263   9.300  -0.264  1.00 20.00     0.091 C 
HETATM   12  O12 UNL     1     -33.290   9.925   1.804  1.00 20.00    -0.298 OA
ENDBRANCH   7  10
TORSDOF 1
ENDMDL
MODEL 8
REMARK VINA RESULT:       4.0      1.833      3.957
REMARK  1 active torsions:
REMARK  status: ('A' for Active; 'I' for Inactive)
REMARK    1  A    between atoms: C3_3  and  C8_8 
ROOT
HETATM    1  C1  UNL     1     -34.324   6.370   4.427  1.00 20.00    -0.025 C 
HETATM    2  C2  UNL     1     -34.644   6.074   3.158  1.00 20.00    -0.024 C 
HETATM    3  C4  UNL     1     -34.661   8.368   3.338  1.00 20.00     0.018 C 
HETATM    4  C5  UNL     1     -33.772   7.777   4.436  1.00 20.00     0.013 C 
HETATM    5  C6  UNL     1     -34.292   7.281   2.316  1.00 20.00     0.024 C 
HETATM    6  C7  UNL     1     -32.372   7.742   3.750  1.00 20.00     0.005 C 
HETATM    7  C8  UNL     1     -32.739   7.442   2.244  1.00 20.00     0.027 C 
HETATM    8  C10 UNL     1     -31.594   9.033   3.997  1.00 20.00     0.012 C 
HETATM    9  C11 UNL     1     -32.016   6.199   1.713  1.00 20.00     0.024 C 
ENDROOT
BRANCH   7  10
HETATM   10  C3  UNL     1     -32.396   8.572   1.302  1.00 20.00     0.132 C 
HETATM   11  C9  UNL     1     -31.210   8.365   0.399  1.00 20.00     0.091 C 
HETATM   12  O12 UNL     1     -33.057   9.610   1.271  1.00 20.00    -0.298 OA
ENDBRANCH   7  10
TORSDOF 1
ENDMDL
MODEL 9
REMARK VINA RESULT:       4.1      1.344      2.799
REMARK  1 active torsions:
REMARK  status: ('A' for Active; 'I' for Inactive)
REMARK    1  A    between atoms: C3_3  and  C8_8 
ROOT
HETATM    1  C1  UNL     1     -33.208   8.634   2.567  1.00 20.00    -0.025 C 
HETATM    2  C2  UNL     1     -32.229   7.757   2.835  1.00 20.00    -0.024 C 
HETATM    3  C4  UNL     1     -33.691   7.695   4.610  1.00 20.00     0.018 C 
HETATM    4  C5  UNL     1     -34.419   8.215   3.368  1.00 20.00     0.013 C 
HETATM    5  C6  UNL     1     -32.792   6.743   3.806  1.00 20.00     0.024 C 
HETATM    6  C7  UNL     1     -34.978   6.905   2.734  1.00 20.00     0.005 C 
HETATM    7  C8  UNL     1     -33.855   5.852   3.085  1.00 20.00     0.027 C 
HETATM    8  C10 UNL     1     -36.376   6.580   3.256  1.00 20.00     0.012 C 
HETATM    9  C11 UNL     1     -33.319   5.145   1.836  1.00 20.00     0.024 C 
ENDROOT
BRANCH   7  10
HETATM   10  C3  UNL     1     -34.318   4.765   4.027  1.00 20.00     0.132 C 
HETATM   11  C9  UNL     1     -33.418   3.568   4.175  1.00 20.00     0.091 C 
HETATM   12  O12 UNL     1     -35.378   4.856   4.645  1.00 20.00    -0.298 OA
ENDBRANCH   7  10
TORSDOF 1
ENDMDL
