MODEL 1
REMARK VINA RESULT:      -1.6      0.000      0.000
REMARK  1 active torsions:
REMARK  status: ('A' for Active; 'I' for Inactive)
REMARK    1  A    between atoms: C3_3  and  C7_7 
ROOT
HETATM    1  C1  UNL     1     -31.953   7.775   1.520  1.00 20.00    -0.030 C 
HETATM    2  C2  UNL     1     -32.677   8.404   2.458  1.00 20.00    -0.026 C 
HETATM    3  C4  UNL     1     -31.978   6.291   1.311  1.00 20.00     0.027 C 
HETATM    4  C5  UNL     1     -32.696   5.528   2.427  1.00 20.00     0.018 C 
HETATM    5  C6  UNL     1     -33.619   7.693   3.401  1.00 20.00     0.016 C 
HETATM    6  C7  UNL     1     -33.951   6.274   2.885  1.00 20.00     0.080 C 
HETATM    7  C8  UNL     1     -33.016   7.723   4.810  1.00 20.00     0.015 C 
ENDROOT
BRANCH   6   8
HETATM    8  C3  UNL     1     -34.704   5.467   3.900  1.00 20.00     0.223 C 
HETATM    9  O9  UNL     1     -35.729   5.888   4.426  1.00 20.00    -0.279 OA
HETATM   10 CL10 UNL     1     -33.952   3.930   4.203  1.00 20.00    -0.043 Cl
ENDBRANCH   6   8
TORSDOF 1
ENDMDL
MODEL 2
REMARK VINA RESULT:      -0.9      0.746      2.191
REMARK  1 active torsions:
REMARK  status: ('A' for Active; 'I' for Inactive)
REMARK    1  A    between atoms: C3_3  and  C7_7 
ROOT
HETATM    1  C1  UNL     1     -31.810   8.009   1.769  1.00 20.00    -0.030 C 
HETATM    2  C2  UNL     1     -31.887   6.737   1.350  1.00 20.00    -0.026 C 
HETATM    3  C4  UNL     1     -32.646   8.567   2.881  1.00 20.00     0.027 C 
HETATM    4  C5  UNL     1     -33.779   7.635   3.321  1.00 20.00     0.018 C 
HETATM    5  C6  UNL     1     -32.809   5.711   1.964  1.00 20.00     0.016 C 
HETATM    6  C7  UNL     1     -33.314   6.178   3.349  1.00 20.00     0.080 C 
HETATM    7  C8  UNL     1     -33.928   5.396   0.963  1.00 20.00     0.015 C 
ENDROOT
BRANCH   6   8
HETATM    8  C3  UNL     1     -34.395   5.289   3.884  1.00 20.00     0.223 C 
HETATM    9  O9  UNL     1     -35.531   5.706   4.087  1.00 20.00    -0.279 OA
HETATM   10 CL10 UNL     1     -33.834   3.667   4.156  1.00 20.00    -0.043 Cl
ENDBRANCH   6   8
TORSDOF 1
ENDMDL
MODEL 3
REMARK VINA RESULT:      -0.7      3.094      4.291
REMARK  1 active torsions:
REMARK  status: ('A' for Active; 'I' for Inactive)
REMARK    1  A    between atoms: C3_3  and  C7_7 
ROOT
HETATM    1  C1  UNL     1     -34.582   6.418   4.019  1.00 20.00    -0.030 C 
HETATM    2  C2  UNL     1     -34.315   5.855   2.831  1.00 20.00    -0.026 C 
HETATM    3  C4  UNL     1     -33.933   7.680   4.502  1.00 20.00     0.027 C 
HETATM    4  C5  UNL     1     -32.748   8.127   3.641  1.00 20.00     0.018 C 
HETATM    5  C6  UNL     1     -33.345   6.437   1.831  1.00 20.00     0.016 C 
HETATM    6  C7  UNL     1     -33.039   7.918   2.154  1.00 20.00     0.080 C 
HETATM    7  C8  UNL     1     -32.102   5.540   1.774  1.00 20.00     0.015 C 
ENDROOT
BRANCH   6   8
HETATM    8  C3  UNL     1     -31.920   8.459   1.316  1.00 20.00     0.223 C 
HETATM    9  O9  UNL     1     -30.762   8.080   1.467  1.00 20.00    -0.279 OA
HETATM   10 CL10 UNL     1     -32.474   9.634   0.163  1.00 20.00    -0.043 Cl
ENDBRANCH   6   8
TORSDOF 1
ENDMDL
MODEL 4
REMARK VINA RESULT:      -0.4      1.220      1.220
REMARK  1 active torsions:
REMARK  status: ('A' for Active; 'I' for Inactive)
REMARK    1  A    between atoms: C3_3  and  C7_7 
ROOT
HETATM    1  C1  UNL     1     -31.952   8.006   1.387  1.00 20.00    -0.030 C 
HETATM    2  C2  UNL     1     -32.757   8.497   2.341  1.00 20.00    -0.026 C 
HETATM    3  C4  UNL     1     -31.763   6.541   1.135  1.00 20.00     0.027 C 
HETATM    4  C5  UNL     1     -32.361   5.650   2.227  1.00 20.00     0.018 C 
HETATM    5  C6  UNL     1     -33.586   7.631   3.260  1.00 20.00     0.016 C 
HETATM    6  C7  UNL     1     -33.710   6.194   2.703  1.00 20.00     0.080 C 
HETATM    7  C8  UNL     1     -32.992   7.706   4.672  1.00 20.00     0.015 C 
ENDROOT
BRANCH   6   8
HETATM    8  C3  UNL     1     -34.338   5.258   3.692  1.00 20.00     0.223 C 
HETATM    9  O9  UNL     1     -33.841   4.166   3.950  1.00 20.00    -0.279 OA
HETATM   10 CL10 UNL     1     -35.792   5.914   4.381  1.00 20.00    -0.043 Cl
ENDBRANCH   6   8
TORSDOF 1
ENDMDL
MODEL 5
REMARK VINA RESULT:      -0.2      2.404      3.351
REMARK  1 active torsions:
REMARK  status: ('A' for Active; 'I' for Inactive)
REMARK    1  A    between atoms: C3_3  and  C7_7 
ROOT
HETATM    1  C1  UNL     1     -33.865   7.956   4.413  1.00 20.00    -0.030 C 
HETATM    2  C2  UNL     1     -32.753   8.306   3.750  1.00 20.00    -0.026 C 
HETATM    3  C4  UNL     1     -34.727   6.792   4.028  1.00 20.00     0.027 C 
HETATM    4  C5  UNL     1     -34.377   6.197   2.661  1.00 20.00     0.018 C 
HETATM    5  C6  UNL     1     -32.225   7.556   2.550  1.00 20.00     0.016 C 
HETATM    6  C7  UNL     1     -32.862   6.150   2.453  1.00 20.00     0.080 C 
HETATM    7  C8  UNL     1     -32.428   8.423   1.302  1.00 20.00     0.015 C 
ENDROOT
BRANCH   6   8
HETATM    8  C3  UNL     1     -32.527   5.468   1.161  1.00 20.00     0.223 C 
HETATM    9  O9  UNL     1     -31.398   5.049   0.927  1.00 20.00    -0.279 OA
HETATM   10 CL10 UNL     1     -33.901   5.362   0.102  1.00 20.00    -0.043 Cl
ENDBRANCH   6   8
TORSDOF 1
ENDMDL
MODEL 6
REMARK VINA RESULT:      -0.1      2.408      3.401
REMARK  1 active torsions:
REMARK  status: ('A' for Active; 'I' for Inactive)
REMARK    1  A    between atoms: C3_3  and  C7_7 
ROOT
HETATM    1  C1  UNL     1     -34.318   7.754   4.238  1.00 20.00    -0.030 C 
HETATM    2  C2  UNL     1     -34.811   6.523   4.034  1.00 20.00    -0.026 C 
HETATM    3  C4  UNL     1     -33.142   8.308   3.492  1.00 20.00     0.027 C 
HETATM    4  C5  UNL     1     -32.389   7.259   2.669  1.00 20.00     0.018 C 
HETATM    5  C6  UNL     1     -34.254   5.559   3.014  1.00 20.00     0.016 C 
HETATM    6  C7  UNL     1     -33.362   6.294   1.987  1.00 20.00     0.080 C 
HETATM    7  C8  UNL     1     -33.547   4.417   3.755  1.00 20.00     0.015 C 
ENDROOT
BRANCH   6   8
HETATM    8  C3  UNL     1     -32.622   5.340   1.099  1.00 20.00     0.223 C 
HETATM    9  O9  UNL     1     -31.412   5.167   1.204  1.00 20.00    -0.279 OA
HETATM   10 CL10 UNL     1     -33.675   4.556  -0.040  1.00 20.00    -0.043 Cl
ENDBRANCH   6   8
TORSDOF 1
ENDMDL
MODEL 7
REMARK VINA RESULT:      -0.0      2.186      3.187
REMARK  1 active torsions:
REMARK  status: ('A' for Active; 'I' for Inactive)
REMARK    1  A    between atoms: C3_3  and  C7_7 
ROOT
HETATM    1  C1  UNL     1     -33.429   8.210   4.480  1.00 20.00    -0.030 C 
HETATM    2  C2  UNL     1     -32.381   8.431   3.673  1.00 20.00    -0.026 C 
HETATM    3  C4  UNL     1     -34.459   7.151   4.227  1.00 20.00     0.027 C 
HETATM    4  C5  UNL     1     -34.360   6.521   2.835  1.00 20.00     0.018 C 
HETATM    5  C6  UNL     1     -32.102   7.627   2.426  1.00 20.00     0.016 C 
HETATM    6  C7  UNL     1     -32.900   6.302   2.433  1.00 20.00     0.080 C 
HETATM    7  C8  UNL     1     -32.368   8.512   1.202  1.00 20.00     0.015 C 
ENDROOT
BRANCH   6   8
HETATM    8  C3  UNL     1     -32.816   5.587   1.118  1.00 20.00     0.223 C 
HETATM    9  O9  UNL     1     -33.746   5.597   0.318  1.00 20.00    -0.279 OA
HETATM   10 CL10 UNL     1     -31.289   4.785   0.906  1.00 20.00    -0.043 Cl
ENDBRANCH   6   8
TORSDOF 1
ENDMDL
MODEL 8
REMARK VINA RESULT:       0.1      2.513      3.888
REMARK  1 active torsions:
REMARK  status: ('A' for Active; 'I' for Inactive)
REMARK    1  A    between atoms: C3_3  and  C7_7 
ROOT
HETATM    1  C1  UNL     1     -35.377   6.289   4.570  1.00 20.00    -0.030 C 
HETATM    2  C2  UNL     1     -35.036   5.079   4.101  1.00 20.00    -0.026 C 
HETATM    3  C4  UNL     1     -34.678   7.556   4.179  1.00 20.00     0.027 C 
HETATM    4  C5  UNL     1     -33.377   7.324   3.405  1.00 20.00     0.018 C 
HETATM    5  C6  UNL     1     -33.921   4.853   3.107  1.00 20.00     0.016 C 
HETATM    6  C7  UNL     1     -33.528   6.174   2.406  1.00 20.00     0.080 C 
HETATM    7  C8  UNL     1     -32.760   4.154   3.824  1.00 20.00     0.015 C 
ENDROOT
BRANCH   6   8
HETATM    8  C3  UNL     1     -32.287   6.027   1.580  1.00 20.00     0.223 C 
HETATM    9  O9  UNL     1     -32.003   4.969   1.026  1.00 20.00    -0.279 OA
HETATM   10 CL10 UNL     1     -31.359   7.495   1.524  1.00 20.00    -0.043 Cl
ENDBRANCH   6   8
TORSDOF 1
ENDMDL
MODEL 9
REMARK VINA RESULT:       0.2      2.842      4.115
REMARK  1 active torsions:
REMARK  status: ('A' for Active; 'I' for Inactive)
REMARK    1  A    between atoms: C3_3  and  C7_7 
ROOT
HETATM    1  C1  UNL     1     -34.637   5.950   3.773  1.00 20.00    -0.030 C 
HETATM    2  C2  UNL     1     -34.153   5.505   2.604  1.00 20.00    -0.026 C 
HETATM    3  C4  UNL     1     -34.261   7.269   4.376  1.00 20.00     0.027 C 
HETATM    4  C5  UNL     1     -33.081   7.948   3.676  1.00 20.00     0.018 C 
HETATM    5  C6  UNL     1     -33.189   6.290   1.746  1.00 20.00     0.016 C 
HETATM    6  C7  UNL     1     -33.170   7.780   2.158  1.00 20.00     0.080 C 
HETATM    7  C8  UNL     1     -31.817   5.608   1.799  1.00 20.00     0.015 C 
ENDROOT
BRANCH   6   8
HETATM    8  C3  UNL     1     -32.072   8.539   1.477  1.00 20.00     0.223 C 
HETATM    9  O9  UNL     1     -32.234   9.063   0.379  1.00 20.00    -0.279 OA
HETATM   10 CL10 UNL     1     -30.614   8.568   2.422  1.00 20.00    -0.043 Cl
ENDBRANCH   6   8
TORSDOF 1
ENDMDL
