MODEL 1
REMARK VINA RESULT:       0.2      0.000      0.000
REMARK  1 active torsions:
REMARK  status: ('A' for Active; 'I' for Inactive)
REMARK    1  A    between atoms: C2_2  and  C3_3 
ROOT
HETATM    1  C1  UNL     1     -33.081   7.653   2.819  1.00 20.00    -0.007 C 
HETATM    2  C2  UNL     1     -33.372   6.364   2.620  1.00 20.00    -0.012 C 
HETATM    3  C4  UNL     1     -32.204   7.056   0.689  1.00 20.00     0.022 C 
HETATM    4  C5  UNL     1     -32.738   5.793   1.395  1.00 20.00     0.019 C 
HETATM    5  C6  UNL     1     -32.179   8.192   1.743  1.00 20.00    -0.029 C 
HETATM    6  C8  UNL     1     -31.634   4.791   1.715  1.00 20.00     0.015 C 
HETATM    7  C9  UNL     1     -30.766   8.425   2.292  1.00 20.00     0.019 C 
HETATM    8  C10 UNL     1     -32.729   9.495   1.157  1.00 20.00     0.019 C 
ENDROOT
BRANCH   2   9
HETATM    9  C3  UNL     1     -34.236   5.613   3.513  1.00 20.00     0.151 C 
HETATM   10  C7  UNL     1     -35.471   6.295   4.065  1.00 20.00     0.096 C 
HETATM   11  O11 UNL     1     -33.972   4.445   3.827  1.00 20.00    -0.293 OA
ENDBRANCH   2   9
TORSDOF 1
ENDMDL
MODEL 2
REMARK VINA RESULT:       0.3      2.204      3.870
REMARK  1 active torsions:
REMARK  status: ('A' for Active; 'I' for Inactive)
REMARK    1  A    between atoms: C2_2  and  C3_3 
ROOT
HETATM    1  C1  UNL     1     -33.425   8.401   2.696  1.00 20.00    -0.007 C 
HETATM    2  C2  UNL     1     -32.605   7.926   1.755  1.00 20.00    -0.012 C 
HETATM    3  C4  UNL     1     -32.967   6.132   3.244  1.00 20.00     0.022 C 
HETATM    4  C5  UNL     1     -32.359   6.459   1.865  1.00 20.00     0.019 C 
HETATM    5  C6  UNL     1     -33.890   7.316   3.628  1.00 20.00    -0.029 C 
HETATM    6  C8  UNL     1     -33.008   5.664   0.737  1.00 20.00     0.015 C 
HETATM    7  C9  UNL     1     -35.366   6.988   3.378  1.00 20.00     0.019 C 
HETATM    8  C10 UNL     1     -33.687   7.716   5.092  1.00 20.00     0.019 C 
ENDROOT
BRANCH   2   9
HETATM    9  C3  UNL     1     -32.009   8.777   0.739  1.00 20.00     0.151 C 
HETATM   10  C7  UNL     1     -32.698  10.081   0.394  1.00 20.00     0.096 C 
HETATM   11  O11 UNL     1     -30.967   8.446   0.158  1.00 20.00    -0.293 OA
ENDBRANCH   2   9
TORSDOF 1
ENDMDL
MODEL 3
REMARK VINA RESULT:       0.7      1.431      2.943
REMARK  1 active torsions:
REMARK  status: ('A' for Active; 'I' for Inactive)
REMARK    1  A    between atoms: C2_2  and  C3_3 
ROOT
HETATM    1  C1  UNL     1     -32.967   5.307   2.496  1.00 20.00    -0.007 C 
HETATM    2  C2  UNL     1     -33.807   5.368   3.532  1.00 20.00    -0.012 C 
HETATM    3  C4  UNL     1     -33.532   7.598   2.810  1.00 20.00     0.022 C 
HETATM    4  C5  UNL     1     -34.388   6.725   3.751  1.00 20.00     0.019 C 
HETATM    5  C6  UNL     1     -32.831   6.641   1.813  1.00 20.00    -0.029 C 
HETATM    6  C8  UNL     1     -35.875   6.791   3.417  1.00 20.00     0.015 C 
HETATM    7  C9  UNL     1     -33.535   6.624   0.452  1.00 20.00     0.019 C 
HETATM    8  C10 UNL     1     -31.359   7.023   1.631  1.00 20.00     0.019 C 
ENDROOT
BRANCH   2   9
HETATM    9  C3  UNL     1     -34.101   4.214   4.365  1.00 20.00     0.151 C 
HETATM   10  C7  UNL     1     -33.100   3.079   4.405  1.00 20.00     0.096 C 
HETATM   11  O11 UNL     1     -35.149   4.150   5.023  1.00 20.00    -0.293 OA
ENDBRANCH   2   9
TORSDOF 1
ENDMDL
MODEL 4
REMARK VINA RESULT:       1.1      1.399      2.656
REMARK  1 active torsions:
REMARK  status: ('A' for Active; 'I' for Inactive)
REMARK    1  A    between atoms: C2_2  and  C3_3 
ROOT
HETATM    1  C1  UNL     1     -33.292   6.781   2.082  1.00 20.00    -0.007 C 
HETATM    2  C2  UNL     1     -33.634   6.643   3.366  1.00 20.00    -0.012 C 
HETATM    3  C4  UNL     1     -31.892   8.235   3.342  1.00 20.00     0.022 C 
HETATM    4  C5  UNL     1     -32.958   7.618   4.271  1.00 20.00     0.019 C 
HETATM    5  C6  UNL     1     -32.306   7.900   1.887  1.00 20.00    -0.029 C 
HETATM    6  C8  UNL     1     -33.915   8.663   4.834  1.00 20.00     0.015 C 
HETATM    7  C9  UNL     1     -32.975   9.094   1.198  1.00 20.00     0.019 C 
HETATM    8  C10 UNL     1     -31.098   7.438   1.066  1.00 20.00     0.019 C 
ENDROOT
BRANCH   2   9
HETATM    9  C3  UNL     1     -34.565   5.624   3.819  1.00 20.00     0.151 C 
HETATM   10  C7  UNL     1     -34.063   4.204   3.973  1.00 20.00     0.096 C 
HETATM   11  O11 UNL     1     -35.747   5.902   4.067  1.00 20.00    -0.293 OA
ENDBRANCH   2   9
TORSDOF 1
ENDMDL
MODEL 5
REMARK VINA RESULT:       1.3      1.415      3.145
REMARK  1 active torsions:
REMARK  status: ('A' for Active; 'I' for Inactive)
REMARK    1  A    between atoms: C2_2  and  C3_3 
ROOT
HETATM    1  C1  UNL     1     -33.338   5.894   2.417  1.00 20.00    -0.007 C 
HETATM    2  C2  UNL     1     -33.179   7.116   2.933  1.00 20.00    -0.012 C 
HETATM    3  C4  UNL     1     -31.597   6.953   1.189  1.00 20.00     0.022 C 
HETATM    4  C5  UNL     1     -32.234   7.972   2.156  1.00 20.00     0.019 C 
HETATM    5  C6  UNL     1     -32.513   5.704   1.174  1.00 20.00    -0.029 C 
HETATM    6  C8  UNL     1     -32.934   9.113   1.426  1.00 20.00     0.015 C 
HETATM    7  C9  UNL     1     -33.411   5.673  -0.068  1.00 20.00     0.019 C 
HETATM    8  C10 UNL     1     -31.686   4.417   1.248  1.00 20.00     0.019 C 
ENDROOT
BRANCH   2   9
HETATM    9  C3  UNL     1     -33.858   7.546   4.142  1.00 20.00     0.151 C 
HETATM   10  C7  UNL     1     -33.107   8.426   5.118  1.00 20.00     0.096 C 
HETATM   11  O11 UNL     1     -35.023   7.198   4.380  1.00 20.00    -0.293 OA
ENDBRANCH   2   9
TORSDOF 1
ENDMDL
MODEL 6
REMARK VINA RESULT:       1.7      1.127      2.382
REMARK  1 active torsions:
REMARK  status: ('A' for Active; 'I' for Inactive)
REMARK    1  A    between atoms: C2_2  and  C3_3 
ROOT
HETATM    1  C1  UNL     1     -33.125   6.904   1.888  1.00 20.00    -0.007 C 
HETATM    2  C2  UNL     1     -33.402   6.683   3.175  1.00 20.00    -0.012 C 
HETATM    3  C4  UNL     1     -31.765   8.383   3.162  1.00 20.00     0.022 C 
HETATM    4  C5  UNL     1     -32.750   7.656   4.100  1.00 20.00     0.019 C 
HETATM    5  C6  UNL     1     -32.220   8.091   1.709  1.00 20.00    -0.029 C 
HETATM    6  C8  UNL     1     -33.746   8.609   4.753  1.00 20.00     0.015 C 
HETATM    7  C9  UNL     1     -32.992   9.272   1.108  1.00 20.00     0.019 C 
HETATM    8  C10 UNL     1     -31.022   7.747   0.819  1.00 20.00     0.019 C 
ENDROOT
BRANCH   2   9
HETATM    9  C3  UNL     1     -34.248   5.586   3.614  1.00 20.00     0.151 C 
HETATM   10  C7  UNL     1     -35.662   5.898   4.057  1.00 20.00     0.096 C 
HETATM   11  O11 UNL     1     -33.826   4.422   3.635  1.00 20.00    -0.293 OA
ENDBRANCH   2   9
TORSDOF 1
ENDMDL
MODEL 7
REMARK VINA RESULT:       1.8      1.923      4.214
REMARK  1 active torsions:
REMARK  status: ('A' for Active; 'I' for Inactive)
REMARK    1  A    between atoms: C2_2  and  C3_3 
ROOT
HETATM    1  C1  UNL     1     -33.848   6.536   2.472  1.00 20.00    -0.007 C 
HETATM    2  C2  UNL     1     -33.100   7.629   2.642  1.00 20.00    -0.012 C 
HETATM    3  C4  UNL     1     -34.681   7.665   4.394  1.00 20.00     0.022 C 
HETATM    4  C5  UNL     1     -33.391   8.359   3.910  1.00 20.00     0.019 C 
HETATM    5  C6  UNL     1     -34.795   6.327   3.622  1.00 20.00    -0.029 C 
HETATM    6  C8  UNL     1     -32.257   8.256   4.924  1.00 20.00     0.015 C 
HETATM    7  C9  UNL     1     -34.347   5.137   4.479  1.00 20.00     0.019 C 
HETATM    8  C10 UNL     1     -36.227   6.100   3.127  1.00 20.00     0.019 C 
ENDROOT
BRANCH   2   9
HETATM    9  C3  UNL     1     -32.114   8.058   1.665  1.00 20.00     0.151 C 
HETATM   10  C7  UNL     1     -32.412   9.285   0.829  1.00 20.00     0.096 C 
HETATM   11  O11 UNL     1     -31.055   7.435   1.508  1.00 20.00    -0.293 OA
ENDBRANCH   2   9
TORSDOF 1
ENDMDL
MODEL 8
REMARK VINA RESULT:       1.9      2.177      4.595
REMARK  1 active torsions:
REMARK  status: ('A' for Active; 'I' for Inactive)
REMARK    1  A    between atoms: C2_2  and  C3_3 
ROOT
HETATM    1  C1  UNL     1     -32.691   4.282   3.275  1.00 20.00    -0.007 C 
HETATM    2  C2  UNL     1     -33.338   5.357   2.817  1.00 20.00    -0.012 C 
HETATM    3  C4  UNL     1     -34.714   4.466   4.515  1.00 20.00     0.022 C 
HETATM    4  C5  UNL     1     -34.552   5.706   3.612  1.00 20.00     0.019 C 
HETATM    5  C6  UNL     1     -33.365   3.703   4.489  1.00 20.00    -0.029 C 
HETATM    6  C8  UNL     1     -34.382   6.993   4.413  1.00 20.00     0.015 C 
HETATM    7  C9  UNL     1     -32.534   3.977   5.748  1.00 20.00     0.019 C 
HETATM    8  C10 UNL     1     -33.591   2.197   4.334  1.00 20.00     0.019 C 
ENDROOT
BRANCH   2   9
HETATM    9  C3  UNL     1     -32.895   6.092   1.645  1.00 20.00     0.151 C 
HETATM   10  C7  UNL     1     -32.155   7.397   1.849  1.00 20.00     0.096 C 
HETATM   11  O11 UNL     1     -33.120   5.671   0.502  1.00 20.00    -0.293 OA
ENDBRANCH   2   9
TORSDOF 1
ENDMDL
MODEL 9
REMARK VINA RESULT:       1.9      1.651      3.392
REMARK  1 active torsions:
REMARK  status: ('A' for Active; 'I' for Inactive)
REMARK    1  A    between atoms: C2_2  and  C3_3 
ROOT
HETATM    1  C1  UNL     1     -33.444   5.795   3.090  1.00 20.00    -0.007 C 
HETATM    2  C2  UNL     1     -32.843   6.088   1.934  1.00 20.00    -0.012 C 
HETATM    3  C4  UNL     1     -34.000   8.047   2.561  1.00 20.00     0.022 C 
HETATM    4  C5  UNL     1     -32.958   7.526   1.550  1.00 20.00     0.019 C 
HETATM    5  C6  UNL     1     -34.083   7.009   3.708  1.00 20.00    -0.029 C 
HETATM    6  C8  UNL     1     -31.630   8.269   1.644  1.00 20.00     0.015 C 
HETATM    7  C9  UNL     1     -33.294   7.462   4.942  1.00 20.00     0.019 C 
HETATM    8  C10 UNL     1     -35.539   6.734   4.095  1.00 20.00     0.019 C 
ENDROOT
BRANCH   2   9
HETATM    9  C3  UNL     1     -32.162   5.085   1.134  1.00 20.00     0.151 C 
HETATM   10  C7  UNL     1     -32.935   4.397   0.028  1.00 20.00     0.096 C 
HETATM   11  O11 UNL     1     -30.979   4.789   1.350  1.00 20.00    -0.293 OA
ENDBRANCH   2   9
TORSDOF 1
ENDMDL
