MODEL 1
REMARK VINA RESULT:       0.0      0.000      0.000
REMARK  1 active torsions:
REMARK  status: ('A' for Active; 'I' for Inactive)
REMARK    1  A    between atoms: C2_2  and  C6_6 
ROOT
HETATM    1  C1  UNL     1     -34.441   6.568   3.553  1.00 20.00     0.074 C 
HETATM    2  C3  UNL     1     -33.014   6.316   1.542  1.00 20.00     0.031 C 
HETATM    3  C4  UNL     1     -31.735   6.932   0.987  1.00 20.00     0.025 C 
HETATM    4  C5  UNL     1     -33.089   6.710   3.013  1.00 20.00     0.154 C 
HETATM    5  C6  UNL     1     -31.702   8.389   1.425  1.00 20.00     0.117 C 
HETATM    6  N8  UNL     1     -35.514   6.455   3.981  1.00 20.00    -0.196 NA
HETATM    7  S10 UNL     1     -32.510   8.435   3.048  1.00 20.00    -0.137 SA
ENDROOT
BRANCH   5   8
HETATM    8  C2  UNL     1     -32.468   9.277   0.499  1.00 20.00     0.136 C 
HETATM    9  C7  UNL     1     -32.830  10.643   1.017  1.00 20.00     0.092 C 
HETATM   10  O9  UNL     1     -32.785   8.911  -0.631  1.00 20.00    -0.297 OA
ENDBRANCH   5   8
TORSDOF 1
ENDMDL
MODEL 2
REMARK VINA RESULT:       0.2      3.073      3.918
REMARK  1 active torsions:
REMARK  status: ('A' for Active; 'I' for Inactive)
REMARK    1  A    between atoms: C2_2  and  C6_6 
ROOT
HETATM    1  C1  UNL     1     -33.458   3.352   4.494  1.00 20.00     0.074 C 
HETATM    2  C3  UNL     1     -34.990   5.296   4.638  1.00 20.00     0.031 C 
HETATM    3  C4  UNL     1     -35.403   6.468   3.756  1.00 20.00     0.025 C 
HETATM    4  C5  UNL     1     -34.276   4.297   3.733  1.00 20.00     0.154 C 
HETATM    5  C6  UNL     1     -34.191   6.868   2.929  1.00 20.00     0.117 C 
HETATM    6  N8  UNL     1     -32.808   2.603   5.097  1.00 20.00    -0.196 NA
HETATM    7  S10 UNL     1     -33.277   5.332   2.618  1.00 20.00    -0.137 SA
ENDROOT
BRANCH   5   8
HETATM    8  C2  UNL     1     -33.288   7.807   3.661  1.00 20.00     0.136 C 
HETATM    9  C7  UNL     1     -32.103   8.338   2.900  1.00 20.00     0.092 C 
HETATM   10  O9  UNL     1     -33.502   8.130   4.828  1.00 20.00    -0.297 OA
ENDBRANCH   5   8
TORSDOF 1
ENDMDL
MODEL 3
REMARK VINA RESULT:       1.7      2.735      4.322
REMARK  1 active torsions:
REMARK  status: ('A' for Active; 'I' for Inactive)
REMARK    1  A    between atoms: C2_2  and  C6_6 
ROOT
HETATM    1  C1  UNL     1     -32.391   8.970   0.685  1.00 20.00     0.074 C 
HETATM    2  C3  UNL     1     -32.620   8.706   3.139  1.00 20.00     0.031 C 
HETATM    3  C4  UNL     1     -32.648   7.565   4.148  1.00 20.00     0.025 C 
HETATM    4  C5  UNL     1     -32.073   8.128   1.838  1.00 20.00     0.154 C 
HETATM    5  C6  UNL     1     -33.303   6.371   3.469  1.00 20.00     0.117 C 
HETATM    6  N8  UNL     1     -32.644   9.639  -0.230  1.00 20.00    -0.196 NA
HETATM    7  S10 UNL     1     -32.838   6.481   1.720  1.00 20.00    -0.137 SA
ENDROOT
BRANCH   5   8
HETATM    8  C2  UNL     1     -34.794   6.415   3.558  1.00 20.00     0.136 C 
HETATM    9  C7  UNL     1     -35.452   5.371   4.420  1.00 20.00     0.092 C 
HETATM   10  O9  UNL     1     -35.452   7.263   2.957  1.00 20.00    -0.297 OA
ENDBRANCH   5   8
TORSDOF 1
ENDMDL
MODEL 4
REMARK VINA RESULT:       1.8      2.543      3.207
REMARK  1 active torsions:
REMARK  status: ('A' for Active; 'I' for Inactive)
REMARK    1  A    between atoms: C2_2  and  C6_6 
ROOT
HETATM    1  C1  UNL     1     -34.044   4.004   4.043  1.00 20.00     0.074 C 
HETATM    2  C3  UNL     1     -34.339   6.442   4.380  1.00 20.00     0.031 C 
HETATM    3  C4  UNL     1     -34.509   7.684   3.513  1.00 20.00     0.025 C 
HETATM    4  C5  UNL     1     -34.587   5.239   3.477  1.00 20.00     0.154 C 
HETATM    5  C6  UNL     1     -33.707   7.465   2.238  1.00 20.00     0.117 C 
HETATM    6  N8  UNL     1     -33.612   3.025   4.492  1.00 20.00    -0.196 NA
HETATM    7  S10 UNL     1     -33.791   5.684   1.902  1.00 20.00    -0.137 SA
ENDROOT
BRANCH   5   8
HETATM    8  C2  UNL     1     -32.270   7.841   2.400  1.00 20.00     0.136 C 
HETATM    9  C7  UNL     1     -31.362   7.564   1.232  1.00 20.00     0.092 C 
HETATM   10  O9  UNL     1     -31.849   8.352   3.436  1.00 20.00    -0.297 OA
ENDBRANCH   5   8
TORSDOF 1
ENDMDL
MODEL 5
REMARK VINA RESULT:       2.4      2.983      4.074
REMARK  1 active torsions:
REMARK  status: ('A' for Active; 'I' for Inactive)
REMARK    1  A    between atoms: C2_2  and  C6_6 
ROOT
HETATM    1  C1  UNL     1     -32.435   9.450   0.631  1.00 20.00     0.074 C 
HETATM    2  C3  UNL     1     -31.388   7.567   1.857  1.00 20.00     0.031 C 
HETATM    3  C4  UNL     1     -31.583   6.061   1.982  1.00 20.00     0.025 C 
HETATM    4  C5  UNL     1     -32.173   8.010   0.627  1.00 20.00     0.154 C 
HETATM    5  C6  UNL     1     -33.072   5.779   1.843  1.00 20.00     0.117 C 
HETATM    6  N8  UNL     1     -32.643  10.591   0.634  1.00 20.00    -0.196 NA
HETATM    7  S10 UNL     1     -33.705   7.030   0.692  1.00 20.00    -0.137 SA
ENDROOT
BRANCH   5   8
HETATM    8  C2  UNL     1     -33.801   5.927   3.138  1.00 20.00     0.136 C 
HETATM    9  C7  UNL     1     -34.147   7.328   3.564  1.00 20.00     0.092 C 
HETATM   10  O9  UNL     1     -34.105   4.952   3.823  1.00 20.00    -0.297 OA
ENDBRANCH   5   8
TORSDOF 1
ENDMDL
MODEL 6
REMARK VINA RESULT:       2.5      2.843      4.145
REMARK  1 active torsions:
REMARK  status: ('A' for Active; 'I' for Inactive)
REMARK    1  A    between atoms: C2_2  and  C6_6 
ROOT
HETATM    1  C1  UNL     1     -32.616   9.966  -0.255  1.00 20.00     0.074 C 
HETATM    2  C3  UNL     1     -32.881   9.322   2.123  1.00 20.00     0.031 C 
HETATM    3  C4  UNL     1     -32.288   8.296   3.082  1.00 20.00     0.025 C 
HETATM    4  C5  UNL     1     -31.960   9.369   0.909  1.00 20.00     0.154 C 
HETATM    5  C6  UNL     1     -31.969   7.046   2.275  1.00 20.00     0.117 C 
HETATM    6  N8  UNL     1     -33.136  10.439  -1.179  1.00 20.00    -0.196 NA
HETATM    7  S10 UNL     1     -31.498   7.632   0.624  1.00 20.00    -0.137 SA
ENDROOT
BRANCH   5   8
HETATM    8  C2  UNL     1     -33.152   6.146   2.129  1.00 20.00     0.136 C 
HETATM    9  C7  UNL     1     -34.135   6.131   3.268  1.00 20.00     0.092 C 
HETATM   10  O9  UNL     1     -33.317   5.453   1.126  1.00 20.00    -0.297 OA
ENDBRANCH   5   8
TORSDOF 1
ENDMDL
MODEL 7
REMARK VINA RESULT:       2.7      2.973      4.237
REMARK  1 active torsions:
REMARK  status: ('A' for Active; 'I' for Inactive)
REMARK    1  A    between atoms: C2_2  and  C6_6 
ROOT
HETATM    1  C1  UNL     1     -32.666   9.700   0.249  1.00 20.00     0.074 C 
HETATM    2  C3  UNL     1     -33.755   9.103   2.395  1.00 20.00     0.031 C 
HETATM    3  C4  UNL     1     -33.427   8.267   3.627  1.00 20.00     0.025 C 
HETATM    4  C5  UNL     1     -32.445   9.303   1.640  1.00 20.00     0.154 C 
HETATM    5  C6  UNL     1     -32.582   7.087   3.167  1.00 20.00     0.117 C 
HETATM    6  N8  UNL     1     -32.842  10.013  -0.854  1.00 20.00    -0.196 NA
HETATM    7  S10 UNL     1     -31.596   7.699   1.774  1.00 20.00    -0.137 SA
ENDROOT
BRANCH   5   8
HETATM    8  C2  UNL     1     -33.417   5.947   2.681  1.00 20.00     0.136 C 
HETATM    9  C7  UNL     1     -33.149   5.460   1.283  1.00 20.00     0.092 C 
HETATM   10  O9  UNL     1     -34.279   5.430   3.390  1.00 20.00    -0.297 OA
ENDBRANCH   5   8
TORSDOF 1
ENDMDL
MODEL 8
REMARK VINA RESULT:       3.0      3.364      3.870
REMARK  1 active torsions:
REMARK  status: ('A' for Active; 'I' for Inactive)
REMARK    1  A    between atoms: C2_2  and  C6_6 
ROOT
HETATM    1  C1  UNL     1     -32.131   5.111   1.273  1.00 20.00     0.074 C 
HETATM    2  C3  UNL     1     -33.646   5.379   3.216  1.00 20.00     0.031 C 
HETATM    3  C4  UNL     1     -34.580   6.447   3.774  1.00 20.00     0.025 C 
HETATM    4  C5  UNL     1     -33.329   5.782   1.781  1.00 20.00     0.154 C 
HETATM    5  C6  UNL     1     -33.974   7.803   3.442  1.00 20.00     0.117 C 
HETATM    6  N8  UNL     1     -31.181   4.580   0.872  1.00 20.00    -0.196 NA
HETATM    7  S10 UNL     1     -33.129   7.589   1.852  1.00 20.00    -0.137 SA
ENDROOT
BRANCH   5   8
HETATM    8  C2  UNL     1     -32.963   8.236   4.453  1.00 20.00     0.136 C 
HETATM    9  C7  UNL     1     -31.673   8.801   3.920  1.00 20.00     0.092 C 
HETATM   10  O9  UNL     1     -33.173   8.137   5.660  1.00 20.00    -0.297 OA
ENDBRANCH   5   8
TORSDOF 1
ENDMDL
MODEL 9
REMARK VINA RESULT:       3.0      2.914      3.860
REMARK  1 active torsions:
REMARK  status: ('A' for Active; 'I' for Inactive)
REMARK    1  A    between atoms: C2_2  and  C6_6 
ROOT
HETATM    1  C1  UNL     1     -33.218   4.754   0.282  1.00 20.00     0.074 C 
HETATM    2  C3  UNL     1     -32.725   7.038   1.106  1.00 20.00     0.031 C 
HETATM    3  C4  UNL     1     -32.314   7.695   2.419  1.00 20.00     0.025 C 
HETATM    4  C5  UNL     1     -32.480   5.542   1.269  1.00 20.00     0.154 C 
HETATM    5  C6  UNL     1     -32.954   6.900   3.548  1.00 20.00     0.117 C 
HETATM    6  N8  UNL     1     -33.804   4.128  -0.501  1.00 20.00    -0.196 NA
HETATM    7  S10 UNL     1     -33.007   5.181   2.973  1.00 20.00    -0.137 SA
ENDROOT
BRANCH   5   8
HETATM    8  C2  UNL     1     -34.354   7.340   3.829  1.00 20.00     0.136 C 
HETATM    9  C7  UNL     1     -35.391   6.257   3.957  1.00 20.00     0.092 C 
HETATM   10  O9  UNL     1     -34.645   8.529   3.951  1.00 20.00    -0.297 OA
ENDBRANCH   5   8
TORSDOF 1
ENDMDL
