MODEL 1
REMARK VINA RESULT:       1.2      0.000      0.000
REMARK  1 active torsions:
REMARK  status: ('A' for Active; 'I' for Inactive)
REMARK    1  A    between atoms: C1_1  and  C9_9 
ROOT
HETATM    1  C2  UNL     1     -32.615   8.260   2.528  1.00 20.00     0.002 C 
HETATM    2  C3  UNL     1     -31.523   7.460   1.806  1.00 20.00     0.005 C 
HETATM    3  C4  UNL     1     -33.264   6.070   0.568  1.00 20.00     0.006 C 
HETATM    4  C5  UNL     1     -33.422   7.409   3.515  1.00 20.00     0.018 C 
HETATM    5  C6  UNL     1     -34.414   6.062   1.587  1.00 20.00     0.019 C 
HETATM    6  C7  UNL     1     -32.418   5.287   2.652  1.00 20.00     0.023 C 
HETATM    7  C8  UNL     1     -31.977   6.046   1.404  1.00 20.00    -0.013 C 
HETATM    8  C9  UNL     1     -33.732   6.003   2.967  1.00 20.00     0.036 C 
ENDROOT
BRANCH   8   9
HETATM    9  C1  UNL     1     -34.552   5.234   3.957  1.00 20.00     0.227 C 
HETATM   10  O10 UNL     1     -35.588   5.692   4.430  1.00 20.00    -0.279 OA
HETATM   11 CL11 UNL     1     -33.855   3.685   4.321  1.00 20.00    -0.043 Cl
ENDBRANCH   8   9
TORSDOF 1
ENDMDL
MODEL 2
REMARK VINA RESULT:       1.4      3.322      4.180
REMARK  1 active torsions:
REMARK  status: ('A' for Active; 'I' for Inactive)
REMARK    1  A    between atoms: C1_1  and  C9_9 
ROOT
HETATM    1  C2  UNL     1     -33.288   7.390   3.793  1.00 20.00     0.002 C 
HETATM    2  C3  UNL     1     -33.991   6.213   3.105  1.00 20.00     0.005 C 
HETATM    3  C4  UNL     1     -31.861   5.584   1.854  1.00 20.00     0.006 C 
HETATM    4  C5  UNL     1     -32.893   8.502   2.815  1.00 20.00     0.018 C 
HETATM    5  C6  UNL     1     -31.191   6.960   1.703  1.00 20.00     0.019 C 
HETATM    6  C7  UNL     1     -33.415   7.072   0.831  1.00 20.00     0.023 C 
HETATM    7  C8  UNL     1     -33.369   5.850   1.745  1.00 20.00    -0.013 C 
HETATM    8  C9  UNL     1     -32.349   7.952   1.484  1.00 20.00     0.036 C 
ENDROOT
BRANCH   8   9
HETATM    9  C1  UNL     1     -31.946   9.082   0.586  1.00 20.00     0.227 C 
HETATM   10  O10 UNL     1     -31.003   8.982  -0.193  1.00 20.00    -0.279 OA
HETATM   11 CL11 UNL     1     -32.955  10.480   0.802  1.00 20.00    -0.043 Cl
ENDBRANCH   8   9
TORSDOF 1
ENDMDL
MODEL 3
REMARK VINA RESULT:       1.7      1.827      2.280
REMARK  1 active torsions:
REMARK  status: ('A' for Active; 'I' for Inactive)
REMARK    1  A    between atoms: C1_1  and  C9_9 
ROOT
HETATM    1  C2  UNL     1     -32.854   9.263   0.658  1.00 20.00     0.002 C 
HETATM    2  C3  UNL     1     -31.374   8.863   0.694  1.00 20.00     0.005 C 
HETATM    3  C4  UNL     1     -31.975   6.411   1.048  1.00 20.00     0.006 C 
HETATM    4  C5  UNL     1     -33.556   9.072   2.007  1.00 20.00     0.018 C 
HETATM    5  C6  UNL     1     -33.301   6.541   1.816  1.00 20.00     0.019 C 
HETATM    6  C7  UNL     1     -31.614   7.805   2.945  1.00 20.00     0.023 C 
HETATM    7  C8  UNL     1     -31.113   7.591   1.520  1.00 20.00    -0.013 C 
HETATM    8  C9  UNL     1     -33.126   7.776   2.718  1.00 20.00     0.036 C 
ENDROOT
BRANCH   8   9
HETATM    9  C1  UNL     1     -33.871   7.627   4.010  1.00 20.00     0.227 C 
HETATM   10  O10 UNL     1     -33.558   8.263   5.012  1.00 20.00    -0.279 OA
HETATM   11 CL11 UNL     1     -35.171   6.480   3.887  1.00 20.00    -0.043 Cl
ENDBRANCH   8   9
TORSDOF 1
ENDMDL
MODEL 4
REMARK VINA RESULT:       1.8      2.340      3.430
REMARK  1 active torsions:
REMARK  status: ('A' for Active; 'I' for Inactive)
REMARK    1  A    between atoms: C1_1  and  C9_9 
ROOT
HETATM    1  C2  UNL     1     -33.102   7.811   4.283  1.00 20.00     0.002 C 
HETATM    2  C3  UNL     1     -34.630   7.770   4.396  1.00 20.00     0.005 C 
HETATM    3  C4  UNL     1     -34.633   5.221   4.362  1.00 20.00     0.006 C 
HETATM    4  C5  UNL     1     -32.590   7.293   2.934  1.00 20.00     0.018 C 
HETATM    5  C6  UNL     1     -33.390   4.937   3.502  1.00 20.00     0.019 C 
HETATM    6  C7  UNL     1     -34.847   6.412   2.311  1.00 20.00     0.023 C 
HETATM    7  C8  UNL     1     -35.248   6.502   3.780  1.00 20.00    -0.013 C 
HETATM    8  C9  UNL     1     -33.366   6.056   2.444  1.00 20.00     0.036 C 
ENDROOT
BRANCH   8   9
HETATM    9  C1  UNL     1     -32.799   5.575   1.144  1.00 20.00     0.227 C 
HETATM   10  O10 UNL     1     -31.601   5.341   1.010  1.00 20.00    -0.279 OA
HETATM   11 CL11 UNL     1     -34.020   5.409  -0.081  1.00 20.00    -0.043 Cl
ENDBRANCH   8   9
TORSDOF 1
ENDMDL
MODEL 5
REMARK VINA RESULT:       1.8      2.463      3.585
REMARK  1 active torsions:
REMARK  status: ('A' for Active; 'I' for Inactive)
REMARK    1  A    between atoms: C1_1  and  C9_9 
ROOT
HETATM    1  C2  UNL     1     -33.474   7.773   4.811  1.00 20.00     0.002 C 
HETATM    2  C3  UNL     1     -34.981   7.504   4.721  1.00 20.00     0.005 C 
HETATM    3  C4  UNL     1     -34.580   5.034   4.236  1.00 20.00     0.006 C 
HETATM    4  C5  UNL     1     -32.757   7.600   3.467  1.00 20.00     0.018 C 
HETATM    5  C6  UNL     1     -33.230   5.093   3.503  1.00 20.00     0.019 C 
HETATM    6  C7  UNL     1     -34.775   6.560   2.418  1.00 20.00     0.023 C 
HETATM    7  C8  UNL     1     -35.328   6.308   3.817  1.00 20.00    -0.013 C 
HETATM    8  C9  UNL     1     -33.277   6.389   2.672  1.00 20.00     0.036 C 
ENDROOT
BRANCH   8   9
HETATM    9  C1  UNL     1     -32.516   6.250   1.389  1.00 20.00     0.227 C 
HETATM   10  O10 UNL     1     -32.517   5.204   0.748  1.00 20.00    -0.279 OA
HETATM   11 CL11 UNL     1     -31.673   7.710   0.967  1.00 20.00    -0.043 Cl
ENDBRANCH   8   9
TORSDOF 1
ENDMDL
MODEL 6
REMARK VINA RESULT:       1.9      1.056      2.420
REMARK  1 active torsions:
REMARK  status: ('A' for Active; 'I' for Inactive)
REMARK    1  A    between atoms: C1_1  and  C9_9 
ROOT
HETATM    1  C2  UNL     1     -32.237   6.791   1.893  1.00 20.00     0.002 C 
HETATM    2  C3  UNL     1     -33.066   8.078   1.819  1.00 20.00     0.005 C 
HETATM    3  C4  UNL     1     -33.150   8.254   4.360  1.00 20.00     0.006 C 
HETATM    4  C5  UNL     1     -33.018   5.612   2.487  1.00 20.00     0.018 C 
HETATM    5  C6  UNL     1     -33.096   6.770   4.760  1.00 20.00     0.019 C 
HETATM    6  C7  UNL     1     -34.892   7.100   3.216  1.00 20.00     0.023 C 
HETATM    7  C8  UNL     1     -33.957   8.296   3.054  1.00 20.00    -0.013 C 
HETATM    8  C9  UNL     1     -33.902   6.029   3.676  1.00 20.00     0.036 C 
ENDROOT
BRANCH   8   9
HETATM    9  C1  UNL     1     -34.610   4.833   4.235  1.00 20.00     0.227 C 
HETATM   10  O10 UNL     1     -35.764   4.901   4.646  1.00 20.00    -0.279 OA
HETATM   11 CL11 UNL     1     -33.608   3.413   4.219  1.00 20.00    -0.043 Cl
ENDBRANCH   8   9
TORSDOF 1
ENDMDL
MODEL 7
REMARK VINA RESULT:       2.2      1.615      2.519
REMARK  1 active torsions:
REMARK  status: ('A' for Active; 'I' for Inactive)
REMARK    1  A    between atoms: C1_1  and  C9_9 
ROOT
HETATM    1  C2  UNL     1     -31.845   4.777   2.155  1.00 20.00     0.002 C 
HETATM    2  C3  UNL     1     -32.105   5.316   0.744  1.00 20.00     0.005 C 
HETATM    3  C4  UNL     1     -31.864   7.724   1.545  1.00 20.00     0.006 C 
HETATM    4  C5  UNL     1     -32.964   5.128   3.143  1.00 20.00     0.018 C 
HETATM    5  C6  UNL     1     -32.358   7.603   2.996  1.00 20.00     0.019 C 
HETATM    6  C7  UNL     1     -34.021   6.716   1.525  1.00 20.00     0.023 C 
HETATM    7  C8  UNL     1     -32.713   6.730   0.740  1.00 20.00    -0.013 C 
HETATM    8  C9  UNL     1     -33.492   6.562   2.951  1.00 20.00     0.036 C 
ENDROOT
BRANCH   8   9
HETATM    9  C1  UNL     1     -34.555   6.858   3.965  1.00 20.00     0.227 C 
HETATM   10  O10 UNL     1     -35.624   6.256   3.973  1.00 20.00    -0.279 OA
HETATM   11 CL11 UNL     1     -34.076   8.115   5.066  1.00 20.00    -0.043 Cl
ENDBRANCH   8   9
TORSDOF 1
ENDMDL
MODEL 8
REMARK VINA RESULT:       2.4      2.275      3.702
REMARK  1 active torsions:
REMARK  status: ('A' for Active; 'I' for Inactive)
REMARK    1  A    between atoms: C1_1  and  C9_9 
ROOT
HETATM    1  C2  UNL     1     -34.350   4.279   3.928  1.00 20.00     0.002 C 
HETATM    2  C3  UNL     1     -35.029   5.252   4.898  1.00 20.00     0.005 C 
HETATM    3  C4  UNL     1     -35.906   6.670   2.970  1.00 20.00     0.006 C 
HETATM    4  C5  UNL     1     -33.187   4.918   3.160  1.00 20.00     0.018 C 
HETATM    5  C6  UNL     1     -34.808   6.447   1.917  1.00 20.00     0.019 C 
HETATM    6  C7  UNL     1     -33.802   7.210   3.948  1.00 20.00     0.023 C 
HETATM    7  C8  UNL     1     -35.180   6.672   4.323  1.00 20.00    -0.013 C 
HETATM    8  C9  UNL     1     -33.494   6.360   2.715  1.00 20.00     0.036 C 
ENDROOT
BRANCH   8   9
HETATM    9  C1  UNL     1     -32.338   6.916   1.941  1.00 20.00     0.227 C 
HETATM   10  O10 UNL     1     -32.047   8.108   1.985  1.00 20.00    -0.279 OA
HETATM   11 CL11 UNL     1     -31.519   5.693   1.018  1.00 20.00    -0.043 Cl
ENDBRANCH   8   9
TORSDOF 1
ENDMDL
MODEL 9
REMARK VINA RESULT:       2.4      1.659      2.704
REMARK  1 active torsions:
REMARK  status: ('A' for Active; 'I' for Inactive)
REMARK    1  A    between atoms: C1_1  and  C9_9 
ROOT
HETATM    1  C2  UNL     1     -31.979   6.286   1.881  1.00 20.00     0.002 C 
HETATM    2  C3  UNL     1     -32.017   7.795   1.608  1.00 20.00     0.005 C 
HETATM    3  C4  UNL     1     -32.393   8.301   4.078  1.00 20.00     0.006 C 
HETATM    4  C5  UNL     1     -33.331   5.730   2.343  1.00 20.00     0.018 C 
HETATM    5  C6  UNL     1     -33.162   7.046   4.522  1.00 20.00     0.019 C 
HETATM    6  C7  UNL     1     -34.277   8.025   2.647  1.00 20.00     0.023 C 
HETATM    7  C8  UNL     1     -32.853   8.574   2.638  1.00 20.00    -0.013 C 
HETATM    8  C9  UNL     1     -34.054   6.672   3.323  1.00 20.00     0.036 C 
ENDROOT
BRANCH   8   9
HETATM    9  C1  UNL     1     -35.348   6.060   3.766  1.00 20.00     0.227 C 
HETATM   10  O10 UNL     1     -35.379   5.113   4.546  1.00 20.00    -0.279 OA
HETATM   11 CL11 UNL     1     -36.722   6.845   3.048  1.00 20.00    -0.043 Cl
ENDBRANCH   8   9
TORSDOF 1
ENDMDL
