MODEL 1
REMARK VINA RESULT:       0.5      0.000      0.000
REMARK  1 active torsions:
REMARK  status: ('A' for Active; 'I' for Inactive)
REMARK    1  A    between atoms: C3_3  and  C7_7 
ROOT
HETATM    1  C1  UNL     1     -33.553   5.516   2.107  1.00 20.00     0.346 C 
HETATM    2  C2  UNL     1     -33.040   7.275   3.603  1.00 20.00     0.233 C 
HETATM    3  C3  UNL     1     -32.216   7.778   2.396  1.00 20.00     0.081 C 
HETATM    4  C4  UNL     1     -33.522   8.421   4.495  1.00 20.00     0.044 C 
HETATM    5  C6  UNL     1     -34.950   5.790   4.051  1.00 20.00     0.311 C 
HETATM    6  N8  UNL     1     -34.149   6.476   3.042  1.00 20.00     0.098 N 
HETATM    7  S9  UNL     1     -32.134   6.317   1.311  1.00 20.00    -0.132 SA
ENDROOT
BRANCH   3   8
HETATM    8  C7  UNL     1     -32.834   8.934   1.612  1.00 20.00     0.013 C 
HETATM    9  C5  UNL     1     -32.010   9.296   0.421  1.00 20.00     0.006 C 
ENDBRANCH   3   8
TORSDOF 1
ENDMDL
MODEL 2
REMARK VINA RESULT:       0.9      1.625      2.822
REMARK  1 active torsions:
REMARK  status: ('A' for Active; 'I' for Inactive)
REMARK    1  A    between atoms: C3_3  and  C7_7 
ROOT
HETATM    1  C1  UNL     1     -31.976   8.508   3.307  1.00 20.00     0.346 C 
HETATM    2  C2  UNL     1     -34.033   7.345   3.227  1.00 20.00     0.233 C 
HETATM    3  C3  UNL     1     -33.434   6.803   1.909  1.00 20.00     0.081 C 
HETATM    4  C4  UNL     1     -35.006   6.355   3.871  1.00 20.00     0.044 C 
HETATM    5  C6  UNL     1     -33.262   8.346   5.338  1.00 20.00     0.311 C 
HETATM    6  N8  UNL     1     -32.886   7.674   4.098  1.00 20.00     0.098 N 
HETATM    7  S9  UNL     1     -32.047   7.939   1.587  1.00 20.00    -0.132 SA
ENDROOT
BRANCH   3   8
HETATM    8  C7  UNL     1     -32.893   5.376   1.969  1.00 20.00     0.013 C 
HETATM    9  C5  UNL     1     -31.775   5.169   1.001  1.00 20.00     0.006 C 
ENDBRANCH   3   8
TORSDOF 1
ENDMDL
MODEL 3
REMARK VINA RESULT:       1.1      1.817      2.706
REMARK  1 active torsions:
REMARK  status: ('A' for Active; 'I' for Inactive)
REMARK    1  A    between atoms: C3_3  and  C7_7 
ROOT
HETATM    1  C1  UNL     1     -34.648   5.583   4.333  1.00 20.00     0.346 C 
HETATM    2  C2  UNL     1     -33.535   5.415   2.253  1.00 20.00     0.233 C 
HETATM    3  C3  UNL     1     -33.660   6.955   2.301  1.00 20.00     0.081 C 
HETATM    4  C4  UNL     1     -32.315   4.958   1.452  1.00 20.00     0.044 C 
HETATM    5  C6  UNL     1     -33.544   3.508   3.807  1.00 20.00     0.311 C 
HETATM    6  N8  UNL     1     -33.506   4.959   3.659  1.00 20.00     0.098 N 
HETATM    7  S9  UNL     1     -34.892   7.231   3.616  1.00 20.00    -0.132 SA
ENDROOT
BRANCH   3   8
HETATM    8  C7  UNL     1     -32.383   7.709   2.663  1.00 20.00     0.013 C 
HETATM    9  C5  UNL     1     -31.850   8.481   1.501  1.00 20.00     0.006 C 
ENDBRANCH   3   8
TORSDOF 1
ENDMDL
MODEL 4
REMARK VINA RESULT:       1.4      1.588      3.581
REMARK  1 active torsions:
REMARK  status: ('A' for Active; 'I' for Inactive)
REMARK    1  A    between atoms: C3_3  and  C7_7 
ROOT
HETATM    1  C1  UNL     1     -32.005   6.817   1.211  1.00 20.00     0.346 C 
HETATM    2  C2  UNL     1     -33.754   7.008   2.792  1.00 20.00     0.233 C 
HETATM    3  C3  UNL     1     -33.733   5.466   2.687  1.00 20.00     0.081 C 
HETATM    4  C4  UNL     1     -34.236   7.489   4.162  1.00 20.00     0.044 C 
HETATM    5  C6  UNL     1     -32.254   8.913   2.373  1.00 20.00     0.311 C 
HETATM    6  N8  UNL     1     -32.384   7.463   2.472  1.00 20.00     0.098 N 
HETATM    7  S9  UNL     1     -32.755   5.167   1.179  1.00 20.00    -0.132 SA
ENDROOT
BRANCH   3   8
HETATM    8  C7  UNL     1     -33.070   4.735   3.852  1.00 20.00     0.013 C 
HETATM    9  C5  UNL     1     -33.864   3.544   4.278  1.00 20.00     0.006 C 
ENDBRANCH   3   8
TORSDOF 1
ENDMDL
MODEL 5
REMARK VINA RESULT:       1.4      1.729      3.156
REMARK  1 active torsions:
REMARK  status: ('A' for Active; 'I' for Inactive)
REMARK    1  A    between atoms: C3_3  and  C7_7 
ROOT
HETATM    1  C1  UNL     1     -33.854   5.216   2.827  1.00 20.00     0.346 C 
HETATM    2  C2  UNL     1     -33.052   7.253   1.931  1.00 20.00     0.233 C 
HETATM    3  C3  UNL     1     -33.658   7.820   3.235  1.00 20.00     0.081 C 
HETATM    4  C4  UNL     1     -31.876   8.091   1.426  1.00 20.00     0.044 C 
HETATM    5  C6  UNL     1     -32.226   5.108   1.054  1.00 20.00     0.311 C 
HETATM    6  N8  UNL     1     -32.679   5.853   2.224  1.00 20.00     0.098 N 
HETATM    7  S9  UNL     1     -34.713   6.459   3.829  1.00 20.00    -0.132 SA
ENDROOT
BRANCH   3   8
HETATM    8  C7  UNL     1     -32.654   8.173   4.330  1.00 20.00     0.013 C 
HETATM    9  C5  UNL     1     -33.321   8.347   5.655  1.00 20.00     0.006 C 
ENDBRANCH   3   8
TORSDOF 1
ENDMDL
MODEL 6
REMARK VINA RESULT:       1.5      1.847      3.951
REMARK  1 active torsions:
REMARK  status: ('A' for Active; 'I' for Inactive)
REMARK    1  A    between atoms: C3_3  and  C7_7 
ROOT
HETATM    1  C1  UNL     1     -32.157   8.927   2.850  1.00 20.00     0.346 C 
HETATM    2  C2  UNL     1     -32.480   6.669   2.224  1.00 20.00     0.233 C 
HETATM    3  C3  UNL     1     -33.310   6.647   3.528  1.00 20.00     0.081 C 
HETATM    4  C4  UNL     1     -32.985   5.652   1.199  1.00 20.00     0.044 C 
HETATM    5  C6  UNL     1     -31.668   8.305   0.575  1.00 20.00     0.311 C 
HETATM    6  N8  UNL     1     -32.529   8.061   1.728  1.00 20.00     0.098 N 
HETATM    7  S9  UNL     1     -32.797   8.177   4.373  1.00 20.00    -0.132 SA
ENDROOT
BRANCH   3   8
HETATM    8  C7  UNL     1     -34.826   6.674   3.346  1.00 20.00     0.013 C 
HETATM    9  C5  UNL     1     -35.507   5.698   4.249  1.00 20.00     0.006 C 
ENDBRANCH   3   8
TORSDOF 1
ENDMDL
MODEL 7
REMARK VINA RESULT:       2.1      1.683      3.439
REMARK  1 active torsions:
REMARK  status: ('A' for Active; 'I' for Inactive)
REMARK    1  A    between atoms: C3_3  and  C7_7 
ROOT
HETATM    1  C1  UNL     1     -32.123   7.193   1.316  1.00 20.00     0.346 C 
HETATM    2  C2  UNL     1     -32.838   5.669   2.977  1.00 20.00     0.233 C 
HETATM    3  C3  UNL     1     -33.318   6.968   3.664  1.00 20.00     0.081 C 
HETATM    4  C4  UNL     1     -33.690   4.459   3.368  1.00 20.00     0.044 C 
HETATM    5  C6  UNL     1     -32.282   4.864   0.720  1.00 20.00     0.311 C 
HETATM    6  N8  UNL     1     -32.854   5.939   1.524  1.00 20.00     0.098 N 
HETATM    7  S9  UNL     1     -32.446   8.273   2.737  1.00 20.00    -0.132 SA
ENDROOT
BRANCH   3   8
HETATM    8  C7  UNL     1     -34.819   7.238   3.591  1.00 20.00     0.013 C 
HETATM    9  C5  UNL     1     -35.607   6.148   4.241  1.00 20.00     0.006 C 
ENDBRANCH   3   8
TORSDOF 1
ENDMDL
MODEL 8
REMARK VINA RESULT:       2.5      1.528      2.890
REMARK  1 active torsions:
REMARK  status: ('A' for Active; 'I' for Inactive)
REMARK    1  A    between atoms: C3_3  and  C7_7 
ROOT
HETATM    1  C1  UNL     1     -34.563   6.005   4.103  1.00 20.00     0.346 C 
HETATM    2  C2  UNL     1     -32.723   6.917   2.928  1.00 20.00     0.233 C 
HETATM    3  C3  UNL     1     -32.740   5.529   2.249  1.00 20.00     0.081 C 
HETATM    4  C4  UNL     1     -32.162   8.005   2.010  1.00 20.00     0.044 C 
HETATM    5  C6  UNL     1     -34.259   8.395   4.158  1.00 20.00     0.311 C 
HETATM    6  N8  UNL     1     -34.113   7.184   3.356  1.00 20.00     0.098 N 
HETATM    7  S9  UNL     1     -33.804   4.541   3.349  1.00 20.00    -0.132 SA
ENDROOT
BRANCH   3   8
HETATM    8  C7  UNL     1     -33.327   5.491   0.839  1.00 20.00     0.013 C 
HETATM    9  C5  UNL     1     -32.760   4.367   0.036  1.00 20.00     0.006 C 
ENDBRANCH   3   8
TORSDOF 1
ENDMDL
