MODEL 1
REMARK VINA RESULT:      -1.2      0.000      0.000
REMARK  1 active torsions:
REMARK  status: ('A' for Active; 'I' for Inactive)
REMARK    1  A    between atoms: C1_1  and  C3_3 
ROOT
HETATM    1  C1  UNL     1     -34.015   7.139   3.464  1.00 20.00    -0.054 C 
HETATM    2  C2  UNL     1     -34.620   6.245   3.987  1.00 20.00     0.007 C 
HETATM    3 CL8  UNL     1     -35.506   4.937   4.749  1.00 20.00    -0.023 Cl
ENDROOT
BRANCH   1   4
HETATM    4  C3  UNL     1     -33.292   8.205   2.842  1.00 20.00     0.236 A 
HETATM    5  C4  UNL     1     -32.272   7.941   1.750  1.00 20.00     0.092 A 
HETATM    6  C5  UNL     1     -31.902   9.062   0.828  1.00 20.00     0.049 C 
HETATM    7  C6  UNL     1     -31.989   6.554   1.257  1.00 20.00     0.049 C 
HETATM    8  O7  UNL     1     -31.881   8.161   3.111  1.00 20.00    -0.357 OA
ENDBRANCH   1   4
TORSDOF 1
ENDMDL
MODEL 2
REMARK VINA RESULT:      -0.4      2.891      4.301
REMARK  1 active torsions:
REMARK  status: ('A' for Active; 'I' for Inactive)
REMARK    1  A    between atoms: C1_1  and  C3_3 
ROOT
HETATM    1  C1  UNL     1     -32.905   7.719   2.341  1.00 20.00    -0.054 C 
HETATM    2  C2  UNL     1     -32.619   8.490   1.466  1.00 20.00     0.007 C 
HETATM    3 CL8  UNL     1     -32.203   9.616   0.188  1.00 20.00    -0.023 Cl
ENDROOT
BRANCH   1   4
HETATM    4  C3  UNL     1     -33.244   6.802   3.383  1.00 20.00     0.236 A 
HETATM    5  C4  UNL     1     -34.688   6.477   3.717  1.00 20.00     0.092 A 
HETATM    6  C5  UNL     1     -34.986   5.209   4.456  1.00 20.00     0.049 C 
HETATM    7  C6  UNL     1     -35.826   7.087   2.957  1.00 20.00     0.049 C 
HETATM    8  O7  UNL     1     -33.930   7.425   4.481  1.00 20.00    -0.357 OA
ENDBRANCH   1   4
TORSDOF 1
ENDMDL
MODEL 3
REMARK VINA RESULT:      -0.3      2.979      4.344
REMARK  1 active torsions:
REMARK  status: ('A' for Active; 'I' for Inactive)
REMARK    1  A    between atoms: C1_1  and  C3_3 
ROOT
HETATM    1  C1  UNL     1     -32.828   7.163   1.709  1.00 20.00    -0.054 C 
HETATM    2  C2  UNL     1     -32.076   7.927   1.168  1.00 20.00     0.007 C 
HETATM    3 CL8  UNL     1     -30.977   9.041   0.376  1.00 20.00    -0.023 Cl
ENDROOT
BRANCH   1   4
HETATM    4  C3  UNL     1     -33.725   6.255   2.353  1.00 20.00     0.236 A 
HETATM    5  C4  UNL     1     -34.290   6.541   3.732  1.00 20.00     0.092 A 
HETATM    6  C5  UNL     1     -35.542   5.836   4.155  1.00 20.00     0.049 C 
HETATM    7  C6  UNL     1     -33.952   7.798   4.475  1.00 20.00     0.049 C 
HETATM    8  O7  UNL     1     -33.171   5.665   3.541  1.00 20.00    -0.357 OA
ENDBRANCH   1   4
TORSDOF 1
ENDMDL
MODEL 4
REMARK VINA RESULT:       0.2      2.483      3.575
REMARK  1 active torsions:
REMARK  status: ('A' for Active; 'I' for Inactive)
REMARK    1  A    between atoms: C1_1  and  C3_3 
ROOT
HETATM    1  C1  UNL     1     -32.730   6.326   1.924  1.00 20.00    -0.054 C 
HETATM    2  C2  UNL     1     -32.678   5.457   1.098  1.00 20.00     0.007 C 
HETATM    3 CL8  UNL     1     -32.604   4.188  -0.109  1.00 20.00    -0.023 Cl
ENDROOT
BRANCH   1   4
HETATM    4  C3  UNL     1     -32.790   7.362   2.909  1.00 20.00     0.236 A 
HETATM    5  C4  UNL     1     -33.921   7.435   3.917  1.00 20.00     0.092 A 
HETATM    6  C5  UNL     1     -33.709   8.213   5.178  1.00 20.00     0.049 C 
HETATM    7  C6  UNL     1     -35.018   6.414   3.942  1.00 20.00     0.049 C 
HETATM    8  O7  UNL     1     -33.912   8.242   2.732  1.00 20.00    -0.357 OA
ENDBRANCH   1   4
TORSDOF 1
ENDMDL
MODEL 5
REMARK VINA RESULT:       0.4      2.085      2.498
REMARK  1 active torsions:
REMARK  status: ('A' for Active; 'I' for Inactive)
REMARK    1  A    between atoms: C1_1  and  C3_3 
ROOT
HETATM    1  C1  UNL     1     -32.824   4.821   2.848  1.00 20.00    -0.054 C 
HETATM    2  C2  UNL     1     -33.097   3.963   3.641  1.00 20.00     0.007 C 
HETATM    3 CL8  UNL     1     -33.498   2.707   4.798  1.00 20.00    -0.023 Cl
ENDROOT
BRANCH   1   4
HETATM    4  C3  UNL     1     -32.496   5.845   1.904  1.00 20.00     0.236 A 
HETATM    5  C4  UNL     1     -32.785   7.307   2.186  1.00 20.00     0.092 A 
HETATM    6  C5  UNL     1     -32.029   8.349   1.422  1.00 20.00     0.049 C 
HETATM    7  C6  UNL     1     -33.409   7.750   3.476  1.00 20.00     0.049 C 
HETATM    8  O7  UNL     1     -33.653   6.509   1.370  1.00 20.00    -0.357 OA
ENDBRANCH   1   4
TORSDOF 1
ENDMDL
MODEL 6
REMARK VINA RESULT:       0.4      3.233      4.126
REMARK  1 active torsions:
REMARK  status: ('A' for Active; 'I' for Inactive)
REMARK    1  A    between atoms: C1_1  and  C3_3 
ROOT
HETATM    1  C1  UNL     1     -32.682   8.138   2.024  1.00 20.00    -0.054 C 
HETATM    2  C2  UNL     1     -32.419   8.963   1.193  1.00 20.00     0.007 C 
HETATM    3 CL8  UNL     1     -32.032  10.168  -0.021  1.00 20.00    -0.023 Cl
ENDROOT
BRANCH   1   4
HETATM    4  C3  UNL     1     -32.998   7.155   3.014  1.00 20.00     0.236 A 
HETATM    5  C4  UNL     1     -33.365   5.733   2.632  1.00 20.00     0.092 A 
HETATM    6  C5  UNL     1     -33.227   4.655   3.662  1.00 20.00     0.049 C 
HETATM    7  C6  UNL     1     -33.395   5.286   1.202  1.00 20.00     0.049 C 
HETATM    8  O7  UNL     1     -34.363   6.712   2.952  1.00 20.00    -0.357 OA
ENDBRANCH   1   4
TORSDOF 1
ENDMDL
MODEL 7
REMARK VINA RESULT:       0.8      2.560      3.130
REMARK  1 active torsions:
REMARK  status: ('A' for Active; 'I' for Inactive)
REMARK    1  A    between atoms: C1_1  and  C3_3 
ROOT
HETATM    1  C1  UNL     1     -33.972   4.871   3.764  1.00 20.00    -0.054 C 
HETATM    2  C2  UNL     1     -33.634   3.837   4.271  1.00 20.00     0.007 C 
HETATM    3 CL8  UNL     1     -33.138   2.327   5.012  1.00 20.00    -0.023 Cl
ENDROOT
BRANCH   1   4
HETATM    4  C3  UNL     1     -34.376   6.103   3.161  1.00 20.00     0.236 A 
HETATM    5  C4  UNL     1     -34.039   7.442   3.788  1.00 20.00     0.092 A 
HETATM    6  C5  UNL     1     -34.058   8.665   2.924  1.00 20.00     0.049 C 
HETATM    7  C6  UNL     1     -33.250   7.538   5.059  1.00 20.00     0.049 C 
HETATM    8  O7  UNL     1     -35.326   6.833   3.953  1.00 20.00    -0.357 OA
ENDBRANCH   1   4
TORSDOF 1
ENDMDL
MODEL 8
REMARK VINA RESULT:       0.8      2.933      4.352
REMARK  1 active torsions:
REMARK  status: ('A' for Active; 'I' for Inactive)
REMARK    1  A    between atoms: C1_1  and  C3_3 
ROOT
HETATM    1  C1  UNL     1     -33.424   7.495   3.063  1.00 20.00    -0.054 C 
HETATM    2  C2  UNL     1     -32.596   7.911   2.300  1.00 20.00     0.007 C 
HETATM    3 CL8  UNL     1     -31.387   8.521   1.186  1.00 20.00    -0.023 Cl
ENDROOT
BRANCH   1   4
HETATM    4  C3  UNL     1     -34.409   6.998   3.972  1.00 20.00     0.236 A 
HETATM    5  C4  UNL     1     -34.717   5.516   4.078  1.00 20.00     0.092 A 
HETATM    6  C5  UNL     1     -35.378   5.007   5.321  1.00 20.00     0.049 C 
HETATM    7  C6  UNL     1     -33.988   4.501   3.249  1.00 20.00     0.049 C 
HETATM    8  O7  UNL     1     -35.538   6.405   3.310  1.00 20.00    -0.357 OA
ENDBRANCH   1   4
TORSDOF 1
ENDMDL
MODEL 9
REMARK VINA RESULT:       1.3      2.617      3.042
REMARK  1 active torsions:
REMARK  status: ('A' for Active; 'I' for Inactive)
REMARK    1  A    between atoms: C1_1  and  C3_3 
ROOT
HETATM    1  C1  UNL     1     -32.342   7.155   1.372  1.00 20.00    -0.054 C 
HETATM    2  C2  UNL     1     -32.451   5.986   1.123  1.00 20.00     0.007 C 
HETATM    3 CL8  UNL     1     -32.609   4.277   0.761  1.00 20.00    -0.023 Cl
ENDROOT
BRANCH   1   4
HETATM    4  C3  UNL     1     -32.214   8.548   1.668  1.00 20.00     0.236 A 
HETATM    5  C4  UNL     1     -32.355   9.605   0.589  1.00 20.00     0.092 A 
HETATM    6  C5  UNL     1     -32.679  11.009   0.998  1.00 20.00     0.049 C 
HETATM    7  C6  UNL     1     -32.657   9.241  -0.834  1.00 20.00     0.049 C 
HETATM    8  O7  UNL     1     -31.072   9.154   1.040  1.00 20.00    -0.357 OA
ENDBRANCH   1   4
TORSDOF 1
ENDMDL
