MODEL 1
REMARK VINA RESULT:      -0.9      0.000      0.000
REMARK  2 active torsions:
REMARK  status: ('A' for Active; 'I' for Inactive)
REMARK    1  A    between atoms: C1_1  and  C6_6 
REMARK    2  A    between atoms: C1_1  and  O10_10 
ROOT
HETATM    1  C2  UNL     1     -32.719   8.172   2.617  1.00 20.00     0.006 C 
HETATM    2  C3  UNL     1     -31.938   7.091   1.856  1.00 20.00     0.036 C 
HETATM    3  C4  UNL     1     -33.541   7.404   3.665  1.00 20.00     0.052 C 
HETATM    4  C5  UNL     1     -32.793   5.866   1.952  1.00 20.00     0.168 A 
HETATM    5  C6  UNL     1     -33.765   6.045   3.065  1.00 20.00     0.174 A 
HETATM    6  O9  UNL     1     -34.187   6.049   1.688  1.00 20.00    -0.358 OA
ENDROOT
BRANCH   5   7
HETATM    7  C1  UNL     1     -34.275   4.911   3.828  1.00 20.00     0.296 C 
HETATM    8  O8  UNL     1     -35.301   4.940   4.495  1.00 20.00    -0.262 OA
BRANCH   7   9
HETATM    9  O10 UNL     1     -33.439   3.845   3.675  1.00 20.00    -0.324 OA
HETATM   10  C7  UNL     1     -33.250   3.039   4.842  1.00 20.00     0.213 C 
ENDBRANCH   7   9
ENDBRANCH   5   7
TORSDOF 2
ENDMDL
MODEL 2
REMARK VINA RESULT:      -0.7      2.161      4.343
REMARK  2 active torsions:
REMARK  status: ('A' for Active; 'I' for Inactive)
REMARK    1  A    between atoms: C1_1  and  C6_6 
REMARK    2  A    between atoms: C1_1  and  O10_10 
ROOT
HETATM    1  C2  UNL     1     -34.270   7.292   4.754  1.00 20.00     0.006 C 
HETATM    2  C3  UNL     1     -35.073   6.670   3.603  1.00 20.00     0.036 C 
HETATM    3  C4  UNL     1     -33.179   8.130   4.069  1.00 20.00     0.052 C 
HETATM    4  C5  UNL     1     -34.095   6.556   2.476  1.00 20.00     0.168 A 
HETATM    5  C6  UNL     1     -32.942   7.457   2.747  1.00 20.00     0.174 A 
HETATM    6  O9  UNL     1     -32.809   6.025   2.808  1.00 20.00    -0.358 OA
ENDROOT
BRANCH   5   7
HETATM    7  C1  UNL     1     -32.174   8.068   1.667  1.00 20.00     0.296 C 
HETATM    8  O8  UNL     1     -31.207   7.543   1.132  1.00 20.00    -0.262 OA
BRANCH   7   9
HETATM    9  O10 UNL     1     -32.703   9.288   1.366  1.00 20.00    -0.324 OA
HETATM   10  C7  UNL     1     -32.365   9.802   0.074  1.00 20.00     0.213 C 
ENDBRANCH   7   9
ENDBRANCH   5   7
TORSDOF 2
ENDMDL
MODEL 3
REMARK VINA RESULT:      -0.6      1.850      2.699
REMARK  2 active torsions:
REMARK  status: ('A' for Active; 'I' for Inactive)
REMARK    1  A    between atoms: C1_1  and  C6_6 
REMARK    2  A    between atoms: C1_1  and  O10_10 
ROOT
HETATM    1  C2  UNL     1     -31.849   6.654   0.991  1.00 20.00     0.006 C 
HETATM    2  C3  UNL     1     -32.092   8.166   0.890  1.00 20.00     0.036 C 
HETATM    3  C4  UNL     1     -32.833   6.165   2.066  1.00 20.00     0.052 C 
HETATM    4  C5  UNL     1     -32.579   8.565   2.248  1.00 20.00     0.168 A 
HETATM    5  C6  UNL     1     -33.047   7.349   2.966  1.00 20.00     0.174 A 
HETATM    6  O9  UNL     1     -31.846   8.040   3.358  1.00 20.00    -0.358 OA
ENDROOT
BRANCH   5   7
HETATM    7  C1  UNL     1     -34.107   7.408   3.967  1.00 20.00     0.296 C 
HETATM    8  O8  UNL     1     -34.055   8.092   4.981  1.00 20.00    -0.262 OA
BRANCH   7   9
HETATM    9  O10 UNL     1     -35.136   6.597   3.589  1.00 20.00    -0.324 OA
HETATM   10  C7  UNL     1     -35.308   5.416   4.379  1.00 20.00     0.213 C 
ENDBRANCH   7   9
ENDBRANCH   5   7
TORSDOF 2
ENDMDL
MODEL 4
REMARK VINA RESULT:      -0.5      1.688      2.193
REMARK  2 active torsions:
REMARK  status: ('A' for Active; 'I' for Inactive)
REMARK    1  A    between atoms: C1_1  and  C6_6 
REMARK    2  A    between atoms: C1_1  and  O10_10 
ROOT
HETATM    1  C2  UNL     1     -31.543   7.478   1.133  1.00 20.00     0.006 C 
HETATM    2  C3  UNL     1     -31.652   5.970   1.396  1.00 20.00     0.036 C 
HETATM    3  C4  UNL     1     -32.322   8.138   2.282  1.00 20.00     0.052 C 
HETATM    4  C5  UNL     1     -32.945   5.805   2.133  1.00 20.00     0.168 A 
HETATM    5  C6  UNL     1     -33.352   7.124   2.689  1.00 20.00     0.174 A 
HETATM    6  O9  UNL     1     -34.068   6.512   1.600  1.00 20.00    -0.358 OA
ENDROOT
BRANCH   5   7
HETATM    7  C1  UNL     1     -34.136   7.231   3.915  1.00 20.00     0.296 C 
HETATM    8  O8  UNL     1     -33.784   7.865   4.900  1.00 20.00    -0.262 OA
BRANCH   7   9
HETATM    9  O10 UNL     1     -35.294   6.524   3.778  1.00 20.00    -0.324 OA
HETATM   10  C7  UNL     1     -35.363   5.307   4.528  1.00 20.00     0.213 C 
ENDBRANCH   7   9
ENDBRANCH   5   7
TORSDOF 2
ENDMDL
MODEL 5
REMARK VINA RESULT:      -0.5      2.521      4.773
REMARK  2 active torsions:
REMARK  status: ('A' for Active; 'I' for Inactive)
REMARK    1  A    between atoms: C1_1  and  C6_6 
REMARK    2  A    between atoms: C1_1  and  O10_10 
ROOT
HETATM    1  C2  UNL     1     -33.703   6.687   3.667  1.00 20.00     0.006 C 
HETATM    2  C3  UNL     1     -33.892   5.824   2.412  1.00 20.00     0.036 C 
HETATM    3  C4  UNL     1     -33.150   8.024   3.150  1.00 20.00     0.052 C 
HETATM    4  C5  UNL     1     -32.866   6.330   1.446  1.00 20.00     0.168 A 
HETATM    5  C6  UNL     1     -32.419   7.680   1.884  1.00 20.00     0.174 A 
HETATM    6  O9  UNL     1     -31.552   6.534   1.973  1.00 20.00    -0.358 OA
ENDROOT
BRANCH   5   7
HETATM    7  C1  UNL     1     -31.963   8.684   0.928  1.00 20.00     0.296 C 
HETATM    8  O8  UNL     1     -30.978   8.552   0.214  1.00 20.00    -0.262 OA
BRANCH   7   9
HETATM    9  O10 UNL     1     -32.797   9.762   0.967  1.00 20.00    -0.324 OA
HETATM   10  C7  UNL     1     -32.804  10.576  -0.210  1.00 20.00     0.213 C 
ENDBRANCH   7   9
ENDBRANCH   5   7
TORSDOF 2
ENDMDL
MODEL 6
REMARK VINA RESULT:      -0.3      1.950      2.659
REMARK  2 active torsions:
REMARK  status: ('A' for Active; 'I' for Inactive)
REMARK    1  A    between atoms: C1_1  and  C6_6 
REMARK    2  A    between atoms: C1_1  and  O10_10 
ROOT
HETATM    1  C2  UNL     1     -32.285   9.352   0.519  1.00 20.00     0.006 C 
HETATM    2  C3  UNL     1     -31.073   8.470   0.851  1.00 20.00     0.036 C 
HETATM    3  C4  UNL     1     -33.217   9.221   1.734  1.00 20.00     0.052 C 
HETATM    4  C5  UNL     1     -31.614   7.408   1.756  1.00 20.00     0.168 A 
HETATM    5  C6  UNL     1     -32.916   7.867   2.311  1.00 20.00     0.174 A 
HETATM    6  O9  UNL     1     -32.842   6.798   1.349  1.00 20.00    -0.358 OA
ENDROOT
BRANCH   5   7
HETATM    7  C1  UNL     1     -33.386   7.437   3.624  1.00 20.00     0.296 C 
HETATM    8  O8  UNL     1     -33.207   8.071   4.656  1.00 20.00    -0.262 OA
BRANCH   7   9
HETATM    9  O10 UNL     1     -34.038   6.246   3.508  1.00 20.00    -0.324 OA
HETATM   10  C7  UNL     1     -35.383   6.231   3.996  1.00 20.00     0.213 C 
ENDBRANCH   7   9
ENDBRANCH   5   7
TORSDOF 2
ENDMDL
MODEL 7
REMARK VINA RESULT:      -0.1      2.530      4.460
REMARK  2 active torsions:
REMARK  status: ('A' for Active; 'I' for Inactive)
REMARK    1  A    between atoms: C1_1  and  C6_6 
REMARK    2  A    between atoms: C1_1  and  O10_10 
ROOT
HETATM    1  C2  UNL     1     -34.765   6.003   3.708  1.00 20.00     0.006 C 
HETATM    2  C3  UNL     1     -34.266   7.011   4.753  1.00 20.00     0.036 C 
HETATM    3  C4  UNL     1     -33.788   6.136   2.529  1.00 20.00     0.052 C 
HETATM    4  C5  UNL     1     -33.591   8.082   3.954  1.00 20.00     0.168 A 
HETATM    5  C6  UNL     1     -33.283   7.549   2.599  1.00 20.00     0.174 A 
HETATM    6  O9  UNL     1     -34.298   8.550   2.803  1.00 20.00    -0.358 OA
ENDROOT
BRANCH   5   7
HETATM    7  C1  UNL     1     -32.140   8.027   1.828  1.00 20.00     0.296 C 
HETATM    8  O8  UNL     1     -31.151   7.351   1.578  1.00 20.00    -0.262 OA
BRANCH   7   9
HETATM    9  O10 UNL     1     -32.356   9.318   1.445  1.00 20.00    -0.324 OA
HETATM   10  C7  UNL     1     -32.343   9.550   0.033  1.00 20.00     0.213 C 
ENDBRANCH   7   9
ENDBRANCH   5   7
TORSDOF 2
ENDMDL
MODEL 8
REMARK VINA RESULT:       0.1      1.975      3.167
REMARK  2 active torsions:
REMARK  status: ('A' for Active; 'I' for Inactive)
REMARK    1  A    between atoms: C1_1  and  C6_6 
REMARK    2  A    between atoms: C1_1  and  O10_10 
ROOT
HETATM    1  C2  UNL     1     -31.196   8.792   0.185  1.00 20.00     0.006 C 
HETATM    2  C3  UNL     1     -32.360   9.690   0.626  1.00 20.00     0.036 C 
HETATM    3  C4  UNL     1     -31.562   7.389   0.695  1.00 20.00     0.052 C 
HETATM    4  C5  UNL     1     -32.898   9.036   1.860  1.00 20.00     0.168 A 
HETATM    5  C6  UNL     1     -32.426   7.625   1.901  1.00 20.00     0.174 A 
HETATM    6  O9  UNL     1     -31.928   8.613   2.822  1.00 20.00    -0.358 OA
ENDROOT
BRANCH   5   7
HETATM    7  C1  UNL     1     -33.207   6.572   2.541  1.00 20.00     0.296 C 
HETATM    8  O8  UNL     1     -33.244   5.413   2.150  1.00 20.00    -0.262 OA
BRANCH   7   9
HETATM    9  O10 UNL     1     -33.869   7.086   3.616  1.00 20.00    -0.324 OA
HETATM   10  C7  UNL     1     -35.089   6.421   3.962  1.00 20.00     0.213 C 
ENDBRANCH   7   9
ENDBRANCH   5   7
TORSDOF 2
ENDMDL
MODEL 9
REMARK VINA RESULT:       0.3      1.163      1.966
REMARK  2 active torsions:
REMARK  status: ('A' for Active; 'I' for Inactive)
REMARK    1  A    between atoms: C1_1  and  C6_6 
REMARK    2  A    between atoms: C1_1  and  O10_10 
ROOT
HETATM    1  C2  UNL     1     -32.074   8.160   1.805  1.00 20.00     0.006 C 
HETATM    2  C3  UNL     1     -31.356   6.859   1.424  1.00 20.00     0.036 C 
HETATM    3  C4  UNL     1     -33.067   7.758   2.907  1.00 20.00     0.052 C 
HETATM    4  C5  UNL     1     -32.348   5.777   1.717  1.00 20.00     0.168 A 
HETATM    5  C6  UNL     1     -33.389   6.316   2.634  1.00 20.00     0.174 A 
HETATM    6  O9  UNL     1     -33.683   6.007   1.259  1.00 20.00    -0.358 OA
ENDROOT
BRANCH   5   7
HETATM    7  C1  UNL     1     -34.089   5.461   3.587  1.00 20.00     0.296 C 
HETATM    8  O8  UNL     1     -33.810   4.286   3.788  1.00 20.00    -0.262 OA
BRANCH   7   9
HETATM    9  O10 UNL     1     -35.078   6.174   4.197  1.00 20.00    -0.324 OA
HETATM   10  C7  UNL     1     -36.179   6.540   3.359  1.00 20.00     0.213 C 
ENDBRANCH   7   9
ENDBRANCH   5   7
TORSDOF 2
ENDMDL
