MODEL 1
REMARK VINA RESULT:       1.3      0.000      0.000
REMARK  1 active torsions:
REMARK  status: ('A' for Active; 'I' for Inactive)
REMARK    1  A    between atoms: C3_3  and  C9_9 
ROOT
HETATM    1  C1  UNL     1     -36.696   6.995   2.786  1.00 20.00     0.013 C 
HETATM    2  C2  UNL     1     -35.631   6.552   3.118  1.00 20.00    -0.099 C 
HETATM    3  C4  UNL     1     -32.219   7.824   2.423  1.00 20.00     0.000 C 
HETATM    4  C5  UNL     1     -32.976   6.859   1.518  1.00 20.00     0.002 C 
HETATM    5  C6  UNL     1     -33.058   8.233   3.628  1.00 20.00     0.002 C 
HETATM    6  C7  UNL     1     -33.468   5.631   2.285  1.00 20.00     0.030 C 
HETATM    7  C8  UNL     1     -33.551   7.016   4.413  1.00 20.00     0.030 C 
HETATM    8  C9  UNL     1     -34.293   5.993   3.533  1.00 20.00     0.083 C 
ENDROOT
BRANCH   8   9
HETATM    9  C3  UNL     1     -34.560   4.771   4.318  1.00 20.00     0.143 C 
HETATM   10  C10 UNL     1     -33.524   3.682   4.250  1.00 20.00     0.093 C 
HETATM   11  O11 UNL     1     -35.580   4.649   4.996  1.00 20.00    -0.297 OA
ENDBRANCH   8   9
TORSDOF 1
ENDMDL
MODEL 2
REMARK VINA RESULT:       2.0      2.125      3.840
REMARK  1 active torsions:
REMARK  status: ('A' for Active; 'I' for Inactive)
REMARK    1  A    between atoms: C3_3  and  C9_9 
ROOT
HETATM    1  C1  UNL     1     -34.180   5.610   0.120  1.00 20.00     0.013 C 
HETATM    2  C2  UNL     1     -33.802   5.958   1.205  1.00 20.00    -0.099 C 
HETATM    3  C4  UNL     1     -35.005   4.949   4.564  1.00 20.00     0.000 C 
HETATM    4  C5  UNL     1     -35.574   6.115   3.763  1.00 20.00     0.002 C 
HETATM    5  C6  UNL     1     -33.909   4.225   3.792  1.00 20.00     0.002 C 
HETATM    6  C7  UNL     1     -34.479   7.088   3.323  1.00 20.00     0.030 C 
HETATM    7  C8  UNL     1     -32.799   5.182   3.353  1.00 20.00     0.030 C 
HETATM    8  C9  UNL     1     -33.328   6.397   2.569  1.00 20.00     0.083 C 
ENDROOT
BRANCH   8   9
HETATM    9  C3  UNL     1     -32.230   7.361   2.355  1.00 20.00     0.143 C 
HETATM   10  C10 UNL     1     -32.091   8.464   3.368  1.00 20.00     0.093 C 
HETATM   11  O11 UNL     1     -31.466   7.266   1.395  1.00 20.00    -0.297 OA
ENDBRANCH   8   9
TORSDOF 1
ENDMDL
MODEL 3
REMARK VINA RESULT:       2.3      2.022      3.755
REMARK  1 active torsions:
REMARK  status: ('A' for Active; 'I' for Inactive)
REMARK    1  A    between atoms: C3_3  and  C9_9 
ROOT
HETATM    1  C1  UNL     1     -32.646   8.381   5.007  1.00 20.00     0.013 C 
HETATM    2  C2  UNL     1     -33.003   7.617   4.152  1.00 20.00    -0.099 C 
HETATM    3  C4  UNL     1     -35.535   4.914   4.303  1.00 20.00     0.000 C 
HETATM    4  C5  UNL     1     -34.061   4.729   4.646  1.00 20.00     0.002 C 
HETATM    5  C6  UNL     1     -35.844   6.359   3.931  1.00 20.00     0.002 C 
HETATM    6  C7  UNL     1     -33.152   5.211   3.515  1.00 20.00     0.030 C 
HETATM    7  C8  UNL     1     -34.949   6.854   2.793  1.00 20.00     0.030 C 
HETATM    8  C9  UNL     1     -33.449   6.657   3.078  1.00 20.00     0.083 C 
ENDROOT
BRANCH   8   9
HETATM    9  C3  UNL     1     -32.671   6.975   1.864  1.00 20.00     0.143 C 
HETATM   10  C10 UNL     1     -32.216   5.810   1.027  1.00 20.00     0.093 C 
HETATM   11  O11 UNL     1     -32.409   8.136   1.551  1.00 20.00    -0.297 OA
ENDBRANCH   8   9
TORSDOF 1
ENDMDL
MODEL 4
REMARK VINA RESULT:       2.6      1.979      3.450
REMARK  1 active torsions:
REMARK  status: ('A' for Active; 'I' for Inactive)
REMARK    1  A    between atoms: C3_3  and  C9_9 
ROOT
HETATM    1  C1  UNL     1     -31.982   8.866   1.110  1.00 20.00     0.013 C 
HETATM    2  C2  UNL     1     -32.502   7.893   1.584  1.00 20.00    -0.099 C 
HETATM    3  C4  UNL     1     -32.797   4.464   0.208  1.00 20.00     0.000 C 
HETATM    4  C5  UNL     1     -33.807   5.579  -0.042  1.00 20.00     0.002 C 
HETATM    5  C6  UNL     1     -31.630   4.949   1.059  1.00 20.00     0.002 C 
HETATM    6  C7  UNL     1     -34.302   6.197   1.266  1.00 20.00     0.030 C 
HETATM    7  C8  UNL     1     -32.107   5.562   2.377  1.00 20.00     0.030 C 
HETATM    8  C9  UNL     1     -33.156   6.671   2.179  1.00 20.00     0.083 C 
ENDROOT
BRANCH   8   9
HETATM    9  C3  UNL     1     -33.705   7.070   3.491  1.00 20.00     0.143 C 
HETATM   10  C10 UNL     1     -35.018   6.456   3.891  1.00 20.00     0.093 C 
HETATM   11  O11 UNL     1     -33.115   7.866   4.222  1.00 20.00    -0.297 OA
ENDBRANCH   8   9
TORSDOF 1
ENDMDL
MODEL 5
REMARK VINA RESULT:       2.6      2.425      4.117
REMARK  1 active torsions:
REMARK  status: ('A' for Active; 'I' for Inactive)
REMARK    1  A    between atoms: C3_3  and  C9_9 
ROOT
HETATM    1  C1  UNL     1     -34.477   6.597   3.780  1.00 20.00     0.013 C 
HETATM    2  C2  UNL     1     -33.714   6.742   2.864  1.00 20.00    -0.099 C 
HETATM    3  C4  UNL     1     -32.878   4.427   0.093  1.00 20.00     0.000 C 
HETATM    4  C5  UNL     1     -32.159   4.451   1.437  1.00 20.00     0.002 C 
HETATM    5  C6  UNL     1     -34.011   5.446   0.048  1.00 20.00     0.002 C 
HETATM    6  C7  UNL     1     -31.651   5.851   1.783  1.00 20.00     0.030 C 
HETATM    7  C8  UNL     1     -33.518   6.855   0.381  1.00 20.00     0.030 C 
HETATM    8  C9  UNL     1     -32.753   6.924   1.716  1.00 20.00     0.083 C 
ENDROOT
BRANCH   8   9
HETATM    9  C3  UNL     1     -32.147   8.263   1.867  1.00 20.00     0.143 C 
HETATM   10  C10 UNL     1     -32.307   9.213   0.712  1.00 20.00     0.093 C 
HETATM   11  O11 UNL     1     -31.542   8.585   2.889  1.00 20.00    -0.297 OA
ENDBRANCH   8   9
TORSDOF 1
ENDMDL
MODEL 6
REMARK VINA RESULT:       2.6      2.943      4.563
REMARK  1 active torsions:
REMARK  status: ('A' for Active; 'I' for Inactive)
REMARK    1  A    between atoms: C3_3  and  C9_9 
ROOT
HETATM    1  C1  UNL     1     -31.645   5.501   1.521  1.00 20.00     0.013 C 
HETATM    2  C2  UNL     1     -32.031   6.615   1.750  1.00 20.00    -0.099 C 
HETATM    3  C4  UNL     1     -33.954   7.902   4.647  1.00 20.00     0.000 C 
HETATM    4  C5  UNL     1     -34.586   7.333   3.381  1.00 20.00     0.002 C 
HETATM    5  C6  UNL     1     -32.432   7.836   4.588  1.00 20.00     0.002 C 
HETATM    6  C7  UNL     1     -34.055   8.023   2.124  1.00 20.00     0.030 C 
HETATM    7  C8  UNL     1     -31.883   8.530   3.340  1.00 20.00     0.030 C 
HETATM    8  C9  UNL     1     -32.518   8.013   2.036  1.00 20.00     0.083 C 
ENDROOT
BRANCH   8   9
HETATM    9  C3  UNL     1     -32.084   8.861   0.907  1.00 20.00     0.143 C 
HETATM   10  C10 UNL     1     -32.824  10.157   0.710  1.00 20.00     0.093 C 
HETATM   11  O11 UNL     1     -31.162   8.525   0.165  1.00 20.00    -0.297 OA
ENDBRANCH   8   9
TORSDOF 1
ENDMDL
MODEL 7
REMARK VINA RESULT:       2.8      0.783      2.815
REMARK  1 active torsions:
REMARK  status: ('A' for Active; 'I' for Inactive)
REMARK    1  A    between atoms: C3_3  and  C9_9 
ROOT
HETATM    1  C1  UNL     1     -32.743   3.980   4.285  1.00 20.00     0.013 C 
HETATM    2  C2  UNL     1     -33.332   4.933   3.853  1.00 20.00    -0.099 C 
HETATM    3  C4  UNL     1     -32.069   7.789   1.856  1.00 20.00     0.000 C 
HETATM    4  C5  UNL     1     -32.095   7.752   3.381  1.00 20.00     0.002 C 
HETATM    5  C6  UNL     1     -32.588   6.488   1.258  1.00 20.00     0.002 C 
HETATM    6  C7  UNL     1     -33.489   7.421   3.915  1.00 20.00     0.030 C 
HETATM    7  C8  UNL     1     -33.987   6.146   1.775  1.00 20.00     0.030 C 
HETATM    8  C9  UNL     1     -34.073   6.130   3.312  1.00 20.00     0.083 C 
ENDROOT
BRANCH   8   9
HETATM    9  C3  UNL     1     -35.484   5.988   3.725  1.00 20.00     0.143 C 
HETATM   10  C10 UNL     1     -36.485   6.872   3.031  1.00 20.00     0.093 C 
HETATM   11  O11 UNL     1     -35.824   5.186   4.594  1.00 20.00    -0.297 OA
ENDBRANCH   8   9
TORSDOF 1
ENDMDL
MODEL 8
REMARK VINA RESULT:       2.9      2.043      3.401
REMARK  1 active torsions:
REMARK  status: ('A' for Active; 'I' for Inactive)
REMARK    1  A    between atoms: C3_3  and  C9_9 
ROOT
HETATM    1  C1  UNL     1     -32.751   5.246   1.161  1.00 20.00     0.013 C 
HETATM    2  C2  UNL     1     -32.774   6.328   1.680  1.00 20.00    -0.099 C 
HETATM    3  C4  UNL     1     -31.625   9.602   0.373  1.00 20.00     0.000 C 
HETATM    4  C5  UNL     1     -30.741   8.626   1.141  1.00 20.00     0.002 C 
HETATM    5  C6  UNL     1     -33.029   9.043   0.173  1.00 20.00     0.002 C 
HETATM    6  C7  UNL     1     -31.367   8.226   2.478  1.00 20.00     0.030 C 
HETATM    7  C8  UNL     1     -33.675   8.647   1.502  1.00 20.00     0.030 C 
HETATM    8  C9  UNL     1     -32.802   7.688   2.332  1.00 20.00     0.083 C 
ENDROOT
BRANCH   8   9
HETATM    9  C3  UNL     1     -33.400   7.512   3.671  1.00 20.00     0.143 C 
HETATM   10  C10 UNL     1     -34.632   6.653   3.755  1.00 20.00     0.093 C 
HETATM   11  O11 UNL     1     -32.913   8.042   4.670  1.00 20.00    -0.297 OA
ENDBRANCH   8   9
TORSDOF 1
ENDMDL
MODEL 9
REMARK VINA RESULT:       3.3      2.717      4.748
REMARK  1 active torsions:
REMARK  status: ('A' for Active; 'I' for Inactive)
REMARK    1  A    between atoms: C3_3  and  C9_9 
ROOT
HETATM    1  C1  UNL     1     -30.241   8.367   2.911  1.00 20.00     0.013 C 
HETATM    2  C2  UNL     1     -31.314   8.280   2.380  1.00 20.00    -0.099 C 
HETATM    3  C4  UNL     1     -34.180   6.069   3.184  1.00 20.00     0.000 C 
HETATM    4  C5  UNL     1     -33.047   5.695   2.234  1.00 20.00     0.002 C 
HETATM    5  C6  UNL     1     -33.963   7.449   3.793  1.00 20.00     0.002 C 
HETATM    6  C7  UNL     1     -32.849   6.751   1.145  1.00 20.00     0.030 C 
HETATM    7  C8  UNL     1     -33.773   8.520   2.717  1.00 20.00     0.030 C 
HETATM    8  C9  UNL     1     -32.662   8.171   1.711  1.00 20.00     0.083 C 
ENDROOT
BRANCH   8   9
HETATM    9  C3  UNL     1     -32.675   9.148   0.603  1.00 20.00     0.143 C 
HETATM   10  C10 UNL     1     -32.756  10.601   0.984  1.00 20.00     0.093 C 
HETATM   11  O11 UNL     1     -32.621   8.791  -0.573  1.00 20.00    -0.297 OA
ENDBRANCH   8   9
TORSDOF 1
ENDMDL
