MODEL 1
REMARK VINA RESULT:       1.3      0.000      0.000
REMARK  1 active torsions:
REMARK  status: ('A' for Active; 'I' for Inactive)
REMARK    1  A    between atoms: C10_10  and  O11_11 
ROOT
HETATM    1  C1  UNL     1     -33.249   3.606   4.548  1.00 20.00     0.012 C 
HETATM    2  C2  UNL     1     -31.511   4.497   0.841  1.00 20.00     0.015 C 
HETATM    3  C3  UNL     1     -33.709   4.424   3.798  1.00 20.00    -0.108 C 
HETATM    4  C4  UNL     1     -32.260   5.254   1.397  1.00 20.00    -0.078 C 
HETATM    5  C5  UNL     1     -34.369   7.374   4.534  1.00 20.00     0.002 C 
HETATM    6  C6  UNL     1     -33.297   8.111   3.740  1.00 20.00     0.004 C 
HETATM    7  C7  UNL     1     -35.170   6.412   3.654  1.00 20.00     0.021 C 
HETATM    8  C8  UNL     1     -32.387   7.149   2.976  1.00 20.00     0.053 C 
HETATM    9  C9  UNL     1     -34.275   5.430   2.874  1.00 20.00     0.111 C 
HETATM   10  C10 UNL     1     -33.181   6.184   2.078  1.00 20.00     0.134 C 
ENDROOT
BRANCH  10  11
HETATM   11  O11 UNL     1     -33.823   6.979   1.072  1.00 20.00    -0.376 OA
HETATM   12  H23 UNL     1     -34.659   7.280   1.458  1.00 20.00     0.211 HD
ENDBRANCH  10  11
TORSDOF 1
ENDMDL
MODEL 2
REMARK VINA RESULT:       1.6      1.887      3.622
REMARK  1 active torsions:
REMARK  status: ('A' for Active; 'I' for Inactive)
REMARK    1  A    between atoms: C10_10  and  O11_11 
ROOT
HETATM    1  C1  UNL     1     -33.506   5.172   0.454  1.00 20.00     0.012 C 
HETATM    2  C2  UNL     1     -35.260   6.060   4.154  1.00 20.00     0.015 C 
HETATM    3  C3  UNL     1     -32.961   5.851   1.281  1.00 20.00    -0.108 C 
HETATM    4  C4  UNL     1     -34.377   6.727   3.686  1.00 20.00    -0.078 C 
HETATM    5  C5  UNL     1     -31.818   8.705   0.801  1.00 20.00     0.002 C 
HETATM    6  C6  UNL     1     -32.800   9.544   1.610  1.00 20.00     0.004 C 
HETATM    7  C7  UNL     1     -31.219   7.569   1.631  1.00 20.00     0.021 C 
HETATM    8  C8  UNL     1     -33.884   8.686   2.265  1.00 20.00     0.053 C 
HETATM    9  C9  UNL     1     -32.290   6.688   2.300  1.00 20.00     0.111 C 
HETATM   10  C10 UNL     1     -33.292   7.546   3.113  1.00 20.00     0.134 C 
ENDROOT
BRANCH  10  11
HETATM   11  O11 UNL     1     -32.583   8.157   4.200  1.00 20.00    -0.376 OA
HETATM   12  H23 UNL     1     -33.170   8.840   4.556  1.00 20.00     0.211 HD
ENDBRANCH  10  11
TORSDOF 1
ENDMDL
MODEL 3
REMARK VINA RESULT:       1.8      1.616      3.047
REMARK  1 active torsions:
REMARK  status: ('A' for Active; 'I' for Inactive)
REMARK    1  A    between atoms: C10_10  and  O11_11 
ROOT
HETATM    1  C1  UNL     1     -32.350   8.945   0.918  1.00 20.00     0.012 C 
HETATM    2  C2  UNL     1     -32.449   4.808   0.259  1.00 20.00     0.015 C 
HETATM    3  C3  UNL     1     -32.344   8.146   1.815  1.00 20.00    -0.108 C 
HETATM    4  C4  UNL     1     -32.773   5.298   1.306  1.00 20.00    -0.078 C 
HETATM    5  C5  UNL     1     -34.329   8.113   4.211  1.00 20.00     0.002 C 
HETATM    6  C6  UNL     1     -35.140   6.863   3.891  1.00 20.00     0.004 C 
HETATM    7  C7  UNL     1     -32.825   7.832   4.219  1.00 20.00     0.021 C 
HETATM    8  C8  UNL     1     -34.680   6.199   2.593  1.00 20.00     0.053 C 
HETATM    9  C9  UNL     1     -32.336   7.163   2.921  1.00 20.00     0.111 C 
HETATM   10  C10 UNL     1     -33.170   5.900   2.594  1.00 20.00     0.134 C 
ENDROOT
BRANCH  10  11
HETATM   11  O11 UNL     1     -32.936   4.927   3.622  1.00 20.00    -0.376 OA
HETATM   12  H23 UNL     1     -32.242   5.295   4.189  1.00 20.00     0.211 HD
ENDBRANCH  10  11
TORSDOF 1
ENDMDL
MODEL 4
REMARK VINA RESULT:       2.4      1.393      3.038
REMARK  1 active torsions:
REMARK  status: ('A' for Active; 'I' for Inactive)
REMARK    1  A    between atoms: C10_10  and  O11_11 
ROOT
HETATM    1  C1  UNL     1     -33.316   8.063   5.169  1.00 20.00     0.012 C 
HETATM    2  C2  UNL     1     -34.016   4.086   4.050  1.00 20.00     0.015 C 
HETATM    3  C3  UNL     1     -33.561   7.743   4.038  1.00 20.00    -0.108 C 
HETATM    4  C4  UNL     1     -33.687   4.927   3.258  1.00 20.00    -0.078 C 
HETATM    5  C5  UNL     1     -31.832   8.452   1.550  1.00 20.00     0.002 C 
HETATM    6  C6  UNL     1     -31.272   7.080   1.193  1.00 20.00     0.004 C 
HETATM    7  C7  UNL     1     -33.357   8.432   1.673  1.00 20.00     0.021 C 
HETATM    8  C8  UNL     1     -31.749   5.997   2.161  1.00 20.00     0.053 C 
HETATM    9  C9  UNL     1     -33.863   7.350   2.644  1.00 20.00     0.111 C 
HETATM   10  C10 UNL     1     -33.283   5.959   2.284  1.00 20.00     0.134 C 
ENDROOT
BRANCH  10  11
HETATM   11  O11 UNL     1     -33.797   5.575   1.001  1.00 20.00    -0.376 OA
HETATM   12  H23 UNL     1     -34.141   6.384   0.595  1.00 20.00     0.211 HD
ENDBRANCH  10  11
TORSDOF 1
ENDMDL
MODEL 5
REMARK VINA RESULT:       3.4      1.457      3.969
REMARK  1 active torsions:
REMARK  status: ('A' for Active; 'I' for Inactive)
REMARK    1  A    between atoms: C10_10  and  O11_11 
ROOT
HETATM    1  C1  UNL     1     -31.099   8.379   2.145  1.00 20.00     0.012 C 
HETATM    2  C2  UNL     1     -33.757   8.489   5.382  1.00 20.00     0.015 C 
HETATM    3  C3  UNL     1     -32.196   7.894   2.097  1.00 20.00    -0.108 C 
HETATM    4  C4  UNL     1     -33.863   7.689   4.492  1.00 20.00    -0.078 C 
HETATM    5  C5  UNL     1     -32.837   4.960   1.287  1.00 20.00     0.002 C 
HETATM    6  C6  UNL     1     -33.284   4.386   2.626  1.00 20.00     0.004 C 
HETATM    7  C7  UNL     1     -33.603   6.233   0.926  1.00 20.00     0.021 C 
HETATM    8  C8  UNL     1     -33.217   5.426   3.746  1.00 20.00     0.053 C 
HETATM    9  C9  UNL     1     -33.549   7.298   2.038  1.00 20.00     0.111 C 
HETATM   10  C10 UNL     1     -33.995   6.707   3.399  1.00 20.00     0.134 C 
ENDROOT
BRANCH  10  11
HETATM   11  O11 UNL     1     -35.379   6.345   3.301  1.00 20.00    -0.376 OA
HETATM   12  H23 UNL     1     -35.819   7.080   2.850  1.00 20.00     0.211 HD
ENDBRANCH  10  11
TORSDOF 1
ENDMDL
MODEL 6
REMARK VINA RESULT:       3.4      1.828      2.594
REMARK  1 active torsions:
REMARK  status: ('A' for Active; 'I' for Inactive)
REMARK    1  A    between atoms: C10_10  and  O11_11 
ROOT
HETATM    1  C1  UNL     1     -32.006   4.978   1.433  1.00 20.00     0.012 C 
HETATM    2  C2  UNL     1     -31.044   8.786  -0.026  1.00 20.00     0.015 C 
HETATM    3  C3  UNL     1     -32.703   5.938   1.622  1.00 20.00    -0.108 C 
HETATM    4  C4  UNL     1     -31.805   8.624   0.889  1.00 20.00    -0.078 C 
HETATM    5  C5  UNL     1     -33.696   6.927   4.400  1.00 20.00     0.002 C 
HETATM    6  C6  UNL     1     -32.894   8.214   4.547  1.00 20.00     0.004 C 
HETATM    7  C7  UNL     1     -34.464   6.879   3.078  1.00 20.00     0.021 C 
HETATM    8  C8  UNL     1     -31.976   8.458   3.347  1.00 20.00     0.053 C 
HETATM    9  C9  UNL     1     -33.561   7.120   1.854  1.00 20.00     0.111 C 
HETATM   10  C10 UNL     1     -32.741   8.425   2.012  1.00 20.00     0.134 C 
ENDROOT
BRANCH  10  11
HETATM   11  O11 UNL     1     -33.653   9.531   2.023  1.00 20.00    -0.376 OA
HETATM   12  H23 UNL     1     -34.236   9.394   2.784  1.00 20.00     0.211 HD
ENDBRANCH  10  11
TORSDOF 1
ENDMDL
MODEL 7
REMARK VINA RESULT:       3.9      1.227      3.353
REMARK  1 active torsions:
REMARK  status: ('A' for Active; 'I' for Inactive)
REMARK    1  A    between atoms: C10_10  and  O11_11 
ROOT
HETATM    1  C1  UNL     1     -33.838   3.701   4.083  1.00 20.00     0.012 C 
HETATM    2  C2  UNL     1     -34.084   7.858   4.548  1.00 20.00     0.015 C 
HETATM    3  C3  UNL     1     -33.181   4.465   3.429  1.00 20.00    -0.108 C 
HETATM    4  C4  UNL     1     -33.655   7.349   3.549  1.00 20.00    -0.078 C 
HETATM    5  C5  UNL     1     -33.046   4.521   0.321  1.00 20.00     0.002 C 
HETATM    6  C6  UNL     1     -33.780   5.824   0.028  1.00 20.00     0.004 C 
HETATM    7  C7  UNL     1     -31.909   4.719   1.325  1.00 20.00     0.021 C 
HETATM    8  C8  UNL     1     -34.265   6.509   1.307  1.00 20.00     0.053 C 
HETATM    9  C9  UNL     1     -32.372   5.406   2.624  1.00 20.00     0.111 C 
HETATM   10  C10 UNL     1     -33.127   6.724   2.321  1.00 20.00     0.134 C 
ENDROOT
BRANCH  10  11
HETATM   11  O11 UNL     1     -32.203   7.645   1.725  1.00 20.00    -0.376 OA
HETATM   12  H23 UNL     1     -31.776   7.168   0.998  1.00 20.00     0.211 HD
ENDBRANCH  10  11
TORSDOF 1
ENDMDL
