MODEL 1
REMARK VINA RESULT:       0.6      0.000      0.000
REMARK  1 active torsions:
REMARK  status: ('A' for Active; 'I' for Inactive)
REMARK    1  A    between atoms: C2_2  and  C6_6 
ROOT
HETATM    1  C1  UNL     1     -33.392   6.892   2.940  1.00 20.00    -0.067 C 
HETATM    2  C3  UNL     1     -34.177   7.181   3.983  1.00 20.00    -0.085 C 
HETATM    3  C4  UNL     1     -32.213   7.728   2.526  1.00 20.00     0.036 C 
HETATM    4  C5  UNL     1     -31.945   7.262   1.099  1.00 20.00     0.009 C 
HETATM    5  C6  UNL     1     -33.585   5.747   1.976  1.00 20.00     0.080 C 
HETATM    6  C7  UNL     1     -32.318   5.773   1.102  1.00 20.00    -0.004 C 
HETATM    7  C8  UNL     1     -35.346   6.319   4.364  1.00 20.00     0.043 C 
HETATM    8  C9  UNL     1     -33.944   8.389   4.845  1.00 20.00     0.043 C 
HETATM    9  C10 UNL     1     -31.153   4.916   1.603  1.00 20.00     0.011 C 
ENDROOT
BRANCH   5  10
HETATM   10  C2  UNL     1     -33.821   4.450   2.689  1.00 20.00     0.240 C 
HETATM   11  O11 UNL     1     -33.298   4.162   3.760  1.00 20.00    -0.306 OA
ENDBRANCH   5  10
TORSDOF 1
ENDMDL
MODEL 2
REMARK VINA RESULT:       0.7      1.697      3.555
REMARK  1 active torsions:
REMARK  status: ('A' for Active; 'I' for Inactive)
REMARK    1  A    between atoms: C2_2  and  C6_6 
ROOT
HETATM    1  C1  UNL     1     -32.912   8.271   2.158  1.00 20.00    -0.067 C 
HETATM    2  C3  UNL     1     -32.381   8.890   1.098  1.00 20.00    -0.085 C 
HETATM    3  C4  UNL     1     -33.838   8.938   3.137  1.00 20.00     0.036 C 
HETATM    4  C5  UNL     1     -33.799   8.001   4.340  1.00 20.00     0.009 C 
HETATM    5  C6  UNL     1     -32.628   6.853   2.590  1.00 20.00     0.080 C 
HETATM    6  C7  UNL     1     -33.624   6.602   3.736  1.00 20.00    -0.004 C 
HETATM    7  C8  UNL     1     -31.459   8.188   0.144  1.00 20.00     0.043 C 
HETATM    8  C9  UNL     1     -32.671  10.332   0.791  1.00 20.00     0.043 C 
HETATM    9  C10 UNL     1     -34.974   6.012   3.319  1.00 20.00     0.011 C 
ENDROOT
BRANCH   5  10
HETATM   10  C2  UNL     1     -32.738   5.888   1.447  1.00 20.00     0.240 C 
HETATM   11  O11 UNL     1     -31.902   5.023   1.209  1.00 20.00    -0.306 OA
ENDBRANCH   5  10
TORSDOF 1
ENDMDL
MODEL 3
REMARK VINA RESULT:       1.2      0.854      3.398
REMARK  1 active torsions:
REMARK  status: ('A' for Active; 'I' for Inactive)
REMARK    1  A    between atoms: C2_2  and  C6_6 
ROOT
HETATM    1  C1  UNL     1     -32.997   6.866   2.607  1.00 20.00    -0.067 C 
HETATM    2  C3  UNL     1     -32.137   6.636   1.608  1.00 20.00    -0.085 C 
HETATM    3  C4  UNL     1     -33.634   8.203   2.869  1.00 20.00     0.036 C 
HETATM    4  C5  UNL     1     -34.140   8.067   4.301  1.00 20.00     0.009 C 
HETATM    5  C6  UNL     1     -33.415   5.872   3.662  1.00 20.00     0.080 C 
HETATM    6  C7  UNL     1     -34.536   6.590   4.433  1.00 20.00    -0.004 C 
HETATM    7  C8  UNL     1     -31.523   5.286   1.381  1.00 20.00     0.043 C 
HETATM    8  C9  UNL     1     -31.727   7.715   0.647  1.00 20.00     0.043 C 
HETATM    9  C10 UNL     1     -35.955   6.354   3.908  1.00 20.00     0.011 C 
ENDROOT
BRANCH   5  10
HETATM   10  C2  UNL     1     -33.816   4.557   3.064  1.00 20.00     0.240 C 
HETATM   11  O11 UNL     1     -33.948   3.528   3.718  1.00 20.00    -0.306 OA
ENDBRANCH   5  10
TORSDOF 1
ENDMDL
MODEL 4
REMARK VINA RESULT:       1.2      1.916      4.278
REMARK  1 active torsions:
REMARK  status: ('A' for Active; 'I' for Inactive)
REMARK    1  A    between atoms: C2_2  and  C6_6 
ROOT
HETATM    1  C1  UNL     1     -33.195   6.258   2.402  1.00 20.00    -0.067 C 
HETATM    2  C3  UNL     1     -32.402   5.798   1.427  1.00 20.00    -0.085 C 
HETATM    3  C4  UNL     1     -33.868   5.374   3.414  1.00 20.00     0.036 C 
HETATM    4  C5  UNL     1     -34.958   6.276   3.986  1.00 20.00     0.009 C 
HETATM    5  C6  UNL     1     -33.601   7.696   2.609  1.00 20.00     0.080 C 
HETATM    6  C7  UNL     1     -34.350   7.685   3.953  1.00 20.00    -0.004 C 
HETATM    7  C8  UNL     1     -31.748   6.714   0.434  1.00 20.00     0.043 C 
HETATM    8  C9  UNL     1     -32.114   4.334   1.259  1.00 20.00     0.043 C 
HETATM    9  C10 UNL     1     -33.487   7.939   5.193  1.00 20.00     0.011 C 
ENDROOT
BRANCH   5  10
HETATM   10  C2  UNL     1     -32.422   8.622   2.563  1.00 20.00     0.240 C 
HETATM   11  O11 UNL     1     -32.244   9.446   1.672  1.00 20.00    -0.306 OA
ENDBRANCH   5  10
TORSDOF 1
ENDMDL
MODEL 5
REMARK VINA RESULT:       1.4      1.972      3.104
REMARK  1 active torsions:
REMARK  status: ('A' for Active; 'I' for Inactive)
REMARK    1  A    between atoms: C2_2  and  C6_6 
ROOT
HETATM    1  C1  UNL     1     -33.268   6.905   2.760  1.00 20.00    -0.067 C 
HETATM    2  C3  UNL     1     -34.136   7.058   3.767  1.00 20.00    -0.085 C 
HETATM    3  C4  UNL     1     -33.359   5.803   1.741  1.00 20.00     0.036 C 
HETATM    4  C5  UNL     1     -31.965   5.792   1.122  1.00 20.00     0.009 C 
HETATM    5  C6  UNL     1     -32.036   7.741   2.518  1.00 20.00     0.080 C 
HETATM    6  C7  UNL     1     -31.517   7.260   1.151  1.00 20.00    -0.004 C 
HETATM    7  C8  UNL     1     -34.009   8.172   4.765  1.00 20.00     0.043 C 
HETATM    8  C9  UNL     1     -35.297   6.125   3.966  1.00 20.00     0.043 C 
HETATM    9  C10 UNL     1     -32.053   8.021  -0.064  1.00 20.00     0.011 C 
ENDROOT
BRANCH   5  10
HETATM   10  C2  UNL     1     -32.335   9.209   2.587  1.00 20.00     0.240 C 
HETATM   11  O11 UNL     1     -32.734   9.864   1.630  1.00 20.00    -0.306 OA
ENDBRANCH   5  10
TORSDOF 1
ENDMDL
MODEL 6
REMARK VINA RESULT:       1.6      1.477      2.670
REMARK  1 active torsions:
REMARK  status: ('A' for Active; 'I' for Inactive)
REMARK    1  A    between atoms: C2_2  and  C6_6 
ROOT
HETATM    1  C1  UNL     1     -33.789   6.183   3.193  1.00 20.00    -0.067 C 
HETATM    2  C3  UNL     1     -34.183   5.012   3.708  1.00 20.00    -0.085 C 
HETATM    3  C4  UNL     1     -34.123   7.516   3.803  1.00 20.00     0.036 C 
HETATM    4  C5  UNL     1     -33.855   8.492   2.661  1.00 20.00     0.009 C 
HETATM    5  C6  UNL     1     -33.024   6.372   1.907  1.00 20.00     0.080 C 
HETATM    6  C7  UNL     1     -32.682   7.872   1.890  1.00 20.00    -0.004 C 
HETATM    7  C8  UNL     1     -33.829   3.701   3.068  1.00 20.00     0.043 C 
HETATM    8  C9  UNL     1     -35.006   4.930   4.962  1.00 20.00     0.043 C 
HETATM    9  C10 UNL     1     -31.344   8.251   2.530  1.00 20.00     0.011 C 
ENDROOT
BRANCH   5  10
HETATM   10  C2  UNL     1     -31.835   5.462   1.825  1.00 20.00     0.240 C 
HETATM   11  O11 UNL     1     -31.505   4.871   0.802  1.00 20.00    -0.306 OA
ENDBRANCH   5  10
TORSDOF 1
ENDMDL
MODEL 7
REMARK VINA RESULT:       1.7      1.687      4.064
REMARK  1 active torsions:
REMARK  status: ('A' for Active; 'I' for Inactive)
REMARK    1  A    between atoms: C2_2  and  C6_6 
ROOT
HETATM    1  C1  UNL     1     -33.668   5.397   3.273  1.00 20.00    -0.067 C 
HETATM    2  C3  UNL     1     -32.912   4.361   2.890  1.00 20.00    -0.085 C 
HETATM    3  C4  UNL     1     -34.672   5.329   4.390  1.00 20.00     0.036 C 
HETATM    4  C5  UNL     1     -35.544   6.556   4.142  1.00 20.00     0.009 C 
HETATM    5  C6  UNL     1     -33.699   6.758   2.623  1.00 20.00     0.080 C 
HETATM    6  C7  UNL     1     -34.584   7.601   3.558  1.00 20.00    -0.004 C 
HETATM    7  C8  UNL     1     -31.921   4.470   1.769  1.00 20.00     0.043 C 
HETATM    8  C9  UNL     1     -33.007   3.018   3.557  1.00 20.00     0.043 C 
HETATM    9  C10 UNL     1     -33.844   8.349   4.671  1.00 20.00     0.011 C 
ENDROOT
BRANCH   5  10
HETATM   10  C2  UNL     1     -32.320   7.307   2.411  1.00 20.00     0.240 C 
HETATM   11  O11 UNL     1     -32.052   8.156   1.567  1.00 20.00    -0.306 OA
ENDBRANCH   5  10
TORSDOF 1
ENDMDL
MODEL 8
REMARK VINA RESULT:       1.9      1.564      3.270
REMARK  1 active torsions:
REMARK  status: ('A' for Active; 'I' for Inactive)
REMARK    1  A    between atoms: C2_2  and  C6_6 
ROOT
HETATM    1  C1  UNL     1     -32.565   7.064   1.624  1.00 20.00    -0.067 C 
HETATM    2  C3  UNL     1     -32.083   8.287   1.372  1.00 20.00    -0.085 C 
HETATM    3  C4  UNL     1     -31.990   5.804   1.039  1.00 20.00     0.036 C 
HETATM    4  C5  UNL     1     -33.107   4.787   1.251  1.00 20.00     0.009 C 
HETATM    5  C6  UNL     1     -33.782   6.747   2.458  1.00 20.00     0.080 C 
HETATM    6  C7  UNL     1     -33.773   5.212   2.566  1.00 20.00    -0.004 C 
HETATM    7  C8  UNL     1     -32.687   9.521   1.975  1.00 20.00     0.043 C 
HETATM    8  C9  UNL     1     -30.905   8.506   0.466  1.00 20.00     0.043 C 
HETATM    9  C10 UNL     1     -33.022   4.640   3.771  1.00 20.00     0.011 C 
ENDROOT
BRANCH   5  10
HETATM   10  C2  UNL     1     -33.759   7.463   3.774  1.00 20.00     0.240 C 
HETATM   11  O11 UNL     1     -34.695   7.452   4.567  1.00 20.00    -0.306 OA
ENDBRANCH   5  10
TORSDOF 1
ENDMDL
MODEL 9
REMARK VINA RESULT:       2.4      1.755      3.557
REMARK  1 active torsions:
REMARK  status: ('A' for Active; 'I' for Inactive)
REMARK    1  A    between atoms: C2_2  and  C6_6 
ROOT
HETATM    1  C1  UNL     1     -32.386   6.889   1.594  1.00 20.00    -0.067 C 
HETATM    2  C3  UNL     1     -32.789   5.618   1.710  1.00 20.00    -0.085 C 
HETATM    3  C4  UNL     1     -31.700   7.438   0.375  1.00 20.00     0.036 C 
HETATM    4  C5  UNL     1     -31.071   8.730   0.887  1.00 20.00     0.009 C 
HETATM    5  C6  UNL     1     -32.481   7.949   2.664  1.00 20.00     0.080 C 
HETATM    6  C7  UNL     1     -32.053   9.243   1.950  1.00 20.00    -0.004 C 
HETATM    7  C8  UNL     1     -33.471   5.108   2.946  1.00 20.00     0.043 C 
HETATM    8  C9  UNL     1     -32.585   4.615   0.610  1.00 20.00     0.043 C 
HETATM    9  C10 UNL     1     -33.186  10.048   1.306  1.00 20.00     0.011 C 
ENDROOT
BRANCH   5  10
HETATM   10  C2  UNL     1     -33.847   8.001   3.279  1.00 20.00     0.240 C 
HETATM   11  O11 UNL     1     -34.052   7.885   4.482  1.00 20.00    -0.306 OA
ENDBRANCH   5  10
TORSDOF 1
ENDMDL
