MODEL 1
REMARK VINA RESULT:       0.6      0.000      0.000
REMARK  0 active torsions:
REMARK  status: ('A' for Active; 'I' for Inactive)
ROOT
HETATM    1  C1  UNL     1     -32.354  10.534   0.148  1.00 20.00     0.012 C 
HETATM    2  C2  UNL     1     -32.672   9.464   0.587  1.00 20.00    -0.111 C 
HETATM    3  C3  UNL     1     -33.533   6.638   2.797  1.00 20.00     0.132 C 
HETATM    4  C4  UNL     1     -32.656   5.899   1.805  1.00 20.00     0.084 C 
HETATM    5  C5  UNL     1     -31.930   8.392   3.256  1.00 20.00     0.014 C 
HETATM    6  C6  UNL     1     -30.971   7.716   2.254  1.00 20.00     0.007 C 
HETATM    7  C7  UNL     1     -33.061   8.156   1.122  1.00 20.00     0.080 C 
HETATM    8  C8  UNL     1     -33.311   8.131   2.635  1.00 20.00     0.071 C 
HETATM    9  C9  UNL     1     -31.927   7.120   1.192  1.00 20.00     0.009 C 
HETATM   10  O10 UNL     1     -34.272   6.114   3.614  1.00 20.00    -0.298 OA
ENDROOT
TORSDOF 0
ENDMDL
MODEL 2
REMARK VINA RESULT:       1.2      1.969      3.600
REMARK  0 active torsions:
REMARK  status: ('A' for Active; 'I' for Inactive)
ROOT
HETATM    1  C1  UNL     1     -35.101   6.013   4.105  1.00 20.00     0.012 C 
HETATM    2  C2  UNL     1     -34.324   6.750   3.562  1.00 20.00    -0.111 C 
HETATM    3  C3  UNL     1     -32.350   8.638   1.083  1.00 20.00     0.132 C 
HETATM    4  C4  UNL     1     -31.231   8.263   2.034  1.00 20.00     0.084 C 
HETATM    5  C5  UNL     1     -33.203   6.386   0.835  1.00 20.00     0.014 C 
HETATM    6  C6  UNL     1     -32.101   5.911   1.806  1.00 20.00     0.007 C 
HETATM    7  C7  UNL     1     -33.375   7.649   2.900  1.00 20.00     0.080 C 
HETATM    8  C8  UNL     1     -33.563   7.775   1.384  1.00 20.00     0.071 C 
HETATM    9  C9  UNL     1     -31.942   7.106   2.778  1.00 20.00     0.009 C 
HETATM   10  O10 UNL     1     -32.274   9.474   0.197  1.00 20.00    -0.298 OA
ENDROOT
TORSDOF 0
ENDMDL
MODEL 3
REMARK VINA RESULT:       2.2      1.649      2.991
REMARK  0 active torsions:
REMARK  status: ('A' for Active; 'I' for Inactive)
ROOT
HETATM    1  C1  UNL     1     -31.557   8.581   1.849  1.00 20.00     0.012 C 
HETATM    2  C2  UNL     1     -32.236   7.837   2.502  1.00 20.00    -0.111 C 
HETATM    3  C3  UNL     1     -34.023   4.898   3.835  1.00 20.00     0.132 C 
HETATM    4  C4  UNL     1     -35.131   5.924   3.968  1.00 20.00     0.084 C 
HETATM    5  C5  UNL     1     -33.555   5.368   1.508  1.00 20.00     0.014 C 
HETATM    6  C6  UNL     1     -34.661   6.443   1.550  1.00 20.00     0.007 C 
HETATM    7  C7  UNL     1     -33.066   6.930   3.300  1.00 20.00     0.080 C 
HETATM    8  C8  UNL     1     -32.947   5.450   2.916  1.00 20.00     0.071 C 
HETATM    9  C9  UNL     1     -34.572   6.991   2.995  1.00 20.00     0.009 C 
HETATM   10  O10 UNL     1     -34.015   3.795   4.356  1.00 20.00    -0.298 OA
ENDROOT
TORSDOF 0
ENDMDL
MODEL 4
REMARK VINA RESULT:       2.4      2.138      4.172
REMARK  0 active torsions:
REMARK  status: ('A' for Active; 'I' for Inactive)
ROOT
HETATM    1  C1  UNL     1     -33.827   3.557   4.705  1.00 20.00     0.012 C 
HETATM    2  C2  UNL     1     -33.479   4.395   3.919  1.00 20.00    -0.111 C 
HETATM    3  C3  UNL     1     -32.527   7.560   2.280  1.00 20.00     0.132 C 
HETATM    4  C4  UNL     1     -33.400   6.983   1.183  1.00 20.00     0.084 C 
HETATM    5  C5  UNL     1     -34.164   7.283   4.042  1.00 20.00     0.014 C 
HETATM    6  C6  UNL     1     -35.120   6.672   2.995  1.00 20.00     0.007 C 
HETATM    7  C7  UNL     1     -33.054   5.416   2.958  1.00 20.00     0.080 C 
HETATM    8  C8  UNL     1     -32.786   6.797   3.568  1.00 20.00     0.071 C 
HETATM    9  C9  UNL     1     -34.164   5.933   2.027  1.00 20.00     0.009 C 
HETATM   10  O10 UNL     1     -31.767   8.506   2.155  1.00 20.00    -0.298 OA
ENDROOT
TORSDOF 0
ENDMDL
MODEL 5
REMARK VINA RESULT:       2.7      1.950      3.162
REMARK  0 active torsions:
REMARK  status: ('A' for Active; 'I' for Inactive)
ROOT
HETATM    1  C1  UNL     1     -33.988   7.927   4.644  1.00 20.00     0.012 C 
HETATM    2  C2  UNL     1     -33.738   7.184   3.736  1.00 20.00    -0.111 C 
HETATM    3  C3  UNL     1     -32.070   5.283   1.050  1.00 20.00     0.132 C 
HETATM    4  C4  UNL     1     -33.352   5.637   0.323  1.00 20.00     0.084 C 
HETATM    5  C5  UNL     1     -31.567   7.548   1.741  1.00 20.00     0.014 C 
HETATM    6  C6  UNL     1     -32.863   8.002   1.036  1.00 20.00     0.007 C 
HETATM    7  C7  UNL     1     -33.434   6.275   2.628  1.00 20.00     0.080 C 
HETATM    8  C8  UNL     1     -31.944   6.161   2.283  1.00 20.00     0.071 C 
HETATM    9  C9  UNL     1     -33.818   6.799   1.234  1.00 20.00     0.009 C 
HETATM   10  O10 UNL     1     -31.255   4.452   0.683  1.00 20.00    -0.298 OA
ENDROOT
TORSDOF 0
ENDMDL
MODEL 6
REMARK VINA RESULT:       3.1      1.346      3.183
REMARK  0 active torsions:
REMARK  status: ('A' for Active; 'I' for Inactive)
ROOT
HETATM    1  C1  UNL     1     -31.281   4.191   0.181  1.00 20.00     0.012 C 
HETATM    2  C2  UNL     1     -31.584   4.986   1.028  1.00 20.00    -0.111 C 
HETATM    3  C3  UNL     1     -33.410   7.303   3.244  1.00 20.00     0.132 C 
HETATM    4  C4  UNL     1     -32.192   8.161   2.962  1.00 20.00     0.084 C 
HETATM    5  C5  UNL     1     -33.903   6.839   0.920  1.00 20.00     0.014 C 
HETATM    6  C6  UNL     1     -32.674   7.688   0.537  1.00 20.00     0.007 C 
HETATM    7  C7  UNL     1     -31.951   5.957   2.062  1.00 20.00     0.080 C 
HETATM    8  C8  UNL     1     -33.460   6.172   2.231  1.00 20.00     0.071 C 
HETATM    9  C9  UNL     1     -31.683   7.427   1.698  1.00 20.00     0.009 C 
HETATM   10  O10 UNL     1     -34.232   7.509   4.121  1.00 20.00    -0.298 OA
ENDROOT
TORSDOF 0
ENDMDL
MODEL 7
REMARK VINA RESULT:       3.2      1.707      2.569
REMARK  0 active torsions:
REMARK  status: ('A' for Active; 'I' for Inactive)
ROOT
HETATM    1  C1  UNL     1     -31.356   8.089   1.489  1.00 20.00     0.012 C 
HETATM    2  C2  UNL     1     -32.289   7.459   1.905  1.00 20.00    -0.111 C 
HETATM    3  C3  UNL     1     -35.481   6.418   3.434  1.00 20.00     0.132 C 
HETATM    4  C4  UNL     1     -34.578   5.359   4.036  1.00 20.00     0.084 C 
HETATM    5  C5  UNL     1     -34.106   8.295   4.102  1.00 20.00     0.014 C 
HETATM    6  C6  UNL     1     -33.121   7.289   4.735  1.00 20.00     0.007 C 
HETATM    7  C7  UNL     1     -33.427   6.689   2.414  1.00 20.00     0.080 C 
HETATM    8  C8  UNL     1     -34.621   7.536   2.870  1.00 20.00     0.071 C 
HETATM    9  C9  UNL     1     -33.217   6.058   3.801  1.00 20.00     0.009 C 
HETATM   10  O10 UNL     1     -36.701   6.391   3.435  1.00 20.00    -0.298 OA
ENDROOT
TORSDOF 0
ENDMDL
MODEL 8
REMARK VINA RESULT:       3.4      2.099      3.610
REMARK  0 active torsions:
REMARK  status: ('A' for Active; 'I' for Inactive)
ROOT
HETATM    1  C1  UNL     1     -32.365   4.816   1.672  1.00 20.00     0.012 C 
HETATM    2  C2  UNL     1     -32.621   5.969   1.456  1.00 20.00    -0.111 C 
HETATM    3  C3  UNL     1     -32.435   9.564   0.648  1.00 20.00     0.132 C 
HETATM    4  C4  UNL     1     -33.391   9.638   1.822  1.00 20.00     0.084 C 
HETATM    5  C5  UNL     1     -30.757   8.256   1.804  1.00 20.00     0.014 C 
HETATM    6  C6  UNL     1     -31.670   8.269   3.048  1.00 20.00     0.007 C 
HETATM    7  C7  UNL     1     -32.934   7.375   1.191  1.00 20.00     0.080 C 
HETATM    8  C8  UNL     1     -31.764   8.201   0.644  1.00 20.00     0.071 C 
HETATM    9  C9  UNL     1     -33.096   8.251   2.445  1.00 20.00     0.009 C 
HETATM   10  O10 UNL     1     -32.215  10.465  -0.144  1.00 20.00    -0.298 OA
ENDROOT
TORSDOF 0
ENDMDL
MODEL 9
REMARK VINA RESULT:       3.6      2.074      3.601
REMARK  0 active torsions:
REMARK  status: ('A' for Active; 'I' for Inactive)
ROOT
HETATM    1  C1  UNL     1     -34.199   4.115  -0.631  1.00 20.00     0.012 C 
HETATM    2  C2  UNL     1     -33.955   5.043   0.091  1.00 20.00    -0.111 C 
HETATM    3  C3  UNL     1     -32.282   7.570   2.195  1.00 20.00     0.132 C 
HETATM    4  C4  UNL     1     -33.464   7.264   3.094  1.00 20.00     0.084 C 
HETATM    5  C5  UNL     1     -31.613   5.262   1.905  1.00 20.00     0.014 C 
HETATM    6  C6  UNL     1     -32.799   4.853   2.803  1.00 20.00     0.007 C 
HETATM    7  C7  UNL     1     -33.658   6.176   0.971  1.00 20.00     0.080 C 
HETATM    8  C8  UNL     1     -32.165   6.478   1.146  1.00 20.00     0.071 C 
HETATM    9  C9  UNL     1     -33.881   5.910   2.470  1.00 20.00     0.009 C 
HETATM   10  O10 UNL     1     -31.529   8.522   2.317  1.00 20.00    -0.298 OA
ENDROOT
TORSDOF 0
ENDMDL
