MODEL 1
REMARK VINA RESULT:      -2.0      0.000      0.000
REMARK  3 active torsions:
REMARK  status: ('A' for Active; 'I' for Inactive)
REMARK    1  A    between atoms: C1_1  and  C7_7 
REMARK    2  A    between atoms: C2_2  and  C9_9 
REMARK    3  A    between atoms: C9_9  and  C10_10 
ROOT
HETATM    1  C3  UNL     1     -33.939   4.070   4.219  1.00 20.00     0.128 C 
HETATM    2  C4  UNL     1     -35.080   5.001   4.537  1.00 20.00     0.079 C 
HETATM    3  C5  UNL     1     -33.023   4.632   3.161  1.00 20.00     0.095 C 
HETATM    4  C6  UNL     1     -34.637   6.284   3.847  1.00 20.00     0.025 C 
HETATM    5  C7  UNL     1     -33.843   5.808   2.631  1.00 20.00     0.072 C 
HETATM    6  O11 UNL     1     -33.776   2.982   4.756  1.00 20.00    -0.298 OA
ENDROOT
BRANCH   5   7
HETATM    7  C1  UNL     1     -32.998   6.865   2.068  1.00 20.00    -0.101 C 
HETATM    8  C2  UNL     1     -32.303   7.729   1.608  1.00 20.00    -0.106 C 
BRANCH   8   9
HETATM    9  C9  UNL     1     -31.457   8.788   1.041  1.00 20.00     0.093 C 
BRANCH   9  10
HETATM   10  C10 UNL     1     -32.171   9.575  -0.058  1.00 20.00     0.007 C 
HETATM   11  C8  UNL     1     -32.856  10.833   0.460  1.00 20.00     0.006 C 
ENDBRANCH   9  10
ENDBRANCH   8   9
ENDBRANCH   5   7
TORSDOF 3
ENDMDL
MODEL 2
REMARK VINA RESULT:      -1.0      1.263      1.803
REMARK  3 active torsions:
REMARK  status: ('A' for Active; 'I' for Inactive)
REMARK    1  A    between atoms: C1_1  and  C7_7 
REMARK    2  A    between atoms: C2_2  and  C9_9 
REMARK    3  A    between atoms: C9_9  and  C10_10 
ROOT
HETATM    1  C3  UNL     1     -34.826   5.785   3.999  1.00 20.00     0.128 C 
HETATM    2  C4  UNL     1     -34.006   4.594   3.577  1.00 20.00     0.079 C 
HETATM    3  C5  UNL     1     -34.253   7.083   3.486  1.00 20.00     0.095 C 
HETATM    4  C6  UNL     1     -33.087   5.205   2.527  1.00 20.00     0.025 C 
HETATM    5  C7  UNL     1     -32.872   6.643   2.998  1.00 20.00     0.072 C 
HETATM    6  O11 UNL     1     -35.839   5.710   4.682  1.00 20.00    -0.298 OA
ENDROOT
BRANCH   5   7
HETATM    7  C1  UNL     1     -32.359   7.508   1.933  1.00 20.00    -0.101 C 
HETATM    8  C2  UNL     1     -31.937   8.216   1.060  1.00 20.00    -0.106 C 
BRANCH   8   9
HETATM    9  C9  UNL     1     -31.423   9.082  -0.010  1.00 20.00     0.093 C 
BRANCH   9  10
HETATM   10  C10 UNL     1     -32.437  10.145  -0.432  1.00 20.00     0.007 C 
HETATM   11  C8  UNL     1     -32.982  10.948   0.743  1.00 20.00     0.006 C 
ENDBRANCH   9  10
ENDBRANCH   8   9
ENDBRANCH   5   7
TORSDOF 3
ENDMDL
MODEL 3
REMARK VINA RESULT:       0.2      2.700      5.718
REMARK  3 active torsions:
REMARK  status: ('A' for Active; 'I' for Inactive)
REMARK    1  A    between atoms: C1_1  and  C7_7 
REMARK    2  A    between atoms: C2_2  and  C9_9 
REMARK    3  A    between atoms: C9_9  and  C10_10 
ROOT
HETATM    1  C3  UNL     1     -31.491   8.807   0.400  1.00 20.00     0.128 C 
HETATM    2  C4  UNL     1     -32.258  10.056   0.745  1.00 20.00     0.079 C 
HETATM    3  C5  UNL     1     -31.847   7.652   1.302  1.00 20.00     0.095 C 
HETATM    4  C6  UNL     1     -33.319   9.518   1.697  1.00 20.00     0.025 C 
HETATM    5  C7  UNL     1     -32.635   8.352   2.410  1.00 20.00     0.072 C 
HETATM    6  O11 UNL     1     -30.672   8.737  -0.507  1.00 20.00    -0.298 OA
ENDROOT
BRANCH   5   7
HETATM    7  C1  UNL     1     -33.595   7.456   3.060  1.00 20.00    -0.101 C 
HETATM    8  C2  UNL     1     -34.382   6.723   3.592  1.00 20.00    -0.106 C 
BRANCH   8   9
HETATM    9  C9  UNL     1     -35.345   5.822   4.241  1.00 20.00     0.093 C 
BRANCH   9  10
HETATM   10  C10 UNL     1     -34.682   4.550   4.770  1.00 20.00     0.007 C 
HETATM   11  C8  UNL     1     -33.729   3.913   3.767  1.00 20.00     0.006 C 
ENDBRANCH   9  10
ENDBRANCH   8   9
ENDBRANCH   5   7
TORSDOF 3
ENDMDL
MODEL 4
REMARK VINA RESULT:       0.4      2.813      5.953
REMARK  3 active torsions:
REMARK  status: ('A' for Active; 'I' for Inactive)
REMARK    1  A    between atoms: C1_1  and  C7_7 
REMARK    2  A    between atoms: C2_2  and  C9_9 
REMARK    3  A    between atoms: C9_9  and  C10_10 
ROOT
HETATM    1  C3  UNL     1     -32.574   8.944   0.197  1.00 20.00     0.128 C 
HETATM    2  C4  UNL     1     -31.585   9.356   1.255  1.00 20.00     0.079 C 
HETATM    3  C5  UNL     1     -33.210   7.610   0.498  1.00 20.00     0.095 C 
HETATM    4  C6  UNL     1     -31.883   8.356   2.366  1.00 20.00     0.025 C 
HETATM    5  C7  UNL     1     -32.323   7.091   1.631  1.00 20.00     0.072 C 
HETATM    6  O11 UNL     1     -32.830   9.613  -0.796  1.00 20.00    -0.298 OA
ENDROOT
BRANCH   5   7
HETATM    7  C1  UNL     1     -33.034   6.156   2.507  1.00 20.00    -0.101 C 
HETATM    8  C2  UNL     1     -33.619   5.390   3.224  1.00 20.00    -0.106 C 
BRANCH   8   9
HETATM    9  C9  UNL     1     -34.330   4.450   4.101  1.00 20.00     0.093 C 
BRANCH   9  10
HETATM   10  C10 UNL     1     -33.596   3.117   4.237  1.00 20.00     0.007 C 
HETATM   11  C8  UNL     1     -32.741   3.033   5.495  1.00 20.00     0.006 C 
ENDBRANCH   9  10
ENDBRANCH   8   9
ENDBRANCH   5   7
TORSDOF 3
ENDMDL
MODEL 5
REMARK VINA RESULT:       0.6      2.812      5.600
REMARK  3 active torsions:
REMARK  status: ('A' for Active; 'I' for Inactive)
REMARK    1  A    between atoms: C1_1  and  C7_7 
REMARK    2  A    between atoms: C2_2  and  C9_9 
REMARK    3  A    between atoms: C9_9  and  C10_10 
ROOT
HETATM    1  C3  UNL     1     -32.537   9.112   0.050  1.00 20.00     0.128 C 
HETATM    2  C4  UNL     1     -31.458   9.433   1.050  1.00 20.00     0.079 C 
HETATM    3  C5  UNL     1     -33.145   7.752   0.284  1.00 20.00     0.095 C 
HETATM    4  C6  UNL     1     -31.656   8.334   2.086  1.00 20.00     0.025 C 
HETATM    5  C7  UNL     1     -32.162   7.138   1.281  1.00 20.00     0.072 C 
HETATM    6  O11 UNL     1     -32.881   9.867  -0.850  1.00 20.00    -0.298 OA
ENDROOT
BRANCH   5   7
HETATM    7  C1  UNL     1     -32.792   6.122   2.128  1.00 20.00    -0.101 C 
HETATM    8  C2  UNL     1     -33.308   5.289   2.823  1.00 20.00    -0.106 C 
BRANCH   8   9
HETATM    9  C9  UNL     1     -33.942   4.273   3.674  1.00 20.00     0.093 C 
BRANCH   9  10
HETATM   10  C10 UNL     1     -35.085   4.849   4.510  1.00 20.00     0.007 C 
HETATM   11  C8  UNL     1     -35.424   6.289   4.144  1.00 20.00     0.006 C 
ENDBRANCH   9  10
ENDBRANCH   8   9
ENDBRANCH   5   7
TORSDOF 3
ENDMDL
