MODEL 1
REMARK VINA RESULT:      -0.9      0.000      0.000
REMARK  2 active torsions:
REMARK  status: ('A' for Active; 'I' for Inactive)
REMARK    1  A    between atoms: C3_3  and  C7_7 
REMARK    2  A    between atoms: C8_8  and  C10_10 
ROOT
HETATM    1  C1  UNL     1     -33.413   2.117   4.733  1.00 20.00     0.012 C 
HETATM    2  C2  UNL     1     -33.195   3.247   4.392  1.00 20.00    -0.117 C 
HETATM    3  C10 UNL     1     -32.922   4.628   3.977  1.00 20.00     0.098 C 
ENDROOT
BRANCH   3   4
HETATM    4  C8  UNL     1     -34.120   5.232   3.241  1.00 20.00     0.008 C 
HETATM    5  C6  UNL     1     -35.154   5.791   4.221  1.00 20.00     0.006 C 
HETATM    6  C4  UNL     1     -34.623   7.172   4.581  1.00 20.00     0.001 C 
HETATM    7  C5  UNL     1     -33.867   7.656   3.343  1.00 20.00     0.013 C 
HETATM    8  C7  UNL     1     -33.794   6.463   2.389  1.00 20.00     0.060 C 
BRANCH   8   9
HETATM    9  C3  UNL     1     -32.456   6.415   1.681  1.00 20.00     0.127 C 
HETATM   10  C9  UNL     1     -31.669   7.697   1.634  1.00 20.00     0.091 C 
HETATM   11  O11 UNL     1     -32.033   5.379   1.170  1.00 20.00    -0.298 OA
ENDBRANCH   8   9
ENDBRANCH   3   4
TORSDOF 2
ENDMDL
MODEL 2
REMARK VINA RESULT:      -0.3      1.874      4.786
REMARK  2 active torsions:
REMARK  status: ('A' for Active; 'I' for Inactive)
REMARK    1  A    between atoms: C3_3  and  C7_7 
REMARK    2  A    between atoms: C8_8  and  C10_10 
ROOT
HETATM    1  C1  UNL     1     -32.339   9.981   0.266  1.00 20.00     0.012 C 
HETATM    2  C2  UNL     1     -32.254   9.020   0.980  1.00 20.00    -0.117 C 
HETATM    3  C10 UNL     1     -32.147   7.849   1.858  1.00 20.00     0.098 C 
ENDROOT
BRANCH   3   4
HETATM    4  C8  UNL     1     -32.990   6.684   1.334  1.00 20.00     0.008 C 
HETATM    5  C6  UNL     1     -32.118   5.616   0.672  1.00 20.00     0.006 C 
HETATM    6  C4  UNL     1     -31.603   4.778   1.834  1.00 20.00     0.001 C 
HETATM    7  C5  UNL     1     -32.700   4.836   2.899  1.00 20.00     0.013 C 
HETATM    8  C7  UNL     1     -33.712   5.877   2.417  1.00 20.00     0.060 C 
BRANCH   8   9
HETATM    9  C3  UNL     1     -34.244   6.694   3.577  1.00 20.00     0.127 C 
HETATM   10  C9  UNL     1     -35.487   6.181   4.251  1.00 20.00     0.091 C 
HETATM   11  O11 UNL     1     -33.685   7.724   3.950  1.00 20.00    -0.298 OA
ENDBRANCH   8   9
ENDBRANCH   3   4
TORSDOF 2
ENDMDL
MODEL 3
REMARK VINA RESULT:      -0.2      1.151      1.496
REMARK  2 active torsions:
REMARK  status: ('A' for Active; 'I' for Inactive)
REMARK    1  A    between atoms: C3_3  and  C7_7 
REMARK    2  A    between atoms: C8_8  and  C10_10 
ROOT
HETATM    1  C1  UNL     1     -33.804   3.527   4.388  1.00 20.00     0.012 C 
HETATM    2  C2  UNL     1     -33.478   4.373   3.601  1.00 20.00    -0.117 C 
HETATM    3  C10 UNL     1     -33.073   5.402   2.636  1.00 20.00     0.098 C 
ENDROOT
BRANCH   3   4
HETATM    4  C8  UNL     1     -34.078   6.556   2.604  1.00 20.00     0.008 C 
HETATM    5  C6  UNL     1     -34.873   6.641   3.909  1.00 20.00     0.006 C 
HETATM    6  C4  UNL     1     -33.959   7.405   4.857  1.00 20.00     0.001 C 
HETATM    7  C5  UNL     1     -33.145   8.348   3.971  1.00 20.00     0.013 C 
HETATM    8  C7  UNL     1     -33.450   7.951   2.525  1.00 20.00     0.060 C 
BRANCH   8   9
HETATM    9  C3  UNL     1     -32.209   8.046   1.663  1.00 20.00     0.127 C 
HETATM   10  C9  UNL     1     -32.178   9.150   0.641  1.00 20.00     0.091 C 
HETATM   11  O11 UNL     1     -31.271   7.261   1.793  1.00 20.00    -0.298 OA
ENDBRANCH   8   9
ENDBRANCH   3   4
TORSDOF 2
ENDMDL
MODEL 4
REMARK VINA RESULT:      -0.0      2.081      4.561
REMARK  2 active torsions:
REMARK  status: ('A' for Active; 'I' for Inactive)
REMARK    1  A    between atoms: C3_3  and  C7_7 
REMARK    2  A    between atoms: C8_8  and  C10_10 
ROOT
HETATM    1  C1  UNL     1     -32.360  10.808   0.343  1.00 20.00     0.012 C 
HETATM    2  C2  UNL     1     -32.505   9.619   0.427  1.00 20.00    -0.117 C 
HETATM    3  C10 UNL     1     -32.686   8.166   0.523  1.00 20.00     0.098 C 
ENDROOT
BRANCH   3   4
HETATM    4  C8  UNL     1     -31.998   7.604   1.770  1.00 20.00     0.008 C 
HETATM    5  C6  UNL     1     -32.442   8.343   3.034  1.00 20.00     0.006 C 
HETATM    6  C4  UNL     1     -33.762   7.684   3.411  1.00 20.00     0.001 C 
HETATM    7  C5  UNL     1     -33.648   6.236   2.934  1.00 20.00     0.013 C 
HETATM    8  C7  UNL     1     -32.365   6.155   2.105  1.00 20.00     0.060 C 
BRANCH   8   9
HETATM    9  C3  UNL     1     -32.549   5.247   0.907  1.00 20.00     0.127 C 
HETATM   10  C9  UNL     1     -31.340   4.477   0.450  1.00 20.00     0.091 C 
HETATM   11  O11 UNL     1     -33.634   5.144   0.337  1.00 20.00    -0.298 OA
ENDBRANCH   8   9
ENDBRANCH   3   4
TORSDOF 2
ENDMDL
MODEL 5
REMARK VINA RESULT:      -0.0      0.832      1.147
REMARK  2 active torsions:
REMARK  status: ('A' for Active; 'I' for Inactive)
REMARK    1  A    between atoms: C3_3  and  C7_7 
REMARK    2  A    between atoms: C8_8  and  C10_10 
ROOT
HETATM    1  C1  UNL     1     -33.489   1.925   4.546  1.00 20.00     0.012 C 
HETATM    2  C2  UNL     1     -33.325   3.106   4.407  1.00 20.00    -0.117 C 
HETATM    3  C10 UNL     1     -33.117   4.549   4.240  1.00 20.00     0.098 C 
ENDROOT
BRANCH   3   4
HETATM    4  C8  UNL     1     -34.247   5.181   3.425  1.00 20.00     0.008 C 
HETATM    5  C6  UNL     1     -35.115   6.098   4.290  1.00 20.00     0.006 C 
HETATM    6  C4  UNL     1     -34.348   7.414   4.328  1.00 20.00     0.001 C 
HETATM    7  C5  UNL     1     -33.606   7.494   2.994  1.00 20.00     0.013 C 
HETATM    8  C7  UNL     1     -33.785   6.134   2.318  1.00 20.00     0.060 C 
BRANCH   8   9
HETATM    9  C3  UNL     1     -32.520   5.714   1.599  1.00 20.00     0.127 C 
HETATM   10  C9  UNL     1     -32.659   4.636   0.559  1.00 20.00     0.091 C 
HETATM   11  O11 UNL     1     -31.433   6.231   1.852  1.00 20.00    -0.298 OA
ENDBRANCH   8   9
ENDBRANCH   3   4
TORSDOF 2
ENDMDL
MODEL 6
REMARK VINA RESULT:       0.1      2.027      4.552
REMARK  2 active torsions:
REMARK  status: ('A' for Active; 'I' for Inactive)
REMARK    1  A    between atoms: C3_3  and  C7_7 
REMARK    2  A    between atoms: C8_8  and  C10_10 
ROOT
HETATM    1  C1  UNL     1     -32.369  10.806   0.346  1.00 20.00     0.012 C 
HETATM    2  C2  UNL     1     -32.477   9.614   0.431  1.00 20.00    -0.117 C 
HETATM    3  C10 UNL     1     -32.612   8.155   0.529  1.00 20.00     0.098 C 
ENDROOT
BRANCH   3   4
HETATM    4  C8  UNL     1     -31.967   7.624   1.811  1.00 20.00     0.008 C 
HETATM    5  C6  UNL     1     -32.512   8.340   3.049  1.00 20.00     0.006 C 
HETATM    6  C4  UNL     1     -33.818   7.618   3.355  1.00 20.00     0.001 C 
HETATM    7  C5  UNL     1     -33.610   6.178   2.887  1.00 20.00     0.013 C 
HETATM    8  C7  UNL     1     -32.282   6.159   2.128  1.00 20.00     0.060 C 
BRANCH   8   9
HETATM    9  C3  UNL     1     -32.358   5.246   0.922  1.00 20.00     0.127 C 
HETATM   10  C9  UNL     1     -33.719   5.037   0.317  1.00 20.00     0.091 C 
HETATM   11  O11 UNL     1     -31.356   4.702   0.461  1.00 20.00    -0.298 OA
ENDBRANCH   8   9
ENDBRANCH   3   4
TORSDOF 2
ENDMDL
MODEL 7
REMARK VINA RESULT:       0.3      1.357      3.859
REMARK  2 active torsions:
REMARK  status: ('A' for Active; 'I' for Inactive)
REMARK    1  A    between atoms: C3_3  and  C7_7 
REMARK    2  A    between atoms: C8_8  and  C10_10 
ROOT
HETATM    1  C1  UNL     1     -31.833   8.248   1.205  1.00 20.00     0.012 C 
HETATM    2  C2  UNL     1     -32.342   7.283   1.704  1.00 20.00    -0.117 C 
HETATM    3  C10 UNL     1     -32.963   6.098   2.308  1.00 20.00     0.098 C 
ENDROOT
BRANCH   3   4
HETATM    4  C8  UNL     1     -33.345   6.356   3.767  1.00 20.00     0.008 C 
HETATM    5  C6  UNL     1     -34.323   7.527   3.890  1.00 20.00     0.006 C 
HETATM    6  C4  UNL     1     -35.684   6.912   3.596  1.00 20.00     0.001 C 
HETATM    7  C5  UNL     1     -35.594   5.465   4.081  1.00 20.00     0.013 C 
HETATM    8  C7  UNL     1     -34.126   5.221   4.436  1.00 20.00     0.060 C 
BRANCH   8   9
HETATM    9  C3  UNL     1     -33.696   3.825   4.035  1.00 20.00     0.127 C 
HETATM   10  C9  UNL     1     -32.947   3.026   5.067  1.00 20.00     0.091 C 
HETATM   11  O11 UNL     1     -33.948   3.367   2.922  1.00 20.00    -0.298 OA
ENDBRANCH   8   9
ENDBRANCH   3   4
TORSDOF 2
ENDMDL
MODEL 8
REMARK VINA RESULT:       0.7      1.763      2.842
REMARK  2 active torsions:
REMARK  status: ('A' for Active; 'I' for Inactive)
REMARK    1  A    between atoms: C3_3  and  C7_7 
REMARK    2  A    between atoms: C8_8  and  C10_10 
ROOT
HETATM    1  C1  UNL     1     -33.057   2.592   5.195  1.00 20.00     0.012 C 
HETATM    2  C2  UNL     1     -33.412   3.368   4.350  1.00 20.00    -0.117 C 
HETATM    3  C10 UNL     1     -33.852   4.314   3.318  1.00 20.00     0.098 C 
ENDROOT
BRANCH   3   4
HETATM    4  C8  UNL     1     -32.726   5.274   2.930  1.00 20.00     0.008 C 
HETATM    5  C6  UNL     1     -32.202   4.981   1.523  1.00 20.00     0.006 C 
HETATM    6  C4  UNL     1     -33.184   5.691   0.601  1.00 20.00     0.001 C 
HETATM    7  C5  UNL     1     -33.682   6.903   1.387  1.00 20.00     0.013 C 
HETATM    8  C7  UNL     1     -33.148   6.742   2.812  1.00 20.00     0.060 C 
BRANCH   8   9
HETATM    9  C3  UNL     1     -34.171   7.199   3.830  1.00 20.00     0.127 C 
HETATM   10  C9  UNL     1     -33.688   8.143   4.897  1.00 20.00     0.091 C 
HETATM   11  O11 UNL     1     -35.340   6.817   3.786  1.00 20.00    -0.298 OA
ENDBRANCH   8   9
ENDBRANCH   3   4
TORSDOF 2
ENDMDL
MODEL 9
REMARK VINA RESULT:       0.7      1.958      3.693
REMARK  2 active torsions:
REMARK  status: ('A' for Active; 'I' for Inactive)
REMARK    1  A    between atoms: C3_3  and  C7_7 
REMARK    2  A    between atoms: C8_8  and  C10_10 
ROOT
HETATM    1  C1  UNL     1     -31.359   4.027  -0.007  1.00 20.00     0.012 C 
HETATM    2  C2  UNL     1     -32.125   4.772   0.540  1.00 20.00    -0.117 C 
HETATM    3  C10 UNL     1     -33.066   5.681   1.205  1.00 20.00     0.098 C 
ENDROOT
BRANCH   3   4
HETATM    4  C8  UNL     1     -32.399   6.411   2.373  1.00 20.00     0.008 C 
HETATM    5  C6  UNL     1     -31.729   7.707   1.913  1.00 20.00     0.006 C 
HETATM    6  C4  UNL     1     -32.864   8.722   1.869  1.00 20.00     0.001 C 
HETATM    7  C5  UNL     1     -33.846   8.286   2.958  1.00 20.00     0.013 C 
HETATM    8  C7  UNL     1     -33.367   6.918   3.447  1.00 20.00     0.060 C 
BRANCH   8   9
HETATM    9  C3  UNL     1     -34.538   6.004   3.738  1.00 20.00     0.127 C 
HETATM   10  C9  UNL     1     -34.214   4.573   4.069  1.00 20.00     0.091 C 
HETATM   11  O11 UNL     1     -35.698   6.412   3.706  1.00 20.00    -0.298 OA
ENDBRANCH   8   9
ENDBRANCH   3   4
TORSDOF 2
ENDMDL
