MODEL 1
REMARK VINA RESULT:      -1.8      0.000      0.000
REMARK  3 active torsions:
REMARK  status: ('A' for Active; 'I' for Inactive)
REMARK    1  A    between atoms: C3_3  and  C7_7 
REMARK    2  A    between atoms: C4_4  and  O11_11 
REMARK    3  A    between atoms: C7_7  and  C8_8 
ROOT
HETATM    1  C1  UNL     1     -33.396   7.965   3.731  1.00 20.00     0.180 C 
HETATM    2  C2  UNL     1     -33.477   6.320   1.853  1.00 20.00     0.180 C 
HETATM    3  C3  UNL     1     -33.690   6.511   3.355  1.00 20.00     0.034 C 
HETATM    4  C4  UNL     1     -31.943   8.119   1.874  1.00 20.00     0.412 C 
HETATM    5  O9  UNL     1     -32.093   8.333   3.281  1.00 20.00    -0.339 OA
HETATM    6  O10 UNL     1     -32.170   6.760   1.483  1.00 20.00    -0.339 OA
ENDROOT
BRANCH   3   7
HETATM    7  C7  UNL     1     -35.092   6.096   3.779  1.00 20.00     0.008 C 
BRANCH   7   8
HETATM    8  C8  UNL     1     -35.066   4.825   4.624  1.00 20.00    -0.004 C 
HETATM    9  C5  UNL     1     -33.911   3.919   4.228  1.00 20.00     0.005 C 
ENDBRANCH   7   8
ENDBRANCH   3   7
BRANCH   4  10
HETATM   10  O11 UNL     1     -32.692   9.049   1.091  1.00 20.00    -0.344 OA
HETATM   11  C6  UNL     1     -31.932   9.529  -0.007  1.00 20.00     0.207 C 
ENDBRANCH   4  10
TORSDOF 3
ENDMDL
MODEL 2
REMARK VINA RESULT:      -1.2      1.962      4.745
REMARK  3 active torsions:
REMARK  status: ('A' for Active; 'I' for Inactive)
REMARK    1  A    between atoms: C3_3  and  C7_7 
REMARK    2  A    between atoms: C4_4  and  O11_11 
REMARK    3  A    between atoms: C7_7  and  C8_8 
ROOT
HETATM    1  C1  UNL     1     -33.625   7.365   3.583  1.00 20.00     0.180 C 
HETATM    2  C2  UNL     1     -32.615   5.922   1.813  1.00 20.00     0.180 C 
HETATM    3  C3  UNL     1     -33.058   7.343   2.162  1.00 20.00     0.034 C 
HETATM    4  C4  UNL     1     -34.193   5.082   3.359  1.00 20.00     0.412 C 
HETATM    5  O9  UNL     1     -34.657   6.389   3.714  1.00 20.00    -0.339 OA
HETATM    6  O10 UNL     1     -33.691   5.007   2.021  1.00 20.00    -0.339 OA
ENDROOT
BRANCH   3   7
HETATM    7  C7  UNL     1     -31.920   8.341   1.998  1.00 20.00     0.008 C 
BRANCH   7   8
HETATM    8  C8  UNL     1     -31.812   8.830   0.556  1.00 20.00    -0.004 C 
HETATM    9  C5  UNL     1     -32.571  10.132   0.353  1.00 20.00     0.005 C 
ENDBRANCH   7   8
ENDBRANCH   3   7
BRANCH   4  10
HETATM   10  O11 UNL     1     -33.287   4.540   4.319  1.00 20.00    -0.344 OA
HETATM   11  C6  UNL     1     -33.464   3.140   4.462  1.00 20.00     0.207 C 
ENDBRANCH   4  10
TORSDOF 3
ENDMDL
MODEL 3
REMARK VINA RESULT:      -0.3      1.593      4.762
REMARK  3 active torsions:
REMARK  status: ('A' for Active; 'I' for Inactive)
REMARK    1  A    between atoms: C3_3  and  C7_7 
REMARK    2  A    between atoms: C4_4  and  O11_11 
REMARK    3  A    between atoms: C7_7  and  C8_8 
ROOT
HETATM    1  C1  UNL     1     -32.783   6.395   1.401  1.00 20.00     0.180 C 
HETATM    2  C2  UNL     1     -32.519   8.434   2.819  1.00 20.00     0.180 C 
HETATM    3  C3  UNL     1     -31.911   7.622   1.675  1.00 20.00     0.034 C 
HETATM    4  C4  UNL     1     -33.525   6.460   3.644  1.00 20.00     0.412 C 
HETATM    5  O9  UNL     1     -32.971   5.649   2.603  1.00 20.00    -0.339 OA
HETATM    6  O10 UNL     1     -32.719   7.600   3.961  1.00 20.00    -0.339 OA
ENDROOT
BRANCH   3   7
HETATM    7  C7  UNL     1     -31.727   8.469   0.423  1.00 20.00     0.008 C 
BRANCH   7   8
HETATM    8  C8  UNL     1     -32.289   9.875   0.615  1.00 20.00    -0.004 C 
HETATM    9  C5  UNL     1     -32.975  10.376  -0.646  1.00 20.00     0.005 C 
ENDBRANCH   7   8
ENDBRANCH   3   7
BRANCH   4  10
HETATM   10  O11 UNL     1     -34.891   6.801   3.408  1.00 20.00    -0.344 OA
HETATM   11  C6  UNL     1     -35.768   5.931   4.107  1.00 20.00     0.207 C 
ENDBRANCH   4  10
TORSDOF 3
ENDMDL
MODEL 4
REMARK VINA RESULT:      -0.2      0.847      1.406
REMARK  3 active torsions:
REMARK  status: ('A' for Active; 'I' for Inactive)
REMARK    1  A    between atoms: C3_3  and  C7_7 
REMARK    2  A    between atoms: C4_4  and  O11_11 
REMARK    3  A    between atoms: C7_7  and  C8_8 
ROOT
HETATM    1  C1  UNL     1     -33.208   7.636   3.409  1.00 20.00     0.180 C 
HETATM    2  C2  UNL     1     -32.804   5.974   1.590  1.00 20.00     0.180 C 
HETATM    3  C3  UNL     1     -33.081   6.147   3.084  1.00 20.00     0.034 C 
HETATM    4  C4  UNL     1     -31.831   8.128   1.553  1.00 20.00     0.412 C 
HETATM    5  O9  UNL     1     -32.054   8.338   2.951  1.00 20.00    -0.339 OA
HETATM    6  O10 UNL     1     -31.666   6.748   1.209  1.00 20.00    -0.339 OA
ENDROOT
BRANCH   3   7
HETATM    7  C7  UNL     1     -34.319   5.372   3.516  1.00 20.00     0.008 C 
BRANCH   7   8
HETATM    8  C8  UNL     1     -35.367   6.295   4.131  1.00 20.00    -0.004 C 
HETATM    9  C5  UNL     1     -36.419   6.699   3.110  1.00 20.00     0.005 C 
ENDBRANCH   7   8
ENDBRANCH   3   7
BRANCH   4  10
HETATM   10  O11 UNL     1     -32.799   8.786   0.736  1.00 20.00    -0.344 OA
HETATM   11  C6  UNL     1     -32.342  10.065   0.323  1.00 20.00     0.207 C 
ENDBRANCH   4  10
TORSDOF 3
ENDMDL
MODEL 5
REMARK VINA RESULT:       0.0      1.303      2.237
REMARK  3 active torsions:
REMARK  status: ('A' for Active; 'I' for Inactive)
REMARK    1  A    between atoms: C3_3  and  C7_7 
REMARK    2  A    between atoms: C4_4  and  O11_11 
REMARK    3  A    between atoms: C7_7  and  C8_8 
ROOT
HETATM    1  C1  UNL     1     -33.392   5.473   2.454  1.00 20.00     0.180 C 
HETATM    2  C2  UNL     1     -34.286   7.074   4.149  1.00 20.00     0.180 C 
HETATM    3  C3  UNL     1     -34.483   5.703   3.502  1.00 20.00     0.034 C 
HETATM    4  C4  UNL     1     -33.203   7.813   2.182  1.00 20.00     0.412 C 
HETATM    5  O9  UNL     1     -33.372   6.554   1.523  1.00 20.00    -0.339 OA
HETATM    6  O10 UNL     1     -34.226   8.087   3.145  1.00 20.00    -0.339 OA
ENDROOT
BRANCH   3   7
HETATM    7  C7  UNL     1     -34.503   4.591   4.542  1.00 20.00     0.008 C 
BRANCH   7   8
HETATM    8  C8  UNL     1     -33.656   3.400   4.100  1.00 20.00    -0.004 C 
HETATM    9  C5  UNL     1     -32.781   2.890   5.234  1.00 20.00     0.005 C 
ENDBRANCH   7   8
ENDBRANCH   3   7
BRANCH   4  10
HETATM   10  O11 UNL     1     -31.888   7.985   2.712  1.00 20.00    -0.344 OA
HETATM   11  C6  UNL     1     -30.932   8.146   1.677  1.00 20.00     0.207 C 
ENDBRANCH   4  10
TORSDOF 3
ENDMDL
MODEL 6
REMARK VINA RESULT:       1.1      2.164      3.397
REMARK  3 active torsions:
REMARK  status: ('A' for Active; 'I' for Inactive)
REMARK    1  A    between atoms: C3_3  and  C7_7 
REMARK    2  A    between atoms: C4_4  and  O11_11 
REMARK    3  A    between atoms: C7_7  and  C8_8 
ROOT
HETATM    1  C1  UNL     1     -33.092   5.127   3.223  1.00 20.00     0.180 C 
HETATM    2  C2  UNL     1     -35.130   5.030   4.662  1.00 20.00     0.180 C 
HETATM    3  C3  UNL     1     -34.232   4.234   3.715  1.00 20.00     0.034 C 
HETATM    4  C4  UNL     1     -34.464   7.019   3.572  1.00 20.00     0.412 C 
HETATM    5  O9  UNL     1     -33.619   6.324   2.650  1.00 20.00    -0.339 OA
HETATM    6  O10 UNL     1     -35.570   6.232   4.028  1.00 20.00    -0.339 OA
ENDROOT
BRANCH   3   7
HETATM    7  C7  UNL     1     -33.705   2.967   4.376  1.00 20.00     0.008 C 
BRANCH   7   8
HETATM    8  C8  UNL     1     -32.327   3.193   4.993  1.00 20.00    -0.004 C 
HETATM    9  C5  UNL     1     -32.409   3.320   6.505  1.00 20.00     0.005 C 
ENDBRANCH   7   8
ENDBRANCH   3   7
BRANCH   4  10
HETATM   10  O11 UNL     1     -33.736   7.618   4.644  1.00 20.00    -0.344 OA
HETATM   11  C6  UNL     1     -32.634   8.371   4.161  1.00 20.00     0.207 C 
ENDBRANCH   4  10
TORSDOF 3
ENDMDL
