MODEL 1
REMARK VINA RESULT:      -1.2      0.000      0.000
REMARK  5 active torsions:
REMARK  status: ('A' for Active; 'I' for Inactive)
REMARK    1  A    between atoms: C2_2  and  C7_7 
REMARK    2  A    between atoms: C7_7  and  N11_11 
REMARK    3  A    between atoms: C8_8  and  C9_9 
REMARK    4  A    between atoms: C8_8  and  C10_10 
REMARK    5  A    between atoms: C9_9  and  N11_11 
ROOT
HETATM    1  C1  UNL     1     -33.692   3.513   4.359  1.00 20.00    -0.109 C 
HETATM    2  C2  UNL     1     -34.110   4.590   4.033  1.00 20.00    -0.077 C 
HETATM    3  C3  UNL     1     -33.184   2.201   4.758  1.00 20.00     0.112 C 
ENDROOT
BRANCH   2   4
HETATM    4  C7  UNL     1     -34.613   5.908   3.631  1.00 20.00     0.365 C 
BRANCH   4   5
HETATM    5  N11 UNL     1     -33.510   6.871   3.494  1.00 20.00     0.095 N 
HETATM    6  C6  UNL     1     -33.905   8.157   4.092  1.00 20.00     0.310 C 
BRANCH   5   7
HETATM    7  C9  UNL     1     -33.119   7.031   2.121  1.00 20.00     0.273 C 
BRANCH   7   8
HETATM    8  C8  UNL     1     -32.171   8.209   1.916  1.00 20.00     0.034 C 
BRANCH   8   9
HETATM    9  C10 UNL     1     -32.354   8.970   0.588  1.00 20.00    -0.021 C 
HETATM   10  C4  UNL     1     -31.082   8.852  -0.256  1.00 20.00     0.009 C 
HETATM   11  C5  UNL     1     -32.695  10.445   0.803  1.00 20.00     0.009 C 
ENDBRANCH   8   9
ENDBRANCH   7   8
ENDBRANCH   5   7
ENDBRANCH   4   5
ENDBRANCH   2   4
TORSDOF 5
ENDMDL
MODEL 2
REMARK VINA RESULT:      -1.2      0.998      1.379
REMARK  5 active torsions:
REMARK  status: ('A' for Active; 'I' for Inactive)
REMARK    1  A    between atoms: C2_2  and  C7_7 
REMARK    2  A    between atoms: C7_7  and  N11_11 
REMARK    3  A    between atoms: C8_8  and  C9_9 
REMARK    4  A    between atoms: C8_8  and  C10_10 
REMARK    5  A    between atoms: C9_9  and  N11_11 
ROOT
HETATM    1  C1  UNL     1     -33.679   4.018   4.206  1.00 20.00    -0.109 C 
HETATM    2  C2  UNL     1     -33.951   5.122   3.822  1.00 20.00    -0.077 C 
HETATM    3  C3  UNL     1     -33.346   2.674   4.674  1.00 20.00     0.112 C 
ENDROOT
BRANCH   2   4
HETATM    4  C7  UNL     1     -34.288   6.469   3.346  1.00 20.00     0.365 C 
BRANCH   4   5
HETATM    5  N11 UNL     1     -33.424   6.861   2.222  1.00 20.00     0.095 N 
HETATM    6  C6  UNL     1     -32.820   5.658   1.626  1.00 20.00     0.310 C 
BRANCH   5   7
HETATM    7  C9  UNL     1     -32.420   7.801   2.635  1.00 20.00     0.273 C 
BRANCH   7   8
HETATM    8  C8  UNL     1     -31.753   8.500   1.454  1.00 20.00     0.034 C 
BRANCH   8   9
HETATM    9  C10 UNL     1     -32.688   9.387   0.607  1.00 20.00    -0.021 C 
HETATM   10  C4  UNL     1     -32.309   9.275  -0.872  1.00 20.00     0.009 C 
HETATM   11  C5  UNL     1     -32.651  10.853   1.040  1.00 20.00     0.009 C 
ENDBRANCH   8   9
ENDBRANCH   7   8
ENDBRANCH   5   7
ENDBRANCH   4   5
ENDBRANCH   2   4
TORSDOF 5
ENDMDL
MODEL 3
REMARK VINA RESULT:      -1.0      0.978      5.763
REMARK  5 active torsions:
REMARK  status: ('A' for Active; 'I' for Inactive)
REMARK    1  A    between atoms: C2_2  and  C7_7 
REMARK    2  A    between atoms: C7_7  and  N11_11 
REMARK    3  A    between atoms: C8_8  and  C9_9 
REMARK    4  A    between atoms: C8_8  and  C10_10 
REMARK    5  A    between atoms: C9_9  and  N11_11 
ROOT
HETATM    1  C1  UNL     1     -32.352   9.384   0.539  1.00 20.00    -0.109 C 
HETATM    2  C2  UNL     1     -32.316   8.611   1.457  1.00 20.00    -0.077 C 
HETATM    3  C3  UNL     1     -32.396  10.327  -0.577  1.00 20.00     0.112 C 
ENDROOT
BRANCH   2   4
HETATM    4  C7  UNL     1     -32.279   7.665   2.577  1.00 20.00     0.365 C 
BRANCH   4   5
HETATM    5  N11 UNL     1     -33.472   7.810   3.427  1.00 20.00     0.095 N 
HETATM    6  C6  UNL     1     -33.055   8.052   4.818  1.00 20.00     0.310 C 
BRANCH   5   7
HETATM    7  C9  UNL     1     -34.330   6.663   3.328  1.00 20.00     0.273 C 
BRANCH   7   8
HETATM    8  C8  UNL     1     -33.549   5.354   3.241  1.00 20.00     0.034 C 
BRANCH   8   9
HETATM    9  C10 UNL     1     -34.210   4.152   3.945  1.00 20.00    -0.021 C 
HETATM   10  C4  UNL     1     -35.281   4.650   4.921  1.00 20.00     0.009 C 
HETATM   11  C5  UNL     1     -33.196   3.283   4.691  1.00 20.00     0.009 C 
ENDBRANCH   8   9
ENDBRANCH   7   8
ENDBRANCH   5   7
ENDBRANCH   4   5
ENDBRANCH   2   4
TORSDOF 5
ENDMDL
MODEL 4
REMARK VINA RESULT:      -0.9      1.435      5.590
REMARK  5 active torsions:
REMARK  status: ('A' for Active; 'I' for Inactive)
REMARK    1  A    between atoms: C2_2  and  C7_7 
REMARK    2  A    between atoms: C7_7  and  N11_11 
REMARK    3  A    between atoms: C8_8  and  C9_9 
REMARK    4  A    between atoms: C8_8  and  C10_10 
REMARK    5  A    between atoms: C9_9  and  N11_11 
ROOT
HETATM    1  C1  UNL     1     -32.391   9.613   0.261  1.00 20.00    -0.109 C 
HETATM    2  C2  UNL     1     -31.936   8.732   0.937  1.00 20.00    -0.077 C 
HETATM    3  C3  UNL     1     -32.946  10.686  -0.563  1.00 20.00     0.112 C 
ENDROOT
BRANCH   2   4
HETATM    4  C7  UNL     1     -31.372   7.658   1.762  1.00 20.00     0.365 C 
BRANCH   4   5
HETATM    5  N11 UNL     1     -32.438   6.818   2.331  1.00 20.00     0.095 N 
HETATM    6  C6  UNL     1     -32.858   5.819   1.334  1.00 20.00     0.310 C 
BRANCH   5   7
HETATM    7  C9  UNL     1     -33.548   7.611   2.779  1.00 20.00     0.273 C 
BRANCH   7   8
HETATM    8  C8  UNL     1     -33.987   7.254   4.197  1.00 20.00     0.034 C 
BRANCH   8   9
HETATM    9  C10 UNL     1     -35.196   6.301   4.285  1.00 20.00    -0.021 C 
HETATM   10  C4  UNL     1     -34.709   4.849   4.310  1.00 20.00     0.009 C 
HETATM   11  C5  UNL     1     -36.178   6.496   3.129  1.00 20.00     0.009 C 
ENDBRANCH   8   9
ENDBRANCH   7   8
ENDBRANCH   5   7
ENDBRANCH   4   5
ENDBRANCH   2   4
TORSDOF 5
ENDMDL
MODEL 5
REMARK VINA RESULT:      -0.7      0.759      1.225
REMARK  5 active torsions:
REMARK  status: ('A' for Active; 'I' for Inactive)
REMARK    1  A    between atoms: C2_2  and  C7_7 
REMARK    2  A    between atoms: C7_7  and  N11_11 
REMARK    3  A    between atoms: C8_8  and  C9_9 
REMARK    4  A    between atoms: C8_8  and  C10_10 
REMARK    5  A    between atoms: C9_9  and  N11_11 
ROOT
HETATM    1  C1  UNL     1     -33.751   3.407   4.428  1.00 20.00    -0.109 C 
HETATM    2  C2  UNL     1     -34.273   4.471   4.233  1.00 20.00    -0.077 C 
HETATM    3  C3  UNL     1     -33.115   2.112   4.667  1.00 20.00     0.112 C 
ENDROOT
BRANCH   2   4
HETATM    4  C7  UNL     1     -34.904   5.773   3.994  1.00 20.00     0.365 C 
BRANCH   4   5
HETATM    5  N11 UNL     1     -33.895   6.794   3.672  1.00 20.00     0.095 N 
HETATM    6  C6  UNL     1     -34.177   8.020   4.438  1.00 20.00     0.310 C 
BRANCH   5   7
HETATM    7  C9  UNL     1     -33.846   7.057   2.262  1.00 20.00     0.273 C 
BRANCH   7   8
HETATM    8  C8  UNL     1     -32.465   6.796   1.665  1.00 20.00     0.034 C 
BRANCH   8   9
HETATM    9  C10 UNL     1     -31.611   8.057   1.422  1.00 20.00    -0.021 C 
HETATM   10  C4  UNL     1     -31.120   8.615   2.761  1.00 20.00     0.009 C 
HETATM   11  C5  UNL     1     -32.374   9.140   0.660  1.00 20.00     0.009 C 
ENDBRANCH   8   9
ENDBRANCH   7   8
ENDBRANCH   5   7
ENDBRANCH   4   5
ENDBRANCH   2   4
TORSDOF 5
ENDMDL
MODEL 6
REMARK VINA RESULT:      -0.6      1.021      1.653
REMARK  5 active torsions:
REMARK  status: ('A' for Active; 'I' for Inactive)
REMARK    1  A    between atoms: C2_2  and  C7_7 
REMARK    2  A    between atoms: C7_7  and  N11_11 
REMARK    3  A    between atoms: C8_8  and  C9_9 
REMARK    4  A    between atoms: C8_8  and  C10_10 
REMARK    5  A    between atoms: C9_9  and  N11_11 
ROOT
HETATM    1  C1  UNL     1     -33.931   3.975   4.354  1.00 20.00    -0.109 C 
HETATM    2  C2  UNL     1     -34.514   4.995   4.109  1.00 20.00    -0.077 C 
HETATM    3  C3  UNL     1     -33.221   2.732   4.653  1.00 20.00     0.112 C 
ENDROOT
BRANCH   2   4
HETATM    4  C7  UNL     1     -35.228   6.243   3.816  1.00 20.00     0.365 C 
BRANCH   4   5
HETATM    5  N11 UNL     1     -34.403   7.413   4.156  1.00 20.00     0.095 N 
HETATM    6  C6  UNL     1     -34.903   8.592   3.431  1.00 20.00     0.310 C 
BRANCH   5   7
HETATM    7  C9  UNL     1     -33.015   7.175   3.877  1.00 20.00     0.273 C 
BRANCH   7   8
HETATM    8  C8  UNL     1     -32.395   8.272   3.015  1.00 20.00     0.034 C 
BRANCH   8   9
HETATM    9  C10 UNL     1     -31.832   7.797   1.660  1.00 20.00    -0.021 C 
HETATM   10  C4  UNL     1     -32.158   8.827   0.575  1.00 20.00     0.009 C 
HETATM   11  C5  UNL     1     -32.374   6.427   1.251  1.00 20.00     0.009 C 
ENDBRANCH   8   9
ENDBRANCH   7   8
ENDBRANCH   5   7
ENDBRANCH   4   5
ENDBRANCH   2   4
TORSDOF 5
ENDMDL
MODEL 7
REMARK VINA RESULT:      -0.3      1.227      5.860
REMARK  5 active torsions:
REMARK  status: ('A' for Active; 'I' for Inactive)
REMARK    1  A    between atoms: C2_2  and  C7_7 
REMARK    2  A    between atoms: C7_7  and  N11_11 
REMARK    3  A    between atoms: C8_8  and  C9_9 
REMARK    4  A    between atoms: C8_8  and  C10_10 
REMARK    5  A    between atoms: C9_9  and  N11_11 
ROOT
HETATM    1  C1  UNL     1     -32.420   9.589   0.318  1.00 20.00    -0.109 C 
HETATM    2  C2  UNL     1     -31.939   8.686   0.946  1.00 20.00    -0.077 C 
HETATM    3  C3  UNL     1     -33.007  10.689  -0.447  1.00 20.00     0.112 C 
ENDROOT
BRANCH   2   4
HETATM    4  C7  UNL     1     -31.352   7.578   1.707  1.00 20.00     0.365 C 
BRANCH   4   5
HETATM    5  N11 UNL     1     -32.378   6.586   2.066  1.00 20.00     0.095 N 
HETATM    6  C6  UNL     1     -32.706   5.771   0.884  1.00 20.00     0.310 C 
BRANCH   5   7
HETATM    7  C9  UNL     1     -33.549   7.215   2.610  1.00 20.00     0.273 C 
BRANCH   7   8
HETATM    8  C8  UNL     1     -33.970   6.609   3.947  1.00 20.00     0.034 C 
BRANCH   8   9
HETATM    9  C10 UNL     1     -34.622   5.215   3.854  1.00 20.00    -0.021 C 
HETATM   10  C4  UNL     1     -35.808   5.134   4.819  1.00 20.00     0.009 C 
HETATM   11  C5  UNL     1     -33.634   4.087   4.155  1.00 20.00     0.009 C 
ENDBRANCH   8   9
ENDBRANCH   7   8
ENDBRANCH   5   7
ENDBRANCH   4   5
ENDBRANCH   2   4
TORSDOF 5
ENDMDL
MODEL 8
REMARK VINA RESULT:      -0.3      1.016      5.937
REMARK  5 active torsions:
REMARK  status: ('A' for Active; 'I' for Inactive)
REMARK    1  A    between atoms: C2_2  and  C7_7 
REMARK    2  A    between atoms: C7_7  and  N11_11 
REMARK    3  A    between atoms: C8_8  and  C9_9 
REMARK    4  A    between atoms: C8_8  and  C10_10 
REMARK    5  A    between atoms: C9_9  and  N11_11 
ROOT
HETATM    1  C1  UNL     1     -32.503   8.940   1.029  1.00 20.00    -0.109 C 
HETATM    2  C2  UNL     1     -32.625   8.216   1.978  1.00 20.00    -0.077 C 
HETATM    3  C3  UNL     1     -32.353   9.823  -0.128  1.00 20.00     0.112 C 
ENDROOT
BRANCH   2   4
HETATM    4  C7  UNL     1     -32.781   7.328   3.135  1.00 20.00     0.365 C 
BRANCH   4   5
HETATM    5  N11 UNL     1     -33.880   6.374   2.921  1.00 20.00     0.095 N 
HETATM    6  C6  UNL     1     -34.892   6.547   3.976  1.00 20.00     0.310 C 
BRANCH   5   7
HETATM    7  C9  UNL     1     -33.399   5.022   2.873  1.00 20.00     0.273 C 
BRANCH   7   8
HETATM    8  C8  UNL     1     -33.897   4.182   4.047  1.00 20.00     0.034 C 
BRANCH   8   9
HETATM    9  C10 UNL     1     -32.880   3.161   4.595  1.00 20.00    -0.021 C 
HETATM   10  C4  UNL     1     -33.459   1.747   4.490  1.00 20.00     0.009 C 
HETATM   11  C5  UNL     1     -32.485   3.450   6.043  1.00 20.00     0.009 C 
ENDBRANCH   8   9
ENDBRANCH   7   8
ENDBRANCH   5   7
ENDBRANCH   4   5
ENDBRANCH   2   4
TORSDOF 5
ENDMDL
MODEL 9
REMARK VINA RESULT:      -0.0      1.735      2.385
REMARK  5 active torsions:
REMARK  status: ('A' for Active; 'I' for Inactive)
REMARK    1  A    between atoms: C2_2  and  C7_7 
REMARK    2  A    between atoms: C7_7  and  N11_11 
REMARK    3  A    between atoms: C8_8  and  C9_9 
REMARK    4  A    between atoms: C8_8  and  C10_10 
REMARK    5  A    between atoms: C9_9  and  N11_11 
ROOT
HETATM    1  C1  UNL     1     -34.805   5.980   4.148  1.00 20.00    -0.109 C 
HETATM    2  C2  UNL     1     -34.067   6.804   3.684  1.00 20.00    -0.077 C 
HETATM    3  C3  UNL     1     -35.704   4.974   4.713  1.00 20.00     0.112 C 
ENDROOT
BRANCH   2   4
HETATM    4  C7  UNL     1     -33.169   7.813   3.110  1.00 20.00     0.365 C 
BRANCH   4   5
HETATM    5  N11 UNL     1     -32.672   7.386   1.793  1.00 20.00     0.095 N 
HETATM    6  C6  UNL     1     -32.749   5.919   1.693  1.00 20.00     0.310 C 
BRANCH   5   7
HETATM    7  C9  UNL     1     -31.337   7.859   1.557  1.00 20.00     0.273 C 
BRANCH   7   8
HETATM    8  C8  UNL     1     -31.289   8.990   0.533  1.00 20.00     0.034 C 
BRANCH   8   9
HETATM    9  C10 UNL     1     -32.601   9.785   0.379  1.00 20.00    -0.021 C 
HETATM   10  C4  UNL     1     -32.863  10.066  -1.104  1.00 20.00     0.009 C 
HETATM   11  C5  UNL     1     -32.581  11.101   1.158  1.00 20.00     0.009 C 
ENDBRANCH   8   9
ENDBRANCH   7   8
ENDBRANCH   5   7
ENDBRANCH   4   5
ENDBRANCH   2   4
TORSDOF 5
ENDMDL
