MODEL 1
REMARK VINA RESULT:       1.6      0.000      0.000
REMARK  1 active torsions:
REMARK  status: ('A' for Active; 'I' for Inactive)
REMARK    1  A    between atoms: C1_1  and  C8_8 
ROOT
HETATM    1  C2  UNL     1     -33.365   5.572   3.164  1.00 20.00     0.005 C 
HETATM    2  C3  UNL     1     -33.992   6.952   3.411  1.00 20.00     0.006 C 
HETATM    3  C4  UNL     1     -33.868   6.602   1.079  1.00 20.00     0.010 C 
HETATM    4  C5  UNL     1     -31.569   6.568   1.721  1.00 20.00     0.023 C 
HETATM    5  C6  UNL     1     -32.834   5.684   1.723  1.00 20.00    -0.013 C 
HETATM    6  C7  UNL     1     -33.659   7.715   2.116  1.00 20.00     0.003 C 
HETATM    7  C8  UNL     1     -32.132   7.983   1.994  1.00 20.00     0.036 C 
HETATM    8  C9  UNL     1     -31.489   8.644   3.214  1.00 20.00     0.025 C 
ENDROOT
BRANCH   7   9
HETATM    9  C1  UNL     1     -31.897   8.901   0.819  1.00 20.00     0.227 C 
HETATM   10  O10 UNL     1     -31.080   8.633  -0.057  1.00 20.00    -0.279 OA
HETATM   11 CL11 UNL     1     -32.899  10.319   0.886  1.00 20.00    -0.043 Cl
ENDBRANCH   7   9
TORSDOF 1
ENDMDL
MODEL 2
REMARK VINA RESULT:       1.9      1.421      2.613
REMARK  1 active torsions:
REMARK  status: ('A' for Active; 'I' for Inactive)
REMARK    1  A    between atoms: C1_1  and  C8_8 
ROOT
HETATM    1  C2  UNL     1     -35.316   5.763   3.941  1.00 20.00     0.005 C 
HETATM    2  C3  UNL     1     -33.879   5.246   4.112  1.00 20.00     0.006 C 
HETATM    3  C4  UNL     1     -33.881   7.571   4.521  1.00 20.00     0.010 C 
HETATM    4  C5  UNL     1     -34.577   7.455   2.240  1.00 20.00     0.023 C 
HETATM    5  C6  UNL     1     -35.114   7.266   3.675  1.00 20.00    -0.013 C 
HETATM    6  C7  UNL     1     -33.029   6.497   3.829  1.00 20.00     0.003 C 
HETATM    7  C8  UNL     1     -33.128   6.923   2.336  1.00 20.00     0.036 C 
HETATM    8  C9  UNL     1     -32.844   5.813   1.325  1.00 20.00     0.025 C 
ENDROOT
BRANCH   7   9
HETATM    9  C1  UNL     1     -32.123   8.021   2.082  1.00 20.00     0.227 C 
HETATM   10  O10 UNL     1     -31.108   8.137   2.762  1.00 20.00    -0.279 OA
HETATM   11 CL11 UNL     1     -32.592   9.042   0.758  1.00 20.00    -0.043 Cl
ENDBRANCH   7   9
TORSDOF 1
ENDMDL
MODEL 3
REMARK VINA RESULT:       2.0      2.411      3.659
REMARK  1 active torsions:
REMARK  status: ('A' for Active; 'I' for Inactive)
REMARK    1  A    between atoms: C1_1  and  C8_8 
ROOT
HETATM    1  C2  UNL     1     -31.408   8.501   0.615  1.00 20.00     0.005 C 
HETATM    2  C3  UNL     1     -32.895   8.830   0.812  1.00 20.00     0.006 C 
HETATM    3  C4  UNL     1     -31.984   8.246   2.910  1.00 20.00     0.010 C 
HETATM    4  C5  UNL     1     -31.700   6.235   1.655  1.00 20.00     0.023 C 
HETATM    5  C6  UNL     1     -31.078   7.635   1.845  1.00 20.00    -0.013 C 
HETATM    6  C7  UNL     1     -33.258   8.033   2.078  1.00 20.00     0.003 C 
HETATM    7  C8  UNL     1     -33.216   6.501   1.815  1.00 20.00     0.036 C 
HETATM    8  C9  UNL     1     -34.024   6.029   0.606  1.00 20.00     0.025 C 
ENDROOT
BRANCH   7   9
HETATM    9  C1  UNL     1     -33.772   5.790   3.024  1.00 20.00     0.227 C 
HETATM   10  O10 UNL     1     -33.402   4.662   3.336  1.00 20.00    -0.279 OA
HETATM   11 CL11 UNL     1     -34.950   6.751   3.864  1.00 20.00    -0.043 Cl
ENDBRANCH   7   9
TORSDOF 1
ENDMDL
MODEL 4
REMARK VINA RESULT:       2.7      2.954      3.890
REMARK  1 active torsions:
REMARK  status: ('A' for Active; 'I' for Inactive)
REMARK    1  A    between atoms: C1_1  and  C8_8 
ROOT
HETATM    1  C2  UNL     1     -32.456   7.910   0.892  1.00 20.00     0.005 C 
HETATM    2  C3  UNL     1     -31.771   7.813   2.263  1.00 20.00     0.006 C 
HETATM    3  C4  UNL     1     -32.170   5.623   1.480  1.00 20.00     0.010 C 
HETATM    4  C5  UNL     1     -34.381   6.502   1.678  1.00 20.00     0.023 C 
HETATM    5  C6  UNL     1     -33.146   6.541   0.751  1.00 20.00    -0.013 C 
HETATM    6  C7  UNL     1     -32.231   6.439   2.780  1.00 20.00     0.003 C 
HETATM    7  C8  UNL     1     -33.755   6.431   3.090  1.00 20.00     0.036 C 
HETATM    8  C9  UNL     1     -34.236   7.560   4.001  1.00 20.00     0.025 C 
ENDROOT
BRANCH   7   9
HETATM    9  C1  UNL     1     -34.099   5.131   3.777  1.00 20.00     0.227 C 
HETATM   10  O10 UNL     1     -33.362   4.152   3.713  1.00 20.00    -0.279 OA
HETATM   11 CL11 UNL     1     -35.614   5.221   4.624  1.00 20.00    -0.043 Cl
ENDBRANCH   7   9
TORSDOF 1
ENDMDL
MODEL 5
REMARK VINA RESULT:       2.7      3.205      4.117
REMARK  1 active torsions:
REMARK  status: ('A' for Active; 'I' for Inactive)
REMARK    1  A    between atoms: C1_1  and  C8_8 
ROOT
HETATM    1  C2  UNL     1     -32.585   7.932   1.249  1.00 20.00     0.005 C 
HETATM    2  C3  UNL     1     -31.820   7.544   2.523  1.00 20.00     0.006 C 
HETATM    3  C4  UNL     1     -32.748   5.583   1.593  1.00 20.00     0.010 C 
HETATM    4  C5  UNL     1     -34.692   6.870   2.109  1.00 20.00     0.023 C 
HETATM    5  C6  UNL     1     -33.563   6.758   1.061  1.00 20.00    -0.013 C 
HETATM    6  C7  UNL     1     -32.519   6.245   2.961  1.00 20.00     0.003 C 
HETATM    7  C8  UNL     1     -33.976   6.516   3.433  1.00 20.00     0.036 C 
HETATM    8  C9  UNL     1     -34.121   7.611   4.489  1.00 20.00     0.025 C 
ENDROOT
BRANCH   7   9
HETATM    9  C1  UNL     1     -34.531   5.246   4.033  1.00 20.00     0.227 C 
HETATM   10  O10 UNL     1     -35.667   5.194   4.495  1.00 20.00    -0.279 OA
HETATM   11 CL11 UNL     1     -33.385   3.941   3.977  1.00 20.00    -0.043 Cl
ENDBRANCH   7   9
TORSDOF 1
ENDMDL
MODEL 6
REMARK VINA RESULT:       2.9      2.654      3.608
REMARK  1 active torsions:
REMARK  status: ('A' for Active; 'I' for Inactive)
REMARK    1  A    between atoms: C1_1  and  C8_8 
ROOT
HETATM    1  C2  UNL     1     -31.548   5.737   1.059  1.00 20.00     0.005 C 
HETATM    2  C3  UNL     1     -32.910   5.062   0.836  1.00 20.00     0.006 C 
HETATM    3  C4  UNL     1     -33.277   7.366   1.199  1.00 20.00     0.010 C 
HETATM    4  C5  UNL     1     -32.297   6.677   3.264  1.00 20.00     0.023 C 
HETATM    5  C6  UNL     1     -31.920   7.030   1.809  1.00 20.00    -0.013 C 
HETATM    6  C7  UNL     1     -33.883   6.004   1.569  1.00 20.00     0.003 C 
HETATM    7  C8  UNL     1     -33.661   5.963   3.107  1.00 20.00     0.036 C 
HETATM    8  C9  UNL     1     -33.664   4.565   3.726  1.00 20.00     0.025 C 
ENDROOT
BRANCH   7   9
HETATM    9  C1  UNL     1     -34.767   6.744   3.774  1.00 20.00     0.227 C 
HETATM   10  O10 UNL     1     -35.946   6.426   3.652  1.00 20.00    -0.279 OA
HETATM   11 CL11 UNL     1     -34.158   8.089   4.689  1.00 20.00    -0.043 Cl
ENDBRANCH   7   9
TORSDOF 1
ENDMDL
MODEL 7
REMARK VINA RESULT:       3.2      2.961      3.964
REMARK  1 active torsions:
REMARK  status: ('A' for Active; 'I' for Inactive)
REMARK    1  A    between atoms: C1_1  and  C8_8 
ROOT
HETATM    1  C2  UNL     1     -31.335   7.187   1.831  1.00 20.00     0.005 C 
HETATM    2  C3  UNL     1     -32.134   6.018   1.237  1.00 20.00     0.006 C 
HETATM    3  C4  UNL     1     -33.613   7.825   1.580  1.00 20.00     0.010 C 
HETATM    4  C5  UNL     1     -32.885   7.335   3.801  1.00 20.00     0.023 C 
HETATM    5  C6  UNL     1     -32.422   8.042   2.508  1.00 20.00    -0.013 C 
HETATM    6  C7  UNL     1     -33.566   6.297   1.728  1.00 20.00     0.003 C 
HETATM    7  C8  UNL     1     -33.681   6.121   3.268  1.00 20.00     0.036 C 
HETATM    8  C9  UNL     1     -33.154   4.792   3.810  1.00 20.00     0.025 C 
ENDROOT
BRANCH   7   9
HETATM    9  C1  UNL     1     -35.138   6.209   3.655  1.00 20.00     0.227 C 
HETATM   10  O10 UNL     1     -35.876   7.076   3.196  1.00 20.00    -0.279 OA
HETATM   11 CL11 UNL     1     -35.590   4.971   4.787  1.00 20.00    -0.043 Cl
ENDBRANCH   7   9
TORSDOF 1
ENDMDL
MODEL 8
REMARK VINA RESULT:       3.7      2.329      3.154
REMARK  1 active torsions:
REMARK  status: ('A' for Active; 'I' for Inactive)
REMARK    1  A    between atoms: C1_1  and  C8_8 
ROOT
HETATM    1  C2  UNL     1     -33.187   4.999   0.721  1.00 20.00     0.005 C 
HETATM    2  C3  UNL     1     -33.946   6.321   0.531  1.00 20.00     0.006 C 
HETATM    3  C4  UNL     1     -31.868   6.799   1.544  1.00 20.00     0.010 C 
HETATM    4  C5  UNL     1     -32.926   5.421   3.182  1.00 20.00     0.023 C 
HETATM    5  C6  UNL     1     -32.178   5.334   1.834  1.00 20.00    -0.013 C 
HETATM    6  C7  UNL     1     -33.343   7.221   1.624  1.00 20.00     0.003 C 
HETATM    7  C8  UNL     1     -33.739   6.730   3.046  1.00 20.00     0.036 C 
HETATM    8  C9  UNL     1     -35.236   6.514   3.263  1.00 20.00     0.025 C 
ENDROOT
BRANCH   7   9
HETATM    9  C1  UNL     1     -33.290   7.761   4.053  1.00 20.00     0.227 C 
HETATM   10  O10 UNL     1     -33.903   7.951   5.099  1.00 20.00    -0.279 OA
HETATM   11 CL11 UNL     1     -31.854   8.594   3.541  1.00 20.00    -0.043 Cl
ENDBRANCH   7   9
TORSDOF 1
ENDMDL
MODEL 9
REMARK VINA RESULT:       3.8      2.340      3.615
REMARK  1 active torsions:
REMARK  status: ('A' for Active; 'I' for Inactive)
REMARK    1  A    between atoms: C1_1  and  C8_8 
ROOT
HETATM    1  C2  UNL     1     -31.365   8.744  -0.097  1.00 20.00     0.005 C 
HETATM    2  C3  UNL     1     -32.850   8.367  -0.207  1.00 20.00     0.006 C 
HETATM    3  C4  UNL     1     -32.576   9.746   1.690  1.00 20.00     0.010 C 
HETATM    4  C5  UNL     1     -31.239   7.847   2.245  1.00 20.00     0.023 C 
HETATM    5  C6  UNL     1     -31.214   9.130   1.386  1.00 20.00    -0.013 C 
HETATM    6  C7  UNL     1     -33.343   8.492   1.246  1.00 20.00     0.003 C 
HETATM    7  C8  UNL     1     -32.716   7.396   2.153  1.00 20.00     0.036 C 
HETATM    8  C9  UNL     1     -32.859   5.965   1.635  1.00 20.00     0.025 C 
ENDROOT
BRANCH   7   9
HETATM    9  C1  UNL     1     -33.389   7.446   3.504  1.00 20.00     0.227 C 
HETATM   10  O10 UNL     1     -32.889   8.044   4.452  1.00 20.00    -0.279 OA
HETATM   11 CL11 UNL     1     -34.893   6.578   3.518  1.00 20.00    -0.043 Cl
ENDBRANCH   7   9
TORSDOF 1
ENDMDL
