MODEL 1
REMARK VINA RESULT:       2.3      0.000      0.000
REMARK  1 active torsions:
REMARK  status: ('A' for Active; 'I' for Inactive)
REMARK    1  A    between atoms: C2_2  and  C6_6 
ROOT
HETATM    1  C3  UNL     1     -31.798   8.699   0.651  1.00 20.00     0.031 C 
HETATM    2  C4  UNL     1     -33.066   9.230   1.328  1.00 20.00     0.032 C 
HETATM    3  C5  UNL     1     -32.294   6.369   1.492  1.00 20.00     0.040 C 
HETATM    4  C6  UNL     1     -33.602   6.894   2.120  1.00 20.00     0.042 C 
HETATM    5  C7  UNL     1     -31.271   7.514   1.469  1.00 20.00     0.131 C 
HETATM    6  C8  UNL     1     -33.360   8.356   2.556  1.00 20.00     0.139 C 
HETATM    7  N10 UNL     1     -31.096   7.978   2.868  1.00 20.00    -0.192 NA
HETATM    8  N11 UNL     1     -32.150   8.394   3.419  1.00 20.00    -0.192 NA
ENDROOT
BRANCH   4   9
HETATM    9  C2  UNL     1     -34.064   6.032   3.256  1.00 20.00    -0.087 C 
HETATM   10  C1  UNL     1     -33.498   4.844   3.520  1.00 20.00     0.014 C 
HETATM   11  C9  UNL     1     -35.194   6.571   4.081  1.00 20.00     0.043 C 
ENDBRANCH   4   9
TORSDOF 1
ENDMDL
MODEL 2
REMARK VINA RESULT:       2.3      0.977      1.272
REMARK  1 active torsions:
REMARK  status: ('A' for Active; 'I' for Inactive)
REMARK    1  A    between atoms: C2_2  and  C6_6 
ROOT
HETATM    1  C3  UNL     1     -31.855   8.283   0.244  1.00 20.00     0.031 C 
HETATM    2  C4  UNL     1     -32.609   9.406   0.963  1.00 20.00     0.032 C 
HETATM    3  C5  UNL     1     -32.919   6.564   1.760  1.00 20.00     0.040 C 
HETATM    4  C6  UNL     1     -33.723   7.690   2.442  1.00 20.00     0.042 C 
HETATM    5  C7  UNL     1     -31.596   7.152   1.247  1.00 20.00     0.131 C 
HETATM    6  C8  UNL     1     -32.857   8.969   2.415  1.00 20.00     0.139 C 
HETATM    7  N10 UNL     1     -30.893   7.741   2.414  1.00 20.00    -0.192 NA
HETATM    8  N11 UNL     1     -31.531   8.651   3.008  1.00 20.00    -0.192 NA
ENDROOT
BRANCH   4   9
HETATM    9  C2  UNL     1     -34.141   7.318   3.833  1.00 20.00    -0.087 C 
HETATM   10  C1  UNL     1     -33.691   7.979   4.909  1.00 20.00     0.014 C 
HETATM   11  C9  UNL     1     -35.092   6.164   3.952  1.00 20.00     0.043 C 
ENDBRANCH   4   9
TORSDOF 1
ENDMDL
MODEL 3
REMARK VINA RESULT:       2.7      0.323      1.107
REMARK  1 active torsions:
REMARK  status: ('A' for Active; 'I' for Inactive)
REMARK    1  A    between atoms: C2_2  and  C6_6 
ROOT
HETATM    1  C3  UNL     1     -31.914   8.604   0.395  1.00 20.00     0.031 C 
HETATM    2  C4  UNL     1     -32.941   9.301   1.293  1.00 20.00     0.032 C 
HETATM    3  C5  UNL     1     -32.644   6.348   1.266  1.00 20.00     0.040 C 
HETATM    4  C6  UNL     1     -33.720   7.048   2.123  1.00 20.00     0.042 C 
HETATM    5  C7  UNL     1     -31.463   7.312   1.086  1.00 20.00     0.131 C 
HETATM    6  C8  UNL     1     -33.166   8.429   2.537  1.00 20.00     0.139 C 
HETATM    7  N10 UNL     1     -30.978   7.674   2.441  1.00 20.00    -0.192 NA
HETATM    8  N11 UNL     1     -31.838   8.229   3.176  1.00 20.00    -0.192 NA
ENDROOT
BRANCH   4   9
HETATM    9  C2  UNL     1     -34.121   6.219   3.306  1.00 20.00    -0.087 C 
HETATM   10  C1  UNL     1     -35.114   6.591   4.128  1.00 20.00     0.014 C 
HETATM   11  C9  UNL     1     -33.350   4.950   3.519  1.00 20.00     0.043 C 
ENDBRANCH   4   9
TORSDOF 1
ENDMDL
MODEL 4
REMARK VINA RESULT:       2.8      1.728      2.595
REMARK  1 active torsions:
REMARK  status: ('A' for Active; 'I' for Inactive)
REMARK    1  A    between atoms: C2_2  and  C6_6 
ROOT
HETATM    1  C3  UNL     1     -31.335   7.541   1.395  1.00 20.00     0.031 C 
HETATM    2  C4  UNL     1     -31.264   6.022   1.571  1.00 20.00     0.032 C 
HETATM    3  C5  UNL     1     -33.203   7.675   3.091  1.00 20.00     0.040 C 
HETATM    4  C6  UNL     1     -33.087   6.153   3.312  1.00 20.00     0.042 C 
HETATM    5  C7  UNL     1     -32.779   7.992   1.650  1.00 20.00     0.131 C 
HETATM    6  C8  UNL     1     -32.657   5.515   1.973  1.00 20.00     0.139 C 
HETATM    7  N10 UNL     1     -33.659   7.208   0.748  1.00 20.00    -0.192 NA
HETATM    8  N11 UNL     1     -33.605   5.960   0.916  1.00 20.00    -0.192 NA
ENDROOT
BRANCH   4   9
HETATM    9  C2  UNL     1     -34.361   5.564   3.839  1.00 20.00    -0.087 C 
HETATM   10  C1  UNL     1     -35.488   6.286   3.937  1.00 20.00     0.014 C 
HETATM   11  C9  UNL     1     -34.305   4.123   4.249  1.00 20.00     0.043 C 
ENDBRANCH   4   9
TORSDOF 1
ENDMDL
MODEL 5
REMARK VINA RESULT:       3.0      1.051      1.239
REMARK  1 active torsions:
REMARK  status: ('A' for Active; 'I' for Inactive)
REMARK    1  A    between atoms: C2_2  and  C6_6 
ROOT
HETATM    1  C3  UNL     1     -32.248   8.235   0.147  1.00 20.00     0.031 C 
HETATM    2  C4  UNL     1     -32.740   9.348   1.078  1.00 20.00     0.032 C 
HETATM    3  C5  UNL     1     -33.297   6.488   1.639  1.00 20.00     0.040 C 
HETATM    4  C6  UNL     1     -33.844   7.613   2.542  1.00 20.00     0.042 C 
HETATM    5  C7  UNL     1     -31.997   6.976   0.986  1.00 20.00     0.131 C 
HETATM    6  C8  UNL     1     -32.834   8.781   2.502  1.00 20.00     0.139 C 
HETATM    7  N10 UNL     1     -31.064   7.345   2.079  1.00 20.00    -0.192 NA
HETATM    8  N11 UNL     1     -31.489   8.249   2.849  1.00 20.00    -0.192 NA
ENDROOT
BRANCH   4   9
HETATM    9  C2  UNL     1     -34.105   7.135   3.939  1.00 20.00    -0.087 C 
HETATM   10  C1  UNL     1     -34.818   6.026   4.186  1.00 20.00     0.014 C 
HETATM   11  C9  UNL     1     -33.524   7.967   5.043  1.00 20.00     0.043 C 
ENDBRANCH   4   9
TORSDOF 1
ENDMDL
MODEL 6
REMARK VINA RESULT:       3.4      1.031      3.893
REMARK  1 active torsions:
REMARK  status: ('A' for Active; 'I' for Inactive)
REMARK    1  A    between atoms: C2_2  and  C6_6 
ROOT
HETATM    1  C3  UNL     1     -33.579   6.454   3.144  1.00 20.00     0.031 C 
HETATM    2  C4  UNL     1     -32.702   6.113   1.936  1.00 20.00     0.032 C 
HETATM    3  C5  UNL     1     -33.885   8.811   2.290  1.00 20.00     0.040 C 
HETATM    4  C6  UNL     1     -33.053   8.448   1.043  1.00 20.00     0.042 C 
HETATM    5  C7  UNL     1     -33.408   7.944   3.463  1.00 20.00     0.131 C 
HETATM    6  C8  UNL     1     -32.003   7.399   1.468  1.00 20.00     0.139 C 
HETATM    7  N10 UNL     1     -31.958   8.201   3.641  1.00 20.00    -0.192 NA
HETATM    8  N11 UNL     1     -31.250   7.934   2.633  1.00 20.00    -0.192 NA
ENDROOT
BRANCH   4   9
HETATM    9  C2  UNL     1     -32.426   9.657   0.416  1.00 20.00    -0.087 C 
HETATM   10  C1  UNL     1     -32.766  10.902   0.782  1.00 20.00     0.014 C 
HETATM   11  C9  UNL     1     -31.398   9.396  -0.644  1.00 20.00     0.043 C 
ENDBRANCH   4   9
TORSDOF 1
ENDMDL
MODEL 7
REMARK VINA RESULT:       3.4      1.683      2.487
REMARK  1 active torsions:
REMARK  status: ('A' for Active; 'I' for Inactive)
REMARK    1  A    between atoms: C2_2  and  C6_6 
ROOT
HETATM    1  C3  UNL     1     -31.019   6.639   1.090  1.00 20.00     0.031 C 
HETATM    2  C4  UNL     1     -31.956   5.456   1.349  1.00 20.00     0.032 C 
HETATM    3  C5  UNL     1     -32.086   7.931   2.980  1.00 20.00     0.040 C 
HETATM    4  C6  UNL     1     -32.986   6.714   3.279  1.00 20.00     0.042 C 
HETATM    5  C7  UNL     1     -31.748   7.930   1.483  1.00 20.00     0.131 C 
HETATM    6  C8  UNL     1     -33.266   5.996   1.940  1.00 20.00     0.139 C 
HETATM    7  N10 UNL     1     -33.031   7.964   0.739  1.00 20.00    -0.192 NA
HETATM    8  N11 UNL     1     -33.801   6.994   0.976  1.00 20.00    -0.192 NA
ENDROOT
BRANCH   4   9
HETATM    9  C2  UNL     1     -34.248   7.110   3.985  1.00 20.00    -0.087 C 
HETATM   10  C1  UNL     1     -34.364   8.284   4.625  1.00 20.00     0.014 C 
HETATM   11  C9  UNL     1     -35.374   6.120   3.937  1.00 20.00     0.043 C 
ENDBRANCH   4   9
TORSDOF 1
ENDMDL
MODEL 8
REMARK VINA RESULT:       3.5      1.796      3.694
REMARK  1 active torsions:
REMARK  status: ('A' for Active; 'I' for Inactive)
REMARK    1  A    between atoms: C2_2  and  C6_6 
ROOT
HETATM    1  C3  UNL     1     -32.979   5.407   3.136  1.00 20.00     0.031 C 
HETATM    2  C4  UNL     1     -33.911   6.617   3.246  1.00 20.00     0.032 C 
HETATM    3  C5  UNL     1     -31.343   6.759   1.767  1.00 20.00     0.040 C 
HETATM    4  C6  UNL     1     -32.253   7.993   1.931  1.00 20.00     0.042 C 
HETATM    5  C7  UNL     1     -32.219   5.499   1.808  1.00 20.00     0.131 C 
HETATM    6  C8  UNL     1     -33.713   7.495   2.001  1.00 20.00     0.139 C 
HETATM    7  N10 UNL     1     -33.225   5.625   0.724  1.00 20.00    -0.192 NA
HETATM    8  N11 UNL     1     -33.972   6.635   0.816  1.00 20.00    -0.192 NA
ENDROOT
BRANCH   4   9
HETATM    9  C2  UNL     1     -32.046   8.993   0.833  1.00 20.00    -0.087 C 
HETATM   10  C1  UNL     1     -31.217   8.755  -0.194  1.00 20.00     0.014 C 
HETATM   11  C9  UNL     1     -32.818  10.273   0.949  1.00 20.00     0.043 C 
ENDBRANCH   4   9
TORSDOF 1
ENDMDL
MODEL 9
REMARK VINA RESULT:       3.5      1.531      3.904
REMARK  1 active torsions:
REMARK  status: ('A' for Active; 'I' for Inactive)
REMARK    1  A    between atoms: C2_2  and  C6_6 
ROOT
HETATM    1  C3  UNL     1     -35.693   5.745   4.275  1.00 20.00     0.031 C 
HETATM    2  C4  UNL     1     -34.509   4.776   4.354  1.00 20.00     0.032 C 
HETATM    3  C5  UNL     1     -34.724   6.799   2.194  1.00 20.00     0.040 C 
HETATM    4  C6  UNL     1     -33.565   5.782   2.241  1.00 20.00     0.042 C 
HETATM    5  C7  UNL     1     -35.211   7.049   3.629  1.00 20.00     0.131 C 
HETATM    6  C8  UNL     1     -33.285   5.456   3.724  1.00 20.00     0.139 C 
HETATM    7  N10 UNL     1     -34.048   7.533   4.412  1.00 20.00    -0.192 NA
HETATM    8  N11 UNL     1     -33.073   6.735   4.453  1.00 20.00    -0.192 NA
ENDROOT
BRANCH   4   9
HETATM    9  C2  UNL     1     -32.346   6.289   1.531  1.00 20.00    -0.087 C 
HETATM   10  C1  UNL     1     -32.032   7.593   1.504  1.00 20.00     0.014 C 
HETATM   11  C9  UNL     1     -31.497   5.256   0.852  1.00 20.00     0.043 C 
ENDBRANCH   4   9
TORSDOF 1
ENDMDL
