MODEL 1
REMARK VINA RESULT:      -0.0      0.000      0.000
REMARK  0 active torsions:
REMARK  status: ('A' for Active; 'I' for Inactive)
ROOT
HETATM    1  C1  UNL     1     -35.009   5.028   4.331  1.00 20.00     0.004 A 
HETATM    2  C2  UNL     1     -34.111   4.617   3.420  1.00 20.00     0.031 A 
HETATM    3  C3  UNL     1     -35.190   6.438   4.599  1.00 20.00     0.017 A 
HETATM    4  C4  UNL     1     -31.952   8.555   1.465  1.00 20.00     0.044 A 
HETATM    5  C5  UNL     1     -32.384   5.167   1.773  1.00 20.00     0.146 A 
HETATM    6  C6  UNL     1     -34.447   7.327   3.919  1.00 20.00     0.093 A 
HETATM    7  C7  UNL     1     -33.300   5.585   2.679  1.00 20.00     0.053 A 
HETATM    8  C8  UNL     1     -32.780   7.966   2.327  1.00 20.00     0.136 A 
HETATM    9  C9  UNL     1     -31.880   7.206   1.356  1.00 20.00     0.069 A 
HETATM   10  N10 UNL     1     -31.605   6.039   1.043  1.00 20.00    -0.260 NA
HETATM   11  N11 UNL     1     -33.501   6.977   2.951  1.00 20.00    -0.333 N 
ENDROOT
TORSDOF 0
ENDMDL
MODEL 2
REMARK VINA RESULT:       0.3      0.908      2.238
REMARK  0 active torsions:
REMARK  status: ('A' for Active; 'I' for Inactive)
ROOT
HETATM    1  C1  UNL     1     -35.178   6.520   4.717  1.00 20.00     0.004 A 
HETATM    2  C2  UNL     1     -34.424   7.467   4.133  1.00 20.00     0.031 A 
HETATM    3  C3  UNL     1     -35.063   5.136   4.311  1.00 20.00     0.017 A 
HETATM    4  C4  UNL     1     -31.548   5.336   0.790  1.00 20.00     0.044 A 
HETATM    5  C5  UNL     1     -32.726   8.078   2.479  1.00 20.00     0.146 A 
HETATM    6  C6  UNL     1     -34.188   4.816   3.343  1.00 20.00     0.093 A 
HETATM    7  C7  UNL     1     -33.471   7.119   3.078  1.00 20.00     0.053 A 
HETATM    8  C8  UNL     1     -32.517   5.312   1.704  1.00 20.00     0.136 A 
HETATM    9  C9  UNL     1     -31.798   6.583   1.259  1.00 20.00     0.069 A 
HETATM   10  N10 UNL     1     -31.808   7.800   1.489  1.00 20.00    -0.260 NA
HETATM   11  N11 UNL     1     -33.365   5.743   2.696  1.00 20.00    -0.333 N 
ENDROOT
TORSDOF 0
ENDMDL
MODEL 3
REMARK VINA RESULT:       0.4      1.050      4.129
REMARK  0 active torsions:
REMARK  status: ('A' for Active; 'I' for Inactive)
ROOT
HETATM    1  C1  UNL     1     -31.446   7.339   1.044  1.00 20.00     0.004 A 
HETATM    2  C2  UNL     1     -31.988   8.067   2.035  1.00 20.00     0.031 A 
HETATM    3  C3  UNL     1     -31.871   5.975   0.819  1.00 20.00     0.017 A 
HETATM    4  C4  UNL     1     -35.345   5.334   4.327  1.00 20.00     0.044 A 
HETATM    5  C5  UNL     1     -33.553   8.229   3.911  1.00 20.00     0.146 A 
HETATM    6  C6  UNL     1     -32.819   5.452   1.614  1.00 20.00     0.093 A 
HETATM    7  C7  UNL     1     -33.021   7.498   2.903  1.00 20.00     0.053 A 
HETATM    8  C8  UNL     1     -34.381   5.513   3.424  1.00 20.00     0.136 A 
HETATM    9  C9  UNL     1     -34.816   6.578   4.428  1.00 20.00     0.069 A 
HETATM   10  N10 UNL     1     -34.534   7.741   4.748  1.00 20.00    -0.260 NA
HETATM   11  N11 UNL     1     -33.435   6.149   2.657  1.00 20.00    -0.333 N 
ENDROOT
TORSDOF 0
ENDMDL
MODEL 4
REMARK VINA RESULT:       0.8      1.013      4.161
REMARK  0 active torsions:
REMARK  status: ('A' for Active; 'I' for Inactive)
ROOT
HETATM    1  C1  UNL     1     -32.036   8.295   1.461  1.00 20.00     0.004 A 
HETATM    2  C2  UNL     1     -33.029   8.430   2.356  1.00 20.00     0.031 A 
HETATM    3  C3  UNL     1     -31.512   6.986   1.138  1.00 20.00     0.017 A 
HETATM    4  C4  UNL     1     -34.290   3.982   3.975  1.00 20.00     0.044 A 
HETATM    5  C5  UNL     1     -34.591   7.398   3.934  1.00 20.00     0.146 A 
HETATM    6  C6  UNL     1     -32.038   5.910   1.745  1.00 20.00     0.093 A 
HETATM    7  C7  UNL     1     -33.602   7.257   3.020  1.00 20.00     0.053 A 
HETATM    8  C8  UNL     1     -33.529   4.807   3.257  1.00 20.00     0.136 A 
HETATM    9  C9  UNL     1     -34.644   5.272   4.190  1.00 20.00     0.069 A 
HETATM   10  N10 UNL     1     -35.170   6.325   4.578  1.00 20.00    -0.260 NA
HETATM   11  N11 UNL     1     -33.077   5.970   2.679  1.00 20.00    -0.333 N 
ENDROOT
TORSDOF 0
ENDMDL
MODEL 5
REMARK VINA RESULT:       1.4      1.101      3.566
REMARK  0 active torsions:
REMARK  status: ('A' for Active; 'I' for Inactive)
ROOT
HETATM    1  C1  UNL     1     -31.547   7.164   1.161  1.00 20.00     0.004 A 
HETATM    2  C2  UNL     1     -31.838   5.912   1.554  1.00 20.00     0.031 A 
HETATM    3  C3  UNL     1     -32.304   8.287   1.670  1.00 20.00     0.017 A 
HETATM    4  C4  UNL     1     -35.550   6.095   4.743  1.00 20.00     0.044 A 
HETATM    5  C5  UNL     1     -33.224   4.395   2.884  1.00 20.00     0.146 A 
HETATM    6  C6  UNL     1     -33.299   8.055   2.543  1.00 20.00     0.093 A 
HETATM    7  C7  UNL     1     -32.923   5.659   2.504  1.00 20.00     0.053 A 
HETATM    8  C8  UNL     1     -34.702   6.656   3.883  1.00 20.00     0.136 A 
HETATM    9  C9  UNL     1     -34.774   5.155   4.151  1.00 20.00     0.069 A 
HETATM   10  N10 UNL     1     -34.228   4.106   3.783  1.00 20.00    -0.260 NA
HETATM   11  N11 UNL     1     -33.653   6.784   3.003  1.00 20.00    -0.333 N 
ENDROOT
TORSDOF 0
ENDMDL
MODEL 6
REMARK VINA RESULT:       1.6      1.025      2.258
REMARK  0 active torsions:
REMARK  status: ('A' for Active; 'I' for Inactive)
ROOT
HETATM    1  C1  UNL     1     -35.160   5.139   4.532  1.00 20.00     0.004 A 
HETATM    2  C2  UNL     1     -35.015   6.459   4.324  1.00 20.00     0.031 A 
HETATM    3  C3  UNL     1     -34.310   4.190   3.845  1.00 20.00     0.017 A 
HETATM    4  C4  UNL     1     -31.356   7.150   1.142  1.00 20.00     0.044 A 
HETATM    5  C5  UNL     1     -33.865   8.293   3.181  1.00 20.00     0.146 A 
HETATM    6  C6  UNL     1     -33.374   4.653   3.000  1.00 20.00     0.093 A 
HETATM    7  C7  UNL     1     -33.996   6.964   3.402  1.00 20.00     0.053 A 
HETATM    8  C8  UNL     1     -32.186   6.375   1.840  1.00 20.00     0.136 A 
HETATM    9  C9  UNL     1     -32.248   7.901   1.833  1.00 20.00     0.069 A 
HETATM   10  N10 UNL     1     -32.915   8.818   2.331  1.00 20.00    -0.260 NA
HETATM   11  N11 UNL     1     -33.159   6.010   2.739  1.00 20.00    -0.333 N 
ENDROOT
TORSDOF 0
ENDMDL
