MODEL 1
REMARK VINA RESULT:      -2.7      0.000      0.000
REMARK  1 active torsions:
REMARK  status: ('A' for Active; 'I' for Inactive)
REMARK    1  A    between atoms: C3_3  and  C4_4 
ROOT
HETATM    1  C1  UNL     1     -34.341   7.145   3.809  1.00 20.00    -0.018 A 
HETATM    2  C2  UNL     1     -35.232   6.164   4.034  1.00 20.00    -0.025 A 
HETATM    3  C4  UNL     1     -33.258   6.198   3.328  1.00 20.00     0.084 A 
HETATM    4  C5  UNL     1     -34.323   5.076   3.497  1.00 20.00     0.018 A 
HETATM    5  C7  UNL     1     -33.970   3.965   4.474  1.00 20.00     0.015 C 
ENDROOT
BRANCH   3   6
HETATM    6  C3  UNL     1     -32.796   6.567   1.915  1.00 20.00     0.131 C 
HETATM    7  C6  UNL     1     -32.034   7.857   1.769  1.00 20.00     0.091 C 
HETATM    8  O8  UNL     1     -33.033   5.846   0.948  1.00 20.00    -0.298 OA
ENDBRANCH   3   6
TORSDOF 1
ENDMDL
MODEL 2
REMARK VINA RESULT:      -2.4      0.986      1.195
REMARK  1 active torsions:
REMARK  status: ('A' for Active; 'I' for Inactive)
REMARK    1  A    between atoms: C3_3  and  C4_4 
ROOT
HETATM    1  C1  UNL     1     -34.418   7.291   3.857  1.00 20.00    -0.018 A 
HETATM    2  C2  UNL     1     -35.309   6.289   3.959  1.00 20.00    -0.025 A 
HETATM    3  C4  UNL     1     -33.278   6.378   3.447  1.00 20.00     0.084 A 
HETATM    4  C5  UNL     1     -34.332   5.235   3.472  1.00 20.00     0.018 A 
HETATM    5  C7  UNL     1     -34.054   4.093   4.437  1.00 20.00     0.015 C 
ENDROOT
BRANCH   3   6
HETATM    6  C3  UNL     1     -32.690   6.809   2.100  1.00 20.00     0.131 C 
HETATM    7  C6  UNL     1     -32.575   5.746   1.041  1.00 20.00     0.091 C 
HETATM    8  O8  UNL     1     -32.331   7.967   1.892  1.00 20.00    -0.298 OA
ENDBRANCH   3   6
TORSDOF 1
ENDMDL
MODEL 3
REMARK VINA RESULT:      -2.1      1.933      3.455
REMARK  1 active torsions:
REMARK  status: ('A' for Active; 'I' for Inactive)
REMARK    1  A    between atoms: C3_3  and  C4_4 
ROOT
HETATM    1  C1  UNL     1     -32.644   8.262   2.085  1.00 20.00    -0.018 A 
HETATM    2  C2  UNL     1     -31.620   7.471   1.718  1.00 20.00    -0.025 A 
HETATM    3  C4  UNL     1     -33.594   7.105   2.324  1.00 20.00     0.084 A 
HETATM    4  C5  UNL     1     -32.382   6.188   1.993  1.00 20.00     0.018 A 
HETATM    5  C7  UNL     1     -32.558   5.255   0.804  1.00 20.00     0.015 C 
ENDROOT
BRANCH   3   6
HETATM    6  C3  UNL     1     -34.132   7.125   3.758  1.00 20.00     0.131 C 
HETATM    7  C6  UNL     1     -35.289   6.211   4.060  1.00 20.00     0.091 C 
HETATM    8  O8  UNL     1     -33.642   7.852   4.621  1.00 20.00    -0.298 OA
ENDBRANCH   3   6
TORSDOF 1
ENDMDL
MODEL 4
REMARK VINA RESULT:      -1.9      1.883      3.361
REMARK  1 active torsions:
REMARK  status: ('A' for Active; 'I' for Inactive)
REMARK    1  A    between atoms: C3_3  and  C4_4 
ROOT
HETATM    1  C1  UNL     1     -34.594   7.325   4.067  1.00 20.00    -0.018 A 
HETATM    2  C2  UNL     1     -33.358   7.760   3.763  1.00 20.00    -0.025 A 
HETATM    3  C4  UNL     1     -34.450   6.036   3.281  1.00 20.00     0.084 A 
HETATM    4  C5  UNL     1     -32.988   6.495   3.012  1.00 20.00     0.018 A 
HETATM    5  C7  UNL     1     -32.607   6.681   1.551  1.00 20.00     0.015 C 
ENDROOT
BRANCH   3   6
HETATM    6  C3  UNL     1     -34.686   4.818   4.180  1.00 20.00     0.131 C 
HETATM    7  C6  UNL     1     -33.641   3.735   4.139  1.00 20.00     0.091 C 
HETATM    8  O8  UNL     1     -35.678   4.730   4.901  1.00 20.00    -0.298 OA
ENDBRANCH   3   6
TORSDOF 1
ENDMDL
MODEL 5
REMARK VINA RESULT:      -1.9      1.628      2.465
REMARK  1 active torsions:
REMARK  status: ('A' for Active; 'I' for Inactive)
REMARK    1  A    between atoms: C3_3  and  C4_4 
ROOT
HETATM    1  C1  UNL     1     -32.822   5.810   1.524  1.00 20.00    -0.018 A 
HETATM    2  C2  UNL     1     -33.141   5.256   2.707  1.00 20.00    -0.025 A 
HETATM    3  C4  UNL     1     -33.312   7.190   1.916  1.00 20.00     0.084 A 
HETATM    4  C5  UNL     1     -33.591   6.571   3.315  1.00 20.00     0.018 A 
HETATM    5  C7  UNL     1     -35.035   6.621   3.790  1.00 20.00     0.015 C 
ENDROOT
BRANCH   3   6
HETATM    6  C3  UNL     1     -32.193   8.227   1.780  1.00 20.00     0.131 C 
HETATM    7  C6  UNL     1     -32.330   9.229   0.664  1.00 20.00     0.091 C 
HETATM    8  O8  UNL     1     -31.230   8.243   2.545  1.00 20.00    -0.298 OA
ENDBRANCH   3   6
TORSDOF 1
ENDMDL
MODEL 6
REMARK VINA RESULT:      -1.3      1.988      3.675
REMARK  1 active torsions:
REMARK  status: ('A' for Active; 'I' for Inactive)
REMARK    1  A    between atoms: C3_3  and  C4_4 
ROOT
HETATM    1  C1  UNL     1     -33.164   5.428   2.472  1.00 20.00    -0.018 A 
HETATM    2  C2  UNL     1     -32.928   5.941   1.251  1.00 20.00    -0.025 A 
HETATM    3  C4  UNL     1     -32.979   6.754   3.183  1.00 20.00     0.084 A 
HETATM    4  C5  UNL     1     -32.802   7.363   1.763  1.00 20.00     0.018 A 
HETATM    5  C7  UNL     1     -31.471   8.049   1.493  1.00 20.00     0.015 C 
ENDROOT
BRANCH   3   6
HETATM    6  C3  UNL     1     -34.228   7.120   3.991  1.00 20.00     0.131 C 
HETATM    7  C6  UNL     1     -35.392   6.170   3.905  1.00 20.00     0.091 C 
HETATM    8  O8  UNL     1     -34.277   8.139   4.678  1.00 20.00    -0.298 OA
ENDBRANCH   3   6
TORSDOF 1
ENDMDL
MODEL 7
REMARK VINA RESULT:      -1.3      1.789      4.337
REMARK  1 active torsions:
REMARK  status: ('A' for Active; 'I' for Inactive)
REMARK    1  A    between atoms: C3_3  and  C4_4 
ROOT
HETATM    1  C1  UNL     1     -31.096   7.796   1.580  1.00 20.00    -0.018 A 
HETATM    2  C2  UNL     1     -31.295   8.429   0.411  1.00 20.00    -0.025 A 
HETATM    3  C4  UNL     1     -32.372   8.324   2.206  1.00 20.00     0.084 A 
HETATM    4  C5  UNL     1     -32.649   8.976   0.821  1.00 20.00     0.018 A 
HETATM    5  C7  UNL     1     -32.780  10.492   0.813  1.00 20.00     0.015 C 
ENDROOT
BRANCH   3   6
HETATM    6  C3  UNL     1     -33.271   7.174   2.671  1.00 20.00     0.131 C 
HETATM    7  C6  UNL     1     -34.130   7.431   3.880  1.00 20.00     0.091 C 
HETATM    8  O8  UNL     1     -33.291   6.093   2.084  1.00 20.00    -0.298 OA
ENDBRANCH   3   6
TORSDOF 1
ENDMDL
MODEL 8
REMARK VINA RESULT:      -1.2      2.543      3.251
REMARK  1 active torsions:
REMARK  status: ('A' for Active; 'I' for Inactive)
REMARK    1  A    between atoms: C3_3  and  C4_4 
ROOT
HETATM    1  C1  UNL     1     -32.353   8.390   3.011  1.00 20.00    -0.018 A 
HETATM    2  C2  UNL     1     -33.130   7.295   3.091  1.00 20.00    -0.025 A 
HETATM    3  C4  UNL     1     -32.000   8.164   1.553  1.00 20.00     0.084 A 
HETATM    4  C5  UNL     1     -32.976   6.954   1.621  1.00 20.00     0.018 A 
HETATM    5  C7  UNL     1     -32.370   5.593   1.317  1.00 20.00     0.015 C 
ENDROOT
BRANCH   3   6
HETATM    6  C3  UNL     1     -32.389   9.377   0.703  1.00 20.00     0.131 C 
HETATM    7  C6  UNL     1     -32.308   9.211  -0.791  1.00 20.00     0.091 C 
HETATM    8  O8  UNL     1     -32.752  10.436   1.215  1.00 20.00    -0.298 OA
ENDBRANCH   3   6
TORSDOF 1
ENDMDL
MODEL 9
REMARK VINA RESULT:      -0.9      1.429      3.602
REMARK  1 active torsions:
REMARK  status: ('A' for Active; 'I' for Inactive)
REMARK    1  A    between atoms: C3_3  and  C4_4 
ROOT
HETATM    1  C1  UNL     1     -32.756   8.228   4.143  1.00 20.00    -0.018 A 
HETATM    2  C2  UNL     1     -31.658   8.474   3.406  1.00 20.00    -0.025 A 
HETATM    3  C4  UNL     1     -33.552   7.685   2.972  1.00 20.00     0.084 A 
HETATM    4  C5  UNL     1     -32.250   7.880   2.142  1.00 20.00     0.018 A 
HETATM    5  C7  UNL     1     -32.354   8.823   0.953  1.00 20.00     0.015 C 
ENDROOT
BRANCH   3   6
HETATM    6  C3  UNL     1     -34.039   6.261   3.255  1.00 20.00     0.131 C 
HETATM    7  C6  UNL     1     -35.309   6.125   4.051  1.00 20.00     0.091 C 
HETATM    8  O8  UNL     1     -33.423   5.275   2.850  1.00 20.00    -0.298 OA
ENDBRANCH   3   6
TORSDOF 1
ENDMDL
