MODEL 1
REMARK VINA RESULT:      -0.3      0.000      0.000
REMARK  0 active torsions:
REMARK  status: ('A' for Active; 'I' for Inactive)
ROOT
HETATM    1  C1  UNL     1     -32.591   9.778   0.403  1.00 20.00     0.017 C 
HETATM    2  C2  UNL     1     -32.266   8.844   1.082  1.00 20.00    -0.057 C 
HETATM    3  C3  UNL     1     -33.480   7.834   3.666  1.00 20.00     0.182 C 
HETATM    4  C4  UNL     1     -33.797   6.309   1.722  1.00 20.00     0.182 C 
HETATM    5  C5  UNL     1     -31.867   7.699   1.914  1.00 20.00     0.341 C 
HETATM    6  C6  UNL     1     -34.071   6.484   3.225  1.00 20.00    -0.004 C 
HETATM    7  C7  UNL     1     -35.581   6.459   3.491  1.00 20.00     0.019 C 
HETATM    8  C8  UNL     1     -33.400   5.341   4.012  1.00 20.00     0.019 C 
HETATM    9  O9  UNL     1     -32.101   7.933   3.307  1.00 20.00    -0.350 OA
HETATM   10  O10 UNL     1     -32.407   6.463   1.432  1.00 20.00    -0.350 OA
ENDROOT
TORSDOF 0
ENDMDL
MODEL 2
REMARK VINA RESULT:       1.2      1.319      3.865
REMARK  0 active torsions:
REMARK  status: ('A' for Active; 'I' for Inactive)
ROOT
HETATM    1  C1  UNL     1     -33.494   3.826   4.410  1.00 20.00     0.017 C 
HETATM    2  C2  UNL     1     -33.787   4.647   3.585  1.00 20.00    -0.057 C 
HETATM    3  C3  UNL     1     -33.224   7.622   3.553  1.00 20.00     0.182 C 
HETATM    4  C4  UNL     1     -31.985   6.328   1.824  1.00 20.00     0.182 C 
HETATM    5  C5  UNL     1     -34.146   5.652   2.574  1.00 20.00     0.341 C 
HETATM    6  C6  UNL     1     -32.232   7.738   2.384  1.00 20.00    -0.004 C 
HETATM    7  C7  UNL     1     -30.913   8.350   2.873  1.00 20.00     0.019 C 
HETATM    8  C8  UNL     1     -32.829   8.637   1.283  1.00 20.00     0.019 C 
HETATM    9  O9  UNL     1     -34.411   6.935   3.154  1.00 20.00    -0.350 OA
HETATM   10  O10 UNL     1     -33.215   5.686   1.486  1.00 20.00    -0.350 OA
ENDROOT
TORSDOF 0
ENDMDL
MODEL 3
REMARK VINA RESULT:       1.9      0.906      3.748
REMARK  0 active torsions:
REMARK  status: ('A' for Active; 'I' for Inactive)
ROOT
HETATM    1  C1  UNL     1     -35.987   6.464   3.708  1.00 20.00     0.017 C 
HETATM    2  C2  UNL     1     -34.796   6.394   3.585  1.00 20.00    -0.057 C 
HETATM    3  C3  UNL     1     -33.083   6.926   1.145  1.00 20.00     0.182 C 
HETATM    4  C4  UNL     1     -32.795   8.586   2.979  1.00 20.00     0.182 C 
HETATM    5  C5  UNL     1     -33.336   6.307   3.435  1.00 20.00     0.341 C 
HETATM    6  C6  UNL     1     -32.319   8.191   1.572  1.00 20.00    -0.004 C 
HETATM    7  C7  UNL     1     -32.595   9.330   0.583  1.00 20.00     0.019 C 
HETATM    8  C8  UNL     1     -30.805   7.899   1.598  1.00 20.00     0.019 C 
HETATM    9  O9  UNL     1     -32.949   5.891   2.120  1.00 20.00    -0.350 OA
HETATM   10  O10 UNL     1     -32.672   7.493   3.890  1.00 20.00    -0.350 OA
ENDROOT
TORSDOF 0
ENDMDL
MODEL 4
REMARK VINA RESULT:       2.0      1.712      3.314
REMARK  0 active torsions:
REMARK  status: ('A' for Active; 'I' for Inactive)
ROOT
HETATM    1  C1  UNL     1     -32.881   8.290   5.574  1.00 20.00     0.017 C 
HETATM    2  C2  UNL     1     -33.443   7.987   4.558  1.00 20.00    -0.057 C 
HETATM    3  C3  UNL     1     -32.273   7.279   1.856  1.00 20.00     0.182 C 
HETATM    4  C4  UNL     1     -33.368   5.374   3.028  1.00 20.00     0.182 C 
HETATM    5  C5  UNL     1     -34.132   7.616   3.313  1.00 20.00     0.341 C 
HETATM    6  C6  UNL     1     -32.634   5.789   1.742  1.00 20.00    -0.004 C 
HETATM    7  C7  UNL     1     -31.360   4.952   1.571  1.00 20.00     0.019 C 
HETATM    8  C8  UNL     1     -33.552   5.567   0.524  1.00 20.00     0.019 C 
HETATM    9  O9  UNL     1     -33.429   8.066   2.149  1.00 20.00    -0.350 OA
HETATM   10  O10 UNL     1     -34.484   6.228   3.280  1.00 20.00    -0.350 OA
ENDROOT
TORSDOF 0
ENDMDL
MODEL 5
REMARK VINA RESULT:       2.1      2.496      4.365
REMARK  0 active torsions:
REMARK  status: ('A' for Active; 'I' for Inactive)
ROOT
HETATM    1  C1  UNL     1     -32.651   2.875   5.276  1.00 20.00     0.017 C 
HETATM    2  C2  UNL     1     -33.402   3.430   4.523  1.00 20.00    -0.057 C 
HETATM    3  C3  UNL     1     -35.001   5.969   4.934  1.00 20.00     0.182 C 
HETATM    4  C4  UNL     1     -33.173   6.171   3.254  1.00 20.00     0.182 C 
HETATM    5  C5  UNL     1     -34.324   4.110   3.601  1.00 20.00     0.341 C 
HETATM    6  C6  UNL     1     -34.323   6.927   3.941  1.00 20.00    -0.004 C 
HETATM    7  C7  UNL     1     -33.777   8.153   4.683  1.00 20.00     0.019 C 
HETATM    8  C8  UNL     1     -35.345   7.389   2.883  1.00 20.00     0.019 C 
HETATM    9  O9  UNL     1     -35.400   4.758   4.289  1.00 20.00    -0.350 OA
HETATM   10  O10 UNL     1     -33.636   4.953   2.670  1.00 20.00    -0.350 OA
ENDROOT
TORSDOF 0
ENDMDL
MODEL 6
REMARK VINA RESULT:       2.5      1.377      1.914
REMARK  0 active torsions:
REMARK  status: ('A' for Active; 'I' for Inactive)
ROOT
HETATM    1  C1  UNL     1     -32.553  10.083   0.249  1.00 20.00     0.017 C 
HETATM    2  C2  UNL     1     -32.318   9.282   1.112  1.00 20.00    -0.057 C 
HETATM    3  C3  UNL     1     -33.899   6.837   1.943  1.00 20.00     0.182 C 
HETATM    4  C4  UNL     1     -31.709   6.325   0.874  1.00 20.00     0.182 C 
HETATM    5  C5  UNL     1     -32.030   8.302   2.169  1.00 20.00     0.341 C 
HETATM    6  C6  UNL     1     -32.955   5.699   1.522  1.00 20.00    -0.004 C 
HETATM    7  C7  UNL     1     -33.659   4.774   0.522  1.00 20.00     0.019 C 
HETATM    8  C8  UNL     1     -32.540   4.882   2.762  1.00 20.00     0.019 C 
HETATM    9  O9  UNL     1     -33.224   7.786   2.769  1.00 20.00    -0.350 OA
HETATM   10  O10 UNL     1     -31.111   7.292   1.738  1.00 20.00    -0.350 OA
ENDROOT
TORSDOF 0
ENDMDL
