MODEL 1
REMARK VINA RESULT:       3.0      0.000      0.000
REMARK  3 active torsions:
REMARK  status: ('A' for Active; 'I' for Inactive)
REMARK    1  A    between atoms: C1_1  and  C10_10 
REMARK    2  A    between atoms: C7_7  and  C8_8 
REMARK    3  A    between atoms: C9_9  and  C10_10 
ROOT
HETATM    1  C2  UNL     1     -31.536   6.770   1.621  1.00 20.00     0.006 C 
HETATM    2  C3  UNL     1     -33.340   5.489   0.473  1.00 20.00     0.006 C 
HETATM    3  C4  UNL     1     -32.564   7.293   2.651  1.00 20.00     0.019 C 
HETATM    4  C5  UNL     1     -34.365   6.005   1.502  1.00 20.00     0.019 C 
HETATM    5  C7  UNL     1     -31.950   5.362   1.128  1.00 20.00    -0.010 C 
HETATM    6  C10 UNL     1     -33.679   6.237   2.868  1.00 20.00     0.040 C 
ENDROOT
BRANCH   6   7
HETATM    7  C1  UNL     1     -34.694   6.732   3.853  1.00 20.00     0.228 C 
HETATM    8  O11 UNL     1     -35.848   6.315   3.855  1.00 20.00    -0.279 OA
HETATM    9 CL12 UNL     1     -34.032   7.921   4.933  1.00 20.00    -0.043 Cl
ENDBRANCH   6   7
BRANCH   6  10
HETATM   10  C9  UNL     1     -32.992   4.969   3.364  1.00 20.00     0.007 A 
HETATM   11  C6  UNL     1     -33.200   4.338   4.719  1.00 20.00     0.011 A 
HETATM   12  C8  UNL     1     -33.984   3.844   3.528  1.00 20.00    -0.005 A 
ENDBRANCH   6  10
TORSDOF 3
ENDMDL
MODEL 2
REMARK VINA RESULT:       3.4      2.293      3.698
REMARK  3 active torsions:
REMARK  status: ('A' for Active; 'I' for Inactive)
REMARK    1  A    between atoms: C1_1  and  C10_10 
REMARK    2  A    between atoms: C7_7  and  C8_8 
REMARK    3  A    between atoms: C9_9  and  C10_10 
ROOT
HETATM    1  C2  UNL     1     -34.372   4.415   4.100  1.00 20.00     0.006 C 
HETATM    2  C3  UNL     1     -35.977   6.223   3.493  1.00 20.00     0.006 C 
HETATM    3  C4  UNL     1     -33.356   4.974   3.078  1.00 20.00     0.019 C 
HETATM    4  C5  UNL     1     -34.963   6.785   2.477  1.00 20.00     0.019 C 
HETATM    5  C7  UNL     1     -35.235   5.566   4.674  1.00 20.00    -0.010 C 
HETATM    6  C10 UNL     1     -33.519   6.513   2.959  1.00 20.00     0.040 C 
ENDROOT
BRANCH   6   7
HETATM    7  C1  UNL     1     -32.551   7.073   1.960  1.00 20.00     0.228 C 
HETATM    8  O11 UNL     1     -32.464   8.279   1.754  1.00 20.00    -0.279 OA
HETATM    9 CL12 UNL     1     -31.624   5.828   1.179  1.00 20.00    -0.043 Cl
ENDBRANCH   6   7
BRANCH   6  10
HETATM   10  C9  UNL     1     -33.281   7.089   4.351  1.00 20.00     0.007 A 
HETATM   11  C6  UNL     1     -32.514   8.353   4.651  1.00 20.00     0.011 A 
HETATM   12  C8  UNL     1     -34.018   8.393   4.529  1.00 20.00    -0.005 A 
ENDBRANCH   6  10
TORSDOF 3
ENDMDL
MODEL 3
REMARK VINA RESULT:       3.4      2.493      3.820
REMARK  3 active torsions:
REMARK  status: ('A' for Active; 'I' for Inactive)
REMARK    1  A    between atoms: C1_1  and  C10_10 
REMARK    2  A    between atoms: C7_7  and  C8_8 
REMARK    3  A    between atoms: C9_9  and  C10_10 
ROOT
HETATM    1  C2  UNL     1     -35.568   7.292   3.095  1.00 20.00     0.006 C 
HETATM    2  C3  UNL     1     -34.008   7.105   5.030  1.00 20.00     0.006 C 
HETATM    3  C4  UNL     1     -34.483   8.045   2.294  1.00 20.00     0.019 C 
HETATM    4  C5  UNL     1     -32.922   7.851   4.230  1.00 20.00     0.019 C 
HETATM    5  C7  UNL     1     -34.905   6.293   4.075  1.00 20.00    -0.010 C 
HETATM    6  C10 UNL     1     -33.074   7.555   2.720  1.00 20.00     0.040 C 
ENDROOT
BRANCH   6   7
HETATM    7  C1  UNL     1     -32.006   8.285   1.964  1.00 20.00     0.228 C 
HETATM    8  O11 UNL     1     -30.829   8.245   2.309  1.00 20.00    -0.279 OA
HETATM    9 CL12 UNL     1     -32.646   9.153   0.601  1.00 20.00    -0.043 Cl
ENDBRANCH   6   7
BRANCH   6  10
HETATM   10  C9  UNL     1     -33.029   6.056   2.443  1.00 20.00     0.007 A 
HETATM   11  C6  UNL     1     -33.264   5.411   1.099  1.00 20.00     0.011 A 
HETATM   12  C8  UNL     1     -31.857   5.704   1.560  1.00 20.00    -0.005 A 
ENDBRANCH   6  10
TORSDOF 3
ENDMDL
MODEL 4
REMARK VINA RESULT:       3.4      1.603      2.481
REMARK  3 active torsions:
REMARK  status: ('A' for Active; 'I' for Inactive)
REMARK    1  A    between atoms: C1_1  and  C10_10 
REMARK    2  A    between atoms: C7_7  and  C8_8 
REMARK    3  A    between atoms: C9_9  and  C10_10 
ROOT
HETATM    1  C2  UNL     1     -30.695   8.432   1.673  1.00 20.00     0.006 C 
HETATM    2  C3  UNL     1     -32.693   9.525   0.662  1.00 20.00     0.006 C 
HETATM    3  C4  UNL     1     -31.525   8.076   2.927  1.00 20.00     0.019 C 
HETATM    4  C5  UNL     1     -33.524   9.167   1.910  1.00 20.00     0.019 C 
HETATM    5  C7  UNL     1     -31.608   8.457   0.423  1.00 20.00    -0.010 C 
HETATM    6  C10 UNL     1     -33.008   7.849   2.533  1.00 20.00     0.040 C 
ENDROOT
BRANCH   6   7
HETATM    7  C1  UNL     1     -33.833   7.517   3.740  1.00 20.00     0.228 C 
HETATM    8  O11 UNL     1     -34.876   6.877   3.652  1.00 20.00    -0.279 OA
HETATM    9 CL12 UNL     1     -33.133   8.141   5.203  1.00 20.00    -0.043 Cl
ENDBRANCH   6   7
BRANCH   6  10
HETATM   10  C9  UNL     1     -33.023   6.712   1.516  1.00 20.00     0.007 A 
HETATM   11  C6  UNL     1     -32.079   5.535   1.512  1.00 20.00     0.011 A 
HETATM   12  C8  UNL     1     -33.434   5.413   2.163  1.00 20.00    -0.005 A 
ENDBRANCH   6  10
TORSDOF 3
ENDMDL
MODEL 5
REMARK VINA RESULT:       3.8      2.364      3.485
REMARK  3 active torsions:
REMARK  status: ('A' for Active; 'I' for Inactive)
REMARK    1  A    between atoms: C1_1  and  C10_10 
REMARK    2  A    between atoms: C7_7  and  C8_8 
REMARK    3  A    between atoms: C9_9  and  C10_10 
ROOT
HETATM    1  C2  UNL     1     -35.383   7.214   3.534  1.00 20.00     0.006 C 
HETATM    2  C3  UNL     1     -33.147   8.200   4.025  1.00 20.00     0.006 C 
HETATM    3  C4  UNL     1     -34.793   6.494   2.301  1.00 20.00     0.019 C 
HETATM    4  C5  UNL     1     -32.556   7.479   2.799  1.00 20.00     0.019 C 
HETATM    5  C7  UNL     1     -34.297   7.368   4.627  1.00 20.00    -0.010 C 
HETATM    6  C10 UNL     1     -33.302   6.147   2.553  1.00 20.00     0.040 C 
ENDROOT
BRANCH   6   7
HETATM    7  C1  UNL     1     -32.708   5.460   1.361  1.00 20.00     0.228 C 
HETATM    8  O11 UNL     1     -31.501   5.262   1.266  1.00 20.00    -0.279 OA
HETATM    9 CL12 UNL     1     -33.915   5.012   0.195  1.00 20.00    -0.043 Cl
ENDBRANCH   6   7
BRANCH   6  10
HETATM   10  C9  UNL     1     -33.263   5.254   3.789  1.00 20.00     0.007 A 
HETATM   11  C6  UNL     1     -34.289   4.205   4.139  1.00 20.00     0.011 A 
HETATM   12  C8  UNL     1     -33.029   3.813   3.409  1.00 20.00    -0.005 A 
ENDBRANCH   6  10
TORSDOF 3
ENDMDL
MODEL 6
REMARK VINA RESULT:       3.8      1.099      1.099
REMARK  3 active torsions:
REMARK  status: ('A' for Active; 'I' for Inactive)
REMARK    1  A    between atoms: C1_1  and  C10_10 
REMARK    2  A    between atoms: C7_7  and  C8_8 
REMARK    3  A    between atoms: C9_9  and  C10_10 
ROOT
HETATM    1  C2  UNL     1     -31.450   6.735   1.539  1.00 20.00     0.006 C 
HETATM    2  C3  UNL     1     -33.350   5.527   0.471  1.00 20.00     0.006 C 
HETATM    3  C4  UNL     1     -32.422   7.350   2.571  1.00 20.00     0.019 C 
HETATM    4  C5  UNL     1     -34.321   6.135   1.502  1.00 20.00     0.019 C 
HETATM    5  C7  UNL     1     -31.956   5.339   1.102  1.00 20.00    -0.010 C 
HETATM    6  C10 UNL     1     -33.592   6.369   2.846  1.00 20.00     0.040 C 
ENDROOT
BRANCH   6   7
HETATM    7  C1  UNL     1     -34.555   6.955   3.834  1.00 20.00     0.228 C 
HETATM    8  O11 UNL     1     -34.188   7.733   4.709  1.00 20.00    -0.279 OA
HETATM    9 CL12 UNL     1     -36.180   6.399   3.572  1.00 20.00    -0.043 Cl
ENDBRANCH   6   7
BRANCH   6  10
HETATM   10  C9  UNL     1     -32.969   5.080   3.370  1.00 20.00     0.007 A 
HETATM   11  C6  UNL     1     -33.305   4.422   4.687  1.00 20.00     0.011 A 
HETATM   12  C8  UNL     1     -33.988   3.968   3.420  1.00 20.00    -0.005 A 
ENDBRANCH   6  10
TORSDOF 3
ENDMDL
MODEL 7
REMARK VINA RESULT:       3.9      1.735      2.529
REMARK  3 active torsions:
REMARK  status: ('A' for Active; 'I' for Inactive)
REMARK    1  A    between atoms: C1_1  and  C10_10 
REMARK    2  A    between atoms: C7_7  and  C8_8 
REMARK    3  A    between atoms: C9_9  and  C10_10 
ROOT
HETATM    1  C2  UNL     1     -32.746   8.475   1.355  1.00 20.00     0.006 C 
HETATM    2  C3  UNL     1     -31.698   6.215   1.412  1.00 20.00     0.006 C 
HETATM    3  C4  UNL     1     -34.019   7.900   2.018  1.00 20.00     0.019 C 
HETATM    4  C5  UNL     1     -32.963   5.641   2.078  1.00 20.00     0.019 C 
HETATM    5  C7  UNL     1     -31.500   7.686   1.827  1.00 20.00    -0.010 C 
HETATM    6  C10 UNL     1     -33.641   6.721   2.953  1.00 20.00     0.040 C 
ENDROOT
BRANCH   6   7
HETATM    7  C1  UNL     1     -34.865   6.139   3.595  1.00 20.00     0.228 C 
HETATM    8  O11 UNL     1     -35.940   6.731   3.586  1.00 20.00    -0.279 OA
HETATM    9 CL12 UNL     1     -34.553   4.589   4.314  1.00 20.00    -0.043 Cl
ENDBRANCH   6   7
BRANCH   6  10
HETATM   10  C9  UNL     1     -32.675   7.277   3.994  1.00 20.00     0.007 A 
HETATM   11  C6  UNL     1     -32.579   8.725   4.407  1.00 20.00     0.011 A 
HETATM   12  C8  UNL     1     -33.417   7.764   5.214  1.00 20.00    -0.005 A 
ENDBRANCH   6  10
TORSDOF 3
ENDMDL
MODEL 8
REMARK VINA RESULT:       3.9      2.140      3.685
REMARK  3 active torsions:
REMARK  status: ('A' for Active; 'I' for Inactive)
REMARK    1  A    between atoms: C1_1  and  C10_10 
REMARK    2  A    between atoms: C7_7  and  C8_8 
REMARK    3  A    between atoms: C9_9  and  C10_10 
ROOT
HETATM    1  C2  UNL     1     -34.818   7.129   4.032  1.00 20.00     0.006 C 
HETATM    2  C3  UNL     1     -34.354   4.686   4.196  1.00 20.00     0.006 C 
HETATM    3  C4  UNL     1     -33.470   7.337   3.305  1.00 20.00     0.019 C 
HETATM    4  C5  UNL     1     -33.011   4.890   3.467  1.00 20.00     0.019 C 
HETATM    5  C7  UNL     1     -35.384   5.725   3.708  1.00 20.00    -0.010 C 
HETATM    6  C10 UNL     1     -33.116   6.073   2.477  1.00 20.00     0.040 C 
ENDROOT
BRANCH   6   7
HETATM    7  C1  UNL     1     -31.802   6.249   1.777  1.00 20.00     0.228 C 
HETATM    8  O11 UNL     1     -31.137   5.288   1.404  1.00 20.00    -0.279 OA
HETATM    9 CL12 UNL     1     -31.383   7.924   1.583  1.00 20.00    -0.043 Cl
ENDBRANCH   6   7
BRANCH   6  10
HETATM   10  C9  UNL     1     -34.255   5.866   1.485  1.00 20.00     0.007 A 
HETATM   11  C6  UNL     1     -34.215   6.236   0.022  1.00 20.00     0.011 A 
HETATM   12  C8  UNL     1     -33.891   4.827   0.453  1.00 20.00    -0.005 A 
ENDBRANCH   6  10
TORSDOF 3
ENDMDL
MODEL 9
REMARK VINA RESULT:       3.9      2.420      2.928
REMARK  3 active torsions:
REMARK  status: ('A' for Active; 'I' for Inactive)
REMARK    1  A    between atoms: C1_1  and  C10_10 
REMARK    2  A    between atoms: C7_7  and  C8_8 
REMARK    3  A    between atoms: C9_9  and  C10_10 
ROOT
HETATM    1  C2  UNL     1     -31.883   4.656   1.266  1.00 20.00     0.006 C 
HETATM    2  C3  UNL     1     -33.882   5.615   0.127  1.00 20.00     0.006 C 
HETATM    3  C4  UNL     1     -31.373   6.082   1.570  1.00 20.00     0.019 C 
HETATM    4  C5  UNL     1     -33.377   7.038   0.433  1.00 20.00     0.019 C 
HETATM    5  C7  UNL     1     -33.432   4.643   1.235  1.00 20.00    -0.010 C 
HETATM    6  C10 UNL     1     -32.574   7.046   1.755  1.00 20.00     0.040 C 
ENDROOT
BRANCH   6   7
HETATM    7  C1  UNL     1     -32.098   8.440   2.035  1.00 20.00     0.228 C 
HETATM    8  O11 UNL     1     -31.478   8.716   3.057  1.00 20.00    -0.279 OA
HETATM    9 CL12 UNL     1     -32.532   9.547   0.769  1.00 20.00    -0.043 Cl
ENDBRANCH   6   7
BRANCH   6  10
HETATM   10  C9  UNL     1     -33.404   6.496   2.910  1.00 20.00     0.007 A 
HETATM   11  C6  UNL     1     -33.749   7.249   4.172  1.00 20.00     0.011 A 
HETATM   12  C8  UNL     1     -34.724   7.219   3.021  1.00 20.00    -0.005 A 
ENDBRANCH   6  10
TORSDOF 3
ENDMDL
