MODEL 1
REMARK VINA RESULT:       0.3      0.000      0.000
REMARK  0 active torsions:
REMARK  status: ('A' for Active; 'I' for Inactive)
ROOT
HETATM    1  C1  UNL     1     -33.537   8.235   5.011  1.00 20.00     0.015 C 
HETATM    2  C2  UNL     1     -32.534  10.196   0.593  1.00 20.00     0.015 C 
HETATM    3  C3  UNL     1     -33.482   7.836   3.881  1.00 20.00    -0.082 C 
HETATM    4  C4  UNL     1     -32.373   9.132   1.121  1.00 20.00    -0.082 C 
HETATM    5  C5  UNL     1     -33.414   7.348   2.502  1.00 20.00     0.243 C 
HETATM    6  C6  UNL     1     -32.177   7.832   1.768  1.00 20.00     0.243 C 
HETATM    7  C7  UNL     1     -32.504   5.620   1.327  1.00 20.00     0.160 C 
HETATM    8  C8  UNL     1     -31.367   4.686   1.727  1.00 20.00     0.078 C 
HETATM    9  C9  UNL     1     -33.405   4.976   0.281  1.00 20.00     0.078 C 
HETATM   10  O10 UNL     1     -33.278   5.923   2.494  1.00 20.00    -0.335 OA
HETATM   11  O11 UNL     1     -31.953   6.823   0.777  1.00 20.00    -0.335 OA
ENDROOT
TORSDOF 0
ENDMDL
MODEL 2
REMARK VINA RESULT:       0.3      0.052      2.986
REMARK  0 active torsions:
REMARK  status: ('A' for Active; 'I' for Inactive)
ROOT
HETATM    1  C1  UNL     1     -32.506  10.213   0.638  1.00 20.00     0.015 C 
HETATM    2  C2  UNL     1     -33.639   8.208   5.005  1.00 20.00     0.015 C 
HETATM    3  C3  UNL     1     -32.360   9.142   1.161  1.00 20.00    -0.082 C 
HETATM    4  C4  UNL     1     -33.550   7.820   3.874  1.00 20.00    -0.082 C 
HETATM    5  C5  UNL     1     -32.183   7.836   1.800  1.00 20.00     0.243 C 
HETATM    6  C6  UNL     1     -33.442   7.346   2.492  1.00 20.00     0.243 C 
HETATM    7  C7  UNL     1     -32.497   5.629   1.327  1.00 20.00     0.160 C 
HETATM    8  C8  UNL     1     -33.370   4.998   0.248  1.00 20.00     0.078 C 
HETATM    9  C9  UNL     1     -31.375   4.690   1.750  1.00 20.00     0.078 C 
HETATM   10  O10 UNL     1     -31.930   6.837   0.807  1.00 20.00    -0.335 OA
HETATM   11  O11 UNL     1     -33.305   5.921   2.474  1.00 20.00    -0.335 OA
ENDROOT
TORSDOF 0
ENDMDL
MODEL 3
REMARK VINA RESULT:       1.2      1.273      3.721
REMARK  0 active torsions:
REMARK  status: ('A' for Active; 'I' for Inactive)
ROOT
HETATM    1  C1  UNL     1     -31.964   9.652   0.302  1.00 20.00     0.015 C 
HETATM    2  C2  UNL     1     -31.784   4.722   0.490  1.00 20.00     0.015 C 
HETATM    3  C3  UNL     1     -32.555   8.788   0.888  1.00 20.00    -0.082 C 
HETATM    4  C4  UNL     1     -32.040   5.606   1.259  1.00 20.00    -0.082 C 
HETATM    5  C5  UNL     1     -33.277   7.732   1.604  1.00 20.00     0.243 C 
HETATM    6  C6  UNL     1     -32.351   6.687   2.197  1.00 20.00     0.243 C 
HETATM    7  C7  UNL     1     -33.953   7.237   3.723  1.00 20.00     0.160 C 
HETATM    8  C8  UNL     1     -33.446   7.805   5.044  1.00 20.00     0.078 C 
HETATM    9  C9  UNL     1     -35.369   6.693   3.862  1.00 20.00     0.078 C 
HETATM   10  O10 UNL     1     -33.944   8.283   2.744  1.00 20.00    -0.335 OA
HETATM   11  O11 UNL     1     -33.091   6.170   3.309  1.00 20.00    -0.335 OA
ENDROOT
TORSDOF 0
ENDMDL
MODEL 4
REMARK VINA RESULT:       1.2      1.270      3.440
REMARK  0 active torsions:
REMARK  status: ('A' for Active; 'I' for Inactive)
ROOT
HETATM    1  C1  UNL     1     -31.785   4.730   0.501  1.00 20.00     0.015 C 
HETATM    2  C2  UNL     1     -31.998   9.659   0.291  1.00 20.00     0.015 C 
HETATM    3  C3  UNL     1     -32.041   5.618   1.268  1.00 20.00    -0.082 C 
HETATM    4  C4  UNL     1     -32.579   8.794   0.886  1.00 20.00    -0.082 C 
HETATM    5  C5  UNL     1     -32.353   6.700   2.203  1.00 20.00     0.243 C 
HETATM    6  C6  UNL     1     -33.289   7.737   1.610  1.00 20.00     0.243 C 
HETATM    7  C7  UNL     1     -33.947   7.248   3.737  1.00 20.00     0.160 C 
HETATM    8  C8  UNL     1     -35.360   6.694   3.885  1.00 20.00     0.078 C 
HETATM    9  C9  UNL     1     -33.439   7.824   5.052  1.00 20.00     0.078 C 
HETATM   10  O10 UNL     1     -33.082   6.184   3.322  1.00 20.00    -0.335 OA
HETATM   11  O11 UNL     1     -33.952   8.290   2.753  1.00 20.00    -0.335 OA
ENDROOT
TORSDOF 0
ENDMDL
MODEL 5
REMARK VINA RESULT:       2.3      2.282      4.918
REMARK  0 active torsions:
REMARK  status: ('A' for Active; 'I' for Inactive)
ROOT
HETATM    1  C1  UNL     1     -31.286   4.839   0.832  1.00 20.00     0.015 C 
HETATM    2  C2  UNL     1     -33.400   2.239   4.459  1.00 20.00     0.015 C 
HETATM    3  C3  UNL     1     -32.269   4.946   1.513  1.00 20.00    -0.082 C 
HETATM    4  C4  UNL     1     -33.308   3.399   4.169  1.00 20.00    -0.082 C 
HETATM    5  C5  UNL     1     -33.468   5.077   2.344  1.00 20.00     0.243 C 
HETATM    6  C6  UNL     1     -33.195   4.816   3.814  1.00 20.00     0.243 C 
HETATM    7  C7  UNL     1     -34.529   6.653   3.604  1.00 20.00     0.160 C 
HETATM    8  C8  UNL     1     -33.971   7.949   4.180  1.00 20.00     0.078 C 
HETATM    9  C9  UNL     1     -36.043   6.722   3.449  1.00 20.00     0.078 C 
HETATM   10  O10 UNL     1     -33.933   6.430   2.320  1.00 20.00    -0.335 OA
HETATM   11  O11 UNL     1     -34.210   5.570   4.487  1.00 20.00    -0.335 OA
ENDROOT
TORSDOF 0
ENDMDL
MODEL 6
REMARK VINA RESULT:       2.3      2.285      4.223
REMARK  0 active torsions:
REMARK  status: ('A' for Active; 'I' for Inactive)
ROOT
HETATM    1  C1  UNL     1     -33.406   2.255   4.439  1.00 20.00     0.015 C 
HETATM    2  C2  UNL     1     -31.288   4.886   0.838  1.00 20.00     0.015 C 
HETATM    3  C3  UNL     1     -33.314   3.418   4.158  1.00 20.00    -0.082 C 
HETATM    4  C4  UNL     1     -32.271   4.987   1.518  1.00 20.00    -0.082 C 
HETATM    5  C5  UNL     1     -33.203   4.838   3.815  1.00 20.00     0.243 C 
HETATM    6  C6  UNL     1     -33.472   5.110   2.347  1.00 20.00     0.243 C 
HETATM    7  C7  UNL     1     -34.538   6.674   3.617  1.00 20.00     0.160 C 
HETATM    8  C8  UNL     1     -36.053   6.741   3.458  1.00 20.00     0.078 C 
HETATM    9  C9  UNL     1     -33.986   7.967   4.205  1.00 20.00     0.078 C 
HETATM   10  O10 UNL     1     -34.219   5.585   4.492  1.00 20.00    -0.335 OA
HETATM   11  O11 UNL     1     -33.939   6.463   2.332  1.00 20.00    -0.335 OA
ENDROOT
TORSDOF 0
ENDMDL
MODEL 7
REMARK VINA RESULT:       2.7      1.545      3.564
REMARK  0 active torsions:
REMARK  status: ('A' for Active; 'I' for Inactive)
ROOT
HETATM    1  C1  UNL     1     -35.505   6.001   3.966  1.00 20.00     0.015 C 
HETATM    2  C2  UNL     1     -32.287   4.154   0.709  1.00 20.00     0.015 C 
HETATM    3  C3  UNL     1     -34.442   6.333   3.519  1.00 20.00    -0.082 C 
HETATM    4  C4  UNL     1     -32.639   5.249   1.049  1.00 20.00    -0.082 C 
HETATM    5  C5  UNL     1     -33.144   6.737   2.973  1.00 20.00     0.243 C 
HETATM    6  C6  UNL     1     -33.069   6.586   1.464  1.00 20.00     0.243 C 
HETATM    7  C7  UNL     1     -32.150   8.581   2.075  1.00 20.00     0.160 C 
HETATM    8  C8  UNL     1     -32.803   9.824   1.480  1.00 20.00     0.078 C 
HETATM    9  C9  UNL     1     -30.734   8.876   2.553  1.00 20.00     0.078 C 
HETATM   10  O10 UNL     1     -32.940   8.138   3.185  1.00 20.00    -0.335 OA
HETATM   11  O11 UNL     1     -32.091   7.557   1.074  1.00 20.00    -0.335 OA
ENDROOT
TORSDOF 0
ENDMDL
MODEL 8
REMARK VINA RESULT:       2.7      1.523      4.052
REMARK  0 active torsions:
REMARK  status: ('A' for Active; 'I' for Inactive)
ROOT
HETATM    1  C1  UNL     1     -32.431   4.149   0.622  1.00 20.00     0.015 C 
HETATM    2  C2  UNL     1     -35.507   6.034   3.993  1.00 20.00     0.015 C 
HETATM    3  C3  UNL     1     -32.745   5.249   0.986  1.00 20.00    -0.082 C 
HETATM    4  C4  UNL     1     -34.448   6.344   3.520  1.00 20.00    -0.082 C 
HETATM    5  C5  UNL     1     -33.127   6.591   1.432  1.00 20.00     0.243 C 
HETATM    6  C6  UNL     1     -33.156   6.721   2.943  1.00 20.00     0.243 C 
HETATM    7  C7  UNL     1     -32.138   8.552   2.042  1.00 20.00     0.160 C 
HETATM    8  C8  UNL     1     -30.701   8.799   2.485  1.00 20.00     0.078 C 
HETATM    9  C9  UNL     1     -32.771   9.820   1.484  1.00 20.00     0.078 C 
HETATM   10  O10 UNL     1     -32.135   7.540   1.027  1.00 20.00    -0.335 OA
HETATM   11  O11 UNL     1     -32.909   8.114   3.168  1.00 20.00    -0.335 OA
ENDROOT
TORSDOF 0
ENDMDL
MODEL 9
REMARK VINA RESULT:       3.0      1.289      3.781
REMARK  0 active torsions:
REMARK  status: ('A' for Active; 'I' for Inactive)
ROOT
HETATM    1  C1  UNL     1     -32.316   4.522   1.282  1.00 20.00     0.015 C 
HETATM    2  C2  UNL     1     -33.962   7.797   4.589  1.00 20.00     0.015 C 
HETATM    3  C3  UNL     1     -32.609   5.686   1.273  1.00 20.00    -0.082 C 
HETATM    4  C4  UNL     1     -33.253   7.829   3.622  1.00 20.00    -0.082 C 
HETATM    5  C5  UNL     1     -32.966   7.106   1.263  1.00 20.00     0.243 C 
HETATM    6  C6  UNL     1     -32.386   7.866   2.442  1.00 20.00     0.243 C 
HETATM    7  C7  UNL     1     -32.115   9.093   0.540  1.00 20.00     0.160 C 
HETATM    8  C8  UNL     1     -30.676   9.438   0.171  1.00 20.00     0.078 C 
HETATM    9  C9  UNL     1     -33.101  10.034  -0.140  1.00 20.00     0.078 C 
HETATM   10  O10 UNL     1     -32.382   7.748   0.125  1.00 20.00    -0.335 OA
HETATM   11  O11 UNL     1     -32.276   9.210   1.959  1.00 20.00    -0.335 OA
ENDROOT
TORSDOF 0
ENDMDL
