MODEL 1
REMARK VINA RESULT:      -0.4      0.000      0.000
REMARK  0 active torsions:
REMARK  status: ('A' for Active; 'I' for Inactive)
ROOT
HETATM    1  C1  UNL     1     -32.946   7.087   2.458  1.00 20.00     0.080 A 
HETATM    2  C2  UNL     1     -35.282   7.041   3.582  1.00 20.00     0.019 A 
HETATM    3  C3  UNL     1     -33.785   4.950   3.049  1.00 20.00     0.128 A 
HETATM    4  C4  UNL     1     -33.802   7.303   3.647  1.00 20.00     0.053 A 
HETATM    5  C5  UNL     1     -34.347   5.947   4.019  1.00 20.00     0.015 A 
HETATM    6  C6  UNL     1     -32.244   5.077   1.062  1.00 20.00     0.150 C 
HETATM    7  N7  UNL     1     -32.947   5.737   2.149  1.00 20.00    -0.379 N 
HETATM    8  S8  UNL     1     -32.208   8.388   1.755  1.00 20.00    -0.065 SA
ENDROOT
TORSDOF 0
ENDMDL
MODEL 2
REMARK VINA RESULT:      -0.3      1.952      2.490
REMARK  0 active torsions:
REMARK  status: ('A' for Active; 'I' for Inactive)
ROOT
HETATM    1  C1  UNL     1     -33.815   5.758   3.365  1.00 20.00     0.080 A 
HETATM    2  C2  UNL     1     -33.525   7.929   4.754  1.00 20.00     0.019 A 
HETATM    3  C3  UNL     1     -32.996   7.651   2.197  1.00 20.00     0.128 A 
HETATM    4  C4  UNL     1     -34.403   6.938   4.041  1.00 20.00     0.053 A 
HETATM    5  C5  UNL     1     -33.875   8.144   3.307  1.00 20.00     0.015 A 
HETATM    6  C6  UNL     1     -32.264   5.384   1.381  1.00 20.00     0.150 C 
HETATM    7  N7  UNL     1     -33.029   6.196   2.312  1.00 20.00    -0.379 N 
HETATM    8  S8  UNL     1     -34.159   4.248   3.943  1.00 20.00    -0.065 SA
ENDROOT
TORSDOF 0
ENDMDL
MODEL 3
REMARK VINA RESULT:      -0.3      1.815      3.126
REMARK  0 active torsions:
REMARK  status: ('A' for Active; 'I' for Inactive)
ROOT
HETATM    1  C1  UNL     1     -32.894   6.326   1.893  1.00 20.00     0.080 A 
HETATM    2  C2  UNL     1     -32.271   8.748   1.209  1.00 20.00     0.019 A 
HETATM    3  C3  UNL     1     -33.156   7.989   3.562  1.00 20.00     0.128 A 
HETATM    4  C4  UNL     1     -31.868   7.354   1.605  1.00 20.00     0.053 A 
HETATM    5  C5  UNL     1     -32.039   8.419   2.658  1.00 20.00     0.015 A 
HETATM    6  C6  UNL     1     -34.700   6.002   3.659  1.00 20.00     0.150 C 
HETATM    7  N7  UNL     1     -33.603   6.709   3.020  1.00 20.00    -0.379 N 
HETATM    8  S8  UNL     1     -33.016   5.013   0.897  1.00 20.00    -0.065 SA
ENDROOT
TORSDOF 0
ENDMDL
MODEL 4
REMARK VINA RESULT:      -0.2      1.554      2.378
REMARK  0 active torsions:
REMARK  status: ('A' for Active; 'I' for Inactive)
ROOT
HETATM    1  C1  UNL     1     -33.175   6.197   2.285  1.00 20.00     0.080 A 
HETATM    2  C2  UNL     1     -34.384   5.110   4.305  1.00 20.00     0.019 A 
HETATM    3  C3  UNL     1     -34.007   7.682   3.935  1.00 20.00     0.128 A 
HETATM    4  C4  UNL     1     -34.367   5.535   2.862  1.00 20.00     0.053 A 
HETATM    5  C5  UNL     1     -34.892   6.471   3.920  1.00 20.00     0.015 A 
HETATM    6  C6  UNL     1     -31.962   8.405   2.657  1.00 20.00     0.150 C 
HETATM    7  N7  UNL     1     -33.003   7.423   2.908  1.00 20.00    -0.379 N 
HETATM    8  S8  UNL     1     -32.319   5.420   1.104  1.00 20.00    -0.065 SA
ENDROOT
TORSDOF 0
ENDMDL
MODEL 5
REMARK VINA RESULT:       0.1      1.602      2.762
REMARK  0 active torsions:
REMARK  status: ('A' for Active; 'I' for Inactive)
ROOT
HETATM    1  C1  UNL     1     -33.556   6.972   3.219  1.00 20.00     0.080 A 
HETATM    2  C2  UNL     1     -31.459   7.670   1.863  1.00 20.00     0.019 A 
HETATM    3  C3  UNL     1     -32.763   5.403   1.628  1.00 20.00     0.128 A 
HETATM    4  C4  UNL     1     -32.935   7.770   2.138  1.00 20.00     0.053 A 
HETATM    5  C5  UNL     1     -32.419   6.776   1.130  1.00 20.00     0.015 A 
HETATM    6  C6  UNL     1     -33.926   4.492   3.667  1.00 20.00     0.150 C 
HETATM    7  N7  UNL     1     -33.453   5.629   2.894  1.00 20.00    -0.379 N 
HETATM    8  S8  UNL     1     -34.201   7.754   4.525  1.00 20.00    -0.065 SA
ENDROOT
TORSDOF 0
ENDMDL
MODEL 6
REMARK VINA RESULT:       0.1      2.087      3.500
REMARK  0 active torsions:
REMARK  status: ('A' for Active; 'I' for Inactive)
ROOT
HETATM    1  C1  UNL     1     -33.475   5.604   3.169  1.00 20.00     0.080 A 
HETATM    2  C2  UNL     1     -33.012   5.658   0.618  1.00 20.00     0.019 A 
HETATM    3  C3  UNL     1     -32.754   7.678   2.275  1.00 20.00     0.128 A 
HETATM    4  C4  UNL     1     -32.610   5.270   2.014  1.00 20.00     0.053 A 
HETATM    5  C5  UNL     1     -32.159   6.586   1.437  1.00 20.00     0.015 A 
HETATM    6  C6  UNL     1     -34.258   7.750   4.293  1.00 20.00     0.150 C 
HETATM    7  N7  UNL     1     -33.528   6.982   3.299  1.00 20.00    -0.379 N 
HETATM    8  S8  UNL     1     -34.180   4.378   4.024  1.00 20.00    -0.065 SA
ENDROOT
TORSDOF 0
ENDMDL
MODEL 7
REMARK VINA RESULT:       0.4      1.187      2.758
REMARK  0 active torsions:
REMARK  status: ('A' for Active; 'I' for Inactive)
ROOT
HETATM    1  C1  UNL     1     -32.701   7.529   1.982  1.00 20.00     0.080 A 
HETATM    2  C2  UNL     1     -31.830   5.123   1.566  1.00 20.00     0.019 A 
HETATM    3  C3  UNL     1     -33.807   5.794   3.159  1.00 20.00     0.128 A 
HETATM    4  C4  UNL     1     -32.607   6.330   1.118  1.00 20.00     0.053 A 
HETATM    5  C5  UNL     1     -33.300   5.221   1.868  1.00 20.00     0.015 A 
HETATM    6  C6  UNL     1     -33.726   8.061   4.251  1.00 20.00     0.150 C 
HETATM    7  N7  UNL     1     -33.400   7.195   3.130  1.00 20.00    -0.379 N 
HETATM    8  S8  UNL     1     -32.004   8.939   1.475  1.00 20.00    -0.065 SA
ENDROOT
TORSDOF 0
ENDMDL
MODEL 8
REMARK VINA RESULT:       0.8      1.741      2.108
REMARK  0 active torsions:
REMARK  status: ('A' for Active; 'I' for Inactive)
ROOT
HETATM    1  C1  UNL     1     -33.546   5.566   3.014  1.00 20.00     0.080 A 
HETATM    2  C2  UNL     1     -35.847   6.759   3.100  1.00 20.00     0.019 A 
HETATM    3  C3  UNL     1     -35.014   4.893   4.750  1.00 20.00     0.128 A 
HETATM    4  C4  UNL     1     -34.362   6.758   3.340  1.00 20.00     0.053 A 
HETATM    5  C5  UNL     1     -35.304   6.331   4.436  1.00 20.00     0.015 A 
HETATM    6  C6  UNL     1     -33.400   3.172   3.869  1.00 20.00     0.150 C 
HETATM    7  N7  UNL     1     -33.932   4.525   3.841  1.00 20.00    -0.379 N 
HETATM    8  S8  UNL     1     -32.417   5.671   1.811  1.00 20.00    -0.065 SA
ENDROOT
TORSDOF 0
ENDMDL
MODEL 9
REMARK VINA RESULT:       0.9      1.904      3.242
REMARK  0 active torsions:
REMARK  status: ('A' for Active; 'I' for Inactive)
ROOT
HETATM    1  C1  UNL     1     -33.539   6.556   2.887  1.00 20.00     0.080 A 
HETATM    2  C2  UNL     1     -33.416   5.379   0.580  1.00 20.00     0.019 A 
HETATM    3  C3  UNL     1     -31.662   7.081   1.538  1.00 20.00     0.128 A 
HETATM    4  C4  UNL     1     -33.270   5.346   2.077  1.00 20.00     0.053 A 
HETATM    5  C5  UNL     1     -32.085   5.680   1.209  1.00 20.00     0.015 A 
HETATM    6  C6  UNL     1     -32.483   8.862   3.117  1.00 20.00     0.150 C 
HETATM    7  N7  UNL     1     -32.599   7.521   2.567  1.00 20.00    -0.379 N 
HETATM    8  S8  UNL     1     -34.814   6.550   3.939  1.00 20.00    -0.065 SA
ENDROOT
TORSDOF 0
ENDMDL
