MODEL 1
REMARK VINA RESULT:      -1.1      0.000      0.000
REMARK  2 active torsions:
REMARK  status: ('A' for Active; 'I' for Inactive)
REMARK    1  A    between atoms: C1_1  and  C4_4 
REMARK    2  A    between atoms: C3_3  and  C5_5 
ROOT
HETATM    1  C4  UNL     1     -32.960   7.271   1.792  1.00 20.00     0.029 A 
HETATM    2  C5  UNL     1     -33.012   6.188   2.845  1.00 20.00     0.089 A 
HETATM    3  C6  UNL     1     -32.793   5.818   1.389  1.00 20.00    -0.028 A 
HETATM    4  C8  UNL     1     -31.433   5.277   1.016  1.00 20.00     0.016 C 
HETATM    5  C9  UNL     1     -33.918   5.195   0.598  1.00 20.00     0.016 C 
ENDROOT
BRANCH   1   6
HETATM    6  C1  UNL     1     -31.827   8.187   1.780  1.00 20.00    -0.025 C 
HETATM    7  C2  UNL     1     -31.701   9.207   0.918  1.00 20.00    -0.034 C 
HETATM    8  C7  UNL     1     -32.705   9.530  -0.138  1.00 20.00     0.036 C 
ENDBRANCH   1   6
BRANCH   2   9
HETATM    9  C3  UNL     1     -34.287   5.898   3.513  1.00 20.00     0.224 C 
HETATM   10  O10 UNL     1     -35.185   6.733   3.581  1.00 20.00    -0.279 OA
HETATM   11 CL11 UNL     1     -34.337   4.285   4.159  1.00 20.00    -0.043 Cl
ENDBRANCH   2   9
TORSDOF 2
ENDMDL
MODEL 2
REMARK VINA RESULT:      -0.9      2.552      4.297
REMARK  2 active torsions:
REMARK  status: ('A' for Active; 'I' for Inactive)
REMARK    1  A    between atoms: C1_1  and  C4_4 
REMARK    2  A    between atoms: C3_3  and  C5_5 
ROOT
HETATM    1  C4  UNL     1     -33.215   6.343   2.916  1.00 20.00     0.029 A 
HETATM    2  C5  UNL     1     -33.146   7.352   1.794  1.00 20.00     0.089 A 
HETATM    3  C6  UNL     1     -32.882   5.885   1.509  1.00 20.00    -0.028 A 
HETATM    4  C8  UNL     1     -33.909   5.152   0.678  1.00 20.00     0.016 C 
HETATM    5  C9  UNL     1     -31.469   5.412   1.260  1.00 20.00     0.016 C 
ENDROOT
BRANCH   1   6
HETATM    6  C1  UNL     1     -34.509   6.044   3.516  1.00 20.00    -0.025 C 
HETATM    7  C2  UNL     1     -34.785   4.904   4.165  1.00 20.00    -0.034 C 
HETATM    8  C7  UNL     1     -33.803   3.797   4.354  1.00 20.00     0.036 C 
ENDBRANCH   1   6
BRANCH   2   9
HETATM    9  C3  UNL     1     -32.051   8.332   1.778  1.00 20.00     0.224 C 
HETATM   10  O10 UNL     1     -31.240   8.409   2.695  1.00 20.00    -0.279 OA
HETATM   11 CL11 UNL     1     -32.074   9.314   0.344  1.00 20.00    -0.043 Cl
ENDBRANCH   2   9
TORSDOF 2
ENDMDL
MODEL 3
REMARK VINA RESULT:      -0.7      1.163      1.163
REMARK  2 active torsions:
REMARK  status: ('A' for Active; 'I' for Inactive)
REMARK    1  A    between atoms: C1_1  and  C4_4 
REMARK    2  A    between atoms: C3_3  and  C5_5 
ROOT
HETATM    1  C4  UNL     1     -32.987   7.044   1.968  1.00 20.00     0.029 A 
HETATM    2  C5  UNL     1     -32.955   5.824   2.859  1.00 20.00     0.089 A 
HETATM    3  C6  UNL     1     -32.802   5.668   1.356  1.00 20.00    -0.028 A 
HETATM    4  C8  UNL     1     -31.448   5.232   0.847  1.00 20.00     0.016 C 
HETATM    5  C9  UNL     1     -33.948   5.123   0.539  1.00 20.00     0.016 C 
ENDROOT
BRANCH   1   6
HETATM    6  C1  UNL     1     -31.883   7.992   2.032  1.00 20.00    -0.025 C 
HETATM    7  C2  UNL     1     -31.716   9.004   1.168  1.00 20.00    -0.034 C 
HETATM    8  C7  UNL     1     -32.642   9.287   0.033  1.00 20.00     0.036 C 
ENDBRANCH   1   6
BRANCH   2   9
HETATM    9  C3  UNL     1     -34.187   5.400   3.539  1.00 20.00     0.224 C 
HETATM   10  O10 UNL     1     -34.343   4.249   3.932  1.00 20.00    -0.279 OA
HETATM   11 CL11 UNL     1     -35.329   6.701   3.696  1.00 20.00    -0.043 Cl
ENDBRANCH   2   9
TORSDOF 2
ENDMDL
MODEL 4
REMARK VINA RESULT:      -0.3      2.348      4.173
REMARK  2 active torsions:
REMARK  status: ('A' for Active; 'I' for Inactive)
REMARK    1  A    between atoms: C1_1  and  C4_4 
REMARK    2  A    between atoms: C3_3  and  C5_5 
ROOT
HETATM    1  C4  UNL     1     -33.223   6.380   2.906  1.00 20.00     0.029 A 
HETATM    2  C5  UNL     1     -33.146   7.351   1.751  1.00 20.00     0.089 A 
HETATM    3  C6  UNL     1     -32.866   5.877   1.519  1.00 20.00    -0.028 A 
HETATM    4  C8  UNL     1     -33.875   5.108   0.700  1.00 20.00     0.016 C 
HETATM    5  C9  UNL     1     -31.446   5.409   1.307  1.00 20.00     0.016 C 
ENDROOT
BRANCH   1   6
HETATM    6  C1  UNL     1     -34.522   6.090   3.497  1.00 20.00    -0.025 C 
HETATM    7  C2  UNL     1     -34.807   4.957   4.155  1.00 20.00    -0.034 C 
HETATM    8  C7  UNL     1     -33.830   3.849   4.363  1.00 20.00     0.036 C 
ENDBRANCH   1   6
BRANCH   2   9
HETATM    9  C3  UNL     1     -32.059   8.340   1.716  1.00 20.00     0.224 C 
HETATM   10  O10 UNL     1     -31.716   8.885   0.672  1.00 20.00    -0.279 OA
HETATM   11 CL11 UNL     1     -31.369   8.609   3.288  1.00 20.00    -0.043 Cl
ENDBRANCH   2   9
TORSDOF 2
ENDMDL
MODEL 5
REMARK VINA RESULT:       0.0      2.220      3.837
REMARK  2 active torsions:
REMARK  status: ('A' for Active; 'I' for Inactive)
REMARK    1  A    between atoms: C1_1  and  C4_4 
REMARK    2  A    between atoms: C3_3  and  C5_5 
ROOT
HETATM    1  C4  UNL     1     -33.425   7.486   2.444  1.00 20.00     0.029 A 
HETATM    2  C5  UNL     1     -32.304   6.510   2.174  1.00 20.00     0.089 A 
HETATM    3  C6  UNL     1     -32.090   7.993   1.932  1.00 20.00    -0.028 A 
HETATM    4  C8  UNL     1     -31.135   8.708   2.859  1.00 20.00     0.016 C 
HETATM    5  C9  UNL     1     -32.057   8.524   0.519  1.00 20.00     0.016 C 
ENDROOT
BRANCH   1   6
HETATM    6  C1  UNL     1     -33.838   7.721   3.821  1.00 20.00    -0.025 C 
HETATM    7  C2  UNL     1     -34.702   6.939   4.485  1.00 20.00    -0.034 C 
HETATM    8  C7  UNL     1     -35.349   5.730   3.896  1.00 20.00     0.036 C 
ENDBRANCH   1   6
BRANCH   2   9
HETATM    9  C3  UNL     1     -32.425   5.572   1.049  1.00 20.00     0.224 C 
HETATM   10  O10 UNL     1     -31.499   4.839   0.718  1.00 20.00    -0.279 OA
HETATM   11 CL11 UNL     1     -33.991   5.650   0.298  1.00 20.00    -0.043 Cl
ENDBRANCH   2   9
TORSDOF 2
ENDMDL
MODEL 6
REMARK VINA RESULT:       0.6      2.571      4.613
REMARK  2 active torsions:
REMARK  status: ('A' for Active; 'I' for Inactive)
REMARK    1  A    between atoms: C1_1  and  C4_4 
REMARK    2  A    between atoms: C3_3  and  C5_5 
ROOT
HETATM    1  C4  UNL     1     -34.720   6.460   3.379  1.00 20.00     0.029 A 
HETATM    2  C5  UNL     1     -33.226   6.425   3.157  1.00 20.00     0.089 A 
HETATM    3  C6  UNL     1     -33.879   7.677   3.714  1.00 20.00    -0.028 A 
HETATM    4  C8  UNL     1     -33.575   8.027   5.151  1.00 20.00     0.016 C 
HETATM    5  C9  UNL     1     -34.049   8.890   2.831  1.00 20.00     0.016 C 
ENDROOT
BRANCH   1   6
HETATM    6  C1  UNL     1     -35.295   5.633   4.431  1.00 20.00    -0.025 C 
HETATM    7  C2  UNL     1     -34.849   4.408   4.746  1.00 20.00    -0.034 C 
HETATM    8  C7  UNL     1     -33.707   3.738   4.057  1.00 20.00     0.036 C 
ENDBRANCH   1   6
BRANCH   2   9
HETATM    9  C3  UNL     1     -32.706   6.394   1.783  1.00 20.00     0.224 C 
HETATM   10  O10 UNL     1     -33.119   5.588   0.955  1.00 20.00    -0.279 OA
HETATM   11 CL11 UNL     1     -31.485   7.602   1.517  1.00 20.00    -0.043 Cl
ENDBRANCH   2   9
TORSDOF 2
ENDMDL
MODEL 7
REMARK VINA RESULT:       0.8      1.533      2.883
REMARK  2 active torsions:
REMARK  status: ('A' for Active; 'I' for Inactive)
REMARK    1  A    between atoms: C1_1  and  C4_4 
REMARK    2  A    between atoms: C3_3  and  C5_5 
ROOT
HETATM    1  C4  UNL     1     -33.205   6.356   2.993  1.00 20.00     0.029 A 
HETATM    2  C5  UNL     1     -34.621   5.965   3.347  1.00 20.00     0.089 A 
HETATM    3  C6  UNL     1     -34.077   7.314   3.782  1.00 20.00    -0.028 A 
HETATM    4  C8  UNL     1     -34.666   8.537   3.119  1.00 20.00     0.016 C 
HETATM    5  C9  UNL     1     -33.708   7.542   5.228  1.00 20.00     0.016 C 
ENDROOT
BRANCH   1   6
HETATM    6  C1  UNL     1     -32.874   6.617   1.599  1.00 20.00    -0.025 C 
HETATM    7  C2  UNL     1     -31.983   7.538   1.203  1.00 20.00    -0.034 C 
HETATM    8  C7  UNL     1     -31.220   8.411   2.141  1.00 20.00     0.036 C 
ENDBRANCH   1   6
BRANCH   2   9
HETATM    9  C3  UNL     1     -34.846   4.892   4.325  1.00 20.00     0.224 C 
HETATM   10  O10 UNL     1     -35.826   4.888   5.064  1.00 20.00    -0.279 OA
HETATM   11 CL11 UNL     1     -33.588   3.694   4.284  1.00 20.00    -0.043 Cl
ENDBRANCH   2   9
TORSDOF 2
ENDMDL
MODEL 8
REMARK VINA RESULT:       0.8      1.598      2.040
REMARK  2 active torsions:
REMARK  status: ('A' for Active; 'I' for Inactive)
REMARK    1  A    between atoms: C1_1  and  C4_4 
REMARK    2  A    between atoms: C3_3  and  C5_5 
ROOT
HETATM    1  C4  UNL     1     -33.135   6.885   2.108  1.00 20.00     0.029 A 
HETATM    2  C5  UNL     1     -32.992   5.631   2.938  1.00 20.00     0.089 A 
HETATM    3  C6  UNL     1     -32.838   5.561   1.430  1.00 20.00    -0.028 A 
HETATM    4  C8  UNL     1     -31.456   5.267   0.895  1.00 20.00     0.016 C 
HETATM    5  C9  UNL     1     -33.940   4.960   0.591  1.00 20.00     0.016 C 
ENDROOT
BRANCH   1   6
HETATM    6  C1  UNL     1     -32.115   7.920   2.213  1.00 20.00    -0.025 C 
HETATM    7  C2  UNL     1     -31.890   8.636   3.324  1.00 20.00    -0.034 C 
HETATM    8  C7  UNL     1     -32.657   8.464   4.592  1.00 20.00     0.036 C 
ENDBRANCH   1   6
BRANCH   2   9
HETATM    9  C3  UNL     1     -34.177   5.071   3.602  1.00 20.00     0.224 C 
HETATM   10  O10 UNL     1     -34.226   3.896   3.952  1.00 20.00    -0.279 OA
HETATM   11 CL11 UNL     1     -35.433   6.254   3.807  1.00 20.00    -0.043 Cl
ENDBRANCH   2   9
TORSDOF 2
ENDMDL
MODEL 9
REMARK VINA RESULT:       1.2      1.361      3.270
REMARK  2 active torsions:
REMARK  status: ('A' for Active; 'I' for Inactive)
REMARK    1  A    between atoms: C1_1  and  C4_4 
REMARK    2  A    between atoms: C3_3  and  C5_5 
ROOT
HETATM    1  C4  UNL     1     -32.709   6.430   2.123  1.00 20.00     0.029 A 
HETATM    2  C5  UNL     1     -33.792   7.375   2.590  1.00 20.00     0.089 A 
HETATM    3  C6  UNL     1     -32.429   7.920   2.200  1.00 20.00    -0.028 A 
HETATM    4  C8  UNL     1     -32.357   8.752   0.942  1.00 20.00     0.016 C 
HETATM    5  C9  UNL     1     -31.472   8.381   3.273  1.00 20.00     0.016 C 
ENDROOT
BRANCH   1   6
HETATM    6  C1  UNL     1     -32.864   5.762   0.838  1.00 20.00    -0.025 C 
HETATM    7  C2  UNL     1     -32.078   4.759   0.419  1.00 20.00    -0.034 C 
HETATM    8  C7  UNL     1     -30.946   4.203   1.216  1.00 20.00     0.036 C 
ENDBRANCH   1   6
BRANCH   2   9
HETATM    9  C3  UNL     1     -34.216   7.342   3.996  1.00 20.00     0.224 C 
HETATM   10  O10 UNL     1     -33.799   8.154   4.816  1.00 20.00    -0.279 OA
HETATM   11 CL11 UNL     1     -35.338   6.052   4.310  1.00 20.00    -0.043 Cl
ENDBRANCH   2   9
TORSDOF 2
ENDMDL
