MODEL 1
REMARK VINA RESULT:      -0.8      0.000      0.000
REMARK  2 active torsions:
REMARK  status: ('A' for Active; 'I' for Inactive)
REMARK    1  A    between atoms: C1_1  and  N9_9 
REMARK    2  A    between atoms: C4_4  and  C8_8 
ROOT
HETATM    1  C2  UNL     1     -33.444   8.522   2.684  1.00 20.00     0.031 C 
HETATM    2  C3  UNL     1     -32.844   6.268   2.144  1.00 20.00     0.130 C 
HETATM    3  C4  UNL     1     -32.287   7.689   2.116  1.00 20.00     0.005 C 
HETATM    4  C5  UNL     1     -34.052   7.610   3.755  1.00 20.00     0.083 C 
HETATM    5  C6  UNL     1     -33.427   7.835   5.129  1.00 20.00     0.032 C 
HETATM    6  N9  UNL     1     -33.776   6.264   3.259  1.00 20.00    -0.355 N 
ENDROOT
BRANCH   3   7
HETATM    7  C8  UNL     1     -31.853   8.136   0.732  1.00 20.00     0.002 C 
HETATM    8  C7  UNL     1     -32.301   9.531   0.426  1.00 20.00     0.005 C 
ENDBRANCH   3   7
BRANCH   6   9
HETATM    9  C1  UNL     1     -34.393   5.126   3.723  1.00 20.00     0.351 C 
HETATM   10  O10 UNL     1     -33.858   4.060   4.009  1.00 20.00    -0.284 OA
ENDBRANCH   6   9
TORSDOF 2
ENDMDL
MODEL 2
REMARK VINA RESULT:      -0.8      2.516      4.461
REMARK  2 active torsions:
REMARK  status: ('A' for Active; 'I' for Inactive)
REMARK    1  A    between atoms: C1_1  and  N9_9 
REMARK    2  A    between atoms: C4_4  and  C8_8 
ROOT
HETATM    1  C2  UNL     1     -33.821   5.656   2.080  1.00 20.00     0.031 C 
HETATM    2  C3  UNL     1     -33.252   7.801   2.979  1.00 20.00     0.130 C 
HETATM    3  C4  UNL     1     -33.722   6.414   3.410  1.00 20.00     0.005 C 
HETATM    4  C5  UNL     1     -32.644   6.203   1.266  1.00 20.00     0.083 C 
HETATM    5  C6  UNL     1     -31.374   5.379   1.457  1.00 20.00     0.032 C 
HETATM    6  N9  UNL     1     -32.477   7.563   1.772  1.00 20.00    -0.355 N 
ENDROOT
BRANCH   3   7
HETATM    7  C8  UNL     1     -35.029   6.437   4.183  1.00 20.00     0.002 C 
HETATM    8  C7  UNL     1     -35.448   5.068   4.619  1.00 20.00     0.005 C 
ENDBRANCH   3   7
BRANCH   6   9
HETATM    9  C1  UNL     1     -31.749   8.542   1.138  1.00 20.00     0.351 C 
HETATM   10  O10 UNL     1     -32.181   9.432   0.413  1.00 20.00    -0.284 OA
ENDBRANCH   6   9
TORSDOF 2
ENDMDL
MODEL 3
REMARK VINA RESULT:      -0.5      1.788      3.700
REMARK  2 active torsions:
REMARK  status: ('A' for Active; 'I' for Inactive)
REMARK    1  A    between atoms: C1_1  and  N9_9 
REMARK    2  A    between atoms: C4_4  and  C8_8 
ROOT
HETATM    1  C2  UNL     1     -32.888   7.957   3.310  1.00 20.00     0.031 C 
HETATM    2  C3  UNL     1     -33.538   5.846   2.387  1.00 20.00     0.130 C 
HETATM    3  C4  UNL     1     -34.128   7.101   3.024  1.00 20.00     0.005 C 
HETATM    4  C5  UNL     1     -31.969   7.669   2.117  1.00 20.00     0.083 C 
HETATM    5  C6  UNL     1     -32.186   8.651   0.969  1.00 20.00     0.032 C 
HETATM    6  N9  UNL     1     -32.327   6.308   1.728  1.00 20.00    -0.355 N 
ENDROOT
BRANCH   3   7
HETATM    7  C8  UNL     1     -34.953   6.812   4.266  1.00 20.00     0.002 C 
HETATM    8  C7  UNL     1     -35.306   5.362   4.380  1.00 20.00     0.005 C 
ENDBRANCH   3   7
BRANCH   6   9
HETATM    9  C1  UNL     1     -31.565   5.511   0.906  1.00 20.00     0.351 C 
HETATM   10  O10 UNL     1     -31.932   4.509   0.301  1.00 20.00    -0.284 OA
ENDBRANCH   6   9
TORSDOF 2
ENDMDL
MODEL 4
REMARK VINA RESULT:      -0.3      1.386      2.393
REMARK  2 active torsions:
REMARK  status: ('A' for Active; 'I' for Inactive)
REMARK    1  A    between atoms: C1_1  and  N9_9 
REMARK    2  A    between atoms: C4_4  and  C8_8 
ROOT
HETATM    1  C2  UNL     1     -31.738   6.935   1.367  1.00 20.00     0.031 C 
HETATM    2  C3  UNL     1     -33.538   7.909   2.609  1.00 20.00     0.130 C 
HETATM    3  C4  UNL     1     -32.710   8.122   1.344  1.00 20.00     0.005 C 
HETATM    4  C5  UNL     1     -32.581   5.790   1.938  1.00 20.00     0.083 C 
HETATM    5  C6  UNL     1     -33.283   4.988   0.845  1.00 20.00     0.032 C 
HETATM    6  N9  UNL     1     -33.543   6.468   2.802  1.00 20.00    -0.355 N 
ENDROOT
BRANCH   3   7
HETATM    7  C8  UNL     1     -32.008   9.467   1.307  1.00 20.00     0.002 C 
HETATM    8  C7  UNL     1     -32.495  10.323   0.179  1.00 20.00     0.005 C 
ENDBRANCH   3   7
BRANCH   6   9
HETATM    9  C1  UNL     1     -34.305   5.838   3.758  1.00 20.00     0.351 C 
HETATM   10  O10 UNL     1     -35.444   6.131   4.106  1.00 20.00    -0.284 OA
ENDBRANCH   6   9
TORSDOF 2
ENDMDL
MODEL 5
REMARK VINA RESULT:      -0.0      1.389      1.957
REMARK  2 active torsions:
REMARK  status: ('A' for Active; 'I' for Inactive)
REMARK    1  A    between atoms: C1_1  and  N9_9 
REMARK    2  A    between atoms: C4_4  and  C8_8 
ROOT
HETATM    1  C2  UNL     1     -32.974   7.878   2.377  1.00 20.00     0.031 C 
HETATM    2  C3  UNL     1     -33.626   5.589   2.632  1.00 20.00     0.130 C 
HETATM    3  C4  UNL     1     -32.435   6.451   2.220  1.00 20.00     0.005 C 
HETATM    4  C5  UNL     1     -33.879   7.787   3.611  1.00 20.00     0.083 C 
HETATM    5  C6  UNL     1     -33.128   8.099   4.903  1.00 20.00     0.032 C 
HETATM    6  N9  UNL     1     -34.352   6.406   3.591  1.00 20.00    -0.355 N 
ENDROOT
BRANCH   3   7
HETATM    7  C8  UNL     1     -31.937   6.153   0.817  1.00 20.00     0.002 C 
HETATM    8  C7  UNL     1     -31.678   4.693   0.612  1.00 20.00     0.005 C 
ENDBRANCH   3   7
BRANCH   6   9
HETATM    9  C1  UNL     1     -35.421   5.941   4.321  1.00 20.00     0.351 C 
HETATM   10  O10 UNL     1     -35.606   4.794   4.711  1.00 20.00    -0.284 OA
ENDBRANCH   6   9
TORSDOF 2
ENDMDL
MODEL 6
REMARK VINA RESULT:       0.1      2.197      4.346
REMARK  2 active torsions:
REMARK  status: ('A' for Active; 'I' for Inactive)
REMARK    1  A    between atoms: C1_1  and  N9_9 
REMARK    2  A    between atoms: C4_4  and  C8_8 
ROOT
HETATM    1  C2  UNL     1     -34.802   5.061   4.632  1.00 20.00     0.031 C 
HETATM    2  C3  UNL     1     -33.042   5.203   3.015  1.00 20.00     0.130 C 
HETATM    3  C4  UNL     1     -34.073   4.225   3.572  1.00 20.00     0.005 C 
HETATM    4  C5  UNL     1     -34.852   6.462   4.014  1.00 20.00     0.083 C 
HETATM    5  C6  UNL     1     -36.119   6.688   3.194  1.00 20.00     0.032 C 
HETATM    6  N9  UNL     1     -33.659   6.510   3.173  1.00 20.00    -0.355 N 
ENDROOT
BRANCH   3   7
HETATM    7  C8  UNL     1     -33.455   2.957   4.134  1.00 20.00     0.002 C 
HETATM    8  C7  UNL     1     -32.874   3.171   5.496  1.00 20.00     0.005 C 
ENDBRANCH   3   7
BRANCH   6   9
HETATM    9  C1  UNL     1     -33.118   7.666   2.660  1.00 20.00     0.351 C 
HETATM   10  O10 UNL     1     -32.127   7.763   1.943  1.00 20.00    -0.284 OA
ENDBRANCH   6   9
TORSDOF 2
ENDMDL
MODEL 7
REMARK VINA RESULT:       0.4      2.171      4.028
REMARK  2 active torsions:
REMARK  status: ('A' for Active; 'I' for Inactive)
REMARK    1  A    between atoms: C1_1  and  N9_9 
REMARK    2  A    between atoms: C4_4  and  C8_8 
ROOT
HETATM    1  C2  UNL     1     -34.222   7.121   4.580  1.00 20.00     0.031 C 
HETATM    2  C3  UNL     1     -33.442   5.901   2.674  1.00 20.00     0.130 C 
HETATM    3  C4  UNL     1     -34.616   5.969   3.647  1.00 20.00     0.005 C 
HETATM    4  C5  UNL     1     -33.520   8.115   3.648  1.00 20.00     0.083 C 
HETATM    5  C6  UNL     1     -34.487   9.137   3.057  1.00 20.00     0.032 C 
HETATM    6  N9  UNL     1     -32.943   7.265   2.610  1.00 20.00    -0.355 N 
ENDROOT
BRANCH   3   7
HETATM    7  C8  UNL     1     -34.862   4.664   4.382  1.00 20.00     0.002 C 
HETATM    8  C7  UNL     1     -33.715   3.713   4.237  1.00 20.00     0.005 C 
ENDBRANCH   3   7
BRANCH   6   9
HETATM    9  C1  UNL     1     -31.970   7.671   1.727  1.00 20.00     0.351 C 
HETATM   10  O10 UNL     1     -31.996   8.660   1.003  1.00 20.00    -0.284 OA
ENDBRANCH   6   9
TORSDOF 2
ENDMDL
MODEL 8
REMARK VINA RESULT:       0.7      1.651      2.493
REMARK  2 active torsions:
REMARK  status: ('A' for Active; 'I' for Inactive)
REMARK    1  A    between atoms: C1_1  and  N9_9 
REMARK    2  A    between atoms: C4_4  and  C8_8 
ROOT
HETATM    1  C2  UNL     1     -32.194   7.353   1.476  1.00 20.00     0.031 C 
HETATM    2  C3  UNL     1     -33.332   5.520   2.512  1.00 20.00     0.130 C 
HETATM    3  C4  UNL     1     -32.012   5.872   1.831  1.00 20.00     0.005 C 
HETATM    4  C5  UNL     1     -32.994   7.912   2.658  1.00 20.00     0.083 C 
HETATM    5  C6  UNL     1     -32.092   8.453   3.764  1.00 20.00     0.032 C 
HETATM    6  N9  UNL     1     -33.772   6.765   3.119  1.00 20.00    -0.355 N 
ENDROOT
BRANCH   3   7
HETATM    7  C8  UNL     1     -31.708   5.002   0.625  1.00 20.00     0.002 C 
HETATM    8  C7  UNL     1     -32.947   4.397   0.043  1.00 20.00     0.005 C 
ENDBRANCH   3   7
BRANCH   6   9
HETATM    9  C1  UNL     1     -34.858   6.853   3.959  1.00 20.00     0.351 C 
HETATM   10  O10 UNL     1     -35.592   5.937   4.315  1.00 20.00    -0.284 OA
ENDBRANCH   6   9
TORSDOF 2
ENDMDL
MODEL 9
REMARK VINA RESULT:       1.0      1.679      3.141
REMARK  2 active torsions:
REMARK  status: ('A' for Active; 'I' for Inactive)
REMARK    1  A    between atoms: C1_1  and  N9_9 
REMARK    2  A    between atoms: C4_4  and  C8_8 
ROOT
HETATM    1  C2  UNL     1     -32.828   6.908   2.608  1.00 20.00     0.031 C 
HETATM    2  C3  UNL     1     -34.333   5.818   4.117  1.00 20.00     0.130 C 
HETATM    3  C4  UNL     1     -34.186   7.096   3.296  1.00 20.00     0.005 C 
HETATM    4  C5  UNL     1     -32.784   5.406   2.304  1.00 20.00     0.083 C 
HETATM    5  C6  UNL     1     -33.349   5.078   0.925  1.00 20.00     0.032 C 
HETATM    6  N9  UNL     1     -33.595   4.816   3.365  1.00 20.00    -0.355 N 
ENDROOT
BRANCH   3   7
HETATM    7  C8  UNL     1     -34.260   8.359   4.135  1.00 20.00     0.002 C 
HETATM    8  C7  UNL     1     -33.227   8.374   5.219  1.00 20.00     0.005 C 
ENDBRANCH   3   7
BRANCH   6   9
HETATM    9  C1  UNL     1     -33.597   3.479   3.687  1.00 20.00     0.351 C 
HETATM   10  O10 UNL     1     -33.252   2.974   4.750  1.00 20.00    -0.284 OA
ENDBRANCH   6   9
TORSDOF 2
ENDMDL
