MODEL 1
REMARK VINA RESULT:       0.2      0.000      0.000
REMARK  0 active torsions:
REMARK  status: ('A' for Active; 'I' for Inactive)
ROOT
HETATM    1  C1  UNL     1     -32.662   9.725   0.459  1.00 20.00     0.015 C 
HETATM    2  C2  UNL     1     -32.528   8.816   1.231  1.00 20.00    -0.075 C 
HETATM    3  C3  UNL     1     -33.693   8.157   4.109  1.00 20.00     0.034 C 
HETATM    4  C4  UNL     1     -31.918   5.715   0.924  1.00 20.00     0.034 C 
HETATM    5  C5  UNL     1     -32.256   8.223   3.612  1.00 20.00     0.057 C 
HETATM    6  C6  UNL     1     -31.213   6.788   1.740  1.00 20.00     0.057 C 
HETATM    7  C7  UNL     1     -34.201   6.873   3.476  1.00 20.00     0.275 C 
HETATM    8  C8  UNL     1     -33.210   5.508   1.697  1.00 20.00     0.275 C 
HETATM    9  C9  UNL     1     -32.362   7.696   2.181  1.00 20.00     0.221 C 
HETATM   10  N10 UNL     1     -33.580   6.855   2.147  1.00 20.00     0.110 N 
ENDROOT
TORSDOF 0
ENDMDL
MODEL 2
REMARK VINA RESULT:       0.4      1.549      3.405
REMARK  0 active torsions:
REMARK  status: ('A' for Active; 'I' for Inactive)
ROOT
HETATM    1  C1  UNL     1     -33.497   3.534   4.368  1.00 20.00     0.015 C 
HETATM    2  C2  UNL     1     -33.672   4.532   3.725  1.00 20.00    -0.075 C 
HETATM    3  C3  UNL     1     -34.642   7.475   4.415  1.00 20.00     0.034 C 
HETATM    4  C4  UNL     1     -32.373   5.732   1.088  1.00 20.00     0.034 C 
HETATM    5  C5  UNL     1     -35.160   6.475   3.392  1.00 20.00     0.057 C 
HETATM    6  C6  UNL     1     -33.826   5.450   1.437  1.00 20.00     0.057 C 
HETATM    7  C7  UNL     1     -33.327   7.922   3.800  1.00 20.00     0.275 C 
HETATM    8  C8  UNL     1     -32.058   6.949   1.942  1.00 20.00     0.275 C 
HETATM    9  C9  UNL     1     -33.888   5.762   2.932  1.00 20.00     0.221 C 
HETATM   10  N10 UNL     1     -32.776   6.704   3.197  1.00 20.00     0.110 N 
ENDROOT
TORSDOF 0
ENDMDL
MODEL 3
REMARK VINA RESULT:       0.9      1.605      3.492
REMARK  0 active torsions:
REMARK  status: ('A' for Active; 'I' for Inactive)
ROOT
HETATM    1  C1  UNL     1     -32.996   8.425   5.219  1.00 20.00     0.015 C 
HETATM    2  C2  UNL     1     -33.443   7.671   4.399  1.00 20.00    -0.075 C 
HETATM    3  C3  UNL     1     -32.467   6.650   1.557  1.00 20.00     0.034 C 
HETATM    4  C4  UNL     1     -35.300   5.099   4.527  1.00 20.00     0.034 C 
HETATM    5  C5  UNL     1     -33.777   7.296   1.981  1.00 20.00     0.057 C 
HETATM    6  C6  UNL     1     -35.442   6.385   3.728  1.00 20.00     0.057 C 
HETATM    7  C7  UNL     1     -32.579   5.257   2.153  1.00 20.00     0.275 C 
HETATM    8  C8  UNL     1     -34.161   4.390   3.813  1.00 20.00     0.275 C 
HETATM    9  C9  UNL     1     -33.994   6.742   3.389  1.00 20.00     0.221 C 
HETATM   10  N10 UNL     1     -33.238   5.470   3.446  1.00 20.00     0.110 N 
ENDROOT
TORSDOF 0
ENDMDL
MODEL 4
REMARK VINA RESULT:       1.6      1.151      3.181
REMARK  0 active torsions:
REMARK  status: ('A' for Active; 'I' for Inactive)
ROOT
HETATM    1  C1  UNL     1     -34.415   5.333  -0.247  1.00 20.00     0.015 C 
HETATM    2  C2  UNL     1     -33.833   5.627   0.761  1.00 20.00    -0.075 C 
HETATM    3  C3  UNL     1     -31.380   7.526   1.434  1.00 20.00     0.034 C 
HETATM    4  C4  UNL     1     -34.659   5.846   3.819  1.00 20.00     0.034 C 
HETATM    5  C5  UNL     1     -31.610   6.055   1.747  1.00 20.00     0.057 C 
HETATM    6  C6  UNL     1     -33.537   5.067   3.148  1.00 20.00     0.057 C 
HETATM    7  C7  UNL     1     -32.336   8.218   2.391  1.00 20.00     0.275 C 
HETATM    8  C8  UNL     1     -34.168   7.280   3.723  1.00 20.00     0.275 C 
HETATM    9  C9  UNL     1     -33.116   5.987   2.002  1.00 20.00     0.221 C 
HETATM   10  N10 UNL     1     -33.520   7.353   2.409  1.00 20.00     0.110 N 
ENDROOT
TORSDOF 0
ENDMDL
MODEL 5
REMARK VINA RESULT:       2.5      1.156      2.868
REMARK  0 active torsions:
REMARK  status: ('A' for Active; 'I' for Inactive)
ROOT
HETATM    1  C1  UNL     1     -32.179   4.755   1.284  1.00 20.00     0.015 C 
HETATM    2  C2  UNL     1     -32.620   5.813   1.637  1.00 20.00    -0.075 C 
HETATM    3  C3  UNL     1     -34.593   6.737   3.946  1.00 20.00     0.034 C 
HETATM    4  C4  UNL     1     -31.560   8.805   1.542  1.00 20.00     0.034 C 
HETATM    5  C5  UNL     1     -34.640   6.982   2.445  1.00 20.00     0.057 C 
HETATM    6  C6  UNL     1     -32.857   8.196   1.032  1.00 20.00     0.057 C 
HETATM    7  C7  UNL     1     -33.455   7.640   4.391  1.00 20.00     0.275 C 
HETATM    8  C8  UNL     1     -31.760   8.795   3.048  1.00 20.00     0.275 C 
HETATM    9  C9  UNL     1     -33.164   7.118   2.071  1.00 20.00     0.221 C 
HETATM   10  N10 UNL     1     -32.469   7.538   3.310  1.00 20.00     0.110 N 
ENDROOT
TORSDOF 0
ENDMDL
MODEL 6
REMARK VINA RESULT:       2.6      1.940      2.901
REMARK  0 active torsions:
REMARK  status: ('A' for Active; 'I' for Inactive)
ROOT
HETATM    1  C1  UNL     1     -33.377   5.367   0.388  1.00 20.00     0.015 C 
HETATM    2  C2  UNL     1     -33.358   5.546   1.575  1.00 20.00    -0.075 C 
HETATM    3  C3  UNL     1     -33.935   8.037   3.454  1.00 20.00     0.034 C 
HETATM    4  C4  UNL     1     -33.867   3.698   4.107  1.00 20.00     0.034 C 
HETATM    5  C5  UNL     1     -32.720   7.127   3.361  1.00 20.00     0.057 C 
HETATM    6  C6  UNL     1     -32.679   4.577   3.743  1.00 20.00     0.057 C 
HETATM    7  C7  UNL     1     -34.965   7.142   4.121  1.00 20.00     0.275 C 
HETATM    8  C8  UNL     1     -34.928   4.718   4.485  1.00 20.00     0.275 C 
HETATM    9  C9  UNL     1     -33.333   5.765   3.037  1.00 20.00     0.221 C 
HETATM   10  N10 UNL     1     -34.726   5.818   3.536  1.00 20.00     0.110 N 
ENDROOT
TORSDOF 0
ENDMDL
MODEL 7
REMARK VINA RESULT:       2.9      1.684      3.233
REMARK  0 active torsions:
REMARK  status: ('A' for Active; 'I' for Inactive)
ROOT
HETATM    1  C1  UNL     1     -31.798   8.639   3.481  1.00 20.00     0.015 C 
HETATM    2  C2  UNL     1     -32.562   7.798   3.093  1.00 20.00    -0.075 C 
HETATM    3  C3  UNL     1     -32.316   5.312   1.135  1.00 20.00     0.034 C 
HETATM    4  C4  UNL     1     -35.134   6.398   4.320  1.00 20.00     0.034 C 
HETATM    5  C5  UNL     1     -33.281   6.487   1.128  1.00 20.00     0.057 C 
HETATM    6  C6  UNL     1     -34.937   7.127   2.999  1.00 20.00     0.057 C 
HETATM    7  C7  UNL     1     -32.810   4.489   2.314  1.00 20.00     0.275 C 
HETATM    8  C8  UNL     1     -34.384   5.096   4.093  1.00 20.00     0.275 C 
HETATM    9  C9  UNL     1     -33.502   6.762   2.615  1.00 20.00     0.221 C 
HETATM   10  N10 UNL     1     -33.206   5.489   3.311  1.00 20.00     0.110 N 
ENDROOT
TORSDOF 0
ENDMDL
