MODEL 1
REMARK VINA RESULT:      -0.6      0.000      0.000
REMARK  1 active torsions:
REMARK  status: ('A' for Active; 'I' for Inactive)
REMARK    1  A    between atoms: C6_6  and  N10_10 
ROOT
HETATM    1  C1  UNL     1     -32.403   8.149   2.371  1.00 20.00    -0.017 A 
HETATM    2  C2  UNL     1     -33.197   8.234   3.392  1.00 20.00     0.079 A 
HETATM    3  C3  UNL     1     -33.885   7.018   3.773  1.00 20.00     0.047 A 
HETATM    4  C4  UNL     1     -32.898   5.538   1.979  1.00 20.00     0.057 A 
HETATM    5  C5  UNL     1     -32.081   6.367   1.285  1.00 20.00     0.129 A 
HETATM    6  C6  UNL     1     -33.748   5.832   3.140  1.00 20.00     0.135 A 
HETATM    7  N9  UNL     1     -31.807   7.715   1.460  1.00 20.00    -0.218 NA
ENDROOT
BRANCH   6   8
HETATM    8  N10 UNL     1     -34.519   4.760   3.675  1.00 20.00    -0.049 N 
HETATM    9  C7  UNL     1     -33.611   3.716   4.252  1.00 20.00     0.276 C 
HETATM   10  C8  UNL     1     -35.511   5.291   4.666  1.00 20.00     0.276 C 
HETATM   11  H21 UNL     1     -35.051   4.320   2.911  1.00 20.00     0.285 HD
ENDBRANCH   6   8
TORSDOF 1
ENDMDL
MODEL 2
REMARK VINA RESULT:      -0.5      0.490      1.835
REMARK  1 active torsions:
REMARK  status: ('A' for Active; 'I' for Inactive)
REMARK    1  A    between atoms: C6_6  and  N10_10 
ROOT
HETATM    1  C1  UNL     1     -31.956   7.350   1.574  1.00 20.00    -0.017 A 
HETATM    2  C2  UNL     1     -32.057   6.111   1.205  1.00 20.00     0.079 A 
HETATM    3  C3  UNL     1     -32.955   5.282   1.980  1.00 20.00     0.047 A 
HETATM    4  C4  UNL     1     -33.702   7.074   3.597  1.00 20.00     0.057 A 
HETATM    5  C5  UNL     1     -33.021   8.176   3.200  1.00 20.00     0.129 A 
HETATM    6  C6  UNL     1     -33.676   5.716   3.038  1.00 20.00     0.135 A 
HETATM    7  N9  UNL     1     -32.114   8.349   2.166  1.00 20.00    -0.218 NA
ENDROOT
BRANCH   6   8
HETATM    8  N10 UNL     1     -34.498   4.734   3.662  1.00 20.00    -0.049 N 
HETATM    9  C7  UNL     1     -33.643   3.706   4.339  1.00 20.00     0.276 C 
HETATM   10  C8  UNL     1     -35.468   5.398   4.592  1.00 20.00     0.276 C 
HETATM   11  H21 UNL     1     -35.047   4.251   2.937  1.00 20.00     0.285 HD
ENDBRANCH   6   8
TORSDOF 1
ENDMDL
MODEL 3
REMARK VINA RESULT:      -0.2      1.034      3.788
REMARK  1 active torsions:
REMARK  status: ('A' for Active; 'I' for Inactive)
REMARK    1  A    between atoms: C6_6  and  N10_10 
ROOT
HETATM    1  C1  UNL     1     -35.270   5.452   4.538  1.00 20.00    -0.017 A 
HETATM    2  C2  UNL     1     -35.311   6.648   4.040  1.00 20.00     0.079 A 
HETATM    3  C3  UNL     1     -34.348   6.942   2.999  1.00 20.00     0.047 A 
HETATM    4  C4  UNL     1     -33.241   4.671   2.960  1.00 20.00     0.057 A 
HETATM    5  C5  UNL     1     -33.908   3.967   3.906  1.00 20.00     0.129 A 
HETATM    6  C6  UNL     1     -33.435   6.062   2.531  1.00 20.00     0.135 A 
HETATM    7  N9  UNL     1     -34.953   4.341   4.737  1.00 20.00    -0.218 NA
ENDROOT
BRANCH   6   8
HETATM    8  N10 UNL     1     -32.578   6.557   1.505  1.00 20.00    -0.049 N 
HETATM    9  C7  UNL     1     -31.921   7.826   1.956  1.00 20.00     0.276 C 
HETATM   10  C8  UNL     1     -31.599   5.496   1.103  1.00 20.00     0.276 C 
HETATM   11  H21 UNL     1     -33.148   6.781   0.677  1.00 20.00     0.285 HD
ENDBRANCH   6   8
TORSDOF 1
ENDMDL
MODEL 4
REMARK VINA RESULT:       0.2      0.741      1.348
REMARK  1 active torsions:
REMARK  status: ('A' for Active; 'I' for Inactive)
REMARK    1  A    between atoms: C6_6  and  N10_10 
ROOT
HETATM    1  C1  UNL     1     -31.912   8.049   1.810  1.00 20.00    -0.017 A 
HETATM    2  C2  UNL     1     -32.459   8.544   2.876  1.00 20.00     0.079 A 
HETATM    3  C3  UNL     1     -33.312   7.652   3.633  1.00 20.00     0.047 A 
HETATM    4  C4  UNL     1     -33.034   5.631   2.142  1.00 20.00     0.057 A 
HETATM    5  C5  UNL     1     -32.202   6.060   1.163  1.00 20.00     0.129 A 
HETATM    6  C6  UNL     1     -33.563   6.366   3.298  1.00 20.00     0.135 A 
HETATM    7  N9  UNL     1     -31.611   7.298   0.962  1.00 20.00    -0.218 NA
ENDROOT
BRANCH   6   8
HETATM    8  N10 UNL     1     -34.434   5.663   4.179  1.00 20.00    -0.049 N 
HETATM    9  C7  UNL     1     -35.858   6.038   3.896  1.00 20.00     0.276 C 
HETATM   10  C8  UNL     1     -34.181   4.190   4.079  1.00 20.00     0.276 C 
HETATM   11  H21 UNL     1     -34.227   5.947   5.147  1.00 20.00     0.285 HD
ENDBRANCH   6   8
TORSDOF 1
ENDMDL
MODEL 5
REMARK VINA RESULT:       0.2      1.110      4.141
REMARK  1 active torsions:
REMARK  status: ('A' for Active; 'I' for Inactive)
REMARK    1  A    between atoms: C6_6  and  N10_10 
ROOT
HETATM    1  C1  UNL     1     -34.698   4.373   4.510  1.00 20.00    -0.017 A 
HETATM    2  C2  UNL     1     -33.691   3.849   3.884  1.00 20.00     0.079 A 
HETATM    3  C3  UNL     1     -33.050   4.683   2.889  1.00 20.00     0.047 A 
HETATM    4  C4  UNL     1     -34.535   6.705   3.187  1.00 20.00     0.057 A 
HETATM    5  C5  UNL     1     -35.408   6.329   4.152  1.00 20.00     0.129 A 
HETATM    6  C6  UNL     1     -33.433   5.944   2.586  1.00 20.00     0.135 A 
HETATM    7  N9  UNL     1     -35.521   5.136   4.850  1.00 20.00    -0.218 NA
ENDROOT
BRANCH   6   8
HETATM    8  N10 UNL     1     -32.666   6.588   1.573  1.00 20.00    -0.049 N 
HETATM    9  C7  UNL     1     -32.056   7.845   2.115  1.00 20.00     0.276 C 
HETATM   10  C8  UNL     1     -31.654   5.634   1.014  1.00 20.00     0.276 C 
HETATM   11  H21 UNL     1     -33.295   6.858   0.802  1.00 20.00     0.285 HD
ENDBRANCH   6   8
TORSDOF 1
ENDMDL
MODEL 6
REMARK VINA RESULT:       0.3      1.336      4.383
REMARK  1 active torsions:
REMARK  status: ('A' for Active; 'I' for Inactive)
REMARK    1  A    between atoms: C6_6  and  N10_10 
ROOT
HETATM    1  C1  UNL     1     -33.707   5.611   2.834  1.00 20.00    -0.017 A 
HETATM    2  C2  UNL     1     -32.966   5.504   1.777  1.00 20.00     0.079 A 
HETATM    3  C3  UNL     1     -32.359   6.726   1.291  1.00 20.00     0.047 A 
HETATM    4  C4  UNL     1     -33.307   8.257   3.064  1.00 20.00     0.057 A 
HETATM    5  C5  UNL     1     -34.045   7.434   3.846  1.00 20.00     0.129 A 
HETATM    6  C6  UNL     1     -32.519   7.940   1.867  1.00 20.00     0.135 A 
HETATM    7  N9  UNL     1     -34.274   6.069   3.753  1.00 20.00    -0.218 NA
ENDROOT
BRANCH   6   8
HETATM    8  N10 UNL     1     -31.835   9.014   1.227  1.00 20.00    -0.049 N 
HETATM    9  C7  UNL     1     -31.091   8.506   0.029  1.00 20.00     0.276 C 
HETATM   10  C8  UNL     1     -32.803  10.110   0.898  1.00 20.00     0.276 C 
HETATM   11  H21 UNL     1     -31.141   9.401   1.882  1.00 20.00     0.285 HD
ENDBRANCH   6   8
TORSDOF 1
ENDMDL
MODEL 7
REMARK VINA RESULT:       0.5      1.333      3.986
REMARK  1 active torsions:
REMARK  status: ('A' for Active; 'I' for Inactive)
REMARK    1  A    between atoms: C6_6  and  N10_10 
ROOT
HETATM    1  C1  UNL     1     -33.969   6.236   3.490  1.00 20.00    -0.017 A 
HETATM    2  C2  UNL     1     -33.968   7.489   3.822  1.00 20.00     0.079 A 
HETATM    3  C3  UNL     1     -33.205   8.377   2.971  1.00 20.00     0.047 A 
HETATM    4  C4  UNL     1     -32.402   6.619   1.343  1.00 20.00     0.057 A 
HETATM    5  C5  UNL     1     -32.944   5.469   1.811  1.00 20.00     0.129 A 
HETATM    6  C6  UNL     1     -32.513   7.982   1.878  1.00 20.00     0.135 A 
HETATM    7  N9  UNL     1     -33.752   5.238   2.914  1.00 20.00    -0.218 NA
ENDROOT
BRANCH   6   8
HETATM    8  N10 UNL     1     -31.827   9.018   1.181  1.00 20.00    -0.049 N 
HETATM    9  C7  UNL     1     -31.116   8.450  -0.010  1.00 20.00     0.276 C 
HETATM   10  C8  UNL     1     -32.785  10.116   0.828  1.00 20.00     0.276 C 
HETATM   11  H21 UNL     1     -31.112   9.420   1.805  1.00 20.00     0.285 HD
ENDBRANCH   6   8
TORSDOF 1
ENDMDL
MODEL 8
REMARK VINA RESULT:       0.8      1.497      2.207
REMARK  1 active torsions:
REMARK  status: ('A' for Active; 'I' for Inactive)
REMARK    1  A    between atoms: C6_6  and  N10_10 
ROOT
HETATM    1  C1  UNL     1     -31.578   6.793   1.086  1.00 20.00    -0.017 A 
HETATM    2  C2  UNL     1     -31.730   7.961   1.627  1.00 20.00     0.079 A 
HETATM    3  C3  UNL     1     -32.777   8.077   2.620  1.00 20.00     0.047 A 
HETATM    4  C4  UNL     1     -33.558   5.676   2.516  1.00 20.00     0.057 A 
HETATM    5  C5  UNL     1     -32.752   5.111   1.586  1.00 20.00     0.129 A 
HETATM    6  C6  UNL     1     -33.582   7.061   3.004  1.00 20.00     0.135 A 
HETATM    7  N9  UNL     1     -31.726   5.658   0.830  1.00 20.00    -0.218 NA
ENDROOT
BRANCH   6   8
HETATM    8  N10 UNL     1     -34.551   7.390   3.996  1.00 20.00    -0.049 N 
HETATM    9  C7  UNL     1     -35.374   6.182   4.327  1.00 20.00     0.276 C 
HETATM   10  C8  UNL     1     -33.874   7.988   5.192  1.00 20.00     0.276 C 
HETATM   11  H21 UNL     1     -35.188   8.103   3.613  1.00 20.00     0.285 HD
ENDBRANCH   6   8
TORSDOF 1
ENDMDL
MODEL 9
REMARK VINA RESULT:       0.8      1.340      2.426
REMARK  1 active torsions:
REMARK  status: ('A' for Active; 'I' for Inactive)
REMARK    1  A    between atoms: C6_6  and  N10_10 
ROOT
HETATM    1  C1  UNL     1     -31.836   6.269   1.040  1.00 20.00    -0.017 A 
HETATM    2  C2  UNL     1     -32.683   5.384   1.462  1.00 20.00     0.079 A 
HETATM    3  C3  UNL     1     -33.606   5.819   2.490  1.00 20.00     0.047 A 
HETATM    4  C4  UNL     1     -32.765   8.196   2.664  1.00 20.00     0.057 A 
HETATM    5  C5  UNL     1     -31.759   8.253   1.760  1.00 20.00     0.129 A 
HETATM    6  C6  UNL     1     -33.632   7.064   3.017  1.00 20.00     0.135 A 
HETATM    7  N9  UNL     1     -31.254   7.279   0.911  1.00 20.00    -0.218 NA
ENDROOT
BRANCH   6   8
HETATM    8  N10 UNL     1     -34.620   7.283   4.020  1.00 20.00    -0.049 N 
HETATM    9  C7  UNL     1     -35.326   5.997   4.332  1.00 20.00     0.276 C 
HETATM   10  C8  UNL     1     -33.992   7.917   5.224  1.00 20.00     0.276 C 
HETATM   11  H21 UNL     1     -35.323   7.941   3.656  1.00 20.00     0.285 HD
ENDBRANCH   6   8
TORSDOF 1
ENDMDL
