MODEL 1
REMARK VINA RESULT:       0.8      0.000      0.000
REMARK  0 active torsions:
REMARK  status: ('A' for Active; 'I' for Inactive)
ROOT
HETATM    1  C1  UNL     1     -32.409   9.627   0.027  1.00 20.00     0.015 C 
HETATM    2  C2  UNL     1     -32.328   8.919   0.992  1.00 20.00    -0.073 C 
HETATM    3  C3  UNL     1     -31.395   6.802   1.857  1.00 20.00     0.225 C 
HETATM    4  C4  UNL     1     -33.613   6.304   1.572  1.00 20.00     0.442 C 
HETATM    5  C5  UNL     1     -32.228   8.042   2.186  1.00 20.00     0.240 C 
HETATM    6  C6  UNL     1     -31.579   8.865   3.309  1.00 20.00     0.066 C 
HETATM    7  C7  UNL     1     -33.763   7.051   3.856  1.00 20.00     0.315 C 
HETATM    8  N8  UNL     1     -33.561   7.468   2.469  1.00 20.00     0.130 N 
HETATM    9  O9  UNL     1     -32.290   5.875   1.231  1.00 20.00    -0.359 OA
ENDROOT
TORSDOF 0
ENDMDL
MODEL 2
REMARK VINA RESULT:       1.6      1.659      3.628
REMARK  0 active torsions:
REMARK  status: ('A' for Active; 'I' for Inactive)
ROOT
HETATM    1  C1  UNL     1     -33.726   3.825   4.198  1.00 20.00     0.015 C 
HETATM    2  C2  UNL     1     -33.705   4.853   3.578  1.00 20.00    -0.073 C 
HETATM    3  C3  UNL     1     -34.321   5.921   1.438  1.00 20.00     0.225 C 
HETATM    4  C4  UNL     1     -32.053   5.658   1.244  1.00 20.00     0.442 C 
HETATM    5  C5  UNL     1     -33.679   6.124   2.811  1.00 20.00     0.240 C 
HETATM    6  C6  UNL     1     -34.444   7.173   3.632  1.00 20.00     0.066 C 
HETATM    7  C7  UNL     1     -32.020   7.861   2.215  1.00 20.00     0.315 C 
HETATM    8  N8  UNL     1     -32.277   6.444   2.467  1.00 20.00     0.130 N 
HETATM    9  O9  UNL     1     -33.298   5.373   0.597  1.00 20.00    -0.359 OA
ENDROOT
TORSDOF 0
ENDMDL
MODEL 3
REMARK VINA RESULT:       2.3      2.185      3.494
REMARK  0 active torsions:
REMARK  status: ('A' for Active; 'I' for Inactive)
ROOT
HETATM    1  C1  UNL     1     -32.958   8.370   5.651  1.00 20.00     0.015 C 
HETATM    2  C2  UNL     1     -33.277   7.874   4.606  1.00 20.00    -0.073 C 
HETATM    3  C3  UNL     1     -35.194   7.253   3.180  1.00 20.00     0.225 C 
HETATM    4  C4  UNL     1     -34.513   5.236   4.027  1.00 20.00     0.442 C 
HETATM    5  C5  UNL     1     -33.671   7.260   3.313  1.00 20.00     0.240 C 
HETATM    6  C6  UNL     1     -33.020   8.085   2.193  1.00 20.00     0.066 C 
HETATM    7  C7  UNL     1     -33.155   5.201   2.039  1.00 20.00     0.315 C 
HETATM    8  N8  UNL     1     -33.344   5.819   3.351  1.00 20.00     0.130 N 
HETATM    9  O9  UNL     1     -35.651   6.094   3.888  1.00 20.00    -0.359 OA
ENDROOT
TORSDOF 0
ENDMDL
MODEL 4
REMARK VINA RESULT:       2.3      1.938      2.742
REMARK  0 active torsions:
REMARK  status: ('A' for Active; 'I' for Inactive)
ROOT
HETATM    1  C1  UNL     1     -34.158   5.400  -0.042  1.00 20.00     0.015 C 
HETATM    2  C2  UNL     1     -33.717   5.783   1.007  1.00 20.00    -0.073 C 
HETATM    3  C3  UNL     1     -32.739   5.064   3.158  1.00 20.00     0.225 C 
HETATM    4  C4  UNL     1     -34.875   5.656   3.740  1.00 20.00     0.442 C 
HETATM    5  C5  UNL     1     -33.173   6.257   2.305  1.00 20.00     0.240 C 
HETATM    6  C6  UNL     1     -31.986   7.181   1.997  1.00 20.00     0.066 C 
HETATM    7  C7  UNL     1     -33.855   7.804   4.113  1.00 20.00     0.315 C 
HETATM    8  N8  UNL     1     -34.276   6.837   3.100  1.00 20.00     0.130 N 
HETATM    9  O9  UNL     1     -33.924   4.588   3.809  1.00 20.00    -0.359 OA
ENDROOT
TORSDOF 0
ENDMDL
MODEL 5
REMARK VINA RESULT:       2.5      1.877      3.516
REMARK  0 active torsions:
REMARK  status: ('A' for Active; 'I' for Inactive)
ROOT
HETATM    1  C1  UNL     1     -36.311   6.843   3.195  1.00 20.00     0.015 C 
HETATM    2  C2  UNL     1     -35.155   6.521   3.199  1.00 20.00    -0.073 C 
HETATM    3  C3  UNL     1     -32.895   7.161   3.962  1.00 20.00     0.225 C 
HETATM    4  C4  UNL     1     -32.838   7.657   1.725  1.00 20.00     0.442 C 
HETATM    5  C5  UNL     1     -33.725   6.124   3.203  1.00 20.00     0.240 C 
HETATM    6  C6  UNL     1     -33.632   4.743   3.869  1.00 20.00     0.066 C 
HETATM    7  C7  UNL     1     -32.028   5.397   1.553  1.00 20.00     0.315 C 
HETATM    8  N8  UNL     1     -33.196   6.234   1.827  1.00 20.00     0.130 N 
HETATM    9  O9  UNL     1     -32.618   8.212   3.027  1.00 20.00    -0.359 OA
ENDROOT
TORSDOF 0
ENDMDL
MODEL 6
REMARK VINA RESULT:       2.6      1.969      3.046
REMARK  0 active torsions:
REMARK  status: ('A' for Active; 'I' for Inactive)
ROOT
HETATM    1  C1  UNL     1     -31.915   8.373   2.378  1.00 20.00     0.015 C 
HETATM    2  C2  UNL     1     -32.568   7.366   2.357  1.00 20.00    -0.073 C 
HETATM    3  C3  UNL     1     -34.818   6.440   1.930  1.00 20.00     0.225 C 
HETATM    4  C4  UNL     1     -34.674   6.401   4.217  1.00 20.00     0.442 C 
HETATM    5  C5  UNL     1     -33.376   6.121   2.331  1.00 20.00     0.240 C 
HETATM    6  C6  UNL     1     -32.719   5.166   1.325  1.00 20.00     0.066 C 
HETATM    7  C7  UNL     1     -33.802   4.192   3.823  1.00 20.00     0.315 C 
HETATM    8  N8  UNL     1     -33.530   5.625   3.715  1.00 20.00     0.130 N 
HETATM    9  O9  UNL     1     -35.480   6.865   3.128  1.00 20.00    -0.359 OA
ENDROOT
TORSDOF 0
ENDMDL
MODEL 7
REMARK VINA RESULT:       2.8      1.633      2.984
REMARK  0 active torsions:
REMARK  status: ('A' for Active; 'I' for Inactive)
ROOT
HETATM    1  C1  UNL     1     -32.339   5.010   1.062  1.00 20.00     0.015 C 
HETATM    2  C2  UNL     1     -32.595   6.046   1.611  1.00 20.00    -0.073 C 
HETATM    3  C3  UNL     1     -33.364   8.367   1.262  1.00 20.00     0.225 C 
HETATM    4  C4  UNL     1     -31.117   8.624   1.635  1.00 20.00     0.442 C 
HETATM    5  C5  UNL     1     -32.910   7.329   2.289  1.00 20.00     0.240 C 
HETATM    6  C6  UNL     1     -34.015   7.047   3.318  1.00 20.00     0.066 C 
HETATM    7  C7  UNL     1     -31.830   8.841   3.924  1.00 20.00     0.315 C 
HETATM    8  N8  UNL     1     -31.655   7.915   2.806  1.00 20.00     0.130 N 
HETATM    9  O9  UNL     1     -32.167   8.933   0.712  1.00 20.00    -0.359 OA
ENDROOT
TORSDOF 0
ENDMDL
MODEL 8
REMARK VINA RESULT:       3.2      1.634      3.341
REMARK  0 active torsions:
REMARK  status: ('A' for Active; 'I' for Inactive)
ROOT
HETATM    1  C1  UNL     1     -34.525   6.850   3.774  1.00 20.00     0.015 C 
HETATM    2  C2  UNL     1     -33.688   7.015   2.930  1.00 20.00    -0.073 C 
HETATM    3  C3  UNL     1     -31.285   7.427   2.538  1.00 20.00     0.225 C 
HETATM    4  C4  UNL     1     -32.229   9.474   2.123  1.00 20.00     0.442 C 
HETATM    5  C5  UNL     1     -32.653   7.220   1.886  1.00 20.00     0.240 C 
HETATM    6  C6  UNL     1     -32.655   5.976   0.984  1.00 20.00     0.066 C 
HETATM    7  C7  UNL     1     -32.346   8.628  -0.127  1.00 20.00     0.315 C 
HETATM    8  N8  UNL     1     -32.895   8.520   1.224  1.00 20.00     0.130 N 
HETATM    9  O9  UNL     1     -31.221   8.813   2.897  1.00 20.00    -0.359 OA
ENDROOT
TORSDOF 0
ENDMDL
MODEL 9
REMARK VINA RESULT:       3.3      1.649      3.100
REMARK  0 active torsions:
REMARK  status: ('A' for Active; 'I' for Inactive)
ROOT
HETATM    1  C1  UNL     1     -31.110   4.742   1.412  1.00 20.00     0.015 C 
HETATM    2  C2  UNL     1     -32.031   5.501   1.535  1.00 20.00    -0.073 C 
HETATM    3  C3  UNL     1     -32.692   7.881   1.496  1.00 20.00     0.225 C 
HETATM    4  C4  UNL     1     -32.690   7.387   3.734  1.00 20.00     0.442 C 
HETATM    5  C5  UNL     1     -33.171   6.440   1.687  1.00 20.00     0.240 C 
HETATM    6  C6  UNL     1     -34.224   6.062   0.635  1.00 20.00     0.066 C 
HETATM    7  C7  UNL     1     -34.997   6.846   3.308  1.00 20.00     0.315 C 
HETATM    8  N8  UNL     1     -33.610   6.431   3.098  1.00 20.00     0.130 N 
HETATM    9  O9  UNL     1     -32.161   8.295   2.761  1.00 20.00    -0.359 OA
ENDROOT
TORSDOF 0
ENDMDL
