MODEL 1
REMARK VINA RESULT:      -2.0      0.000      0.000
REMARK  1 active torsions:
REMARK  status: ('A' for Active; 'I' for Inactive)
REMARK    1  A    between atoms: C3_3  and  C6_6 
ROOT
HETATM    1  C1  UNL     1     -31.819   7.442   1.560  1.00 20.00    -0.003 C 
HETATM    2  C2  UNL     1     -32.138   6.146   1.453  1.00 20.00     0.131 C 
HETATM    3  C4  UNL     1     -32.481   8.332   2.563  1.00 20.00     0.032 C 
HETATM    4  C5  UNL     1     -33.252   7.504   3.590  1.00 20.00     0.045 C 
HETATM    5  C6  UNL     1     -33.985   6.364   2.892  1.00 20.00     0.214 C 
HETATM    6  O8  UNL     1     -33.105   5.493   2.173  1.00 20.00    -0.349 OA
ENDROOT
BRANCH   5   7
HETATM    7  C3  UNL     1     -34.647   5.471   3.890  1.00 20.00     0.248 C 
HETATM    8  O7  UNL     1     -35.657   5.816   4.496  1.00 20.00    -0.277 OA
HETATM    9 CL9  UNL     1     -33.820   3.951   4.056  1.00 20.00    -0.041 Cl
ENDBRANCH   5   7
TORSDOF 1
ENDMDL
MODEL 2
REMARK VINA RESULT:      -1.9      1.051      1.705
REMARK  1 active torsions:
REMARK  status: ('A' for Active; 'I' for Inactive)
REMARK    1  A    between atoms: C3_3  and  C6_6 
ROOT
HETATM    1  C1  UNL     1     -31.922   7.947   1.623  1.00 20.00    -0.003 C 
HETATM    2  C2  UNL     1     -32.671   8.373   2.648  1.00 20.00     0.131 C 
HETATM    3  C4  UNL     1     -31.940   6.519   1.178  1.00 20.00     0.032 C 
HETATM    4  C5  UNL     1     -33.121   5.777   1.802  1.00 20.00     0.045 C 
HETATM    5  C6  UNL     1     -33.275   6.185   3.264  1.00 20.00     0.214 C 
HETATM    6  O8  UNL     1     -33.482   7.592   3.430  1.00 20.00    -0.349 OA
ENDROOT
BRANCH   5   7
HETATM    7  C3  UNL     1     -34.496   5.565   3.861  1.00 20.00     0.248 C 
HETATM    8  O7  UNL     1     -35.554   6.180   3.952  1.00 20.00    -0.277 OA
HETATM    9 CL9  UNL     1     -34.212   3.930   4.377  1.00 20.00    -0.041 Cl
ENDBRANCH   5   7
TORSDOF 1
ENDMDL
MODEL 3
REMARK VINA RESULT:      -1.6      1.520      1.627
REMARK  1 active torsions:
REMARK  status: ('A' for Active; 'I' for Inactive)
REMARK    1  A    between atoms: C3_3  and  C6_6 
ROOT
HETATM    1  C1  UNL     1     -31.839   6.632   0.920  1.00 20.00    -0.003 C 
HETATM    2  C2  UNL     1     -32.656   5.706   1.438  1.00 20.00     0.131 C 
HETATM    3  C4  UNL     1     -31.755   8.012   1.490  1.00 20.00     0.032 C 
HETATM    4  C5  UNL     1     -32.429   8.070   2.859  1.00 20.00     0.045 C 
HETATM    5  C6  UNL     1     -33.727   7.269   2.832  1.00 20.00     0.214 C 
HETATM    6  O8  UNL     1     -33.527   5.896   2.480  1.00 20.00    -0.349 OA
ENDROOT
BRANCH   5   7
HETATM    7  C3  UNL     1     -34.342   7.212   4.191  1.00 20.00     0.248 C 
HETATM    8  O7  UNL     1     -34.044   8.015   5.070  1.00 20.00    -0.277 OA
HETATM    9 CL9  UNL     1     -35.484   5.909   4.337  1.00 20.00    -0.041 Cl
ENDBRANCH   5   7
TORSDOF 1
ENDMDL
MODEL 4
REMARK VINA RESULT:      -1.3      1.851      2.273
REMARK  1 active torsions:
REMARK  status: ('A' for Active; 'I' for Inactive)
REMARK    1  A    between atoms: C3_3  and  C6_6 
ROOT
HETATM    1  C1  UNL     1     -31.702   6.924   0.940  1.00 20.00    -0.003 C 
HETATM    2  C2  UNL     1     -31.901   8.045   1.645  1.00 20.00     0.131 C 
HETATM    3  C4  UNL     1     -32.390   5.643   1.293  1.00 20.00     0.032 C 
HETATM    4  C5  UNL     1     -33.527   5.899   2.280  1.00 20.00     0.045 C 
HETATM    5  C6  UNL     1     -33.084   6.911   3.331  1.00 20.00     0.214 C 
HETATM    6  O8  UNL     1     -32.683   8.163   2.765  1.00 20.00    -0.349 OA
ENDROOT
BRANCH   5   7
HETATM    7  C3  UNL     1     -34.219   7.266   4.235  1.00 20.00     0.248 C 
HETATM    8  O7  UNL     1     -34.151   8.213   5.014  1.00 20.00    -0.277 OA
HETATM    9 CL9  UNL     1     -35.577   6.201   4.030  1.00 20.00    -0.041 Cl
ENDBRANCH   5   7
TORSDOF 1
ENDMDL
MODEL 5
REMARK VINA RESULT:      -1.3      2.303      3.849
REMARK  1 active torsions:
REMARK  status: ('A' for Active; 'I' for Inactive)
REMARK    1  A    between atoms: C3_3  and  C6_6 
ROOT
HETATM    1  C1  UNL     1     -35.198   6.194   4.548  1.00 20.00    -0.003 C 
HETATM    2  C2  UNL     1     -34.631   7.295   4.040  1.00 20.00     0.131 C 
HETATM    3  C4  UNL     1     -34.796   4.825   4.098  1.00 20.00     0.032 C 
HETATM    4  C5  UNL     1     -33.497   4.883   3.297  1.00 20.00     0.045 C 
HETATM    5  C6  UNL     1     -33.521   6.084   2.357  1.00 20.00     0.214 C 
HETATM    6  O8  UNL     1     -33.686   7.328   3.047  1.00 20.00    -0.349 OA
ENDROOT
BRANCH   5   7
HETATM    7  C3  UNL     1     -32.212   6.230   1.651  1.00 20.00     0.248 C 
HETATM    8  O7  UNL     1     -31.629   5.265   1.167  1.00 20.00    -0.277 OA
HETATM    9 CL9  UNL     1     -31.669   7.881   1.617  1.00 20.00    -0.041 Cl
ENDBRANCH   5   7
TORSDOF 1
ENDMDL
MODEL 6
REMARK VINA RESULT:      -1.1      2.823      4.162
REMARK  1 active torsions:
REMARK  status: ('A' for Active; 'I' for Inactive)
REMARK    1  A    between atoms: C3_3  and  C6_6 
ROOT
HETATM    1  C1  UNL     1     -34.634   6.201   4.094  1.00 20.00    -0.003 C 
HETATM    2  C2  UNL     1     -34.233   7.473   4.217  1.00 20.00     0.131 C 
HETATM    3  C4  UNL     1     -34.154   5.332   2.976  1.00 20.00     0.032 C 
HETATM    4  C5  UNL     1     -32.960   5.973   2.272  1.00 20.00     0.045 C 
HETATM    5  C6  UNL     1     -33.199   7.470   2.104  1.00 20.00     0.214 C 
HETATM    6  O8  UNL     1     -33.408   8.143   3.350  1.00 20.00    -0.349 OA
ENDROOT
BRANCH   5   7
HETATM    7  C3  UNL     1     -31.994   8.137   1.527  1.00 20.00     0.248 C 
HETATM    8  O7  UNL     1     -30.859   7.727   1.753  1.00 20.00    -0.277 OA
HETATM    9 CL9  UNL     1     -32.414   9.504   0.539  1.00 20.00    -0.041 Cl
ENDBRANCH   5   7
TORSDOF 1
ENDMDL
MODEL 7
REMARK VINA RESULT:      -1.1      2.271      3.675
REMARK  1 active torsions:
REMARK  status: ('A' for Active; 'I' for Inactive)
REMARK    1  A    between atoms: C3_3  and  C6_6 
ROOT
HETATM    1  C1  UNL     1     -35.162   4.995   4.570  1.00 20.00    -0.003 C 
HETATM    2  C2  UNL     1     -34.187   4.266   4.012  1.00 20.00     0.131 C 
HETATM    3  C4  UNL     1     -35.346   6.442   4.243  1.00 20.00     0.032 C 
HETATM    4  C5  UNL     1     -34.533   6.821   3.006  1.00 20.00     0.045 C 
HETATM    5  C6  UNL     1     -33.160   6.159   3.066  1.00 20.00     0.214 C 
HETATM    6  O8  UNL     1     -33.233   4.731   3.144  1.00 20.00    -0.349 OA
ENDROOT
BRANCH   5   7
HETATM    7  C3  UNL     1     -32.392   6.417   1.811  1.00 20.00     0.248 C 
HETATM    8  O7  UNL     1     -32.040   5.503   1.071  1.00 20.00    -0.277 OA
HETATM    9 CL9  UNL     1     -32.091   8.111   1.566  1.00 20.00    -0.041 Cl
ENDBRANCH   5   7
TORSDOF 1
ENDMDL
MODEL 8
REMARK VINA RESULT:      -1.1      2.087      3.688
REMARK  1 active torsions:
REMARK  status: ('A' for Active; 'I' for Inactive)
REMARK    1  A    between atoms: C3_3  and  C6_6 
ROOT
HETATM    1  C1  UNL     1     -35.070   6.508   4.525  1.00 20.00    -0.003 C 
HETATM    2  C2  UNL     1     -34.382   7.597   4.159  1.00 20.00     0.131 C 
HETATM    3  C4  UNL     1     -34.828   5.177   3.887  1.00 20.00     0.032 C 
HETATM    4  C5  UNL     1     -33.532   5.196   3.079  1.00 20.00     0.045 C 
HETATM    5  C6  UNL     1     -33.421   6.508   2.309  1.00 20.00     0.214 C 
HETATM    6  O8  UNL     1     -33.442   7.657   3.163  1.00 20.00    -0.349 OA
ENDROOT
BRANCH   5   7
HETATM    7  C3  UNL     1     -32.106   6.600   1.607  1.00 20.00     0.248 C 
HETATM    8  O7  UNL     1     -31.481   7.655   1.543  1.00 20.00    -0.277 OA
HETATM    9 CL9  UNL     1     -31.617   5.074   0.933  1.00 20.00    -0.041 Cl
ENDBRANCH   5   7
TORSDOF 1
ENDMDL
MODEL 9
REMARK VINA RESULT:      -0.8      2.931      4.090
REMARK  1 active torsions:
REMARK  status: ('A' for Active; 'I' for Inactive)
REMARK    1  A    between atoms: C3_3  and  C6_6 
ROOT
HETATM    1  C1  UNL     1     -33.915   6.039   3.354  1.00 20.00    -0.003 C 
HETATM    2  C2  UNL     1     -33.254   5.750   2.226  1.00 20.00     0.131 C 
HETATM    3  C4  UNL     1     -33.992   7.435   3.883  1.00 20.00     0.032 C 
HETATM    4  C5  UNL     1     -33.536   8.437   2.824  1.00 20.00     0.045 C 
HETATM    5  C6  UNL     1     -32.308   7.899   2.097  1.00 20.00     0.214 C 
HETATM    6  O8  UNL     1     -32.544   6.639   1.461  1.00 20.00    -0.349 OA
ENDROOT
BRANCH   5   7
HETATM    7  C3  UNL     1     -31.917   8.806   0.976  1.00 20.00     0.248 C 
HETATM    8  O7  UNL     1     -31.015   8.515   0.196  1.00 20.00    -0.277 OA
HETATM    9 CL9  UNL     1     -32.878  10.254   0.941  1.00 20.00    -0.041 Cl
ENDBRANCH   5   7
TORSDOF 1
ENDMDL
