MODEL 1
REMARK VINA RESULT:      -1.6      0.000      0.000
REMARK  3 active torsions:
REMARK  status: ('A' for Active; 'I' for Inactive)
REMARK    1  A    between atoms: C7_7  and  C8_8 
REMARK    2  A    between atoms: C8_8  and  N10_10 
REMARK    3  A    between atoms: C9_9  and  N10_10 
ROOT
HETATM    1  C1  UNL     1     -33.821   3.969   4.214  1.00 20.00     0.015 C 
HETATM    2  C2  UNL     1     -34.014   5.110   3.894  1.00 20.00    -0.076 C 
HETATM    3  C4  UNL     1     -35.751   6.737   3.275  1.00 20.00     0.063 C 
HETATM    4  C5  UNL     1     -33.747   7.453   4.603  1.00 20.00     0.063 C 
HETATM    5  C9  UNL     1     -34.252   6.515   3.502  1.00 20.00     0.213 C 
ENDROOT
BRANCH   5   6
HETATM    6  N10 UNL     1     -33.532   6.790   2.274  1.00 20.00     0.104 N 
HETATM    7  C6  UNL     1     -32.843   5.589   1.790  1.00 20.00     0.312 C 
BRANCH   6   8
HETATM    8  C8  UNL     1     -32.566   7.879   2.465  1.00 20.00     0.273 C 
BRANCH   8   9
HETATM    9  C7  UNL     1     -31.844   8.247   1.175  1.00 20.00     0.026 C 
HETATM   10  C3  UNL     1     -32.362   9.539   0.560  1.00 20.00     0.007 C 
ENDBRANCH   8   9
ENDBRANCH   6   8
ENDBRANCH   5   6
TORSDOF 3
ENDMDL
MODEL 2
REMARK VINA RESULT:      -1.2      1.128      4.480
REMARK  3 active torsions:
REMARK  status: ('A' for Active; 'I' for Inactive)
REMARK    1  A    between atoms: C7_7  and  C8_8 
REMARK    2  A    between atoms: C8_8  and  N10_10 
REMARK    3  A    between atoms: C9_9  and  N10_10 
ROOT
HETATM    1  C1  UNL     1     -32.584   9.863   0.180  1.00 20.00     0.015 C 
HETATM    2  C2  UNL     1     -32.407   9.008   1.004  1.00 20.00    -0.076 C 
HETATM    3  C4  UNL     1     -32.017   6.601   1.321  1.00 20.00     0.063 C 
HETATM    4  C5  UNL     1     -30.940   8.280   2.842  1.00 20.00     0.063 C 
HETATM    5  C9  UNL     1     -32.190   7.955   2.018  1.00 20.00     0.213 C 
ENDROOT
BRANCH   5   6
HETATM    6  N10 UNL     1     -33.341   7.902   2.897  1.00 20.00     0.104 N 
HETATM    7  C6  UNL     1     -32.978   8.307   4.260  1.00 20.00     0.312 C 
BRANCH   6   8
HETATM    8  C8  UNL     1     -33.926   6.557   2.914  1.00 20.00     0.273 C 
BRANCH   8   9
HETATM    9  C7  UNL     1     -35.018   6.412   3.968  1.00 20.00     0.026 C 
HETATM   10  C3  UNL     1     -35.165   4.982   4.469  1.00 20.00     0.007 C 
ENDBRANCH   8   9
ENDBRANCH   6   8
ENDBRANCH   5   6
TORSDOF 3
ENDMDL
MODEL 3
REMARK VINA RESULT:      -0.9      0.456      1.989
REMARK  3 active torsions:
REMARK  status: ('A' for Active; 'I' for Inactive)
REMARK    1  A    between atoms: C7_7  and  C8_8 
REMARK    2  A    between atoms: C8_8  and  N10_10 
REMARK    3  A    between atoms: C9_9  and  N10_10 
ROOT
HETATM    1  C1  UNL     1     -33.148   8.306   5.223  1.00 20.00     0.015 C 
HETATM    2  C2  UNL     1     -33.558   7.532   4.402  1.00 20.00    -0.076 C 
HETATM    3  C4  UNL     1     -33.735   5.148   3.829  1.00 20.00     0.063 C 
HETATM    4  C5  UNL     1     -35.579   6.742   3.238  1.00 20.00     0.063 C 
HETATM    5  C9  UNL     1     -34.063   6.579   3.392  1.00 20.00     0.213 C 
ENDROOT
BRANCH   5   6
HETATM    6  N10 UNL     1     -33.423   6.855   2.121  1.00 20.00     0.104 N 
HETATM    7  C6  UNL     1     -32.826   5.638   1.561  1.00 20.00     0.312 C 
BRANCH   6   8
HETATM    8  C8  UNL     1     -32.399   7.896   2.264  1.00 20.00     0.273 C 
BRANCH   8   9
HETATM    9  C7  UNL     1     -31.857   8.366   0.920  1.00 20.00     0.026 C 
HETATM   10  C3  UNL     1     -32.453   9.694   0.478  1.00 20.00     0.007 C 
ENDBRANCH   8   9
ENDBRANCH   6   8
ENDBRANCH   5   6
TORSDOF 3
ENDMDL
MODEL 4
REMARK VINA RESULT:      -0.3      1.091      4.017
REMARK  3 active torsions:
REMARK  status: ('A' for Active; 'I' for Inactive)
REMARK    1  A    between atoms: C7_7  and  C8_8 
REMARK    2  A    between atoms: C8_8  and  N10_10 
REMARK    3  A    between atoms: C9_9  and  N10_10 
ROOT
HETATM    1  C1  UNL     1     -31.940   5.439   1.085  1.00 20.00     0.015 C 
HETATM    2  C2  UNL     1     -32.095   6.543   1.531  1.00 20.00    -0.076 C 
HETATM    3  C4  UNL     1     -31.027   8.326   2.844  1.00 20.00     0.063 C 
HETATM    4  C5  UNL     1     -32.558   8.888   0.937  1.00 20.00     0.063 C 
HETATM    5  C9  UNL     1     -32.285   7.902   2.078  1.00 20.00     0.213 C 
ENDROOT
BRANCH   5   6
HETATM    6  N10 UNL     1     -33.419   7.893   2.981  1.00 20.00     0.104 N 
HETATM    7  C6  UNL     1     -32.982   8.052   4.373  1.00 20.00     0.312 C 
BRANCH   6   8
HETATM    8  C8  UNL     1     -34.193   6.655   2.838  1.00 20.00     0.273 C 
BRANCH   8   9
HETATM    9  C7  UNL     1     -35.038   6.352   4.070  1.00 20.00     0.026 C 
HETATM   10  C3  UNL     1     -34.983   4.886   4.475  1.00 20.00     0.007 C 
ENDBRANCH   8   9
ENDBRANCH   6   8
ENDBRANCH   5   6
TORSDOF 3
ENDMDL
MODEL 5
REMARK VINA RESULT:      -0.2      1.099      4.468
REMARK  3 active torsions:
REMARK  status: ('A' for Active; 'I' for Inactive)
REMARK    1  A    between atoms: C7_7  and  C8_8 
REMARK    2  A    between atoms: C8_8  and  N10_10 
REMARK    3  A    between atoms: C9_9  and  N10_10 
ROOT
HETATM    1  C1  UNL     1     -31.773   8.459   1.864  1.00 20.00     0.015 C 
HETATM    2  C2  UNL     1     -32.285   7.380   1.737  1.00 20.00    -0.076 C 
HETATM    3  C4  UNL     1     -33.805   6.053   0.332  1.00 20.00     0.063 C 
HETATM    4  C5  UNL     1     -31.833   4.977   1.448  1.00 20.00     0.063 C 
HETATM    5  C9  UNL     1     -32.915   6.053   1.580  1.00 20.00     0.213 C 
ENDROOT
BRANCH   5   6
HETATM    6  N10 UNL     1     -33.725   5.774   2.750  1.00 20.00     0.104 N 
HETATM    7  C6  UNL     1     -34.094   7.015   3.440  1.00 20.00     0.312 C 
BRANCH   6   8
HETATM    8  C8  UNL     1     -33.021   4.877   3.673  1.00 20.00     0.273 C 
BRANCH   8   9
HETATM    9  C7  UNL     1     -33.933   3.800   4.246  1.00 20.00     0.026 C 
HETATM   10  C3  UNL     1     -33.162   2.671   4.915  1.00 20.00     0.007 C 
ENDBRANCH   8   9
ENDBRANCH   6   8
ENDBRANCH   5   6
TORSDOF 3
ENDMDL
MODEL 6
REMARK VINA RESULT:      -0.2      0.880      4.129
REMARK  3 active torsions:
REMARK  status: ('A' for Active; 'I' for Inactive)
REMARK    1  A    between atoms: C7_7  and  C8_8 
REMARK    2  A    between atoms: C8_8  and  N10_10 
REMARK    3  A    between atoms: C9_9  and  N10_10 
ROOT
HETATM    1  C1  UNL     1     -32.217   8.502   1.478  1.00 20.00     0.015 C 
HETATM    2  C2  UNL     1     -32.821   7.905   2.327  1.00 20.00    -0.076 C 
HETATM    3  C4  UNL     1     -33.211   7.741   4.748  1.00 20.00     0.063 C 
HETATM    4  C5  UNL     1     -35.072   7.304   3.125  1.00 20.00     0.063 C 
HETATM    5  C9  UNL     1     -33.565   7.172   3.371  1.00 20.00     0.213 C 
ENDROOT
BRANCH   5   6
HETATM    6  N10 UNL     1     -33.196   5.771   3.318  1.00 20.00     0.104 N 
HETATM    7  C6  UNL     1     -33.030   5.325   1.931  1.00 20.00     0.312 C 
BRANCH   6   8
HETATM    8  C8  UNL     1     -34.196   4.938   3.995  1.00 20.00     0.273 C 
BRANCH   8   9
HETATM    9  C7  UNL     1     -33.811   3.464   4.012  1.00 20.00     0.026 C 
HETATM   10  C3  UNL     1     -32.892   3.109   5.172  1.00 20.00     0.007 C 
ENDBRANCH   8   9
ENDBRANCH   6   8
ENDBRANCH   5   6
TORSDOF 3
ENDMDL
MODEL 7
REMARK VINA RESULT:      -0.2      1.356      2.728
REMARK  3 active torsions:
REMARK  status: ('A' for Active; 'I' for Inactive)
REMARK    1  A    between atoms: C7_7  and  C8_8 
REMARK    2  A    between atoms: C8_8  and  N10_10 
REMARK    3  A    between atoms: C9_9  and  N10_10 
ROOT
HETATM    1  C1  UNL     1     -34.527   6.486   3.766  1.00 20.00     0.015 C 
HETATM    2  C2  UNL     1     -33.746   6.421   2.856  1.00 20.00    -0.076 C 
HETATM    3  C4  UNL     1     -31.992   5.035   1.834  1.00 20.00     0.063 C 
HETATM    4  C5  UNL     1     -33.540   6.393   0.402  1.00 20.00     0.063 C 
HETATM    5  C9  UNL     1     -32.787   6.341   1.735  1.00 20.00     0.213 C 
ENDROOT
BRANCH   5   6
HETATM    6  N10 UNL     1     -31.876   7.466   1.812  1.00 20.00     0.104 N 
HETATM    7  C6  UNL     1     -32.222   8.344   2.935  1.00 20.00     0.312 C 
BRANCH   6   8
HETATM    8  C8  UNL     1     -31.881   8.231   0.560  1.00 20.00     0.273 C 
BRANCH   8   9
HETATM    9  C7  UNL     1     -32.296   9.682   0.767  1.00 20.00     0.026 C 
HETATM   10  C3  UNL     1     -32.847  10.323  -0.499  1.00 20.00     0.007 C 
ENDBRANCH   8   9
ENDBRANCH   6   8
ENDBRANCH   5   6
TORSDOF 3
ENDMDL
MODEL 8
REMARK VINA RESULT:      -0.2      0.863      1.687
REMARK  3 active torsions:
REMARK  status: ('A' for Active; 'I' for Inactive)
REMARK    1  A    between atoms: C7_7  and  C8_8 
REMARK    2  A    between atoms: C8_8  and  N10_10 
REMARK    3  A    between atoms: C9_9  and  N10_10 
ROOT
HETATM    1  C1  UNL     1     -33.537   3.523   4.468  1.00 20.00     0.015 C 
HETATM    2  C2  UNL     1     -33.771   4.539   3.871  1.00 20.00    -0.076 C 
HETATM    3  C4  UNL     1     -34.072   5.506   1.631  1.00 20.00     0.063 C 
HETATM    4  C5  UNL     1     -35.419   6.344   3.574  1.00 20.00     0.063 C 
HETATM    5  C9  UNL     1     -34.060   5.788   3.137  1.00 20.00     0.213 C 
ENDROOT
BRANCH   5   6
HETATM    6  N10 UNL     1     -33.028   6.761   3.438  1.00 20.00     0.104 N 
HETATM    7  C6  UNL     1     -33.603   7.958   4.062  1.00 20.00     0.312 C 
BRANCH   6   8
HETATM    8  C8  UNL     1     -32.290   7.134   2.226  1.00 20.00     0.273 C 
BRANCH   8   9
HETATM    9  C7  UNL     1     -32.065   8.637   2.123  1.00 20.00     0.026 C 
HETATM   10  C3  UNL     1     -32.291   9.170   0.715  1.00 20.00     0.007 C 
ENDBRANCH   8   9
ENDBRANCH   6   8
ENDBRANCH   5   6
TORSDOF 3
ENDMDL
MODEL 9
REMARK VINA RESULT:      -0.2      0.538      1.904
REMARK  3 active torsions:
REMARK  status: ('A' for Active; 'I' for Inactive)
REMARK    1  A    between atoms: C7_7  and  C8_8 
REMARK    2  A    between atoms: C8_8  and  N10_10 
REMARK    3  A    between atoms: C9_9  and  N10_10 
ROOT
HETATM    1  C1  UNL     1     -36.561   6.838   3.058  1.00 20.00     0.015 C 
HETATM    2  C2  UNL     1     -35.373   6.723   3.189  1.00 20.00    -0.076 C 
HETATM    3  C4  UNL     1     -33.416   7.562   4.418  1.00 20.00     0.063 C 
HETATM    4  C5  UNL     1     -33.572   5.146   3.763  1.00 20.00     0.063 C 
HETATM    5  C9  UNL     1     -33.911   6.582   3.350  1.00 20.00     0.213 C 
ENDROOT
BRANCH   5   6
HETATM    6  N10 UNL     1     -33.266   6.879   2.086  1.00 20.00     0.104 N 
HETATM    7  C6  UNL     1     -32.613   5.685   1.538  1.00 20.00     0.312 C 
BRANCH   6   8
HETATM    8  C8  UNL     1     -32.286   7.960   2.239  1.00 20.00     0.273 C 
BRANCH   8   9
HETATM    9  C7  UNL     1     -31.778   8.478   0.899  1.00 20.00     0.026 C 
HETATM   10  C3  UNL     1     -32.504   9.734   0.440  1.00 20.00     0.007 C 
ENDBRANCH   8   9
ENDBRANCH   6   8
ENDBRANCH   5   6
TORSDOF 3
ENDMDL
