MODEL 1
REMARK VINA RESULT:      -2.3      0.000      0.000
REMARK  1 active torsions:
REMARK  status: ('A' for Active; 'I' for Inactive)
REMARK    1  A    between atoms: C1_1  and  C6_6 
ROOT
HETATM    1  C2  UNL     1     -34.192   7.253   3.827  1.00 20.00     0.019 C 
HETATM    2  C3  UNL     1     -33.311   5.588   2.123  1.00 20.00     0.019 C 
HETATM    3  C4  UNL     1     -33.837   8.282   2.749  1.00 20.00     0.080 C 
HETATM    4  C5  UNL     1     -32.416   6.634   1.454  1.00 20.00     0.080 C 
HETATM    5  C6  UNL     1     -33.544   5.880   3.603  1.00 20.00     0.072 C 
HETATM    6  C7  UNL     1     -32.484   7.997   2.127  1.00 20.00     0.243 C 
HETATM    7  F9  UNL     1     -31.533   8.067   3.096  1.00 20.00    -0.206 F 
HETATM    8  F10 UNL     1     -32.178   8.962   1.225  1.00 20.00    -0.206 F 
ENDROOT
BRANCH   5   9
HETATM    9  C1  UNL     1     -34.407   4.805   4.191  1.00 20.00     0.223 C 
HETATM   10  O8  UNL     1     -35.580   5.011   4.491  1.00 20.00    -0.279 OA
HETATM   11 CL11 UNL     1     -33.549   3.305   4.376  1.00 20.00    -0.043 Cl
ENDBRANCH   5   9
TORSDOF 1
ENDMDL
MODEL 2
REMARK VINA RESULT:      -2.2      3.634      4.316
REMARK  1 active torsions:
REMARK  status: ('A' for Active; 'I' for Inactive)
REMARK    1  A    between atoms: C1_1  and  C6_6 
ROOT
HETATM    1  C2  UNL     1     -33.576   8.191   3.535  1.00 20.00     0.019 C 
HETATM    2  C3  UNL     1     -32.979   5.997   2.403  1.00 20.00     0.019 C 
HETATM    3  C4  UNL     1     -34.231   7.278   4.575  1.00 20.00     0.080 C 
HETATM    4  C5  UNL     1     -34.155   5.259   3.048  1.00 20.00     0.080 C 
HETATM    5  C6  UNL     1     -33.258   7.486   2.210  1.00 20.00     0.072 C 
HETATM    6  C7  UNL     1     -35.018   6.159   3.921  1.00 20.00     0.243 C 
HETATM    7  F9  UNL     1     -36.008   6.703   3.165  1.00 20.00    -0.206 F 
HETATM    8  F10 UNL     1     -35.633   5.411   4.870  1.00 20.00    -0.206 F 
ENDROOT
BRANCH   5   9
HETATM    9  C1  UNL     1     -32.075   8.132   1.556  1.00 20.00     0.223 C 
HETATM   10  O8  UNL     1     -30.941   7.678   1.682  1.00 20.00    -0.279 OA
HETATM   11 CL11 UNL     1     -32.520   9.542   0.644  1.00 20.00    -0.043 Cl
ENDBRANCH   5   9
TORSDOF 1
ENDMDL
MODEL 3
REMARK VINA RESULT:      -1.9      1.180      1.972
REMARK  1 active torsions:
REMARK  status: ('A' for Active; 'I' for Inactive)
REMARK    1  A    between atoms: C1_1  and  C6_6 
ROOT
HETATM    1  C2  UNL     1     -33.123   5.654   1.949  1.00 20.00     0.019 C 
HETATM    2  C3  UNL     1     -33.087   7.485   3.708  1.00 20.00     0.019 C 
HETATM    3  C4  UNL     1     -31.863   6.358   1.437  1.00 20.00     0.080 C 
HETATM    4  C5  UNL     1     -32.313   8.444   2.800  1.00 20.00     0.080 C 
HETATM    5  C6  UNL     1     -33.952   6.505   2.920  1.00 20.00     0.072 C 
HETATM    6  C7  UNL     1     -32.031   7.865   1.421  1.00 20.00     0.243 C 
HETATM    7  F9  UNL     1     -33.053   8.184   0.583  1.00 20.00    -0.206 F 
HETATM    8  F10 UNL     1     -30.921   8.448   0.905  1.00 20.00    -0.206 F 
ENDROOT
BRANCH   5   9
HETATM    9  C1  UNL     1     -34.692   5.617   3.875  1.00 20.00     0.223 C 
HETATM   10  O8  UNL     1     -35.712   5.994   4.446  1.00 20.00    -0.279 OA
HETATM   11 CL11 UNL     1     -33.936   4.063   4.043  1.00 20.00    -0.043 Cl
ENDBRANCH   5   9
TORSDOF 1
ENDMDL
MODEL 4
REMARK VINA RESULT:      -1.4      3.357      4.085
REMARK  1 active torsions:
REMARK  status: ('A' for Active; 'I' for Inactive)
REMARK    1  A    between atoms: C1_1  and  C6_6 
ROOT
HETATM    1  C2  UNL     1     -33.531   7.553   3.090  1.00 20.00     0.019 C 
HETATM    2  C3  UNL     1     -33.288   5.025   3.098  1.00 20.00     0.019 C 
HETATM    3  C4  UNL     1     -34.288   7.312   4.399  1.00 20.00     0.080 C 
HETATM    4  C5  UNL     1     -34.543   4.832   3.952  1.00 20.00     0.080 C 
HETATM    5  C6  UNL     1     -33.351   6.287   2.241  1.00 20.00     0.072 C 
HETATM    6  C7  UNL     1     -35.245   6.141   4.286  1.00 20.00     0.243 C 
HETATM    7  F9  UNL     1     -36.163   6.417   3.322  1.00 20.00    -0.206 F 
HETATM    8  F10 UNL     1     -35.940   5.998   5.441  1.00 20.00    -0.206 F 
ENDROOT
BRANCH   5   9
HETATM    9  C1  UNL     1     -32.102   6.394   1.420  1.00 20.00     0.223 C 
HETATM   10  O8  UNL     1     -31.538   5.400   0.972  1.00 20.00    -0.279 OA
HETATM   11 CL11 UNL     1     -31.598   8.043   1.209  1.00 20.00    -0.043 Cl
ENDBRANCH   5   9
TORSDOF 1
ENDMDL
MODEL 5
REMARK VINA RESULT:      -1.1      3.432      4.159
REMARK  1 active torsions:
REMARK  status: ('A' for Active; 'I' for Inactive)
REMARK    1  A    between atoms: C1_1  and  C6_6 
ROOT
HETATM    1  C2  UNL     1     -33.731   8.231   3.563  1.00 20.00     0.019 C 
HETATM    2  C3  UNL     1     -33.054   6.103   2.353  1.00 20.00     0.019 C 
HETATM    3  C4  UNL     1     -34.284   7.257   4.607  1.00 20.00     0.080 C 
HETATM    4  C5  UNL     1     -34.154   5.281   3.029  1.00 20.00     0.080 C 
HETATM    5  C6  UNL     1     -33.430   7.575   2.209  1.00 20.00     0.072 C 
HETATM    6  C7  UNL     1     -35.031   6.107   3.960  1.00 20.00     0.243 C 
HETATM    7  F9  UNL     1     -36.084   6.606   3.260  1.00 20.00    -0.206 F 
HETATM    8  F10 UNL     1     -35.558   5.301   4.915  1.00 20.00    -0.206 F 
ENDROOT
BRANCH   5   9
HETATM    9  C1  UNL     1     -32.317   8.307   1.522  1.00 20.00     0.223 C 
HETATM   10  O8  UNL     1     -32.500   9.389   0.972  1.00 20.00    -0.279 OA
HETATM   11 CL11 UNL     1     -30.811   7.444   1.615  1.00 20.00    -0.043 Cl
ENDBRANCH   5   9
TORSDOF 1
ENDMDL
MODEL 6
REMARK VINA RESULT:      -0.1      2.755      3.436
REMARK  1 active torsions:
REMARK  status: ('A' for Active; 'I' for Inactive)
REMARK    1  A    between atoms: C1_1  and  C6_6 
ROOT
HETATM    1  C2  UNL     1     -32.354   7.339   2.217  1.00 20.00     0.019 C 
HETATM    2  C3  UNL     1     -33.730   5.387   3.081  1.00 20.00     0.019 C 
HETATM    3  C4  UNL     1     -32.603   7.911   3.616  1.00 20.00     0.080 C 
HETATM    4  C5  UNL     1     -34.459   6.259   4.107  1.00 20.00     0.080 C 
HETATM    5  C6  UNL     1     -33.288   6.177   1.852  1.00 20.00     0.072 C 
HETATM    6  C7  UNL     1     -34.044   7.722   4.050  1.00 20.00     0.243 C 
HETATM    7  F9  UNL     1     -34.853   8.384   3.181  1.00 20.00    -0.206 F 
HETATM    8  F10 UNL     1     -34.240   8.295   5.263  1.00 20.00    -0.206 F 
ENDROOT
BRANCH   5   9
HETATM    9  C1  UNL     1     -32.605   5.255   0.888  1.00 20.00     0.223 C 
HETATM   10  O8  UNL     1     -31.394   5.056   0.933  1.00 20.00    -0.279 OA
HETATM   11 CL11 UNL     1     -33.720   4.546  -0.240  1.00 20.00    -0.043 Cl
ENDBRANCH   5   9
TORSDOF 1
ENDMDL
MODEL 7
REMARK VINA RESULT:      -0.0      3.589      4.342
REMARK  1 active torsions:
REMARK  status: ('A' for Active; 'I' for Inactive)
REMARK    1  A    between atoms: C1_1  and  C6_6 
ROOT
HETATM    1  C2  UNL     1     -33.204   8.507   3.104  1.00 20.00     0.019 C 
HETATM    2  C3  UNL     1     -32.471   6.741   1.433  1.00 20.00     0.019 C 
HETATM    3  C4  UNL     1     -33.355   7.308   4.044  1.00 20.00     0.080 C 
HETATM    4  C5  UNL     1     -33.253   5.636   2.146  1.00 20.00     0.080 C 
HETATM    5  C6  UNL     1     -33.100   8.119   1.623  1.00 20.00     0.072 C 
HETATM    6  C7  UNL     1     -34.029   6.138   3.355  1.00 20.00     0.243 C 
HETATM    7  F9  UNL     1     -35.274   6.517   2.963  1.00 20.00    -0.206 F 
HETATM    8  F10 UNL     1     -34.202   5.120   4.234  1.00 20.00    -0.206 F 
ENDROOT
BRANCH   5   9
HETATM    9  C1  UNL     1     -32.294   9.141   0.881  1.00 20.00     0.223 C 
HETATM   10  O8  UNL     1     -32.643  10.316   0.819  1.00 20.00    -0.279 OA
HETATM   11 CL11 UNL     1     -30.870   8.453   0.161  1.00 20.00    -0.043 Cl
ENDBRANCH   5   9
TORSDOF 1
ENDMDL
MODEL 8
REMARK VINA RESULT:       0.0      2.512      3.093
REMARK  1 active torsions:
REMARK  status: ('A' for Active; 'I' for Inactive)
REMARK    1  A    between atoms: C1_1  and  C6_6 
ROOT
HETATM    1  C2  UNL     1     -33.511   4.878   3.124  1.00 20.00     0.019 C 
HETATM    2  C3  UNL     1     -32.811   7.249   2.539  1.00 20.00     0.019 C 
HETATM    3  C4  UNL     1     -32.271   4.495   2.312  1.00 20.00     0.080 C 
HETATM    4  C5  UNL     1     -32.071   6.798   1.277  1.00 20.00     0.080 C 
HETATM    5  C6  UNL     1     -33.972   6.325   2.897  1.00 20.00     0.072 C 
HETATM    6  C7  UNL     1     -32.170   5.299   1.030  1.00 20.00     0.243 C 
HETATM    7  F9  UNL     1     -33.262   5.041   0.264  1.00 20.00    -0.206 F 
HETATM    8  F10 UNL     1     -31.096   4.889   0.310  1.00 20.00    -0.206 F 
ENDROOT
BRANCH   5   9
HETATM    9  C1  UNL     1     -34.657   6.842   4.126  1.00 20.00     0.223 C 
HETATM   10  O8  UNL     1     -35.696   6.340   4.544  1.00 20.00    -0.279 OA
HETATM   11 CL11 UNL     1     -33.810   8.185   4.831  1.00 20.00    -0.043 Cl
ENDBRANCH   5   9
TORSDOF 1
ENDMDL
MODEL 9
REMARK VINA RESULT:       0.1      2.578      3.298
REMARK  1 active torsions:
REMARK  status: ('A' for Active; 'I' for Inactive)
REMARK    1  A    between atoms: C1_1  and  C6_6 
ROOT
HETATM    1  C2  UNL     1     -32.433   7.297   2.151  1.00 20.00     0.019 C 
HETATM    2  C3  UNL     1     -33.873   5.423   3.082  1.00 20.00     0.019 C 
HETATM    3  C4  UNL     1     -32.574   7.874   3.562  1.00 20.00     0.080 C 
HETATM    4  C5  UNL     1     -34.494   6.330   4.148  1.00 20.00     0.080 C 
HETATM    5  C6  UNL     1     -33.451   6.193   1.833  1.00 20.00     0.072 C 
HETATM    6  C7  UNL     1     -33.998   7.767   4.072  1.00 20.00     0.243 C 
HETATM    7  F9  UNL     1     -34.813   8.480   3.250  1.00 20.00    -0.206 F 
HETATM    8  F10 UNL     1     -34.097   8.343   5.295  1.00 20.00    -0.206 F 
ENDROOT
BRANCH   5   9
HETATM    9  C1  UNL     1     -32.875   5.239   0.832  1.00 20.00     0.223 C 
HETATM   10  O8  UNL     1     -33.553   4.776  -0.081  1.00 20.00    -0.279 OA
HETATM   11 CL11 UNL     1     -31.198   4.903   1.137  1.00 20.00    -0.043 Cl
ENDBRANCH   5   9
TORSDOF 1
ENDMDL
