MODEL 1
REMARK VINA RESULT:       0.5      0.000      0.000
REMARK  1 active torsions:
REMARK  status: ('A' for Active; 'I' for Inactive)
REMARK    1  A    between atoms: C6_6  and  C7_7 
ROOT
HETATM    1  C1  UNL     1     -32.533   5.513   1.080  1.00 20.00    -0.003 C 
HETATM    2  C2  UNL     1     -33.087   4.843   2.252  1.00 20.00     0.015 C 
HETATM    3  C3  UNL     1     -34.136   6.820   3.208  1.00 20.00     0.011 C 
HETATM    4  C4  UNL     1     -31.859   6.670   0.936  1.00 20.00    -0.026 C 
HETATM    5  C5  UNL     1     -33.117   7.574   3.652  1.00 20.00    -0.021 C 
HETATM    6  C6  UNL     1     -33.876   5.396   3.194  1.00 20.00     0.009 C 
HETATM    7  C8  UNL     1     -31.361   7.684   1.948  1.00 20.00     0.035 C 
HETATM    8  C9  UNL     1     -32.408   8.530   2.725  1.00 20.00     0.007 C 
HETATM    9  C11 UNL     1     -33.293   9.365   1.798  1.00 20.00     0.014 C 
ENDROOT
BRANCH   6  10
HETATM   10  C7  UNL     1     -34.414   4.538   4.253  1.00 20.00     0.155 C 
HETATM   11  C10 UNL     1     -33.589   3.356   4.691  1.00 20.00     0.096 C 
HETATM   12  O12 UNL     1     -35.511   4.780   4.757  1.00 20.00    -0.293 OA
ENDBRANCH   6  10
TORSDOF 1
ENDMDL
MODEL 2
REMARK VINA RESULT:       0.7      2.622      4.537
REMARK  1 active torsions:
REMARK  status: ('A' for Active; 'I' for Inactive)
REMARK    1  A    between atoms: C6_6  and  C7_7 
ROOT
HETATM    1  C1  UNL     1     -32.620   5.635   2.044  1.00 20.00    -0.003 C 
HETATM    2  C2  UNL     1     -32.338   6.709   1.096  1.00 20.00     0.015 C 
HETATM    3  C3  UNL     1     -32.331   8.506   2.738  1.00 20.00     0.011 C 
HETATM    4  C4  UNL     1     -33.515   5.528   3.045  1.00 20.00    -0.026 C 
HETATM    5  C5  UNL     1     -33.617   8.652   3.098  1.00 20.00    -0.021 C 
HETATM    6  C6  UNL     1     -32.131   8.008   1.393  1.00 20.00     0.009 C 
HETATM    7  C8  UNL     1     -34.613   6.456   3.525  1.00 20.00     0.035 C 
HETATM    8  C9  UNL     1     -34.208   7.800   4.194  1.00 20.00     0.007 C 
HETATM    9  C11 UNL     1     -33.347   7.599   5.442  1.00 20.00     0.014 C 
ENDROOT
BRANCH   6  10
HETATM   10  C7  UNL     1     -31.767   8.926   0.312  1.00 20.00     0.155 C 
HETATM   11  C10 UNL     1     -32.637  10.136   0.090  1.00 20.00     0.096 C 
HETATM   12  O12 UNL     1     -30.783   8.702  -0.394  1.00 20.00    -0.293 OA
ENDBRANCH   6  10
TORSDOF 1
ENDMDL
MODEL 3
REMARK VINA RESULT:       2.4      1.685      2.421
REMARK  1 active torsions:
REMARK  status: ('A' for Active; 'I' for Inactive)
REMARK    1  A    between atoms: C6_6  and  C7_7 
ROOT
HETATM    1  C1  UNL     1     -32.763   5.299   1.900  1.00 20.00    -0.003 C 
HETATM    2  C2  UNL     1     -32.603   4.294   2.947  1.00 20.00     0.015 C 
HETATM    3  C3  UNL     1     -34.758   4.683   4.010  1.00 20.00     0.011 C 
HETATM    4  C4  UNL     1     -33.186   6.578   1.934  1.00 20.00    -0.026 C 
HETATM    5  C5  UNL     1     -34.636   5.877   4.614  1.00 20.00    -0.021 C 
HETATM    6  C6  UNL     1     -33.520   3.945   3.871  1.00 20.00     0.009 C 
HETATM    7  C8  UNL     1     -33.592   7.479   3.083  1.00 20.00     0.035 C 
HETATM    8  C9  UNL     1     -34.903   7.152   3.853  1.00 20.00     0.007 C 
HETATM    9  C11 UNL     1     -36.135   7.162   2.946  1.00 20.00     0.014 C 
ENDROOT
BRANCH   6  10
HETATM   10  C7  UNL     1     -33.211   2.844   4.787  1.00 20.00     0.155 C 
HETATM   11  C10 UNL     1     -32.532   3.178   6.090  1.00 20.00     0.096 C 
HETATM   12  O12 UNL     1     -33.494   1.684   4.487  1.00 20.00    -0.293 OA
ENDBRANCH   6  10
TORSDOF 1
ENDMDL
MODEL 4
REMARK VINA RESULT:       2.6      1.409      2.787
REMARK  1 active torsions:
REMARK  status: ('A' for Active; 'I' for Inactive)
REMARK    1  A    between atoms: C6_6  and  C7_7 
ROOT
HETATM    1  C1  UNL     1     -32.385   8.164   3.315  1.00 20.00    -0.003 C 
HETATM    2  C2  UNL     1     -33.723   7.674   3.632  1.00 20.00     0.015 C 
HETATM    3  C3  UNL     1     -33.362   5.403   2.833  1.00 20.00     0.011 C 
HETATM    4  C4  UNL     1     -31.614   8.036   2.218  1.00 20.00    -0.026 C 
HETATM    5  C5  UNL     1     -33.309   5.510   1.496  1.00 20.00    -0.021 C 
HETATM    6  C6  UNL     1     -34.169   6.410   3.490  1.00 20.00     0.009 C 
HETATM    7  C8  UNL     1     -31.870   7.391   0.870  1.00 20.00     0.035 C 
HETATM    8  C9  UNL     1     -32.010   5.844   0.804  1.00 20.00     0.007 C 
HETATM    9  C11 UNL     1     -30.761   5.119   1.309  1.00 20.00     0.014 C 
ENDROOT
BRANCH   6  10
HETATM   10  C7  UNL     1     -35.522   6.087   3.951  1.00 20.00     0.155 C 
HETATM   11  C10 UNL     1     -35.673   5.025   5.009  1.00 20.00     0.096 C 
HETATM   12  O12 UNL     1     -36.500   6.665   3.475  1.00 20.00    -0.293 OA
ENDBRANCH   6  10
TORSDOF 1
ENDMDL
MODEL 5
REMARK VINA RESULT:       3.1      2.039      3.641
REMARK  1 active torsions:
REMARK  status: ('A' for Active; 'I' for Inactive)
REMARK    1  A    between atoms: C6_6  and  C7_7 
ROOT
HETATM    1  C1  UNL     1     -32.429   8.200   2.094  1.00 20.00    -0.003 C 
HETATM    2  C2  UNL     1     -31.724   6.979   1.719  1.00 20.00     0.015 C 
HETATM    3  C3  UNL     1     -33.636   5.492   1.959  1.00 20.00     0.011 C 
HETATM    4  C4  UNL     1     -33.275   8.480   3.104  1.00 20.00    -0.026 C 
HETATM    5  C5  UNL     1     -33.849   5.411   3.283  1.00 20.00    -0.021 C 
HETATM    6  C6  UNL     1     -32.263   5.751   1.581  1.00 20.00     0.009 C 
HETATM    7  C8  UNL     1     -33.763   7.649   4.275  1.00 20.00     0.035 C 
HETATM    8  C9  UNL     1     -34.698   6.441   3.987  1.00 20.00     0.007 C 
HETATM    9  C11 UNL     1     -35.993   6.854   3.286  1.00 20.00     0.014 C 
ENDROOT
BRANCH   6  10
HETATM   10  C7  UNL     1     -31.410   4.659   1.105  1.00 20.00     0.155 C 
HETATM   11  C10 UNL     1     -31.718   4.057  -0.241  1.00 20.00     0.096 C 
HETATM   12  O12 UNL     1     -30.477   4.247   1.796  1.00 20.00    -0.293 OA
ENDBRANCH   6  10
TORSDOF 1
ENDMDL
MODEL 6
REMARK VINA RESULT:       3.1      2.287      3.756
REMARK  1 active torsions:
REMARK  status: ('A' for Active; 'I' for Inactive)
REMARK    1  A    between atoms: C6_6  and  C7_7 
ROOT
HETATM    1  C1  UNL     1     -34.049   4.133   4.023  1.00 20.00    -0.003 C 
HETATM    2  C2  UNL     1     -33.576   4.047   2.645  1.00 20.00     0.015 C 
HETATM    3  C3  UNL     1     -32.733   6.327   2.519  1.00 20.00     0.011 C 
HETATM    4  C4  UNL     1     -34.768   5.068   4.674  1.00 20.00    -0.026 C 
HETATM    5  C5  UNL     1     -33.830   7.102   2.492  1.00 20.00    -0.021 C 
HETATM    6  C6  UNL     1     -32.913   5.002   1.964  1.00 20.00     0.009 C 
HETATM    7  C8  UNL     1     -35.416   6.356   4.204  1.00 20.00     0.035 C 
HETATM    8  C9  UNL     1     -34.496   7.534   3.776  1.00 20.00     0.007 C 
HETATM    9  C11 UNL     1     -33.572   7.997   4.902  1.00 20.00     0.014 C 
ENDROOT
BRANCH   6  10
HETATM   10  C7  UNL     1     -32.435   4.698   0.613  1.00 20.00     0.155 C 
HETATM   11  C10 UNL     1     -33.437   4.202  -0.396  1.00 20.00     0.096 C 
HETATM   12  O12 UNL     1     -31.245   4.838   0.324  1.00 20.00    -0.293 OA
ENDBRANCH   6  10
TORSDOF 1
ENDMDL
MODEL 7
REMARK VINA RESULT:       3.3      0.815      2.370
REMARK  1 active torsions:
REMARK  status: ('A' for Active; 'I' for Inactive)
REMARK    1  A    between atoms: C6_6  and  C7_7 
ROOT
HETATM    1  C1  UNL     1     -33.637   8.239   4.021  1.00 20.00    -0.003 C 
HETATM    2  C2  UNL     1     -34.252   6.941   4.275  1.00 20.00     0.015 C 
HETATM    3  C3  UNL     1     -32.662   5.641   2.968  1.00 20.00     0.011 C 
HETATM    4  C4  UNL     1     -33.183   8.818   2.892  1.00 20.00    -0.026 C 
HETATM    5  C5  UNL     1     -32.936   5.943   1.688  1.00 20.00    -0.021 C 
HETATM    6  C6  UNL     1     -33.791   5.741   3.869  1.00 20.00     0.009 C 
HETATM    7  C8  UNL     1     -33.202   8.366   1.445  1.00 20.00     0.035 C 
HETATM    8  C9  UNL     1     -32.317   7.155   1.036  1.00 20.00     0.007 C 
HETATM    9  C11 UNL     1     -30.831   7.394   1.310  1.00 20.00     0.014 C 
ENDROOT
BRANCH   6  10
HETATM   10  C7  UNL     1     -34.499   4.533   4.301  1.00 20.00     0.155 C 
HETATM   11  C10 UNL     1     -33.735   3.235   4.319  1.00 20.00     0.096 C 
HETATM   12  O12 UNL     1     -35.685   4.588   4.629  1.00 20.00    -0.293 OA
ENDBRANCH   6  10
TORSDOF 1
ENDMDL
MODEL 8
REMARK VINA RESULT:       3.4      2.167      3.439
REMARK  1 active torsions:
REMARK  status: ('A' for Active; 'I' for Inactive)
REMARK    1  A    between atoms: C6_6  and  C7_7 
ROOT
HETATM    1  C1  UNL     1     -34.099   5.850   3.568  1.00 20.00    -0.003 C 
HETATM    2  C2  UNL     1     -33.784   5.175   2.314  1.00 20.00     0.015 C 
HETATM    3  C3  UNL     1     -31.796   6.486   1.807  1.00 20.00     0.011 C 
HETATM    4  C4  UNL     1     -34.147   7.154   3.904  1.00 20.00    -0.026 C 
HETATM    5  C5  UNL     1     -32.258   7.702   1.473  1.00 20.00    -0.021 C 
HETATM    6  C6  UNL     1     -32.707   5.395   1.532  1.00 20.00     0.009 C 
HETATM    7  C8  UNL     1     -33.956   8.417   3.087  1.00 20.00     0.035 C 
HETATM    8  C9  UNL     1     -32.537   8.735   2.536  1.00 20.00     0.007 C 
HETATM    9  C11 UNL     1     -31.493   8.873   3.646  1.00 20.00     0.014 C 
ENDROOT
BRANCH   6  10
HETATM   10  C7  UNL     1     -32.512   4.549   0.352  1.00 20.00     0.155 C 
HETATM   11  C10 UNL     1     -33.729   4.147  -0.439  1.00 20.00     0.096 C 
HETATM   12  O12 UNL     1     -31.382   4.177   0.030  1.00 20.00    -0.293 OA
ENDBRANCH   6  10
TORSDOF 1
ENDMDL
