MODEL 1
REMARK VINA RESULT:      -1.3      0.000      0.000
REMARK  1 active torsions:
REMARK  status: ('A' for Active; 'I' for Inactive)
REMARK    1  A    between atoms: C3_3  and  C7_7 
ROOT
HETATM    1  C1  UNL     1     -32.433   8.346   2.733  1.00 20.00    -0.023 C 
HETATM    2  C2  UNL     1     -33.122   7.641   3.649  1.00 20.00    -0.075 C 
HETATM    3  C4  UNL     1     -31.998   7.795   1.409  1.00 20.00     0.027 C 
HETATM    4  C5  UNL     1     -32.042   6.268   1.364  1.00 20.00     0.005 C 
HETATM    5  C6  UNL     1     -33.355   5.749   1.937  1.00 20.00     0.018 C 
HETATM    6  C7  UNL     1     -33.568   6.218   3.384  1.00 20.00     0.100 C 
HETATM    7  C8  UNL     1     -33.420   8.225   5.003  1.00 20.00     0.044 C 
ENDROOT
BRANCH   6   8
HETATM    8  C3  UNL     1     -35.033   6.107   3.699  1.00 20.00     0.227 C 
HETATM    9  O9  UNL     1     -35.855   6.887   3.229  1.00 20.00    -0.279 OA
HETATM   10 CL10 UNL     1     -35.372   4.782   4.770  1.00 20.00    -0.043 Cl
ENDBRANCH   6   8
TORSDOF 1
ENDMDL
MODEL 2
REMARK VINA RESULT:      -0.8      2.362      3.390
REMARK  1 active torsions:
REMARK  status: ('A' for Active; 'I' for Inactive)
REMARK    1  A    between atoms: C3_3  and  C7_7 
ROOT
HETATM    1  C1  UNL     1     -32.508   8.391   3.416  1.00 20.00    -0.023 C 
HETATM    2  C2  UNL     1     -32.542   7.798   2.208  1.00 20.00    -0.075 C 
HETATM    3  C4  UNL     1     -33.355   7.967   4.579  1.00 20.00     0.027 C 
HETATM    4  C5  UNL     1     -34.534   7.090   4.160  1.00 20.00     0.005 C 
HETATM    5  C6  UNL     1     -34.081   6.002   3.195  1.00 20.00     0.018 C 
HETATM    6  C7  UNL     1     -33.420   6.592   1.940  1.00 20.00     0.100 C 
HETATM    7  C8  UNL     1     -31.750   8.354   1.057  1.00 20.00     0.044 C 
ENDROOT
BRANCH   6   8
HETATM    8  C3  UNL     1     -32.583   5.520   1.305  1.00 20.00     0.227 C 
HETATM    9  O9  UNL     1     -31.429   5.305   1.663  1.00 20.00    -0.279 OA
HETATM   10 CL10 UNL     1     -33.444   4.674   0.055  1.00 20.00    -0.043 Cl
ENDBRANCH   6   8
TORSDOF 1
ENDMDL
MODEL 3
REMARK VINA RESULT:      -0.7      2.878      4.236
REMARK  1 active torsions:
REMARK  status: ('A' for Active; 'I' for Inactive)
REMARK    1  A    between atoms: C3_3  and  C7_7 
ROOT
HETATM    1  C1  UNL     1     -33.989   5.921   2.628  1.00 20.00    -0.023 C 
HETATM    2  C2  UNL     1     -32.852   6.361   2.059  1.00 20.00    -0.075 C 
HETATM    3  C4  UNL     1     -34.709   6.647   3.725  1.00 20.00     0.027 C 
HETATM    4  C5  UNL     1     -33.834   7.696   4.410  1.00 20.00     0.005 C 
HETATM    5  C6  UNL     1     -33.100   8.544   3.379  1.00 20.00     0.018 C 
HETATM    6  C7  UNL     1     -32.226   7.684   2.453  1.00 20.00     0.100 C 
HETATM    7  C8  UNL     1     -32.123   5.518   1.047  1.00 20.00     0.044 C 
ENDROOT
BRANCH   6   8
HETATM    8  C3  UNL     1     -31.947   8.474   1.207  1.00 20.00     0.227 C 
HETATM    9  O9  UNL     1     -31.079   8.134   0.408  1.00 20.00    -0.279 OA
HETATM   10 CL10 UNL     1     -32.979   9.864   1.070  1.00 20.00    -0.043 Cl
ENDBRANCH   6   8
TORSDOF 1
ENDMDL
MODEL 4
REMARK VINA RESULT:      -0.1      1.421      2.672
REMARK  1 active torsions:
REMARK  status: ('A' for Active; 'I' for Inactive)
REMARK    1  A    between atoms: C3_3  and  C7_7 
ROOT
HETATM    1  C1  UNL     1     -31.882   6.845   1.436  1.00 20.00    -0.023 C 
HETATM    2  C2  UNL     1     -32.954   6.072   1.691  1.00 20.00    -0.075 C 
HETATM    3  C4  UNL     1     -31.568   8.109   2.179  1.00 20.00     0.027 C 
HETATM    4  C5  UNL     1     -32.769   8.650   2.953  1.00 20.00     0.005 C 
HETATM    5  C6  UNL     1     -33.456   7.537   3.733  1.00 20.00     0.018 C 
HETATM    6  C7  UNL     1     -33.921   6.399   2.811  1.00 20.00     0.100 C 
HETATM    7  C8  UNL     1     -33.266   4.883   0.824  1.00 20.00     0.044 C 
ENDROOT
BRANCH   6   8
HETATM    8  C3  UNL     1     -34.117   5.169   3.650  1.00 20.00     0.227 C 
HETATM    9  O9  UNL     1     -33.299   4.255   3.656  1.00 20.00    -0.279 OA
HETATM   10 CL10 UNL     1     -35.595   5.230   4.561  1.00 20.00    -0.043 Cl
ENDBRANCH   6   8
TORSDOF 1
ENDMDL
MODEL 5
REMARK VINA RESULT:       0.2      2.431      3.564
REMARK  1 active torsions:
REMARK  status: ('A' for Active; 'I' for Inactive)
REMARK    1  A    between atoms: C3_3  and  C7_7 
ROOT
HETATM    1  C1  UNL     1     -34.679   6.160   4.059  1.00 20.00    -0.023 C 
HETATM    2  C2  UNL     1     -33.794   5.396   3.393  1.00 20.00    -0.075 C 
HETATM    3  C4  UNL     1     -34.642   7.659   4.078  1.00 20.00     0.027 C 
HETATM    4  C5  UNL     1     -33.295   8.220   3.625  1.00 20.00     0.005 C 
HETATM    5  C6  UNL     1     -32.822   7.528   2.354  1.00 20.00     0.018 C 
HETATM    6  C7  UNL     1     -32.697   6.008   2.546  1.00 20.00     0.100 C 
HETATM    7  C8  UNL     1     -33.825   3.897   3.519  1.00 20.00     0.044 C 
ENDROOT
BRANCH   6   8
HETATM    8  C3  UNL     1     -32.721   5.363   1.190  1.00 20.00     0.227 C 
HETATM    9  O9  UNL     1     -33.689   5.465   0.444  1.00 20.00    -0.279 OA
HETATM   10 CL10 UNL     1     -31.253   4.497   0.853  1.00 20.00    -0.043 Cl
ENDBRANCH   6   8
TORSDOF 1
ENDMDL
MODEL 6
REMARK VINA RESULT:       0.3      2.825      3.523
REMARK  1 active torsions:
REMARK  status: ('A' for Active; 'I' for Inactive)
REMARK    1  A    between atoms: C3_3  and  C7_7 
ROOT
HETATM    1  C1  UNL     1     -33.994   5.817   3.921  1.00 20.00    -0.023 C 
HETATM    2  C2  UNL     1     -33.863   6.993   3.280  1.00 20.00    -0.075 C 
HETATM    3  C4  UNL     1     -33.537   4.504   3.360  1.00 20.00     0.027 C 
HETATM    4  C5  UNL     1     -33.290   4.561   1.853  1.00 20.00     0.005 C 
HETATM    5  C6  UNL     1     -32.478   5.796   1.485  1.00 20.00     0.018 C 
HETATM    6  C7  UNL     1     -33.176   7.090   1.932  1.00 20.00     0.100 C 
HETATM    7  C8  UNL     1     -34.453   8.252   3.854  1.00 20.00     0.044 C 
ENDROOT
BRANCH   6   8
HETATM    8  C3  UNL     1     -32.143   8.179   1.997  1.00 20.00     0.227 C 
HETATM    9  O9  UNL     1     -31.290   8.207   2.878  1.00 20.00    -0.279 OA
HETATM   10 CL10 UNL     1     -32.326   9.329   0.708  1.00 20.00    -0.043 Cl
ENDBRANCH   6   8
TORSDOF 1
ENDMDL
MODEL 7
REMARK VINA RESULT:       0.4      2.099      2.918
REMARK  1 active torsions:
REMARK  status: ('A' for Active; 'I' for Inactive)
REMARK    1  A    between atoms: C3_3  and  C7_7 
ROOT
HETATM    1  C1  UNL     1     -33.494   5.324   2.486  1.00 20.00    -0.023 C 
HETATM    2  C2  UNL     1     -34.038   6.329   3.197  1.00 20.00    -0.075 C 
HETATM    3  C4  UNL     1     -32.370   5.504   1.511  1.00 20.00     0.027 C 
HETATM    4  C5  UNL     1     -32.179   6.962   1.095  1.00 20.00     0.005 C 
HETATM    5  C6  UNL     1     -32.197   7.877   2.313  1.00 20.00     0.018 C 
HETATM    6  C7  UNL     1     -33.508   7.746   3.104  1.00 20.00     0.100 C 
HETATM    7  C8  UNL     1     -35.242   6.091   4.067  1.00 20.00     0.044 C 
ENDROOT
BRANCH   6   8
HETATM    8  C3  UNL     1     -33.268   8.261   4.494  1.00 20.00     0.227 C 
HETATM    9  O9  UNL     1     -34.111   8.147   5.379  1.00 20.00    -0.279 OA
HETATM   10 CL10 UNL     1     -31.704   9.000   4.656  1.00 20.00    -0.043 Cl
ENDBRANCH   6   8
TORSDOF 1
ENDMDL
MODEL 8
REMARK VINA RESULT:       0.6      1.451      2.451
REMARK  1 active torsions:
REMARK  status: ('A' for Active; 'I' for Inactive)
REMARK    1  A    between atoms: C3_3  and  C7_7 
ROOT
HETATM    1  C1  UNL     1     -31.794   6.372   1.549  1.00 20.00    -0.023 C 
HETATM    2  C2  UNL     1     -32.967   6.227   2.192  1.00 20.00    -0.075 C 
HETATM    3  C4  UNL     1     -31.227   7.697   1.134  1.00 20.00     0.027 C 
HETATM    4  C5  UNL     1     -32.272   8.811   1.137  1.00 20.00     0.005 C 
HETATM    5  C6  UNL     1     -33.095   8.777   2.418  1.00 20.00     0.018 C 
HETATM    6  C7  UNL     1     -33.800   7.424   2.606  1.00 20.00     0.100 C 
HETATM    7  C8  UNL     1     -33.527   4.858   2.469  1.00 20.00     0.044 C 
ENDROOT
BRANCH   6   8
HETATM    8  C3  UNL     1     -34.158   7.281   4.057  1.00 20.00     0.227 C 
HETATM    9  O9  UNL     1     -33.563   7.901   4.933  1.00 20.00    -0.279 OA
HETATM   10 CL10 UNL     1     -35.470   6.168   4.299  1.00 20.00    -0.043 Cl
ENDBRANCH   6   8
TORSDOF 1
ENDMDL
MODEL 9
REMARK VINA RESULT:       0.6      1.629      2.539
REMARK  1 active torsions:
REMARK  status: ('A' for Active; 'I' for Inactive)
REMARK    1  A    between atoms: C3_3  and  C7_7 
ROOT
HETATM    1  C1  UNL     1     -31.795   6.337   1.626  1.00 20.00    -0.023 C 
HETATM    2  C2  UNL     1     -32.998   6.135   2.195  1.00 20.00    -0.075 C 
HETATM    3  C4  UNL     1     -31.258   7.690   1.266  1.00 20.00     0.027 C 
HETATM    4  C5  UNL     1     -32.346   8.762   1.222  1.00 20.00     0.005 C 
HETATM    5  C6  UNL     1     -33.242   8.673   2.450  1.00 20.00     0.018 C 
HETATM    6  C7  UNL     1     -33.901   7.290   2.574  1.00 20.00     0.100 C 
HETATM    7  C8  UNL     1     -33.517   4.740   2.417  1.00 20.00     0.044 C 
ENDROOT
BRANCH   6   8
HETATM    8  C3  UNL     1     -34.340   7.109   3.999  1.00 20.00     0.227 C 
HETATM    9  O9  UNL     1     -35.292   6.393   4.294  1.00 20.00    -0.279 OA
HETATM   10 CL10 UNL     1     -33.352   8.011   5.107  1.00 20.00    -0.043 Cl
ENDBRANCH   6   8
TORSDOF 1
ENDMDL
