MODEL 1
REMARK VINA RESULT:      -2.2      0.000      0.000
REMARK  4 active torsions:
REMARK  status: ('A' for Active; 'I' for Inactive)
REMARK    1  A    between atoms: C1_1  and  C2_2 
REMARK    2  A    between atoms: C1_1  and  C3_3 
REMARK    3  A    between atoms: C2_2  and  C8_8 
REMARK    4  A    between atoms: C3_3  and  C6_6 
ROOT
HETATM    1  C1  UNL     1     -33.069   7.036   2.450  1.00 20.00     0.125 C 
HETATM    2 CL11 UNL     1     -32.949   5.546   1.573  1.00 20.00    -0.076 Cl
ENDROOT
BRANCH   1   3
HETATM    3  C2  UNL     1     -33.811   7.195   3.575  1.00 20.00     0.174 C 
HETATM    4  O9  UNL     1     -33.618   7.926   4.590  1.00 20.00    -0.291 OA
BRANCH   3   5
HETATM    5  C8  UNL     1     -35.142   6.441   3.724  1.00 20.00     0.080 C 
HETATM    6  C7  UNL     1     -34.978   5.075   4.388  1.00 20.00     0.013 C 
ENDBRANCH   3   5
ENDBRANCH   1   3
BRANCH   1   7
HETATM    7  C3  UNL     1     -32.233   8.163   1.925  1.00 20.00     0.178 C 
HETATM    8  O10 UNL     1     -31.152   8.476   2.410  1.00 20.00    -0.291 OA
BRANCH   7   9
HETATM    9  C6  UNL     1     -32.754   8.903   0.739  1.00 20.00     0.061 A 
HETATM   10  C4  UNL     1     -32.700  10.395   0.749  1.00 20.00     0.013 A 
HETATM   11  C5  UNL     1     -31.781   9.613  -0.141  1.00 20.00     0.013 A 
ENDBRANCH   7   9
ENDBRANCH   1   7
TORSDOF 4
ENDMDL
MODEL 2
REMARK VINA RESULT:      -2.1      0.669      4.538
REMARK  4 active torsions:
REMARK  status: ('A' for Active; 'I' for Inactive)
REMARK    1  A    between atoms: C1_1  and  C2_2 
REMARK    2  A    between atoms: C1_1  and  C3_3 
REMARK    3  A    between atoms: C2_2  and  C8_8 
REMARK    4  A    between atoms: C3_3  and  C6_6 
ROOT
HETATM    1  C1  UNL     1     -32.716   6.901   2.168  1.00 20.00     0.125 C 
HETATM    2 CL11 UNL     1     -32.616   5.491   1.165  1.00 20.00    -0.076 Cl
ENDROOT
BRANCH   1   3
HETATM    3  C2  UNL     1     -31.989   8.028   1.962  1.00 20.00     0.174 C 
HETATM    4  O9  UNL     1     -31.257   8.690   2.755  1.00 20.00    -0.291 OA
BRANCH   3   5
HETATM    5  C8  UNL     1     -31.945   8.665   0.563  1.00 20.00     0.080 C 
HETATM    6  C7  UNL     1     -32.604  10.042   0.518  1.00 20.00     0.013 C 
ENDBRANCH   3   5
ENDBRANCH   1   3
BRANCH   1   7
HETATM    7  C3  UNL     1     -33.726   6.839   3.272  1.00 20.00     0.178 C 
HETATM    8  O10 UNL     1     -33.862   7.726   4.106  1.00 20.00    -0.291 OA
BRANCH   7   9
HETATM    9  C6  UNL     1     -34.612   5.639   3.317  1.00 20.00     0.061 A 
HETATM   10  C4  UNL     1     -34.231   4.504   4.208  1.00 20.00     0.013 A 
HETATM   11  C5  UNL     1     -35.396   5.379   4.559  1.00 20.00     0.013 A 
ENDBRANCH   7   9
ENDBRANCH   1   7
TORSDOF 4
ENDMDL
MODEL 3
REMARK VINA RESULT:      -2.0      2.266      2.782
REMARK  4 active torsions:
REMARK  status: ('A' for Active; 'I' for Inactive)
REMARK    1  A    between atoms: C1_1  and  C2_2 
REMARK    2  A    between atoms: C1_1  and  C3_3 
REMARK    3  A    between atoms: C2_2  and  C8_8 
REMARK    4  A    between atoms: C3_3  and  C6_6 
ROOT
HETATM    1  C1  UNL     1     -33.969   6.342   3.592  1.00 20.00     0.125 C 
HETATM    2 CL11 UNL     1     -34.364   7.820   4.409  1.00 20.00    -0.076 Cl
ENDROOT
BRANCH   1   3
HETATM    3  C2  UNL     1     -34.421   5.121   3.978  1.00 20.00     0.174 C 
HETATM    4  O9  UNL     1     -35.491   4.790   4.567  1.00 20.00    -0.291 OA
BRANCH   3   5
HETATM    5  C8  UNL     1     -33.593   3.866   3.660  1.00 20.00     0.080 C 
HETATM    6  C7  UNL     1     -33.220   3.070   4.908  1.00 20.00     0.013 C 
ENDBRANCH   3   5
ENDBRANCH   1   3
BRANCH   1   7
HETATM    7  C3  UNL     1     -33.130   6.489   2.360  1.00 20.00     0.178 C 
HETATM    8  O10 UNL     1     -33.165   5.694   1.429  1.00 20.00    -0.291 OA
BRANCH   7   9
HETATM    9  C6  UNL     1     -32.242   7.685   2.280  1.00 20.00     0.061 A 
HETATM   10  C4  UNL     1     -31.296   7.795   1.130  1.00 20.00     0.013 A 
HETATM   11  C5  UNL     1     -32.496   8.691   1.209  1.00 20.00     0.013 A 
ENDBRANCH   7   9
ENDBRANCH   1   7
TORSDOF 4
ENDMDL
MODEL 4
REMARK VINA RESULT:      -1.8      2.501      5.355
REMARK  4 active torsions:
REMARK  status: ('A' for Active; 'I' for Inactive)
REMARK    1  A    between atoms: C1_1  and  C2_2 
REMARK    2  A    between atoms: C1_1  and  C3_3 
REMARK    3  A    between atoms: C2_2  and  C8_8 
REMARK    4  A    between atoms: C3_3  and  C6_6 
ROOT
HETATM    1  C1  UNL     1     -33.819   6.183   3.302  1.00 20.00     0.125 C 
HETATM    2 CL11 UNL     1     -34.349   7.613   4.128  1.00 20.00    -0.076 Cl
ENDROOT
BRANCH   1   3
HETATM    3  C2  UNL     1     -33.084   6.198   2.161  1.00 20.00     0.174 C 
HETATM    4  O9  UNL     1     -33.201   5.517   1.100  1.00 20.00    -0.291 OA
BRANCH   3   5
HETATM    5  C8  UNL     1     -31.924   7.195   2.012  1.00 20.00     0.080 C 
HETATM    6  C7  UNL     1     -32.323   8.463   1.261  1.00 20.00     0.013 C 
ENDBRANCH   3   5
ENDBRANCH   1   3
BRANCH   1   7
HETATM    7  C3  UNL     1     -34.167   4.887   3.966  1.00 20.00     0.178 C 
HETATM    8  O10 UNL     1     -35.266   4.659   4.456  1.00 20.00    -0.291 OA
BRANCH   7   9
HETATM    9  C6  UNL     1     -33.112   3.831   3.991  1.00 20.00     0.061 A 
HETATM   10  C4  UNL     1     -32.674   3.294   5.314  1.00 20.00     0.013 A 
HETATM   11  C5  UNL     1     -33.500   2.447   4.392  1.00 20.00     0.013 A 
ENDBRANCH   7   9
ENDBRANCH   1   7
TORSDOF 4
ENDMDL
MODEL 5
REMARK VINA RESULT:      -1.8      1.394      4.208
REMARK  4 active torsions:
REMARK  status: ('A' for Active; 'I' for Inactive)
REMARK    1  A    between atoms: C1_1  and  C2_2 
REMARK    2  A    between atoms: C1_1  and  C3_3 
REMARK    3  A    between atoms: C2_2  and  C8_8 
REMARK    4  A    between atoms: C3_3  and  C6_6 
ROOT
HETATM    1  C1  UNL     1     -32.301   6.414   1.709  1.00 20.00     0.125 C 
HETATM    2 CL11 UNL     1     -31.658   5.231   0.618  1.00 20.00    -0.076 Cl
ENDROOT
BRANCH   1   3
HETATM    3  C2  UNL     1     -31.959   7.727   1.688  1.00 20.00     0.174 C 
HETATM    4  O9  UNL     1     -31.521   8.477   2.610  1.00 20.00    -0.291 OA
BRANCH   3   5
HETATM    5  C8  UNL     1     -32.042   8.517   0.373  1.00 20.00     0.080 C 
HETATM    6  C7  UNL     1     -32.496   9.961   0.575  1.00 20.00     0.013 C 
ENDBRANCH   3   5
ENDBRANCH   1   3
BRANCH   1   7
HETATM    7  C3  UNL     1     -33.338   5.913   2.668  1.00 20.00     0.178 C 
HETATM    8  O10 UNL     1     -33.345   4.770   3.108  1.00 20.00    -0.291 OA
BRANCH   7   9
HETATM    9  C6  UNL     1     -34.381   6.884   3.109  1.00 20.00     0.061 A 
HETATM   10  C4  UNL     1     -35.372   6.447   4.138  1.00 20.00     0.013 A 
HETATM   11  C5  UNL     1     -34.301   7.434   4.494  1.00 20.00     0.013 A 
ENDBRANCH   7   9
ENDBRANCH   1   7
TORSDOF 4
ENDMDL
MODEL 6
REMARK VINA RESULT:      -1.7      1.236      1.463
REMARK  4 active torsions:
REMARK  status: ('A' for Active; 'I' for Inactive)
REMARK    1  A    between atoms: C1_1  and  C2_2 
REMARK    2  A    between atoms: C1_1  and  C3_3 
REMARK    3  A    between atoms: C2_2  and  C8_8 
REMARK    4  A    between atoms: C3_3  and  C6_6 
ROOT
HETATM    1  C1  UNL     1     -32.841   6.626   2.070  1.00 20.00     0.125 C 
HETATM    2 CL11 UNL     1     -32.346   5.333   1.027  1.00 20.00    -0.076 Cl
ENDROOT
BRANCH   1   3
HETATM    3  C2  UNL     1     -33.705   6.474   3.105  1.00 20.00     0.174 C 
HETATM    4  O9  UNL     1     -34.159   5.425   3.649  1.00 20.00    -0.291 OA
BRANCH   3   5
HETATM    5  C8  UNL     1     -34.250   7.713   3.834  1.00 20.00     0.080 C 
HETATM    6  C7  UNL     1     -33.453   8.061   5.089  1.00 20.00     0.013 C 
ENDBRANCH   3   5
ENDBRANCH   1   3
BRANCH   1   7
HETATM    7  C3  UNL     1     -32.197   7.952   1.805  1.00 20.00     0.178 C 
HETATM    8  O10 UNL     1     -31.216   8.354   2.419  1.00 20.00    -0.291 OA
BRANCH   7   9
HETATM    9  C6  UNL     1     -32.784   8.789   0.718  1.00 20.00     0.061 A 
HETATM   10  C4  UNL     1     -32.704  10.275   0.840  1.00 20.00     0.013 A 
HETATM   11  C5  UNL     1     -31.859   9.555  -0.168  1.00 20.00     0.013 A 
ENDBRANCH   7   9
ENDBRANCH   1   7
TORSDOF 4
ENDMDL
MODEL 7
REMARK VINA RESULT:      -1.3      2.076      2.986
REMARK  4 active torsions:
REMARK  status: ('A' for Active; 'I' for Inactive)
REMARK    1  A    between atoms: C1_1  and  C2_2 
REMARK    2  A    between atoms: C1_1  and  C3_3 
REMARK    3  A    between atoms: C2_2  and  C8_8 
REMARK    4  A    between atoms: C3_3  and  C6_6 
ROOT
HETATM    1  C1  UNL     1     -34.954   6.354   3.690  1.00 20.00     0.125 C 
HETATM    2 CL11 UNL     1     -36.430   6.929   2.986  1.00 20.00    -0.076 Cl
ENDROOT
BRANCH   1   3
HETATM    3  C2  UNL     1     -34.803   5.115   4.223  1.00 20.00     0.174 C 
HETATM    4  O9  UNL     1     -35.520   4.486   5.056  1.00 20.00    -0.291 OA
BRANCH   3   5
HETATM    5  C8  UNL     1     -33.626   4.231   3.781  1.00 20.00     0.080 C 
HETATM    6  C7  UNL     1     -33.354   3.079   4.745  1.00 20.00     0.013 C 
ENDBRANCH   3   5
ENDBRANCH   1   3
BRANCH   1   7
HETATM    7  C3  UNL     1     -33.794   7.299   3.621  1.00 20.00     0.178 C 
HETATM    8  O10 UNL     1     -33.269   7.787   4.614  1.00 20.00    -0.291 OA
BRANCH   7   9
HETATM    9  C6  UNL     1     -33.257   7.619   2.266  1.00 20.00     0.061 A 
HETATM   10  C4  UNL     1     -31.803   7.927   2.131  1.00 20.00     0.013 A 
HETATM   11  C5  UNL     1     -32.353   6.633   1.608  1.00 20.00     0.013 A 
ENDBRANCH   7   9
ENDBRANCH   1   7
TORSDOF 4
ENDMDL
MODEL 8
REMARK VINA RESULT:      -1.3      1.783      1.864
REMARK  4 active torsions:
REMARK  status: ('A' for Active; 'I' for Inactive)
REMARK    1  A    between atoms: C1_1  and  C2_2 
REMARK    2  A    between atoms: C1_1  and  C3_3 
REMARK    3  A    between atoms: C2_2  and  C8_8 
REMARK    4  A    between atoms: C3_3  and  C6_6 
ROOT
HETATM    1  C1  UNL     1     -33.117   7.350   2.947  1.00 20.00     0.125 C 
HETATM    2 CL11 UNL     1     -33.741   8.226   4.306  1.00 20.00    -0.076 Cl
ENDROOT
BRANCH   1   3
HETATM    3  C2  UNL     1     -33.431   6.059   2.671  1.00 20.00     0.174 C 
HETATM    4  O9  UNL     1     -33.027   5.296   1.745  1.00 20.00    -0.291 OA
BRANCH   3   5
HETATM    5  C8  UNL     1     -34.392   5.292   3.593  1.00 20.00     0.080 C 
HETATM    6  C7  UNL     1     -33.818   3.962   4.075  1.00 20.00     0.013 C 
ENDBRANCH   3   5
ENDBRANCH   1   3
BRANCH   1   7
HETATM    7  C3  UNL     1     -32.235   8.133   2.023  1.00 20.00     0.178 C 
HETATM    8  O10 UNL     1     -31.014   8.142   2.111  1.00 20.00    -0.291 OA
BRANCH   7   9
HETATM    9  C6  UNL     1     -32.905   8.906   0.936  1.00 20.00     0.061 A 
HETATM   10  C4  UNL     1     -32.679  10.380   0.867  1.00 20.00     0.013 A 
HETATM   11  C5  UNL     1     -32.063   9.473  -0.156  1.00 20.00     0.013 A 
ENDBRANCH   7   9
ENDBRANCH   1   7
TORSDOF 4
ENDMDL
MODEL 9
REMARK VINA RESULT:      -1.3      1.858      4.674
REMARK  4 active torsions:
REMARK  status: ('A' for Active; 'I' for Inactive)
REMARK    1  A    between atoms: C1_1  and  C2_2 
REMARK    2  A    between atoms: C1_1  and  C3_3 
REMARK    3  A    between atoms: C2_2  and  C8_8 
REMARK    4  A    between atoms: C3_3  and  C6_6 
ROOT
HETATM    1  C1  UNL     1     -32.333   8.145   2.477  1.00 20.00     0.125 C 
HETATM    2 CL11 UNL     1     -31.811   8.809   3.991  1.00 20.00    -0.076 Cl
ENDROOT
BRANCH   1   3
HETATM    3  C2  UNL     1     -32.012   8.675   1.269  1.00 20.00     0.174 C 
HETATM    4  O9  UNL     1     -31.227   8.253   0.370  1.00 20.00    -0.291 OA
BRANCH   3   5
HETATM    5  C8  UNL     1     -32.687   9.974   0.801  1.00 20.00     0.080 C 
HETATM    6  C7  UNL     1     -32.726  10.108  -0.720  1.00 20.00     0.013 C 
ENDBRANCH   3   5
ENDBRANCH   1   3
BRANCH   1   7
HETATM    7  C3  UNL     1     -33.126   6.878   2.566  1.00 20.00     0.178 C 
HETATM    8  O10 UNL     1     -33.103   6.012   1.700  1.00 20.00    -0.291 OA
BRANCH   7   9
HETATM    9  C6  UNL     1     -33.951   6.677   3.793  1.00 20.00     0.061 A 
HETATM   10  C4  UNL     1     -35.432   6.559   3.644  1.00 20.00     0.013 A 
HETATM   11  C5  UNL     1     -34.611   5.355   3.997  1.00 20.00     0.013 A 
ENDBRANCH   7   9
ENDBRANCH   1   7
TORSDOF 4
ENDMDL
