MODEL 1
REMARK VINA RESULT:       0.1      0.000      0.000
REMARK  0 active torsions:
REMARK  status: ('A' for Active; 'I' for Inactive)
ROOT
HETATM    1  C1  UNL     1     -32.930   8.194   2.509  1.00 20.00     0.029 C 
HETATM    2  C2  UNL     1     -32.006   7.212   1.790  1.00 20.00     0.046 C 
HETATM    3  C3  UNL     1     -33.552   7.544   3.737  1.00 20.00     0.167 C 
HETATM    4  C4  UNL     1     -33.360   5.357   2.830  1.00 20.00     0.209 C 
HETATM    5  C5  UNL     1     -32.690   5.861   1.549  1.00 20.00     0.134 C 
HETATM    6  O6  UNL     1     -34.237   6.343   3.382  1.00 20.00    -0.388 OA
HETATM    7 CL7  UNL     1     -33.932   6.025   0.257  1.00 20.00    -0.099 Cl
HETATM    8 CL8  UNL     1     -31.478   4.665   0.993  1.00 20.00    -0.099 Cl
ENDROOT
TORSDOF 0
ENDMDL
MODEL 2
REMARK VINA RESULT:       0.3      2.269      2.759
REMARK  0 active torsions:
REMARK  status: ('A' for Active; 'I' for Inactive)
ROOT
HETATM    1  C1  UNL     1     -32.911   6.832   1.421  1.00 20.00     0.029 C 
HETATM    2  C2  UNL     1     -33.411   5.642   2.239  1.00 20.00     0.046 C 
HETATM    3  C3  UNL     1     -32.227   7.851   2.323  1.00 20.00     0.167 C 
HETATM    4  C4  UNL     1     -33.473   7.183   4.232  1.00 20.00     0.209 C 
HETATM    5  C5  UNL     1     -34.219   6.091   3.461  1.00 20.00     0.134 C 
HETATM    6  O6  UNL     1     -33.101   8.266   3.372  1.00 20.00    -0.388 OA
HETATM    7 CL7  UNL     1     -35.821   6.724   2.938  1.00 20.00    -0.099 Cl
HETATM    8 CL8  UNL     1     -34.511   4.689   4.538  1.00 20.00    -0.099 Cl
ENDROOT
TORSDOF 0
ENDMDL
MODEL 3
REMARK VINA RESULT:       0.4      2.104      2.943
REMARK  0 active torsions:
REMARK  status: ('A' for Active; 'I' for Inactive)
ROOT
HETATM    1  C1  UNL     1     -32.799   5.614   2.345  1.00 20.00     0.029 C 
HETATM    2  C2  UNL     1     -32.524   6.692   1.297  1.00 20.00     0.046 C 
HETATM    3  C3  UNL     1     -33.993   5.999   3.208  1.00 20.00     0.167 C 
HETATM    4  C4  UNL     1     -33.666   8.324   2.843  1.00 20.00     0.209 C 
HETATM    5  C5  UNL     1     -32.465   8.091   1.923  1.00 20.00     0.134 C 
HETATM    6  O6  UNL     1     -33.791   7.277   3.811  1.00 20.00    -0.388 OA
HETATM    7 CL7  UNL     1     -30.947   8.274   2.872  1.00 20.00    -0.099 Cl
HETATM    8 CL8  UNL     1     -32.451   9.329   0.627  1.00 20.00    -0.099 Cl
ENDROOT
TORSDOF 0
ENDMDL
MODEL 4
REMARK VINA RESULT:       0.6      2.245      3.034
REMARK  0 active torsions:
REMARK  status: ('A' for Active; 'I' for Inactive)
ROOT
HETATM    1  C1  UNL     1     -32.212   8.000   3.498  1.00 20.00     0.029 C 
HETATM    2  C2  UNL     1     -33.655   7.701   3.903  1.00 20.00     0.046 C 
HETATM    3  C3  UNL     1     -32.045   7.882   1.990  1.00 20.00     0.167 C 
HETATM    4  C4  UNL     1     -33.850   6.353   1.783  1.00 20.00     0.209 C 
HETATM    5  C5  UNL     1     -34.161   6.395   3.281  1.00 20.00     0.134 C 
HETATM    6  O6  UNL     1     -32.463   6.597   1.532  1.00 20.00    -0.388 OA
HETATM    7 CL7  UNL     1     -33.381   4.989   4.088  1.00 20.00    -0.099 Cl
HETATM    8 CL8  UNL     1     -35.930   6.256   3.531  1.00 20.00    -0.099 Cl
ENDROOT
TORSDOF 0
ENDMDL
MODEL 5
REMARK VINA RESULT:       0.6      1.657      2.127
REMARK  0 active torsions:
REMARK  status: ('A' for Active; 'I' for Inactive)
ROOT
HETATM    1  C1  UNL     1     -35.154   6.457   3.710  1.00 20.00     0.029 C 
HETATM    2  C2  UNL     1     -34.016   7.305   3.140  1.00 20.00     0.046 C 
HETATM    3  C3  UNL     1     -34.612   5.164   4.302  1.00 20.00     0.167 C 
HETATM    4  C4  UNL     1     -32.706   5.167   2.884  1.00 20.00     0.209 C 
HETATM    5  C5  UNL     1     -33.105   6.486   2.218  1.00 20.00     0.134 C 
HETATM    6  O6  UNL     1     -33.855   4.440   3.331  1.00 20.00    -0.388 OA
HETATM    7 CL7  UNL     1     -33.953   6.135   0.671  1.00 20.00    -0.099 Cl
HETATM    8 CL8  UNL     1     -31.634   7.433   1.832  1.00 20.00    -0.099 Cl
ENDROOT
TORSDOF 0
ENDMDL
MODEL 6
REMARK VINA RESULT:       0.8      2.043      2.498
REMARK  0 active torsions:
REMARK  status: ('A' for Active; 'I' for Inactive)
ROOT
HETATM    1  C1  UNL     1     -34.216   7.320   3.634  1.00 20.00     0.029 C 
HETATM    2  C2  UNL     1     -32.850   8.006   3.632  1.00 20.00     0.046 C 
HETATM    3  C3  UNL     1     -34.096   5.889   3.128  1.00 20.00     0.167 C 
HETATM    4  C4  UNL     1     -32.161   6.375   1.838  1.00 20.00     0.209 C 
HETATM    5  C5  UNL     1     -32.132   7.837   2.288  1.00 20.00     0.134 C 
HETATM    6  O6  UNL     1     -33.496   5.858   1.833  1.00 20.00    -0.388 OA
HETATM    7 CL7  UNL     1     -32.925   8.858   1.037  1.00 20.00    -0.099 Cl
HETATM    8 CL8  UNL     1     -30.432   8.385   2.443  1.00 20.00    -0.099 Cl
ENDROOT
TORSDOF 0
ENDMDL
MODEL 7
REMARK VINA RESULT:       1.3      2.617      3.455
REMARK  0 active torsions:
REMARK  status: ('A' for Active; 'I' for Inactive)
ROOT
HETATM    1  C1  UNL     1     -33.526   5.449   2.143  1.00 20.00     0.029 C 
HETATM    2  C2  UNL     1     -33.557   5.963   3.582  1.00 20.00     0.046 C 
HETATM    3  C3  UNL     1     -32.364   6.069   1.379  1.00 20.00     0.167 C 
HETATM    4  C4  UNL     1     -32.324   8.002   2.759  1.00 20.00     0.209 C 
HETATM    5  C5  UNL     1     -33.467   7.493   3.641  1.00 20.00     0.134 C 
HETATM    6  O6  UNL     1     -32.429   7.494   1.425  1.00 20.00    -0.388 OA
HETATM    7 CL7  UNL     1     -35.015   8.220   3.082  1.00 20.00    -0.099 Cl
HETATM    8 CL8  UNL     1     -33.198   8.014   5.334  1.00 20.00    -0.099 Cl
ENDROOT
TORSDOF 0
ENDMDL
MODEL 8
REMARK VINA RESULT:       1.3      1.329      2.343
REMARK  0 active torsions:
REMARK  status: ('A' for Active; 'I' for Inactive)
ROOT
HETATM    1  C1  UNL     1     -33.523   6.973   3.877  1.00 20.00     0.029 C 
HETATM    2  C2  UNL     1     -34.008   6.155   2.680  1.00 20.00     0.046 C 
HETATM    3  C3  UNL     1     -32.916   8.290   3.414  1.00 20.00     0.167 C 
HETATM    4  C4  UNL     1     -32.328   7.414   1.285  1.00 20.00     0.209 C 
HETATM    5  C5  UNL     1     -32.931   6.041   1.596  1.00 20.00     0.134 C 
HETATM    6  O6  UNL     1     -31.865   8.060   2.475  1.00 20.00    -0.388 OA
HETATM    7 CL7  UNL     1     -31.625   4.931   2.143  1.00 20.00    -0.099 Cl
HETATM    8 CL8  UNL     1     -33.647   5.349   0.107  1.00 20.00    -0.099 Cl
ENDROOT
TORSDOF 0
ENDMDL
MODEL 9
REMARK VINA RESULT:       1.5      2.380      3.213
REMARK  0 active torsions:
REMARK  status: ('A' for Active; 'I' for Inactive)
ROOT
HETATM    1  C1  UNL     1     -33.789   4.715   4.179  1.00 20.00     0.029 C 
HETATM    2  C2  UNL     1     -33.085   5.575   3.130  1.00 20.00     0.046 C 
HETATM    3  C3  UNL     1     -35.288   4.979   4.169  1.00 20.00     0.167 C 
HETATM    4  C4  UNL     1     -35.023   7.178   3.312  1.00 20.00     0.209 C 
HETATM    5  C5  UNL     1     -33.500   7.048   3.232  1.00 20.00     0.134 C 
HETATM    6  O6  UNL     1     -35.560   6.367   4.361  1.00 20.00    -0.388 OA
HETATM    7 CL7  UNL     1     -32.764   7.791   4.696  1.00 20.00    -0.099 Cl
HETATM    8 CL8  UNL     1     -32.894   7.943   1.802  1.00 20.00    -0.099 Cl
ENDROOT
TORSDOF 0
ENDMDL
