MODEL 1
REMARK VINA RESULT:      -1.5      0.000      0.000
REMARK  3 active torsions:
REMARK  status: ('A' for Active; 'I' for Inactive)
REMARK    1  A    between atoms: C1_1  and  C4_4 
REMARK    2  A    between atoms: C3_3  and  C7_7 
REMARK    3  A    between atoms: C7_7  and  O9_9 
ROOT
HETATM    1  C1  UNL     1     -34.008   4.916   3.908  1.00 20.00    -0.066 C 
HETATM    2  C2  UNL     1     -33.644   3.822   4.243  1.00 20.00    -0.108 C 
HETATM    3  C5  UNL     1     -33.201   2.490   4.652  1.00 20.00     0.112 C 
ENDROOT
BRANCH   1   4
HETATM    4  C4  UNL     1     -34.443   6.221   3.509  1.00 20.00     0.148 A 
HETATM    5  C3  UNL     1     -33.641   7.026   2.507  1.00 20.00     0.194 A 
HETATM    6  O8  UNL     1     -33.541   7.264   3.916  1.00 20.00    -0.354 OA
HETATM    7  C6  UNL     1     -35.883   6.561   3.732  1.00 20.00     0.063 C 
BRANCH   5   8
HETATM    8  C7  UNL     1     -32.388   6.533   1.875  1.00 20.00     0.200 C 
BRANCH   8   9
HETATM    9  O9  UNL     1     -31.528   7.632   1.574  1.00 20.00    -0.398 OA
HETATM   10  H19 UNL     1     -31.223   7.981   2.425  1.00 20.00     0.209 HD
ENDBRANCH   8   9
ENDBRANCH   5   8
ENDBRANCH   1   4
TORSDOF 3
ENDMDL
MODEL 2
REMARK VINA RESULT:      -0.9      2.012      3.892
REMARK  3 active torsions:
REMARK  status: ('A' for Active; 'I' for Inactive)
REMARK    1  A    between atoms: C1_1  and  C4_4 
REMARK    2  A    between atoms: C3_3  and  C7_7 
REMARK    3  A    between atoms: C7_7  and  O9_9 
ROOT
HETATM    1  C1  UNL     1     -33.127   7.489   2.856  1.00 20.00    -0.066 C 
HETATM    2  C2  UNL     1     -32.417   7.728   1.918  1.00 20.00    -0.108 C 
HETATM    3  C5  UNL     1     -31.554   8.021   0.775  1.00 20.00     0.112 C 
ENDROOT
BRANCH   1   4
HETATM    4  C4  UNL     1     -33.973   7.203   3.977  1.00 20.00     0.148 A 
HETATM    5  C3  UNL     1     -34.406   5.781   4.271  1.00 20.00     0.194 A 
HETATM    6  O8  UNL     1     -35.265   6.704   3.592  1.00 20.00    -0.354 OA
HETATM    7  C6  UNL     1     -34.031   8.223   5.069  1.00 20.00     0.063 C 
BRANCH   5   8
HETATM    8  C7  UNL     1     -33.988   4.612   3.452  1.00 20.00     0.200 C 
BRANCH   8   9
HETATM    9  O9  UNL     1     -33.926   3.441   4.268  1.00 20.00    -0.398 OA
HETATM   10  H19 UNL     1     -33.397   3.678   5.044  1.00 20.00     0.209 HD
ENDBRANCH   8   9
ENDBRANCH   5   8
ENDBRANCH   1   4
TORSDOF 3
ENDMDL
MODEL 3
REMARK VINA RESULT:      -0.7      2.541      3.213
REMARK  3 active torsions:
REMARK  status: ('A' for Active; 'I' for Inactive)
REMARK    1  A    between atoms: C1_1  and  C4_4 
REMARK    2  A    between atoms: C3_3  and  C7_7 
REMARK    3  A    between atoms: C7_7  and  O9_9 
ROOT
HETATM    1  C1  UNL     1     -32.373   6.361   1.613  1.00 20.00    -0.066 C 
HETATM    2  C2  UNL     1     -32.030   5.384   1.005  1.00 20.00    -0.108 C 
HETATM    3  C5  UNL     1     -31.613   4.194   0.264  1.00 20.00     0.112 C 
ENDROOT
BRANCH   1   4
HETATM    4  C4  UNL     1     -32.781   7.527   2.338  1.00 20.00     0.148 A 
HETATM    5  C3  UNL     1     -32.588   8.908   1.744  1.00 20.00     0.194 A 
HETATM    6  O8  UNL     1     -31.679   8.371   2.712  1.00 20.00    -0.354 OA
HETATM    7  C6  UNL     1     -33.783   7.338   3.432  1.00 20.00     0.063 C 
BRANCH   5   8
HETATM    8  C7  UNL     1     -31.990   9.147   0.403  1.00 20.00     0.200 C 
BRANCH   8   9
HETATM    9  O9  UNL     1     -32.790  10.075  -0.330  1.00 20.00    -0.398 OA
HETATM   10  H19 UNL     1     -32.798   9.763  -1.247  1.00 20.00     0.209 HD
ENDBRANCH   8   9
ENDBRANCH   5   8
ENDBRANCH   1   4
TORSDOF 3
ENDMDL
MODEL 4
REMARK VINA RESULT:      -0.3      2.110      3.472
REMARK  3 active torsions:
REMARK  status: ('A' for Active; 'I' for Inactive)
REMARK    1  A    between atoms: C1_1  and  C4_4 
REMARK    2  A    between atoms: C3_3  and  C7_7 
REMARK    3  A    between atoms: C7_7  and  O9_9 
ROOT
HETATM    1  C1  UNL     1     -33.374   6.234   2.580  1.00 20.00    -0.066 C 
HETATM    2  C2  UNL     1     -32.717   5.803   1.672  1.00 20.00    -0.108 C 
HETATM    3  C5  UNL     1     -31.916   5.278   0.568  1.00 20.00     0.112 C 
ENDROOT
BRANCH   1   4
HETATM    4  C4  UNL     1     -34.158   6.748   3.663  1.00 20.00     0.148 A 
HETATM    5  C3  UNL     1     -34.963   5.811   4.541  1.00 20.00     0.194 A 
HETATM    6  O8  UNL     1     -35.570   6.553   3.477  1.00 20.00    -0.354 OA
HETATM    7  C6  UNL     1     -33.809   8.108   4.178  1.00 20.00     0.063 C 
BRANCH   5   8
HETATM    8  C7  UNL     1     -34.990   4.335   4.356  1.00 20.00     0.200 C 
BRANCH   8   9
HETATM    9  O9  UNL     1     -33.739   3.771   4.754  1.00 20.00    -0.398 OA
HETATM   10  H19 UNL     1     -33.175   3.775   3.966  1.00 20.00     0.209 HD
ENDBRANCH   8   9
ENDBRANCH   5   8
ENDBRANCH   1   4
TORSDOF 3
ENDMDL
MODEL 5
REMARK VINA RESULT:      -0.2      2.179      3.179
REMARK  3 active torsions:
REMARK  status: ('A' for Active; 'I' for Inactive)
REMARK    1  A    between atoms: C1_1  and  C4_4 
REMARK    2  A    between atoms: C3_3  and  C7_7 
REMARK    3  A    between atoms: C7_7  and  O9_9 
ROOT
HETATM    1  C1  UNL     1     -33.499   6.195   2.626  1.00 20.00    -0.066 C 
HETATM    2  C2  UNL     1     -34.382   6.161   3.439  1.00 20.00    -0.108 C 
HETATM    3  C5  UNL     1     -35.458   6.120   4.428  1.00 20.00     0.112 C 
ENDROOT
BRANCH   1   4
HETATM    4  C4  UNL     1     -32.447   6.236   1.655  1.00 20.00     0.148 A 
HETATM    5  C3  UNL     1     -31.818   7.556   1.256  1.00 20.00     0.194 A 
HETATM    6  O8  UNL     1     -32.820   6.925   0.450  1.00 20.00    -0.354 OA
HETATM    7  C6  UNL     1     -31.695   4.967   1.405  1.00 20.00     0.063 C 
BRANCH   5   8
HETATM    8  C7  UNL     1     -32.228   8.865   1.833  1.00 20.00     0.200 C 
BRANCH   8   9
HETATM    9  O9  UNL     1     -32.477   9.803   0.786  1.00 20.00    -0.398 OA
HETATM   10  H19 UNL     1     -32.071   9.434  -0.013  1.00 20.00     0.209 HD
ENDBRANCH   8   9
ENDBRANCH   5   8
ENDBRANCH   1   4
TORSDOF 3
ENDMDL
MODEL 6
REMARK VINA RESULT:      -0.1      1.705      2.312
REMARK  3 active torsions:
REMARK  status: ('A' for Active; 'I' for Inactive)
REMARK    1  A    between atoms: C1_1  and  C4_4 
REMARK    2  A    between atoms: C3_3  and  C7_7 
REMARK    3  A    between atoms: C7_7  and  O9_9 
ROOT
HETATM    1  C1  UNL     1     -33.488   4.871   3.515  1.00 20.00    -0.066 C 
HETATM    2  C2  UNL     1     -33.413   3.876   4.181  1.00 20.00    -0.108 C 
HETATM    3  C5  UNL     1     -33.322   2.663   4.992  1.00 20.00     0.112 C 
ENDROOT
BRANCH   1   4
HETATM    4  C4  UNL     1     -33.576   6.059   2.719  1.00 20.00     0.148 A 
HETATM    5  C3  UNL     1     -33.743   7.415   3.376  1.00 20.00     0.194 A 
HETATM    6  O8  UNL     1     -34.856   6.707   2.816  1.00 20.00    -0.354 OA
HETATM    7  C6  UNL     1     -33.052   5.988   1.320  1.00 20.00     0.063 C 
BRANCH   5   8
HETATM    8  C7  UNL     1     -33.814   7.607   4.849  1.00 20.00     0.200 C 
BRANCH   8   9
HETATM    9  O9  UNL     1     -32.669   8.331   5.302  1.00 20.00    -0.398 OA
HETATM   10  H19 UNL     1     -32.176   8.586   4.508  1.00 20.00     0.209 HD
ENDBRANCH   8   9
ENDBRANCH   5   8
ENDBRANCH   1   4
TORSDOF 3
ENDMDL
MODEL 7
REMARK VINA RESULT:      -0.1      2.275      4.277
REMARK  3 active torsions:
REMARK  status: ('A' for Active; 'I' for Inactive)
REMARK    1  A    between atoms: C1_1  and  C4_4 
REMARK    2  A    between atoms: C3_3  and  C7_7 
REMARK    3  A    between atoms: C7_7  and  O9_9 
ROOT
HETATM    1  C1  UNL     1     -32.808   8.436   1.968  1.00 20.00    -0.066 C 
HETATM    2  C2  UNL     1     -32.565   9.160   1.041  1.00 20.00    -0.108 C 
HETATM    3  C5  UNL     1     -32.268  10.041  -0.087  1.00 20.00     0.112 C 
ENDROOT
BRANCH   1   4
HETATM    4  C4  UNL     1     -33.100   7.573   3.073  1.00 20.00     0.148 A 
HETATM    5  C3  UNL     1     -33.228   6.077   2.866  1.00 20.00     0.194 A 
HETATM    6  O8  UNL     1     -34.378   6.925   2.958  1.00 20.00    -0.354 OA
HETATM    7  C6  UNL     1     -32.820   8.097   4.445  1.00 20.00     0.063 C 
BRANCH   5   8
HETATM    8  C7  UNL     1     -33.055   5.414   1.546  1.00 20.00     0.200 C 
BRANCH   8   9
HETATM    9  O9  UNL     1     -31.666   5.212   1.279  1.00 20.00    -0.398 OA
HETATM   10  H19 UNL     1     -31.617   4.523   0.600  1.00 20.00     0.209 HD
ENDBRANCH   8   9
ENDBRANCH   5   8
ENDBRANCH   1   4
TORSDOF 3
ENDMDL
MODEL 8
REMARK VINA RESULT:      -0.1      2.039      4.572
REMARK  3 active torsions:
REMARK  status: ('A' for Active; 'I' for Inactive)
REMARK    1  A    between atoms: C1_1  and  C4_4 
REMARK    2  A    between atoms: C3_3  and  C7_7 
REMARK    3  A    between atoms: C7_7  and  O9_9 
ROOT
HETATM    1  C1  UNL     1     -32.688   7.812   1.386  1.00 20.00    -0.066 C 
HETATM    2  C2  UNL     1     -32.545   8.916   0.935  1.00 20.00    -0.108 C 
HETATM    3  C5  UNL     1     -32.371  10.259   0.384  1.00 20.00     0.112 C 
ENDROOT
BRANCH   1   4
HETATM    4  C4  UNL     1     -32.859   6.496   1.924  1.00 20.00     0.148 A 
HETATM    5  C3  UNL     1     -33.847   6.247   3.045  1.00 20.00     0.194 A 
HETATM    6  O8  UNL     1     -32.445   6.392   3.297  1.00 20.00    -0.354 OA
HETATM    7  C6  UNL     1     -32.411   5.346   1.079  1.00 20.00     0.063 C 
BRANCH   5   8
HETATM    8  C7  UNL     1     -34.694   7.314   3.643  1.00 20.00     0.200 C 
BRANCH   8   9
HETATM    9  O9  UNL     1     -34.009   7.923   4.739  1.00 20.00    -0.398 OA
HETATM   10  H19 UNL     1     -34.023   8.877   4.573  1.00 20.00     0.209 HD
ENDBRANCH   8   9
ENDBRANCH   5   8
ENDBRANCH   1   4
TORSDOF 3
ENDMDL
MODEL 9
REMARK VINA RESULT:       0.0      1.815      3.605
REMARK  3 active torsions:
REMARK  status: ('A' for Active; 'I' for Inactive)
REMARK    1  A    between atoms: C1_1  and  C4_4 
REMARK    2  A    between atoms: C3_3  and  C7_7 
REMARK    3  A    between atoms: C7_7  and  O9_9 
ROOT
HETATM    1  C1  UNL     1     -32.658   5.963   1.849  1.00 20.00    -0.066 C 
HETATM    2  C2  UNL     1     -32.146   5.192   1.083  1.00 20.00    -0.108 C 
HETATM    3  C5  UNL     1     -31.524   4.254   0.151  1.00 20.00     0.112 C 
ENDROOT
BRANCH   1   4
HETATM    4  C4  UNL     1     -33.268   6.881   2.763  1.00 20.00     0.148 A 
HETATM    5  C3  UNL     1     -34.161   6.377   3.879  1.00 20.00     0.194 A 
HETATM    6  O8  UNL     1     -34.702   6.904   2.663  1.00 20.00    -0.354 OA
HETATM    7  C6  UNL     1     -32.659   8.242   2.877  1.00 20.00     0.063 C 
BRANCH   5   8
HETATM    8  C7  UNL     1     -34.450   4.935   4.108  1.00 20.00     0.200 C 
BRANCH   8   9
HETATM    9  O9  UNL     1     -35.704   4.790   4.777  1.00 20.00    -0.398 OA
HETATM   10  H19 UNL     1     -36.034   5.687   4.936  1.00 20.00     0.209 HD
ENDBRANCH   8   9
ENDBRANCH   5   8
ENDBRANCH   1   4
TORSDOF 3
ENDMDL
