MODEL 1
REMARK VINA RESULT:      -2.4      0.000      0.000
REMARK  2 active torsions:
REMARK  status: ('A' for Active; 'I' for Inactive)
REMARK    1  A    between atoms: C1_1  and  C6_6 
REMARK    2  A    between atoms: C7_7  and  C9_9 
ROOT
HETATM    1  C2  UNL     1     -33.314   8.328   2.940  1.00 20.00     0.012 C 
HETATM    2  C3  UNL     1     -32.612   6.432   1.429  1.00 20.00     0.012 C 
HETATM    3  C4  UNL     1     -33.861   7.322   3.951  1.00 20.00     0.005 C 
HETATM    4  C5  UNL     1     -33.160   5.423   2.437  1.00 20.00     0.005 C 
HETATM    5  C6  UNL     1     -32.183   7.722   2.116  1.00 20.00     0.047 C 
HETATM    6  C7  UNL     1     -34.302   6.018   3.271  1.00 20.00    -0.015 C 
ENDROOT
BRANCH   5   7
HETATM    7  C1  UNL     1     -31.816   8.720   1.035  1.00 20.00     0.235 C 
HETATM    8  O10 UNL     1     -32.532   9.664   0.715  1.00 20.00    -0.306 OA
ENDBRANCH   5   7
BRANCH   6   9
HETATM    9  C9  UNL     1     -34.796   5.010   4.306  1.00 20.00     0.000 C 
HETATM   10  C8  UNL     1     -33.906   3.812   4.379  1.00 20.00     0.005 C 
ENDBRANCH   6   9
TORSDOF 2
ENDMDL
MODEL 2
REMARK VINA RESULT:      -2.3      2.321      4.381
REMARK  2 active torsions:
REMARK  status: ('A' for Active; 'I' for Inactive)
REMARK    1  A    between atoms: C1_1  and  C6_6 
REMARK    2  A    between atoms: C7_7  and  C9_9 
ROOT
HETATM    1  C2  UNL     1     -33.931   7.557   3.914  1.00 20.00     0.012 C 
HETATM    2  C3  UNL     1     -33.511   5.499   2.515  1.00 20.00     0.012 C 
HETATM    3  C4  UNL     1     -33.219   8.414   2.869  1.00 20.00     0.005 C 
HETATM    4  C5  UNL     1     -32.797   6.352   1.469  1.00 20.00     0.005 C 
HETATM    5  C6  UNL     1     -34.545   6.314   3.281  1.00 20.00     0.047 C 
HETATM    6  C7  UNL     1     -32.170   7.606   2.093  1.00 20.00    -0.015 C 
ENDROOT
BRANCH   5   7
HETATM    7  C1  UNL     1     -35.080   5.444   4.402  1.00 20.00     0.235 C 
HETATM    8  O10 UNL     1     -34.805   4.255   4.526  1.00 20.00    -0.306 OA
ENDBRANCH   5   7
BRANCH   6   9
HETATM    9  C9  UNL     1     -31.509   8.470   1.020  1.00 20.00     0.000 C 
HETATM   10  C8  UNL     1     -32.429   9.539   0.528  1.00 20.00     0.005 C 
ENDBRANCH   6   9
TORSDOF 2
ENDMDL
MODEL 3
REMARK VINA RESULT:      -2.0      2.400      4.768
REMARK  2 active torsions:
REMARK  status: ('A' for Active; 'I' for Inactive)
REMARK    1  A    between atoms: C1_1  and  C6_6 
REMARK    2  A    between atoms: C7_7  and  C9_9 
ROOT
HETATM    1  C2  UNL     1     -33.133   5.479   1.980  1.00 20.00     0.012 C 
HETATM    2  C3  UNL     1     -33.964   7.158   3.672  1.00 20.00     0.012 C 
HETATM    3  C4  UNL     1     -32.216   6.540   1.375  1.00 20.00     0.005 C 
HETATM    4  C5  UNL     1     -33.049   8.222   3.068  1.00 20.00     0.005 C 
HETATM    5  C6  UNL     1     -33.402   5.759   3.454  1.00 20.00     0.047 C 
HETATM    6  C7  UNL     1     -32.773   7.955   1.582  1.00 20.00    -0.015 C 
ENDROOT
BRANCH   5   7
HETATM    7  C1  UNL     1     -34.444   4.764   3.928  1.00 20.00     0.235 C 
HETATM    8  O10 UNL     1     -34.170   3.643   4.343  1.00 20.00    -0.306 OA
ENDBRANCH   5   7
BRANCH   6   9
HETATM    9  C9  UNL     1     -31.815   9.001   1.015  1.00 20.00     0.000 C 
HETATM   10  C8  UNL     1     -32.520   9.975   0.130  1.00 20.00     0.005 C 
ENDBRANCH   6   9
TORSDOF 2
ENDMDL
MODEL 4
REMARK VINA RESULT:      -1.9      0.681      1.740
REMARK  2 active torsions:
REMARK  status: ('A' for Active; 'I' for Inactive)
REMARK    1  A    between atoms: C1_1  and  C6_6 
REMARK    2  A    between atoms: C7_7  and  C9_9 
ROOT
HETATM    1  C2  UNL     1     -32.180   6.341   1.483  1.00 20.00     0.012 C 
HETATM    2  C3  UNL     1     -33.346   7.869   3.119  1.00 20.00     0.012 C 
HETATM    3  C4  UNL     1     -32.980   5.155   2.018  1.00 20.00     0.005 C 
HETATM    4  C5  UNL     1     -34.146   6.685   3.658  1.00 20.00     0.005 C 
HETATM    5  C6  UNL     1     -32.943   7.648   1.667  1.00 20.00     0.047 C 
HETATM    6  C7  UNL     1     -33.388   5.362   3.484  1.00 20.00    -0.015 C 
ENDROOT
BRANCH   5   7
HETATM    7  C1  UNL     1     -32.017   8.781   1.268  1.00 20.00     0.235 C 
HETATM    8  O10 UNL     1     -32.316   9.642   0.446  1.00 20.00    -0.306 OA
ENDBRANCH   5   7
BRANCH   6   9
HETATM    9  C9  UNL     1     -34.230   4.188   3.980  1.00 20.00     0.000 C 
HETATM   10  C8  UNL     1     -33.385   3.128   4.607  1.00 20.00     0.005 C 
ENDBRANCH   6   9
TORSDOF 2
ENDMDL
