MODEL 1
REMARK VINA RESULT:      -2.5      0.000      0.000
REMARK  1 active torsions:
REMARK  status: ('A' for Active; 'I' for Inactive)
REMARK    1  A    between atoms: C2_2  and  C4_4 
ROOT
HETATM    1  C1  UNL     1     -32.755   6.027   1.771  1.00 20.00     0.318 A 
HETATM    2  C2  UNL     1     -33.807   6.931   2.366  1.00 20.00     0.357 A 
HETATM    3  C3  UNL     1     -32.055   8.332   1.425  1.00 20.00     0.310 C 
HETATM    4  N5  UNL     1     -32.396   7.297   2.393  1.00 20.00     0.102 N 
ENDROOT
BRANCH   2   5
HETATM    5  C4  UNL     1     -34.479   6.562   3.642  1.00 20.00     0.419 C 
HETATM    6  F6  UNL     1     -34.107   5.329   4.063  1.00 20.00    -0.169 F 
HETATM    7  F7  UNL     1     -34.177   7.434   4.635  1.00 20.00    -0.169 F 
HETATM    8  F8  UNL     1     -35.828   6.552   3.510  1.00 20.00    -0.169 F 
ENDBRANCH   2   5
TORSDOF 1
ENDMDL
MODEL 2
REMARK VINA RESULT:      -2.5      0.008      1.337
REMARK  1 active torsions:
REMARK  status: ('A' for Active; 'I' for Inactive)
REMARK    1  A    between atoms: C2_2  and  C4_4 
ROOT
HETATM    1  C1  UNL     1     -32.758   6.021   1.775  1.00 20.00     0.318 A 
HETATM    2  C2  UNL     1     -33.811   6.925   2.369  1.00 20.00     0.357 A 
HETATM    3  C3  UNL     1     -32.060   8.326   1.425  1.00 20.00     0.310 C 
HETATM    4  N5  UNL     1     -32.400   7.292   2.396  1.00 20.00     0.102 N 
ENDROOT
BRANCH   2   5
HETATM    5  C4  UNL     1     -34.482   6.557   3.645  1.00 20.00     0.419 C 
HETATM    6  F6  UNL     1     -35.831   6.549   3.515  1.00 20.00    -0.169 F 
HETATM    7  F7  UNL     1     -34.111   5.324   4.067  1.00 20.00    -0.169 F 
HETATM    8  F8  UNL     1     -34.180   7.431   4.637  1.00 20.00    -0.169 F 
ENDBRANCH   2   5
TORSDOF 1
ENDMDL
MODEL 3
REMARK VINA RESULT:      -2.3      3.844      4.458
REMARK  1 active torsions:
REMARK  status: ('A' for Active; 'I' for Inactive)
REMARK    1  A    between atoms: C2_2  and  C4_4 
ROOT
HETATM    1  C1  UNL     1     -31.916   8.260   2.511  1.00 20.00     0.318 A 
HETATM    2  C2  UNL     1     -32.726   8.514   1.262  1.00 20.00     0.357 A 
HETATM    3  C3  UNL     1     -32.771   6.124   1.716  1.00 20.00     0.310 C 
HETATM    4  N5  UNL     1     -31.949   7.291   1.420  1.00 20.00     0.102 N 
ENDROOT
BRANCH   2   5
HETATM    5  C4  UNL     1     -32.277   9.529   0.271  1.00 20.00     0.419 C 
HETATM    6  F6  UNL     1     -31.003   9.303  -0.132  1.00 20.00    -0.169 F 
HETATM    7  F7  UNL     1     -33.056   9.522  -0.838  1.00 20.00    -0.169 F 
HETATM    8  F8  UNL     1     -32.319  10.782   0.786  1.00 20.00    -0.169 F 
ENDBRANCH   2   5
TORSDOF 1
ENDMDL
MODEL 4
REMARK VINA RESULT:      -2.3      3.844      4.460
REMARK  1 active torsions:
REMARK  status: ('A' for Active; 'I' for Inactive)
REMARK    1  A    between atoms: C2_2  and  C4_4 
ROOT
HETATM    1  C1  UNL     1     -31.907   8.258   2.509  1.00 20.00     0.318 A 
HETATM    2  C2  UNL     1     -32.723   8.516   1.264  1.00 20.00     0.357 A 
HETATM    3  C3  UNL     1     -32.774   6.126   1.717  1.00 20.00     0.310 C 
HETATM    4  N5  UNL     1     -31.949   7.290   1.418  1.00 20.00     0.102 N 
ENDROOT
BRANCH   2   5
HETATM    5  C4  UNL     1     -32.276   9.529   0.271  1.00 20.00     0.419 C 
HETATM    6  F6  UNL     1     -33.057   9.522  -0.836  1.00 20.00    -0.169 F 
HETATM    7  F7  UNL     1     -32.317  10.783   0.784  1.00 20.00    -0.169 F 
HETATM    8  F8  UNL     1     -31.002   9.301  -0.135  1.00 20.00    -0.169 F 
ENDBRANCH   2   5
TORSDOF 1
ENDMDL
MODEL 5
REMARK VINA RESULT:      -2.3      3.844      4.446
REMARK  1 active torsions:
REMARK  status: ('A' for Active; 'I' for Inactive)
REMARK    1  A    between atoms: C2_2  and  C4_4 
ROOT
HETATM    1  C1  UNL     1     -31.920   8.258   2.513  1.00 20.00     0.318 A 
HETATM    2  C2  UNL     1     -32.728   8.515   1.263  1.00 20.00     0.357 A 
HETATM    3  C3  UNL     1     -32.781   6.125   1.717  1.00 20.00     0.310 C 
HETATM    4  N5  UNL     1     -31.954   7.289   1.422  1.00 20.00     0.102 N 
ENDROOT
BRANCH   2   5
HETATM    5  C4  UNL     1     -32.274   9.528   0.272  1.00 20.00     0.419 C 
HETATM    6  F6  UNL     1     -32.313  10.781   0.786  1.00 20.00    -0.169 F 
HETATM    7  F7  UNL     1     -31.001   9.298  -0.130  1.00 20.00    -0.169 F 
HETATM    8  F8  UNL     1     -33.055   9.525  -0.837  1.00 20.00    -0.169 F 
ENDBRANCH   2   5
TORSDOF 1
ENDMDL
MODEL 6
REMARK VINA RESULT:      -2.1      1.073      1.942
REMARK  1 active torsions:
REMARK  status: ('A' for Active; 'I' for Inactive)
REMARK    1  A    between atoms: C2_2  and  C4_4 
ROOT
HETATM    1  C1  UNL     1     -32.833   7.475   2.537  1.00 20.00     0.318 A 
HETATM    2  C2  UNL     1     -33.474   6.302   3.238  1.00 20.00     0.357 A 
HETATM    3  C3  UNL     1     -32.338   5.466   1.256  1.00 20.00     0.310 C 
HETATM    4  N5  UNL     1     -33.372   6.347   1.784  1.00 20.00     0.102 N 
ENDROOT
BRANCH   2   5
HETATM    5  C4  UNL     1     -34.813   6.447   3.870  1.00 20.00     0.419 C 
HETATM    6  F6  UNL     1     -35.753   6.824   2.969  1.00 20.00    -0.169 F 
HETATM    7  F7  UNL     1     -35.232   5.283   4.424  1.00 20.00    -0.169 F 
HETATM    8  F8  UNL     1     -34.803   7.381   4.853  1.00 20.00    -0.169 F 
ENDBRANCH   2   5
TORSDOF 1
ENDMDL
MODEL 7
REMARK VINA RESULT:      -2.1      1.077      1.455
REMARK  1 active torsions:
REMARK  status: ('A' for Active; 'I' for Inactive)
REMARK    1  A    between atoms: C2_2  and  C4_4 
ROOT
HETATM    1  C1  UNL     1     -32.842   7.475   2.545  1.00 20.00     0.318 A 
HETATM    2  C2  UNL     1     -33.483   6.297   3.240  1.00 20.00     0.357 A 
HETATM    3  C3  UNL     1     -32.342   5.472   1.256  1.00 20.00     0.310 C 
HETATM    4  N5  UNL     1     -33.378   6.349   1.787  1.00 20.00     0.102 N 
ENDROOT
BRANCH   2   5
HETATM    5  C4  UNL     1     -34.823   6.437   3.870  1.00 20.00     0.419 C 
HETATM    6  F6  UNL     1     -35.238   5.273   4.426  1.00 20.00    -0.169 F 
HETATM    7  F7  UNL     1     -34.819   7.372   4.852  1.00 20.00    -0.169 F 
HETATM    8  F8  UNL     1     -35.763   6.807   2.965  1.00 20.00    -0.169 F 
ENDBRANCH   2   5
TORSDOF 1
ENDMDL
MODEL 8
REMARK VINA RESULT:      -2.0      2.581      3.536
REMARK  1 active torsions:
REMARK  status: ('A' for Active; 'I' for Inactive)
REMARK    1  A    between atoms: C2_2  and  C4_4 
ROOT
HETATM    1  C1  UNL     1     -33.486   7.885   4.337  1.00 20.00     0.318 A 
HETATM    2  C2  UNL     1     -33.559   7.776   2.833  1.00 20.00     0.357 A 
HETATM    3  C3  UNL     1     -35.252   6.306   3.780  1.00 20.00     0.310 C 
HETATM    4  N5  UNL     1     -33.832   6.626   3.687  1.00 20.00     0.102 N 
ENDROOT
BRANCH   2   5
HETATM    5  C4  UNL     1     -32.314   7.786   2.019  1.00 20.00     0.419 C 
HETATM    6  F6  UNL     1     -31.253   8.231   2.735  1.00 20.00    -0.169 F 
HETATM    7  F7  UNL     1     -32.003   6.547   1.566  1.00 20.00    -0.169 F 
HETATM    8  F8  UNL     1     -32.434   8.594   0.935  1.00 20.00    -0.169 F 
ENDBRANCH   2   5
TORSDOF 1
ENDMDL
MODEL 9
REMARK VINA RESULT:      -1.8      2.181      2.760
REMARK  1 active torsions:
REMARK  status: ('A' for Active; 'I' for Inactive)
REMARK    1  A    between atoms: C2_2  and  C4_4 
ROOT
HETATM    1  C1  UNL     1     -32.167   8.342   2.546  1.00 20.00     0.318 A 
HETATM    2  C2  UNL     1     -31.963   7.365   1.413  1.00 20.00     0.357 A 
HETATM    3  C3  UNL     1     -32.141   9.597   0.461  1.00 20.00     0.310 C 
HETATM    4  N5  UNL     1     -32.791   8.553   1.244  1.00 20.00     0.102 N 
ENDROOT
BRANCH   2   5
HETATM    5  C4  UNL     1     -32.620   6.030   1.447  1.00 20.00     0.419 C 
HETATM    6  F6  UNL     1     -31.716   5.026   1.335  1.00 20.00    -0.169 F 
HETATM    7  F7  UNL     1     -33.295   5.835   2.606  1.00 20.00    -0.169 F 
HETATM    8  F8  UNL     1     -33.508   5.885   0.433  1.00 20.00    -0.169 F 
ENDBRANCH   2   5
TORSDOF 1
ENDMDL
