MODEL 1
REMARK VINA RESULT:       0.9      0.000      0.000
REMARK  1 active torsions:
REMARK  status: ('A' for Active; 'I' for Inactive)
REMARK    1  A    between atoms: C4_4  and  C10_10 
ROOT
HETATM    1  C1  UNL     1     -31.085   8.435   2.871  1.00 20.00     0.174 C 
HETATM    2  C2  UNL     1     -31.472   8.305   1.441  1.00 20.00     0.025 A 
HETATM    3  C3  UNL     1     -32.915   7.970   1.419  1.00 20.00     0.030 A 
HETATM    4  C4  UNL     1     -33.368   7.913   2.844  1.00 20.00     0.130 C 
HETATM    5  C5  UNL     1     -32.437   9.239   0.735  1.00 20.00    -0.035 A 
HETATM    6  C6  UNL     1     -32.758  10.590   1.321  1.00 20.00     0.016 C 
HETATM    7  C7  UNL     1     -32.411   9.236  -0.773  1.00 20.00     0.016 C 
HETATM    8  O11 UNL     1     -32.296   8.448   3.648  1.00 20.00    -0.385 OA
ENDROOT
BRANCH   4   9
HETATM    9  C10 UNL     1     -33.650   6.490   3.306  1.00 20.00     0.007 C 
HETATM   10  C8  UNL     1     -35.074   6.369   3.850  1.00 20.00     0.012 C 
HETATM   11  C9  UNL     1     -33.428   5.496   2.166  1.00 20.00     0.012 C 
ENDBRANCH   4   9
TORSDOF 1
ENDMDL
MODEL 2
REMARK VINA RESULT:       1.0      1.532      2.417
REMARK  1 active torsions:
REMARK  status: ('A' for Active; 'I' for Inactive)
REMARK    1  A    between atoms: C4_4  and  C10_10 
ROOT
HETATM    1  C1  UNL     1     -32.196   5.461   1.086  1.00 20.00     0.174 C 
HETATM    2  C2  UNL     1     -32.741   6.821   0.826  1.00 20.00     0.025 A 
HETATM    3  C3  UNL     1     -33.349   7.286   2.094  1.00 20.00     0.030 A 
HETATM    4  C4  UNL     1     -33.150   6.193   3.096  1.00 20.00     0.130 C 
HETATM    5  C5  UNL     1     -32.213   8.085   1.478  1.00 20.00    -0.035 A 
HETATM    6  C6  UNL     1     -30.852   8.100   2.124  1.00 20.00     0.016 C 
HETATM    7  C7  UNL     1     -32.575   9.394   0.822  1.00 20.00     0.016 C 
HETATM    8  O11 UNL     1     -32.235   5.244   2.507  1.00 20.00    -0.385 OA
ENDROOT
BRANCH   4   9
HETATM    9  C10 UNL     1     -34.446   5.468   3.429  1.00 20.00     0.007 C 
HETATM   10  C8  UNL     1     -34.169   4.216   4.261  1.00 20.00     0.012 C 
HETATM   11  C9  UNL     1     -35.412   6.396   4.167  1.00 20.00     0.012 C 
ENDBRANCH   4   9
TORSDOF 1
ENDMDL
MODEL 3
REMARK VINA RESULT:       1.8      0.996      3.999
REMARK  1 active torsions:
REMARK  status: ('A' for Active; 'I' for Inactive)
REMARK    1  A    between atoms: C4_4  and  C10_10 
ROOT
HETATM    1  C1  UNL     1     -31.109   8.004   2.918  1.00 20.00     0.174 C 
HETATM    2  C2  UNL     1     -32.536   8.028   3.337  1.00 20.00     0.025 A 
HETATM    3  C3  UNL     1     -33.336   8.252   2.111  1.00 20.00     0.030 A 
HETATM    4  C4  UNL     1     -32.368   8.351   0.974  1.00 20.00     0.130 C 
HETATM    5  C5  UNL     1     -33.559   6.987   2.922  1.00 20.00    -0.035 A 
HETATM    6  C6  UNL     1     -33.115   5.649   2.389  1.00 20.00     0.016 C 
HETATM    7  C7  UNL     1     -34.826   6.911   3.737  1.00 20.00     0.016 C 
HETATM    8  O11 UNL     1     -31.081   7.941   1.481  1.00 20.00    -0.385 OA
ENDROOT
BRANCH   4   9
HETATM    9  C10 UNL     1     -32.244   9.771   0.440  1.00 20.00     0.007 C 
HETATM   10  C8  UNL     1     -32.719   9.848  -1.011  1.00 20.00     0.012 C 
HETATM   11  C9  UNL     1     -33.033  10.748   1.312  1.00 20.00     0.012 C 
ENDBRANCH   4   9
TORSDOF 1
ENDMDL
MODEL 4
REMARK VINA RESULT:       2.1      1.105      1.628
REMARK  1 active torsions:
REMARK  status: ('A' for Active; 'I' for Inactive)
REMARK    1  A    between atoms: C4_4  and  C10_10 
ROOT
HETATM    1  C1  UNL     1     -31.971   8.250   3.247  1.00 20.00     0.174 C 
HETATM    2  C2  UNL     1     -31.355   8.348   1.896  1.00 20.00     0.025 A 
HETATM    3  C3  UNL     1     -32.256   7.631   0.964  1.00 20.00     0.030 A 
HETATM    4  C4  UNL     1     -33.404   7.121   1.778  1.00 20.00     0.130 C 
HETATM    5  C5  UNL     1     -31.973   9.106   0.736  1.00 20.00    -0.035 A 
HETATM    6  C6  UNL     1     -33.045  10.136   0.980  1.00 20.00     0.016 C 
HETATM    7  C7  UNL     1     -31.061   9.457  -0.414  1.00 20.00     0.016 C 
HETATM    8  O11 UNL     1     -33.305   7.739   3.078  1.00 20.00    -0.385 OA
ENDROOT
BRANCH   4   9
HETATM    9  C10 UNL     1     -33.359   5.609   1.960  1.00 20.00     0.007 C 
HETATM   10  C8  UNL     1     -32.014   5.047   1.500  1.00 20.00     0.012 C 
HETATM   11  C9  UNL     1     -33.625   5.231   3.418  1.00 20.00     0.012 C 
ENDBRANCH   4   9
TORSDOF 1
ENDMDL
MODEL 5
REMARK VINA RESULT:       2.4      0.974      3.908
REMARK  1 active torsions:
REMARK  status: ('A' for Active; 'I' for Inactive)
REMARK    1  A    between atoms: C4_4  and  C10_10 
ROOT
HETATM    1  C1  UNL     1     -31.957   8.255   3.653  1.00 20.00     0.174 C 
HETATM    2  C2  UNL     1     -33.418   7.975   3.664  1.00 20.00     0.025 A 
HETATM    3  C3  UNL     1     -33.801   7.652   2.270  1.00 20.00     0.030 A 
HETATM    4  C4  UNL     1     -32.554   7.737   1.448  1.00 20.00     0.130 C 
HETATM    5  C5  UNL     1     -34.025   6.618   3.361  1.00 20.00    -0.035 A 
HETATM    6  C6  UNL     1     -33.178   5.373   3.418  1.00 20.00     0.016 C 
HETATM    7  C7  UNL     1     -35.448   6.391   3.807  1.00 20.00     0.016 C 
HETATM    8  O11 UNL     1     -31.449   7.848   2.369  1.00 20.00    -0.385 OA
ENDROOT
BRANCH   4   9
HETATM    9  C10 UNL     1     -32.543   8.955   0.535  1.00 20.00     0.007 C 
HETATM   10  C8  UNL     1     -32.903  10.220   1.314  1.00 20.00     0.012 C 
HETATM   11  C9  UNL     1     -31.181   9.114  -0.141  1.00 20.00     0.012 C 
ENDBRANCH   4   9
TORSDOF 1
ENDMDL
MODEL 6
REMARK VINA RESULT:       2.4      2.327      5.193
REMARK  1 active torsions:
REMARK  status: ('A' for Active; 'I' for Inactive)
REMARK    1  A    between atoms: C4_4  and  C10_10 
ROOT
HETATM    1  C1  UNL     1     -35.055   5.606   4.314  1.00 20.00     0.174 C 
HETATM    2  C2  UNL     1     -34.625   4.228   3.954  1.00 20.00     0.025 A 
HETATM    3  C3  UNL     1     -33.314   4.355   3.274  1.00 20.00     0.030 A 
HETATM    4  C4  UNL     1     -32.980   5.814   3.247  1.00 20.00     0.130 C 
HETATM    5  C5  UNL     1     -33.414   3.535   4.549  1.00 20.00    -0.035 A 
HETATM    6  C6  UNL     1     -32.799   4.037   5.830  1.00 20.00     0.016 C 
HETATM    7  C7  UNL     1     -33.345   2.035   4.404  1.00 20.00     0.016 C 
HETATM    8  O11 UNL     1     -33.930   6.479   4.106  1.00 20.00    -0.385 OA
ENDROOT
BRANCH   4   9
HETATM    9  C10 UNL     1     -33.095   6.409   1.851  1.00 20.00     0.007 C 
HETATM   10  C8  UNL     1     -32.279   7.697   1.742  1.00 20.00     0.012 C 
HETATM   11  C9  UNL     1     -32.644   5.401   0.793  1.00 20.00     0.012 C 
ENDBRANCH   4   9
TORSDOF 1
ENDMDL
MODEL 7
REMARK VINA RESULT:       2.5      1.472      4.136
REMARK  1 active torsions:
REMARK  status: ('A' for Active; 'I' for Inactive)
REMARK    1  A    between atoms: C4_4  and  C10_10 
ROOT
HETATM    1  C1  UNL     1     -31.915   6.597   1.782  1.00 20.00     0.174 C 
HETATM    2  C2  UNL     1     -32.064   7.358   3.052  1.00 20.00     0.025 A 
HETATM    3  C3  UNL     1     -32.791   8.605   2.719  1.00 20.00     0.030 A 
HETATM    4  C4  UNL     1     -33.072   8.563   1.250  1.00 20.00     0.130 C 
HETATM    5  C5  UNL     1     -33.396   7.637   3.722  1.00 20.00    -0.035 A 
HETATM    6  C6  UNL     1     -34.616   6.829   3.363  1.00 20.00     0.016 C 
HETATM    7  C7  UNL     1     -33.358   8.045   5.174  1.00 20.00     0.016 C 
HETATM    8  O11 UNL     1     -32.752   7.230   0.798  1.00 20.00    -0.385 OA
ENDROOT
BRANCH   4   9
HETATM    9  C10 UNL     1     -32.219   9.553   0.468  1.00 20.00     0.007 C 
HETATM   10  C8  UNL     1     -32.296   9.270  -1.032  1.00 20.00     0.012 C 
HETATM   11  C9  UNL     1     -32.650  10.990   0.763  1.00 20.00     0.012 C 
ENDBRANCH   4   9
TORSDOF 1
ENDMDL
MODEL 8
REMARK VINA RESULT:       2.6      1.232      3.866
REMARK  1 active torsions:
REMARK  status: ('A' for Active; 'I' for Inactive)
REMARK    1  A    between atoms: C4_4  and  C10_10 
ROOT
HETATM    1  C1  UNL     1     -32.976   7.533   3.161  1.00 20.00     0.174 C 
HETATM    2  C2  UNL     1     -33.499   6.628   2.103  1.00 20.00     0.025 A 
HETATM    3  C3  UNL     1     -32.979   7.136   0.812  1.00 20.00     0.030 A 
HETATM    4  C4  UNL     1     -32.145   8.338   1.125  1.00 20.00     0.130 C 
HETATM    5  C5  UNL     1     -32.626   5.725   1.251  1.00 20.00    -0.035 A 
HETATM    6  C6  UNL     1     -31.223   5.389   1.684  1.00 20.00     0.016 C 
HETATM    7  C7  UNL     1     -33.314   4.592   0.530  1.00 20.00     0.016 C 
HETATM    8  O11 UNL     1     -31.974   8.371   2.557  1.00 20.00    -0.385 OA
ENDROOT
BRANCH   4   9
HETATM    9  C10 UNL     1     -32.811   9.636   0.690  1.00 20.00     0.007 C 
HETATM   10  C8  UNL     1     -32.272  10.819   1.495  1.00 20.00     0.012 C 
HETATM   11  C9  UNL     1     -32.610   9.874  -0.807  1.00 20.00     0.012 C 
ENDBRANCH   4   9
TORSDOF 1
ENDMDL
MODEL 9
REMARK VINA RESULT:       2.6      1.409      4.078
REMARK  1 active torsions:
REMARK  status: ('A' for Active; 'I' for Inactive)
REMARK    1  A    between atoms: C4_4  and  C10_10 
ROOT
HETATM    1  C1  UNL     1     -32.856   5.628   2.124  1.00 20.00     0.174 C 
HETATM    2  C2  UNL     1     -32.868   6.495   3.332  1.00 20.00     0.025 A 
HETATM    3  C3  UNL     1     -33.118   7.877   2.863  1.00 20.00     0.030 A 
HETATM    4  C4  UNL     1     -33.258   7.810   1.375  1.00 20.00     0.130 C 
HETATM    5  C5  UNL     1     -34.095   7.234   3.833  1.00 20.00    -0.035 A 
HETATM    6  C6  UNL     1     -35.471   6.829   3.373  1.00 20.00     0.016 C 
HETATM    7  C7  UNL     1     -34.063   7.723   5.260  1.00 20.00     0.016 C 
HETATM    8  O11 UNL     1     -33.346   6.414   1.023  1.00 20.00    -0.385 OA
ENDROOT
BRANCH   4   9
HETATM    9  C10 UNL     1     -32.061   8.413   0.652  1.00 20.00     0.007 C 
HETATM   10  C8  UNL     1     -32.424   9.762   0.032  1.00 20.00     0.012 C 
HETATM   11  C9  UNL     1     -30.874   8.566   1.604  1.00 20.00     0.012 C 
ENDBRANCH   4   9
TORSDOF 1
ENDMDL
