MODEL 1
REMARK VINA RESULT:      -0.5      0.000      0.000
REMARK  1 active torsions:
REMARK  status: ('A' for Active; 'I' for Inactive)
REMARK    1  A    between atoms: C10_10  and  O13_13 
ROOT
HETATM    1  C1  UNL     1     -32.387   9.108   1.026  1.00 20.00     0.099 C 
HETATM    2  C2  UNL     1     -32.082   6.686   1.221  1.00 20.00     0.023 A 
HETATM    3  C3  UNL     1     -32.417   5.451   1.782  1.00 20.00     0.012 A 
HETATM    4  C4  UNL     1     -33.751   7.812   2.586  1.00 20.00     0.030 A 
HETATM    5  C5  UNL     1     -32.744   7.857   1.620  1.00 20.00     0.045 A 
HETATM    6  C6  UNL     1     -33.408   5.415   2.748  1.00 20.00    -0.023 A 
HETATM    7  C7  UNL     1     -34.069   6.585   3.145  1.00 20.00    -0.048 A 
HETATM    8  C8  UNL     1     -35.127   6.283   4.161  1.00 20.00     0.042 C 
HETATM    9  C9  UNL     1     -34.678   4.901   4.651  1.00 20.00     0.041 C 
HETATM   10  C10 UNL     1     -33.973   4.225   3.463  1.00 20.00     0.154 C 
HETATM   11  N12 UNL     1     -32.098  10.123   0.545  1.00 20.00    -0.191 NA
ENDROOT
BRANCH  10  12
HETATM   12  O13 UNL     1     -32.961   3.344   3.909  1.00 20.00    -0.386 OA
HETATM   13  C11 UNL     1     -33.160   2.952   5.264  1.00 20.00     0.202 C 
ENDBRANCH  10  12
TORSDOF 1
ENDMDL
