MODEL 1
REMARK VINA RESULT:      -1.4      0.000      0.000
REMARK  1 active torsions:
REMARK  status: ('A' for Active; 'I' for Inactive)
REMARK    1  A    between atoms: C4_4  and  C5_5 
ROOT
HETATM    1  C1  UNL     1     -32.811   7.042   1.539  1.00 20.00     0.014 C 
HETATM    2  C2  UNL     1     -33.276   5.762   2.222  1.00 20.00     0.062 C 
HETATM    3  C3  UNL     1     -32.287   7.951   2.638  1.00 20.00     0.077 C 
HETATM    4  C4  UNL     1     -34.197   6.202   3.353  1.00 20.00     0.209 C 
HETATM    5  F6  UNL     1     -35.402   6.551   2.825  1.00 20.00    -0.225 F 
HETATM    6  S9  UNL     1     -33.405   7.687   4.043  1.00 20.00    -0.121 SA
ENDROOT
BRANCH   4   7
HETATM    7  C5  UNL     1     -34.419   5.129   4.402  1.00 20.00     0.403 C 
HETATM    8  F7  UNL     1     -33.991   3.941   3.918  1.00 20.00    -0.210 F 
HETATM    9  F8  UNL     1     -35.745   5.008   4.640  1.00 20.00    -0.210 F 
ENDBRANCH   4   7
TORSDOF 1
ENDMDL
MODEL 2
REMARK VINA RESULT:      -1.1      3.106      4.293
REMARK  1 active torsions:
REMARK  status: ('A' for Active; 'I' for Inactive)
REMARK    1  A    between atoms: C4_4  and  C5_5 
ROOT
HETATM    1  C1  UNL     1     -33.074   5.573   2.546  1.00 20.00     0.014 C 
HETATM    2  C2  UNL     1     -32.761   6.374   1.288  1.00 20.00     0.062 C 
HETATM    3  C3  UNL     1     -33.995   6.438   3.389  1.00 20.00     0.077 C 
HETATM    4  C4  UNL     1     -32.297   7.743   1.768  1.00 20.00     0.209 C 
HETATM    5  F6  UNL     1     -31.016   7.638   2.216  1.00 20.00    -0.225 F 
HETATM    6  S9  UNL     1     -33.382   8.132   3.176  1.00 20.00    -0.121 SA
ENDROOT
BRANCH   4   7
HETATM    7  C5  UNL     1     -32.349   8.810   0.691  1.00 20.00     0.403 C 
HETATM    8  F7  UNL     1     -31.130   8.915   0.113  1.00 20.00    -0.210 F 
HETATM    9  F8  UNL     1     -32.624  10.005   1.261  1.00 20.00    -0.210 F 
ENDBRANCH   4   7
TORSDOF 1
ENDMDL
MODEL 3
REMARK VINA RESULT:      -0.7      2.380      3.598
REMARK  1 active torsions:
REMARK  status: ('A' for Active; 'I' for Inactive)
REMARK    1  A    between atoms: C4_4  and  C5_5 
ROOT
HETATM    1  C1  UNL     1     -35.253   6.507   3.923  1.00 20.00     0.014 C 
HETATM    2  C2  UNL     1     -33.978   7.108   3.345  1.00 20.00     0.062 C 
HETATM    3  C3  UNL     1     -34.881   5.130   4.446  1.00 20.00     0.077 C 
HETATM    4  C4  UNL     1     -33.411   6.058   2.398  1.00 20.00     0.209 C 
HETATM    5  F6  UNL     1     -34.134   6.073   1.245  1.00 20.00    -0.225 F 
HETATM    6  S9  UNL     1     -33.690   4.473   3.246  1.00 20.00    -0.121 SA
ENDROOT
BRANCH   4   7
HETATM    7  C5  UNL     1     -31.950   6.279   2.057  1.00 20.00     0.403 C 
HETATM    8  F7  UNL     1     -31.806   7.500   1.494  1.00 20.00    -0.210 F 
HETATM    9  F8  UNL     1     -31.566   5.367   1.135  1.00 20.00    -0.210 F 
ENDBRANCH   4   7
TORSDOF 1
ENDMDL
MODEL 4
REMARK VINA RESULT:      -0.7      1.602      2.080
REMARK  1 active torsions:
REMARK  status: ('A' for Active; 'I' for Inactive)
REMARK    1  A    between atoms: C4_4  and  C5_5 
ROOT
HETATM    1  C1  UNL     1     -32.449   7.655   1.887  1.00 20.00     0.014 C 
HETATM    2  C2  UNL     1     -33.824   7.850   2.513  1.00 20.00     0.062 C 
HETATM    3  C3  UNL     1     -32.326   6.175   1.567  1.00 20.00     0.077 C 
HETATM    4  C4  UNL     1     -33.926   6.816   3.628  1.00 20.00     0.209 C 
HETATM    5  F6  UNL     1     -33.200   7.250   4.694  1.00 20.00    -0.225 F 
HETATM    6  S9  UNL     1     -33.139   5.324   2.948  1.00 20.00    -0.121 SA
ENDROOT
BRANCH   4   7
HETATM    7  C5  UNL     1     -35.350   6.559   4.083  1.00 20.00     0.403 C 
HETATM    8  F7  UNL     1     -35.469   5.264   4.454  1.00 20.00    -0.210 F 
HETATM    9  F8  UNL     1     -36.192   6.755   3.042  1.00 20.00    -0.210 F 
ENDBRANCH   4   7
TORSDOF 1
ENDMDL
MODEL 5
REMARK VINA RESULT:      -0.6      2.441      3.768
REMARK  1 active torsions:
REMARK  status: ('A' for Active; 'I' for Inactive)
REMARK    1  A    between atoms: C4_4  and  C5_5 
ROOT
HETATM    1  C1  UNL     1     -35.025   6.244   3.697  1.00 20.00     0.014 C 
HETATM    2  C2  UNL     1     -34.060   7.356   3.304  1.00 20.00     0.062 C 
HETATM    3  C3  UNL     1     -34.175   5.015   3.976  1.00 20.00     0.077 C 
HETATM    4  C4  UNL     1     -33.173   6.774   2.210  1.00 20.00     0.209 C 
HETATM    5  F6  UNL     1     -33.876   6.750   1.044  1.00 20.00    -0.225 F 
HETATM    6  S9  UNL     1     -32.851   5.063   2.737  1.00 20.00    -0.121 SA
ENDROOT
BRANCH   4   7
HETATM    7  C5  UNL     1     -31.894   7.558   1.990  1.00 20.00     0.403 C 
HETATM    8  F7  UNL     1     -31.648   8.321   3.079  1.00 20.00    -0.210 F 
HETATM    9  F8  UNL     1     -32.063   8.400   0.944  1.00 20.00    -0.210 F 
ENDBRANCH   4   7
TORSDOF 1
ENDMDL
MODEL 6
REMARK VINA RESULT:      -0.5      2.039      2.633
REMARK  1 active torsions:
REMARK  status: ('A' for Active; 'I' for Inactive)
REMARK    1  A    between atoms: C4_4  and  C5_5 
ROOT
HETATM    1  C1  UNL     1     -31.867   7.318   1.374  1.00 20.00     0.014 C 
HETATM    2  C2  UNL     1     -32.980   8.092   2.069  1.00 20.00     0.062 C 
HETATM    3  C3  UNL     1     -32.318   5.868   1.320  1.00 20.00     0.077 C 
HETATM    4  C4  UNL     1     -33.275   7.335   3.358  1.00 20.00     0.209 C 
HETATM    5  F6  UNL     1     -32.295   7.613   4.262  1.00 20.00    -0.225 F 
HETATM    6  S9  UNL     1     -33.168   5.578   2.897  1.00 20.00    -0.121 SA
ENDROOT
BRANCH   4   7
HETATM    7  C5  UNL     1     -34.616   7.688   3.971  1.00 20.00     0.403 C 
HETATM    8  F7  UNL     1     -34.426   8.096   5.247  1.00 20.00    -0.210 F 
HETATM    9  F8  UNL     1     -35.389   6.579   4.018  1.00 20.00    -0.210 F 
ENDBRANCH   4   7
TORSDOF 1
ENDMDL
MODEL 7
REMARK VINA RESULT:      -0.5      1.389      2.197
REMARK  1 active torsions:
REMARK  status: ('A' for Active; 'I' for Inactive)
REMARK    1  A    between atoms: C4_4  and  C5_5 
ROOT
HETATM    1  C1  UNL     1     -32.409   8.084   3.285  1.00 20.00     0.014 C 
HETATM    2  C2  UNL     1     -33.777   7.686   3.824  1.00 20.00     0.062 C 
HETATM    3  C3  UNL     1     -32.380   7.661   1.826  1.00 20.00     0.077 C 
HETATM    4  C4  UNL     1     -33.965   6.222   3.448  1.00 20.00     0.209 C 
HETATM    5  F6  UNL     1     -33.228   5.455   4.297  1.00 20.00    -0.225 F 
HETATM    6  S9  UNL     1     -33.269   6.080   1.774  1.00 20.00    -0.121 SA
ENDROOT
BRANCH   4   7
HETATM    7  C5  UNL     1     -35.410   5.763   3.511  1.00 20.00     0.403 C 
HETATM    8  F7  UNL     1     -36.221   6.826   3.306  1.00 20.00    -0.210 F 
HETATM    9  F8  UNL     1     -35.674   5.293   4.752  1.00 20.00    -0.210 F 
ENDBRANCH   4   7
TORSDOF 1
ENDMDL
MODEL 8
REMARK VINA RESULT:      -0.4      2.619      3.075
REMARK  1 active torsions:
REMARK  status: ('A' for Active; 'I' for Inactive)
REMARK    1  A    between atoms: C4_4  and  C5_5 
ROOT
HETATM    1  C1  UNL     1     -32.719   8.373   2.603  1.00 20.00     0.014 C 
HETATM    2  C2  UNL     1     -31.992   7.268   1.848  1.00 20.00     0.062 C 
HETATM    3  C3  UNL     1     -33.388   7.711   3.797  1.00 20.00     0.077 C 
HETATM    4  C4  UNL     1     -33.017   6.162   1.633  1.00 20.00     0.209 C 
HETATM    5  F6  UNL     1     -33.850   6.528   0.621  1.00 20.00    -0.225 F 
HETATM    6  S9  UNL     1     -33.966   6.104   3.184  1.00 20.00    -0.121 SA
ENDROOT
BRANCH   4   7
HETATM    7  C5  UNL     1     -32.396   4.822   1.289  1.00 20.00     0.403 C 
HETATM    8  F7  UNL     1     -31.065   4.982   1.115  1.00 20.00    -0.210 F 
HETATM    9  F8  UNL     1     -32.903   4.386   0.113  1.00 20.00    -0.210 F 
ENDBRANCH   4   7
TORSDOF 1
ENDMDL
MODEL 9
REMARK VINA RESULT:      -0.4      1.525      1.857
REMARK  1 active torsions:
REMARK  status: ('A' for Active; 'I' for Inactive)
REMARK    1  A    between atoms: C4_4  and  C5_5 
ROOT
HETATM    1  C1  UNL     1     -32.410   5.748   1.243  1.00 20.00     0.014 C 
HETATM    2  C2  UNL     1     -33.115   5.427   2.555  1.00 20.00     0.062 C 
HETATM    3  C3  UNL     1     -31.686   7.067   1.453  1.00 20.00     0.077 C 
HETATM    4  C4  UNL     1     -33.900   6.680   2.925  1.00 20.00     0.209 C 
HETATM    5  F6  UNL     1     -35.018   6.740   2.152  1.00 20.00    -0.225 F 
HETATM    6  S9  UNL     1     -32.803   8.061   2.481  1.00 20.00    -0.121 SA
ENDROOT
BRANCH   4   7
HETATM    7  C5  UNL     1     -34.316   6.722   4.383  1.00 20.00     0.403 C 
HETATM    8  F7  UNL     1     -35.599   6.308   4.490  1.00 20.00    -0.210 F 
HETATM    9  F8  UNL     1     -34.272   8.001   4.821  1.00 20.00    -0.210 F 
ENDBRANCH   4   7
TORSDOF 1
ENDMDL
