MODEL 1
REMARK VINA RESULT:       1.0      0.000      0.000
REMARK  1 active torsions:
REMARK  status: ('A' for Active; 'I' for Inactive)
REMARK    1  A    between atoms: C4_4  and  C5_5 
ROOT
HETATM    1  C1  UNL     1     -31.097   7.030   1.808  1.00 20.00    -0.022 C 
HETATM    2  C2  UNL     1     -31.594   5.809   1.528  1.00 20.00    -0.021 C 
HETATM    3  C3  UNL     1     -33.091   7.536   3.174  1.00 20.00    -0.006 C 
HETATM    4  C4  UNL     1     -33.583   6.316   2.884  1.00 20.00     0.009 C 
HETATM    5  C6  UNL     1     -33.026   8.167   0.799  1.00 20.00     0.013 C 
HETATM    6  C7  UNL     1     -33.600   6.749   0.473  1.00 20.00     0.014 C 
HETATM    7  C8  UNL     1     -32.165   8.083   2.091  1.00 20.00     0.031 C 
HETATM    8  C9  UNL     1     -33.119   5.741   1.554  1.00 20.00     0.045 C 
ENDROOT
BRANCH   4   9
HETATM    9  C5  UNL     1     -34.495   5.617   3.775  1.00 20.00     0.248 C 
HETATM   10  O10 UNL     1     -35.533   6.184   4.150  1.00 20.00    -0.274 OA
HETATM   11 CL11 UNL     1     -34.056   3.989   4.263  1.00 20.00    -0.039 Cl
ENDBRANCH   4   9
TORSDOF 1
ENDMDL
MODEL 2
REMARK VINA RESULT:       1.9      0.933      2.298
REMARK  1 active torsions:
REMARK  status: ('A' for Active; 'I' for Inactive)
REMARK    1  A    between atoms: C4_4  and  C5_5 
ROOT
HETATM    1  C1  UNL     1     -32.645   8.646   0.948  1.00 20.00    -0.022 C 
HETATM    2  C2  UNL     1     -33.447   9.081   1.940  1.00 20.00    -0.021 C 
HETATM    3  C3  UNL     1     -32.705   6.365   1.891  1.00 20.00    -0.006 C 
HETATM    4  C4  UNL     1     -33.501   6.809   2.882  1.00 20.00     0.009 C 
HETATM    5  C6  UNL     1     -30.908   7.918   2.524  1.00 20.00     0.013 C 
HETATM    6  C7  UNL     1     -31.839   8.425   3.674  1.00 20.00     0.014 C 
HETATM    7  C8  UNL     1     -31.784   7.445   1.330  1.00 20.00     0.031 C 
HETATM    8  C9  UNL     1     -33.323   8.279   3.233  1.00 20.00     0.045 C 
ENDROOT
BRANCH   4   9
HETATM    9  C5  UNL     1     -34.446   5.940   3.565  1.00 20.00     0.248 C 
HETATM   10  O10 UNL     1     -35.567   6.378   3.868  1.00 20.00    -0.274 OA
HETATM   11 CL11 UNL     1     -33.925   4.301   3.915  1.00 20.00    -0.039 Cl
ENDBRANCH   4   9
TORSDOF 1
ENDMDL
MODEL 3
REMARK VINA RESULT:       1.9      1.376      1.413
REMARK  1 active torsions:
REMARK  status: ('A' for Active; 'I' for Inactive)
REMARK    1  A    between atoms: C4_4  and  C5_5 
ROOT
HETATM    1  C1  UNL     1     -31.006   6.554   1.516  1.00 20.00    -0.022 C 
HETATM    2  C2  UNL     1     -32.088   5.751   1.518  1.00 20.00    -0.021 C 
HETATM    3  C3  UNL     1     -32.174   8.142   3.003  1.00 20.00    -0.006 C 
HETATM    4  C4  UNL     1     -33.254   7.336   2.994  1.00 20.00     0.009 C 
HETATM    5  C6  UNL     1     -32.268   8.433   0.564  1.00 20.00     0.013 C 
HETATM    6  C7  UNL     1     -33.522   7.499   0.564  1.00 20.00     0.014 C 
HETATM    7  C8  UNL     1     -31.330   8.029   1.736  1.00 20.00     0.031 C 
HETATM    8  C9  UNL     1     -33.406   6.488   1.740  1.00 20.00     0.045 C 
ENDROOT
BRANCH   4   9
HETATM    9  C5  UNL     1     -34.199   7.296   4.098  1.00 20.00     0.248 C 
HETATM   10  O10 UNL     1     -34.063   8.086   5.045  1.00 20.00    -0.274 OA
HETATM   11 CL11 UNL     1     -35.491   6.111   4.010  1.00 20.00    -0.039 Cl
ENDBRANCH   4   9
TORSDOF 1
ENDMDL
MODEL 4
REMARK VINA RESULT:       2.0      1.175      2.167
REMARK  1 active torsions:
REMARK  status: ('A' for Active; 'I' for Inactive)
REMARK    1  A    between atoms: C4_4  and  C5_5 
ROOT
HETATM    1  C1  UNL     1     -33.187   6.032   0.521  1.00 20.00    -0.022 C 
HETATM    2  C2  UNL     1     -34.330   6.348   1.161  1.00 20.00    -0.021 C 
HETATM    3  C3  UNL     1     -32.401   4.809   2.517  1.00 20.00    -0.006 C 
HETATM    4  C4  UNL     1     -33.544   5.135   3.151  1.00 20.00     0.009 C 
HETATM    5  C6  UNL     1     -31.804   7.172   2.199  1.00 20.00     0.013 C 
HETATM    6  C7  UNL     1     -33.131   7.541   2.939  1.00 20.00     0.014 C 
HETATM    7  C8  UNL     1     -31.995   5.823   1.451  1.00 20.00     0.031 C 
HETATM    8  C9  UNL     1     -34.188   6.430   2.678  1.00 20.00     0.045 C 
ENDROOT
BRANCH   4   9
HETATM    9  C5  UNL     1     -34.104   4.312   4.211  1.00 20.00     0.248 C 
HETATM   10  O10 UNL     1     -35.226   4.583   4.665  1.00 20.00    -0.274 OA
HETATM   11 CL11 UNL     1     -33.133   2.966   4.782  1.00 20.00    -0.039 Cl
ENDBRANCH   4   9
TORSDOF 1
ENDMDL
MODEL 5
REMARK VINA RESULT:       2.1      1.543      2.463
REMARK  1 active torsions:
REMARK  status: ('A' for Active; 'I' for Inactive)
REMARK    1  A    between atoms: C4_4  and  C5_5 
ROOT
HETATM    1  C1  UNL     1     -33.224   5.192   0.364  1.00 20.00    -0.022 C 
HETATM    2  C2  UNL     1     -33.832   6.394   0.420  1.00 20.00    -0.021 C 
HETATM    3  C3  UNL     1     -33.106   5.131   2.830  1.00 20.00    -0.006 C 
HETATM    4  C4  UNL     1     -33.709   6.335   2.876  1.00 20.00     0.009 C 
HETATM    5  C6  UNL     1     -31.227   6.028   1.523  1.00 20.00     0.013 C 
HETATM    6  C7  UNL     1     -31.933   7.422   1.585  1.00 20.00     0.014 C 
HETATM    7  C8  UNL     1     -32.305   4.909   1.549  1.00 20.00     0.031 C 
HETATM    8  C9  UNL     1     -33.472   7.213   1.657  1.00 20.00     0.045 C 
ENDROOT
BRANCH   4   9
HETATM    9  C5  UNL     1     -34.511   6.755   4.013  1.00 20.00     0.248 C 
HETATM   10  O10 UNL     1     -35.573   6.164   4.261  1.00 20.00    -0.274 OA
HETATM   11 CL11 UNL     1     -33.907   8.094   4.974  1.00 20.00    -0.039 Cl
ENDBRANCH   4   9
TORSDOF 1
ENDMDL
MODEL 6
REMARK VINA RESULT:       2.2      3.227      4.188
REMARK  1 active torsions:
REMARK  status: ('A' for Active; 'I' for Inactive)
REMARK    1  A    between atoms: C4_4  and  C5_5 
ROOT
HETATM    1  C1  UNL     1     -31.866   5.841   1.581  1.00 20.00    -0.022 C 
HETATM    2  C2  UNL     1     -31.073   6.875   1.922  1.00 20.00    -0.021 C 
HETATM    3  C3  UNL     1     -33.494   7.408   0.587  1.00 20.00    -0.006 C 
HETATM    4  C4  UNL     1     -32.697   8.437   0.937  1.00 20.00     0.009 C 
HETATM    5  C6  UNL     1     -33.737   6.691   2.925  1.00 20.00     0.013 C 
HETATM    6  C7  UNL     1     -32.814   7.890   3.322  1.00 20.00     0.014 C 
HETATM    7  C8  UNL     1     -33.348   6.197   1.503  1.00 20.00     0.031 C 
HETATM    8  C9  UNL     1     -31.826   8.182   2.157  1.00 20.00     0.045 C 
ENDROOT
BRANCH   4   9
HETATM    9  C5  UNL     1     -32.688   9.693   0.204  1.00 20.00     0.248 C 
HETATM   10  O10 UNL     1     -32.802   9.679  -1.031  1.00 20.00    -0.274 OA
HETATM   11 CL11 UNL     1     -32.515  11.169   1.138  1.00 20.00    -0.039 Cl
ENDBRANCH   4   9
TORSDOF 1
ENDMDL
MODEL 7
REMARK VINA RESULT:       2.2      1.521      2.590
REMARK  1 active torsions:
REMARK  status: ('A' for Active; 'I' for Inactive)
REMARK    1  A    between atoms: C4_4  and  C5_5 
ROOT
HETATM    1  C1  UNL     1     -32.644   8.830   0.957  1.00 20.00    -0.022 C 
HETATM    2  C2  UNL     1     -33.496   9.097   1.967  1.00 20.00    -0.021 C 
HETATM    3  C3  UNL     1     -32.413   6.505   1.757  1.00 20.00    -0.006 C 
HETATM    4  C4  UNL     1     -33.261   6.783   2.767  1.00 20.00     0.009 C 
HETATM    5  C6  UNL     1     -30.830   8.232   2.500  1.00 20.00     0.013 C 
HETATM    6  C7  UNL     1     -31.818   8.545   3.671  1.00 20.00     0.014 C 
HETATM    7  C8  UNL     1     -31.638   7.727   1.271  1.00 20.00     0.031 C 
HETATM    8  C9  UNL     1     -33.271   8.238   3.209  1.00 20.00     0.045 C 
ENDROOT
BRANCH   4   9
HETATM    9  C5  UNL     1     -34.088   5.760   3.387  1.00 20.00     0.248 C 
HETATM   10  O10 UNL     1     -33.683   4.587   3.420  1.00 20.00    -0.274 OA
HETATM   11 CL11 UNL     1     -35.628   6.266   4.058  1.00 20.00    -0.039 Cl
ENDBRANCH   4   9
TORSDOF 1
ENDMDL
MODEL 8
REMARK VINA RESULT:       2.4      1.492      2.599
REMARK  1 active torsions:
REMARK  status: ('A' for Active; 'I' for Inactive)
REMARK    1  A    between atoms: C4_4  and  C5_5 
ROOT
HETATM    1  C1  UNL     1     -32.637   8.386   0.382  1.00 20.00    -0.022 C 
HETATM    2  C2  UNL     1     -32.761   9.313   1.352  1.00 20.00    -0.021 C 
HETATM    3  C3  UNL     1     -33.222   6.611   1.995  1.00 20.00    -0.006 C 
HETATM    4  C4  UNL     1     -33.338   7.544   2.960  1.00 20.00     0.009 C 
HETATM    5  C6  UNL     1     -30.868   7.193   1.597  1.00 20.00     0.013 C 
HETATM    6  C7  UNL     1     -31.011   8.272   2.721  1.00 20.00     0.014 C 
HETATM    7  C8  UNL     1     -32.241   7.004   0.894  1.00 20.00     0.031 C 
HETATM    8  C9  UNL     1     -32.480   8.782   2.755  1.00 20.00     0.045 C 
ENDROOT
BRANCH   4   9
HETATM    9  C5  UNL     1     -34.211   7.365   4.109  1.00 20.00     0.248 C 
HETATM   10  O10 UNL     1     -34.052   8.078   5.112  1.00 20.00    -0.274 OA
HETATM   11 CL11 UNL     1     -35.452   6.129   3.993  1.00 20.00    -0.039 Cl
ENDBRANCH   4   9
TORSDOF 1
ENDMDL
MODEL 9
REMARK VINA RESULT:       2.8      3.297      4.234
REMARK  1 active torsions:
REMARK  status: ('A' for Active; 'I' for Inactive)
REMARK    1  A    between atoms: C4_4  and  C5_5 
ROOT
HETATM    1  C1  UNL     1     -33.482   6.426   2.534  1.00 20.00    -0.022 C 
HETATM    2  C2  UNL     1     -32.380   6.521   1.766  1.00 20.00    -0.021 C 
HETATM    3  C3  UNL     1     -33.886   8.847   2.268  1.00 20.00    -0.006 C 
HETATM    4  C4  UNL     1     -32.778   8.934   1.506  1.00 20.00     0.009 C 
HETATM    5  C6  UNL     1     -32.600   8.011   4.189  1.00 20.00     0.013 C 
HETATM    6  C7  UNL     1     -31.319   8.119   3.297  1.00 20.00     0.014 C 
HETATM    7  C8  UNL     1     -33.827   7.709   3.284  1.00 20.00     0.031 C 
HETATM    8  C9  UNL     1     -31.712   7.893   1.809  1.00 20.00     0.045 C 
ENDROOT
BRANCH   4   9
HETATM    9  C5  UNL     1     -32.621   9.956   0.483  1.00 20.00     0.248 C 
HETATM   10  O10 UNL     1     -32.634  11.152   0.810  1.00 20.00    -0.274 OA
HETATM   11 CL11 UNL     1     -32.417   9.412  -1.173  1.00 20.00    -0.039 Cl
ENDBRANCH   4   9
TORSDOF 1
ENDMDL
