MODEL 1
REMARK VINA RESULT:      -2.1      0.000      0.000
REMARK  1 active torsions:
REMARK  status: ('A' for Active; 'I' for Inactive)
REMARK    1  A    between atoms: C3_3  and  C6_6 
ROOT
HETATM    1  C1  UNL     1     -32.174   8.918   1.058  1.00 20.00    -0.154 C 
HETATM    2  C5  UNL     1     -32.518   9.831   0.200  1.00 20.00     0.096 C 
HETATM    3  C6  UNL     1     -31.824   8.008   1.917  1.00 20.00     0.061 C 
ENDROOT
BRANCH   3   4
HETATM    4  C3  UNL     1     -32.751   7.040   2.421  1.00 20.00    -0.010 A 
HETATM    5  C2  UNL     1     -33.677   7.223   3.366  1.00 20.00     0.023 A 
HETATM    6  C4  UNL     1     -34.334   5.919   3.560  1.00 20.00     0.290 A 
HETATM    7  C8  UNL     1     -34.065   8.416   4.157  1.00 20.00     0.055 C 
HETATM    8  O10 UNL     1     -35.241   5.694   4.342  1.00 20.00    -0.260 OA
HETATM    9  O11 UNL     1     -33.758   5.003   2.731  1.00 20.00    -0.308 OA
HETATM   10  C7  UNL     1     -32.746   5.637   1.934  1.00 20.00     0.162 A 
HETATM   11  C9  UNL     1     -33.123   5.477   0.467  1.00 20.00     0.045 C 
ENDBRANCH   3   4
TORSDOF 1
ENDMDL
MODEL 2
REMARK VINA RESULT:      -2.0      2.200      4.625
REMARK  1 active torsions:
REMARK  status: ('A' for Active; 'I' for Inactive)
REMARK    1  A    between atoms: C3_3  and  C6_6 
ROOT
HETATM    1  C1  UNL     1     -33.464   3.513   4.280  1.00 20.00    -0.154 C 
HETATM    2  C5  UNL     1     -32.909   2.817   5.226  1.00 20.00     0.096 C 
HETATM    3  C6  UNL     1     -34.023   4.204   3.332  1.00 20.00     0.061 C 
ENDROOT
BRANCH   3   4
HETATM    4  C3  UNL     1     -33.601   5.534   3.008  1.00 20.00    -0.010 A 
HETATM    5  C2  UNL     1     -32.774   5.904   2.028  1.00 20.00     0.023 A 
HETATM    6  C4  UNL     1     -32.621   7.363   2.144  1.00 20.00     0.290 A 
HETATM    7  C8  UNL     1     -32.066   5.127   0.981  1.00 20.00     0.055 C 
HETATM    8  O10 UNL     1     -31.941   8.063   1.412  1.00 20.00    -0.260 OA
HETATM    9  O11 UNL     1     -33.352   7.806   3.206  1.00 20.00    -0.308 OA
HETATM   10  C7  UNL     1     -34.045   6.703   3.810  1.00 20.00     0.162 A 
HETATM   11  C9  UNL     1     -35.541   6.983   3.742  1.00 20.00     0.045 C 
ENDBRANCH   3   4
TORSDOF 1
ENDMDL
MODEL 3
REMARK VINA RESULT:      -1.9      0.820      2.529
REMARK  1 active torsions:
REMARK  status: ('A' for Active; 'I' for Inactive)
REMARK    1  A    between atoms: C3_3  and  C6_6 
ROOT
HETATM    1  C1  UNL     1     -32.300   9.117   0.825  1.00 20.00    -0.154 C 
HETATM    2  C5  UNL     1     -32.732   9.873  -0.139  1.00 20.00     0.096 C 
HETATM    3  C6  UNL     1     -31.862   8.363   1.789  1.00 20.00     0.061 C 
ENDROOT
BRANCH   3   4
HETATM    4  C3  UNL     1     -32.711   7.441   2.480  1.00 20.00    -0.010 A 
HETATM    5  C2  UNL     1     -32.846   6.133   2.246  1.00 20.00     0.023 A 
HETATM    6  C4  UNL     1     -33.869   5.647   3.186  1.00 20.00     0.290 A 
HETATM    7  C8  UNL     1     -32.191   5.228   1.270  1.00 20.00     0.055 C 
HETATM    8  O10 UNL     1     -34.258   4.495   3.274  1.00 20.00    -0.260 OA
HETATM    9  O11 UNL     1     -34.319   6.693   3.935  1.00 20.00    -0.308 OA
HETATM   10  C7  UNL     1     -33.611   7.888   3.574  1.00 20.00     0.162 A 
HETATM   11  C9  UNL     1     -32.890   8.408   4.811  1.00 20.00     0.045 C 
ENDBRANCH   3   4
TORSDOF 1
ENDMDL
MODEL 4
REMARK VINA RESULT:      -1.4      2.088      3.945
REMARK  1 active torsions:
REMARK  status: ('A' for Active; 'I' for Inactive)
REMARK    1  A    between atoms: C3_3  and  C6_6 
ROOT
HETATM    1  C1  UNL     1     -33.781   3.980   4.189  1.00 20.00    -0.154 C 
HETATM    2  C5  UNL     1     -33.213   2.977   4.787  1.00 20.00     0.096 C 
HETATM    3  C6  UNL     1     -34.356   4.981   3.593  1.00 20.00     0.061 C 
ENDROOT
BRANCH   3   4
HETATM    4  C3  UNL     1     -33.607   5.991   2.907  1.00 20.00    -0.010 A 
HETATM    5  C2  UNL     1     -33.364   7.238   3.318  1.00 20.00     0.023 A 
HETATM    6  C4  UNL     1     -32.599   7.887   2.242  1.00 20.00     0.290 A 
HETATM    7  C8  UNL     1     -33.737   7.964   4.557  1.00 20.00     0.055 C 
HETATM    8  O10 UNL     1     -32.189   9.035   2.259  1.00 20.00    -0.260 OA
HETATM    9  O11 UNL     1     -32.431   7.003   1.218  1.00 20.00    -0.308 OA
HETATM   10  C7  UNL     1     -33.020   5.741   1.566  1.00 20.00     0.162 A 
HETATM   11  C9  UNL     1     -31.927   4.680   1.543  1.00 20.00     0.045 C 
ENDBRANCH   3   4
TORSDOF 1
ENDMDL
MODEL 5
REMARK VINA RESULT:       0.4      1.600      3.247
REMARK  1 active torsions:
REMARK  status: ('A' for Active; 'I' for Inactive)
REMARK    1  A    between atoms: C3_3  and  C6_6 
ROOT
HETATM    1  C1  UNL     1     -33.178   4.561   0.208  1.00 20.00    -0.154 C 
HETATM    2  C5  UNL     1     -33.942   3.943  -0.641  1.00 20.00     0.096 C 
HETATM    3  C6  UNL     1     -32.409   5.177   1.056  1.00 20.00     0.061 C 
ENDROOT
BRANCH   3   4
HETATM    4  C3  UNL     1     -32.918   6.138   1.987  1.00 20.00    -0.010 A 
HETATM    5  C2  UNL     1     -33.628   5.897   3.092  1.00 20.00     0.023 A 
HETATM    6  C4  UNL     1     -33.950   7.211   3.672  1.00 20.00     0.290 A 
HETATM    7  C8  UNL     1     -34.090   4.635   3.718  1.00 20.00     0.055 C 
HETATM    8  O10 UNL     1     -34.586   7.396   4.696  1.00 20.00    -0.260 OA
HETATM    9  O11 UNL     1     -33.431   8.189   2.877  1.00 20.00    -0.308 OA
HETATM   10  C7  UNL     1     -32.721   7.596   1.779  1.00 20.00     0.162 A 
HETATM   11  C9  UNL     1     -31.269   8.052   1.847  1.00 20.00     0.045 C 
ENDBRANCH   3   4
TORSDOF 1
ENDMDL
MODEL 6
REMARK VINA RESULT:       0.5      1.970      3.288
REMARK  1 active torsions:
REMARK  status: ('A' for Active; 'I' for Inactive)
REMARK    1  A    between atoms: C3_3  and  C6_6 
ROOT
HETATM    1  C1  UNL     1     -32.160   5.310   1.223  1.00 20.00    -0.154 C 
HETATM    2  C5  UNL     1     -31.907   4.443   0.289  1.00 20.00     0.096 C 
HETATM    3  C6  UNL     1     -32.408   6.181   2.155  1.00 20.00     0.061 C 
ENDROOT
BRANCH   3   4
HETATM    4  C3  UNL     1     -33.520   6.046   3.047  1.00 20.00    -0.010 A 
HETATM    5  C2  UNL     1     -33.951   4.930   3.641  1.00 20.00     0.023 A 
HETATM    6  C4  UNL     1     -35.146   5.306   4.413  1.00 20.00     0.290 A 
HETATM    7  C8  UNL     1     -33.451   3.534   3.609  1.00 20.00     0.055 C 
HETATM    8  O10 UNL     1     -35.814   4.549   5.096  1.00 20.00    -0.260 OA
HETATM    9  O11 UNL     1     -35.392   6.635   4.234  1.00 20.00    -0.308 OA
HETATM   10  C7  UNL     1     -34.380   7.207   3.392  1.00 20.00     0.162 A 
HETATM   11  C9  UNL     1     -33.672   8.305   4.175  1.00 20.00     0.045 C 
ENDBRANCH   3   4
TORSDOF 1
ENDMDL
MODEL 7
REMARK VINA RESULT:       0.7      1.511      3.470
REMARK  1 active torsions:
REMARK  status: ('A' for Active; 'I' for Inactive)
REMARK    1  A    between atoms: C3_3  and  C6_6 
ROOT
HETATM    1  C1  UNL     1     -33.715   7.976   4.822  1.00 20.00    -0.154 C 
HETATM    2  C5  UNL     1     -33.092   8.605   5.772  1.00 20.00     0.096 C 
HETATM    3  C6  UNL     1     -34.342   7.350   3.871  1.00 20.00     0.061 C 
ENDROOT
BRANCH   3   4
HETATM    4  C3  UNL     1     -33.681   6.423   3.004  1.00 20.00    -0.010 A 
HETATM    5  C2  UNL     1     -32.707   6.686   2.129  1.00 20.00     0.023 A 
HETATM    6  C4  UNL     1     -32.404   5.415   1.451  1.00 20.00     0.290 A 
HETATM    7  C8  UNL     1     -31.994   7.941   1.787  1.00 20.00     0.055 C 
HETATM    8  O10 UNL     1     -31.559   5.259   0.586  1.00 20.00    -0.260 OA
HETATM    9  O11 UNL     1     -33.227   4.443   1.937  1.00 20.00    -0.308 OA
HETATM   10  C7  UNL     1     -34.068   4.989   2.965  1.00 20.00     0.162 A 
HETATM   11  C9  UNL     1     -33.798   4.228   4.257  1.00 20.00     0.045 C 
ENDBRANCH   3   4
TORSDOF 1
ENDMDL
