MODEL 1
REMARK VINA RESULT:      -0.6      0.000      0.000
REMARK  1 active torsions:
REMARK  status: ('A' for Active; 'I' for Inactive)
REMARK    1  A    between atoms: C1_1  and  C6_6 
ROOT
HETATM    1  C2  UNL     1     -32.737   7.955   3.007  1.00 20.00     0.001 C 
HETATM    2  C3  UNL     1     -32.428   6.827   2.039  1.00 20.00     0.001 C 
HETATM    3  C4  UNL     1     -33.507   7.250   4.114  1.00 20.00     0.018 C 
HETATM    4  C5  UNL     1     -33.689   5.965   2.034  1.00 20.00     0.018 C 
HETATM    5  C6  UNL     1     -34.400   6.241   3.374  1.00 20.00     0.032 C 
HETATM    6  C7  UNL     1     -35.747   6.858   3.098  1.00 20.00     0.025 C 
ENDROOT
BRANCH   5   7
HETATM    7  C1  UNL     1     -34.613   4.969   4.192  1.00 20.00     0.227 C 
HETATM    8  O8  UNL     1     -35.613   4.807   4.885  1.00 20.00    -0.279 OA
HETATM    9 CL9  UNL     1     -33.300   3.845   4.009  1.00 20.00    -0.043 Cl
ENDBRANCH   5   7
TORSDOF 1
ENDMDL
MODEL 2
REMARK VINA RESULT:      -0.5      2.365      3.364
REMARK  1 active torsions:
REMARK  status: ('A' for Active; 'I' for Inactive)
REMARK    1  A    between atoms: C1_1  and  C6_6 
ROOT
HETATM    1  C2  UNL     1     -35.611   6.038   4.186  1.00 20.00     0.001 C 
HETATM    2  C3  UNL     1     -34.684   4.841   4.074  1.00 20.00     0.001 C 
HETATM    3  C4  UNL     1     -35.006   7.029   3.201  1.00 20.00     0.018 C 
HETATM    4  C5  UNL     1     -33.287   5.445   3.941  1.00 20.00     0.018 C 
HETATM    5  C6  UNL     1     -33.488   6.870   3.385  1.00 20.00     0.032 C 
HETATM    6  C7  UNL     1     -32.989   7.868   4.397  1.00 20.00     0.025 C 
ENDROOT
BRANCH   5   7
HETATM    7  C1  UNL     1     -32.735   7.093   2.075  1.00 20.00     0.227 C 
HETATM    8  O8  UNL     1     -32.312   8.201   1.755  1.00 20.00    -0.279 OA
HETATM    9 CL9  UNL     1     -32.574   5.629   1.154  1.00 20.00    -0.043 Cl
ENDBRANCH   5   7
TORSDOF 1
ENDMDL
MODEL 3
REMARK VINA RESULT:      -0.3      2.477      3.518
REMARK  1 active torsions:
REMARK  status: ('A' for Active; 'I' for Inactive)
REMARK    1  A    between atoms: C1_1  and  C6_6 
ROOT
HETATM    1  C2  UNL     1     -34.317   4.300   4.056  1.00 20.00     0.001 C 
HETATM    2  C3  UNL     1     -35.323   5.366   4.450  1.00 20.00     0.001 C 
HETATM    3  C4  UNL     1     -33.087   5.115   3.682  1.00 20.00     0.018 C 
HETATM    4  C5  UNL     1     -35.097   6.499   3.450  1.00 20.00     0.018 C 
HETATM    5  C6  UNL     1     -33.651   6.337   2.939  1.00 20.00     0.032 C 
HETATM    6  C7  UNL     1     -33.681   6.064   1.457  1.00 20.00     0.025 C 
ENDROOT
BRANCH   5   7
HETATM    7  C1  UNL     1     -32.806   7.585   3.182  1.00 20.00     0.227 C 
HETATM    8  O8  UNL     1     -32.078   8.051   2.310  1.00 20.00    -0.279 OA
HETATM    9 CL9  UNL     1     -33.013   8.214   4.789  1.00 20.00    -0.043 Cl
ENDBRANCH   5   7
TORSDOF 1
ENDMDL
MODEL 4
REMARK VINA RESULT:      -0.1      1.323      1.323
REMARK  1 active torsions:
REMARK  status: ('A' for Active; 'I' for Inactive)
REMARK    1  A    between atoms: C1_1  and  C6_6 
ROOT
HETATM    1  C2  UNL     1     -32.426   8.163   2.792  1.00 20.00     0.001 C 
HETATM    2  C3  UNL     1     -32.149   7.103   1.741  1.00 20.00     0.001 C 
HETATM    3  C4  UNL     1     -33.106   7.372   3.900  1.00 20.00     0.018 C 
HETATM    4  C5  UNL     1     -33.385   6.205   1.762  1.00 20.00     0.018 C 
HETATM    5  C6  UNL     1     -34.017   6.381   3.158  1.00 20.00     0.032 C 
HETATM    6  C7  UNL     1     -35.395   6.973   3.002  1.00 20.00     0.025 C 
ENDROOT
BRANCH   5   7
HETATM    7  C1  UNL     1     -34.145   5.058   3.909  1.00 20.00     0.227 C 
HETATM    8  O8  UNL     1     -33.291   4.180   3.819  1.00 20.00    -0.279 OA
HETATM    9 CL9  UNL     1     -35.598   4.982   4.859  1.00 20.00    -0.043 Cl
ENDBRANCH   5   7
TORSDOF 1
ENDMDL
MODEL 5
REMARK VINA RESULT:       0.0      3.756      4.652
REMARK  1 active torsions:
REMARK  status: ('A' for Active; 'I' for Inactive)
REMARK    1  A    between atoms: C1_1  and  C6_6 
ROOT
HETATM    1  C2  UNL     1     -33.733   6.583   2.960  1.00 20.00     0.001 C 
HETATM    2  C3  UNL     1     -33.105   5.764   1.847  1.00 20.00     0.001 C 
HETATM    3  C4  UNL     1     -33.509   8.015   2.496  1.00 20.00     0.018 C 
HETATM    4  C5  UNL     1     -31.849   6.540   1.457  1.00 20.00     0.018 C 
HETATM    5  C6  UNL     1     -32.099   8.001   1.884  1.00 20.00     0.032 C 
HETATM    6  C7  UNL     1     -31.085   8.388   2.930  1.00 20.00     0.025 C 
ENDROOT
BRANCH   5   7
HETATM    7  C1  UNL     1     -31.981   8.976   0.715  1.00 20.00     0.227 C 
HETATM    8  O8  UNL     1     -31.225   8.763  -0.229  1.00 20.00    -0.279 OA
HETATM    9 CL9  UNL     1     -33.016  10.359   0.908  1.00 20.00    -0.043 Cl
ENDBRANCH   5   7
TORSDOF 1
ENDMDL
MODEL 6
REMARK VINA RESULT:       0.2      2.776      3.858
REMARK  1 active torsions:
REMARK  status: ('A' for Active; 'I' for Inactive)
REMARK    1  A    between atoms: C1_1  and  C6_6 
ROOT
HETATM    1  C2  UNL     1     -31.267   9.257  -0.128  1.00 20.00     0.001 C 
HETATM    2  C3  UNL     1     -32.633   9.870   0.125  1.00 20.00     0.001 C 
HETATM    3  C4  UNL     1     -31.366   7.907   0.569  1.00 20.00     0.018 C 
HETATM    4  C5  UNL     1     -32.977   9.469   1.559  1.00 20.00     0.018 C 
HETATM    5  C6  UNL     1     -32.151   8.201   1.858  1.00 20.00     0.032 C 
HETATM    6  C7  UNL     1     -31.192   8.493   2.984  1.00 20.00     0.025 C 
ENDROOT
BRANCH   5   7
HETATM    7  C1  UNL     1     -33.028   7.019   2.266  1.00 20.00     0.227 C 
HETATM    8  O8  UNL     1     -33.012   5.959   1.647  1.00 20.00    -0.279 OA
HETATM    9 CL9  UNL     1     -34.001   7.378   3.661  1.00 20.00    -0.043 Cl
ENDBRANCH   5   7
TORSDOF 1
ENDMDL
MODEL 7
REMARK VINA RESULT:       0.6      2.647      3.459
REMARK  1 active torsions:
REMARK  status: ('A' for Active; 'I' for Inactive)
REMARK    1  A    between atoms: C1_1  and  C6_6 
ROOT
HETATM    1  C2  UNL     1     -34.812   5.814   4.039  1.00 20.00     0.001 C 
HETATM    2  C3  UNL     1     -34.370   7.262   4.146  1.00 20.00     0.001 C 
HETATM    3  C4  UNL     1     -33.727   5.191   3.171  1.00 20.00     0.018 C 
HETATM    4  C5  UNL     1     -33.832   7.606   2.759  1.00 20.00     0.018 C 
HETATM    5  C6  UNL     1     -33.421   6.266   2.115  1.00 20.00     0.032 C 
HETATM    6  C7  UNL     1     -34.264   6.030   0.888  1.00 20.00     0.025 C 
ENDROOT
BRANCH   5   7
HETATM    7  C1  UNL     1     -31.952   6.247   1.700  1.00 20.00     0.227 C 
HETATM    8  O8  UNL     1     -31.372   5.200   1.424  1.00 20.00    -0.279 OA
HETATM    9 CL9  UNL     1     -31.257   7.840   1.677  1.00 20.00    -0.043 Cl
ENDBRANCH   5   7
TORSDOF 1
ENDMDL
MODEL 8
REMARK VINA RESULT:       0.6      3.546      4.483
REMARK  1 active torsions:
REMARK  status: ('A' for Active; 'I' for Inactive)
REMARK    1  A    between atoms: C1_1  and  C6_6 
ROOT
HETATM    1  C2  UNL     1     -33.736   7.212   3.589  1.00 20.00     0.001 C 
HETATM    2  C3  UNL     1     -33.596   6.264   2.412  1.00 20.00     0.001 C 
HETATM    3  C4  UNL     1     -33.365   8.560   2.985  1.00 20.00     0.018 C 
HETATM    4  C5  UNL     1     -32.359   6.756   1.664  1.00 20.00     0.018 C 
HETATM    5  C6  UNL     1     -32.196   8.243   2.038  1.00 20.00     0.032 C 
HETATM    6  C7  UNL     1     -30.888   8.427   2.763  1.00 20.00     0.025 C 
ENDROOT
BRANCH   5   7
HETATM    7  C1  UNL     1     -32.200   9.154   0.812  1.00 20.00     0.227 C 
HETATM    8  O8  UNL     1     -32.926  10.142   0.744  1.00 20.00    -0.279 OA
HETATM    9 CL9  UNL     1     -31.086   8.615  -0.408  1.00 20.00    -0.043 Cl
ENDBRANCH   5   7
TORSDOF 1
ENDMDL
MODEL 9
REMARK VINA RESULT:       0.6      2.191      3.067
REMARK  1 active torsions:
REMARK  status: ('A' for Active; 'I' for Inactive)
REMARK    1  A    between atoms: C1_1  and  C6_6 
ROOT
HETATM    1  C2  UNL     1     -32.024   5.018   0.847  1.00 20.00     0.001 C 
HETATM    2  C3  UNL     1     -33.484   5.221   0.482  1.00 20.00     0.001 C 
HETATM    3  C4  UNL     1     -31.932   5.640   2.234  1.00 20.00     0.018 C 
HETATM    4  C5  UNL     1     -33.827   6.610   1.017  1.00 20.00     0.018 C 
HETATM    5  C6  UNL     1     -32.817   6.894   2.148  1.00 20.00     0.032 C 
HETATM    6  C7  UNL     1     -31.978   8.087   1.770  1.00 20.00     0.025 C 
ENDROOT
BRANCH   5   7
HETATM    7  C1  UNL     1     -33.504   7.191   3.479  1.00 20.00     0.227 C 
HETATM    8  O8  UNL     1     -33.026   7.979   4.290  1.00 20.00    -0.279 OA
HETATM    9 CL9  UNL     1     -34.983   6.298   3.667  1.00 20.00    -0.043 Cl
ENDBRANCH   5   7
TORSDOF 1
ENDMDL
