MODEL 1
REMARK VINA RESULT:      -2.1      0.000      0.000
REMARK  2 active torsions:
REMARK  status: ('A' for Active; 'I' for Inactive)
REMARK    1  A    between atoms: C3_3  and  C4_4 
REMARK    2  A    between atoms: C3_3  and  O10_10 
ROOT
HETATM    1  C1  UNL     1     -32.763   6.838   2.208  1.00 20.00    -0.065 A 
HETATM    2  C2  UNL     1     -32.347   8.086   2.186  1.00 20.00    -0.027 C 
HETATM    3  C4  UNL     1     -33.132   5.737   3.013  1.00 20.00     0.122 A 
HETATM    4  C5  UNL     1     -33.132   5.715   1.439  1.00 20.00     0.029 A 
HETATM    5  C6  UNL     1     -32.079   8.879   0.936  1.00 20.00     0.036 C 
HETATM    6  C7  UNL     1     -32.116   4.915   0.704  1.00 20.00     0.016 C 
ENDROOT
BRANCH   3   7
HETATM    7  C3  UNL     1     -34.407   5.867   3.719  1.00 20.00     0.267 C 
HETATM    8  O9  UNL     1     -34.999   6.926   3.874  1.00 20.00    -0.265 OA
BRANCH   7   9
HETATM    9  O10 UNL     1     -34.809   4.642   4.163  1.00 20.00    -0.326 OA
HETATM   10  C8  UNL     1     -33.761   3.692   4.382  1.00 20.00     0.213 C 
ENDBRANCH   7   9
ENDBRANCH   3   7
TORSDOF 2
ENDMDL
MODEL 2
REMARK VINA RESULT:      -1.6      1.088      2.518
REMARK  2 active torsions:
REMARK  status: ('A' for Active; 'I' for Inactive)
REMARK    1  A    between atoms: C3_3  and  C4_4 
REMARK    2  A    between atoms: C3_3  and  O10_10 
ROOT
HETATM    1  C1  UNL     1     -32.903   6.659   1.920  1.00 20.00    -0.065 A 
HETATM    2  C2  UNL     1     -32.796   5.443   1.429  1.00 20.00    -0.027 C 
HETATM    3  C4  UNL     1     -33.757   7.613   2.516  1.00 20.00     0.122 A 
HETATM    4  C5  UNL     1     -32.239   7.873   2.192  1.00 20.00     0.029 A 
HETATM    5  C6  UNL     1     -31.533   4.856   0.859  1.00 20.00     0.036 C 
HETATM    6  C7  UNL     1     -31.857   8.806   1.100  1.00 20.00     0.016 C 
ENDROOT
BRANCH   3   7
HETATM    7  C3  UNL     1     -34.149   7.337   3.898  1.00 20.00     0.267 C 
HETATM    8  O9  UNL     1     -33.576   7.794   4.877  1.00 20.00    -0.265 OA
BRANCH   7   9
HETATM    9  O10 UNL     1     -35.230   6.506   3.908  1.00 20.00    -0.326 OA
HETATM   10  C8  UNL     1     -34.983   5.182   4.393  1.00 20.00     0.213 C 
ENDBRANCH   7   9
ENDBRANCH   3   7
TORSDOF 2
ENDMDL
MODEL 3
REMARK VINA RESULT:      -1.5      2.089      4.144
REMARK  2 active torsions:
REMARK  status: ('A' for Active; 'I' for Inactive)
REMARK    1  A    between atoms: C3_3  and  C4_4 
REMARK    2  A    between atoms: C3_3  and  O10_10 
ROOT
HETATM    1  C1  UNL     1     -33.342   6.157   2.338  1.00 20.00    -0.065 A 
HETATM    2  C2  UNL     1     -34.174   5.970   3.340  1.00 20.00    -0.027 C 
HETATM    3  C4  UNL     1     -32.867   7.058   1.359  1.00 20.00     0.122 A 
HETATM    4  C5  UNL     1     -32.337   5.586   1.531  1.00 20.00     0.029 A 
HETATM    5  C6  UNL     1     -34.296   4.693   4.126  1.00 20.00     0.036 C 
HETATM    6  C7  UNL     1     -32.660   4.553   0.511  1.00 20.00     0.016 C 
ENDROOT
BRANCH   3   7
HETATM    7  C3  UNL     1     -32.053   8.167   1.859  1.00 20.00     0.267 C 
HETATM    8  O9  UNL     1     -31.843   8.382   3.045  1.00 20.00    -0.265 OA
BRANCH   7   9
HETATM    9  O10 UNL     1     -31.585   8.899   0.809  1.00 20.00    -0.326 OA
HETATM   10  C8  UNL     1     -32.486   9.886   0.297  1.00 20.00     0.213 C 
ENDBRANCH   7   9
ENDBRANCH   3   7
TORSDOF 2
ENDMDL
MODEL 4
REMARK VINA RESULT:      -1.0      1.488      2.532
REMARK  2 active torsions:
REMARK  status: ('A' for Active; 'I' for Inactive)
REMARK    1  A    between atoms: C3_3  and  C4_4 
REMARK    2  A    between atoms: C3_3  and  O10_10 
ROOT
HETATM    1  C1  UNL     1     -33.705   6.543   2.908  1.00 20.00    -0.065 A 
HETATM    2  C2  UNL     1     -33.020   6.332   1.803  1.00 20.00    -0.027 C 
HETATM    3  C4  UNL     1     -34.850   6.203   3.661  1.00 20.00     0.122 A 
HETATM    4  C5  UNL     1     -33.779   7.262   4.118  1.00 20.00     0.029 A 
HETATM    5  C6  UNL     1     -31.734   7.025   1.447  1.00 20.00     0.036 C 
HETATM    6  C7  UNL     1     -34.120   8.709   4.137  1.00 20.00     0.016 C 
ENDROOT
BRANCH   3   7
HETATM    7  C3  UNL     1     -34.837   4.873   4.271  1.00 20.00     0.267 C 
HETATM    8  O9  UNL     1     -35.666   4.483   5.081  1.00 20.00    -0.265 OA
BRANCH   7   9
HETATM    9  O10 UNL     1     -33.771   4.166   3.799  1.00 20.00    -0.326 OA
HETATM   10  C8  UNL     1     -33.318   3.101   4.641  1.00 20.00     0.213 C 
ENDBRANCH   7   9
ENDBRANCH   3   7
TORSDOF 2
ENDMDL
MODEL 5
REMARK VINA RESULT:      -0.6      1.427      3.711
REMARK  2 active torsions:
REMARK  status: ('A' for Active; 'I' for Inactive)
REMARK    1  A    between atoms: C3_3  and  C4_4 
REMARK    2  A    between atoms: C3_3  and  O10_10 
ROOT
HETATM    1  C1  UNL     1     -33.515   5.217   3.076  1.00 20.00    -0.065 A 
HETATM    2  C2  UNL     1     -33.999   4.392   3.980  1.00 20.00    -0.027 C 
HETATM    3  C4  UNL     1     -33.642   6.475   2.447  1.00 20.00     0.122 A 
HETATM    4  C5  UNL     1     -32.526   5.424   2.093  1.00 20.00     0.029 A 
HETATM    5  C6  UNL     1     -33.435   3.032   4.290  1.00 20.00     0.036 C 
HETATM    6  C7  UNL     1     -32.566   4.701   0.794  1.00 20.00     0.016 C 
ENDROOT
BRANCH   3   7
HETATM    7  C3  UNL     1     -33.290   7.633   3.268  1.00 20.00     0.267 C 
HETATM    8  O9  UNL     1     -33.899   7.972   4.274  1.00 20.00    -0.265 OA
BRANCH   7   9
HETATM    9  O10 UNL     1     -32.199   8.255   2.736  1.00 20.00    -0.326 OA
HETATM   10  C8  UNL     1     -32.323   8.651   1.367  1.00 20.00     0.213 C 
ENDBRANCH   7   9
ENDBRANCH   3   7
TORSDOF 2
ENDMDL
MODEL 6
REMARK VINA RESULT:      -0.4      2.396      3.982
REMARK  2 active torsions:
REMARK  status: ('A' for Active; 'I' for Inactive)
REMARK    1  A    between atoms: C3_3  and  C4_4 
REMARK    2  A    between atoms: C3_3  and  O10_10 
ROOT
HETATM    1  C1  UNL     1     -33.547   7.401   3.723  1.00 20.00    -0.065 A 
HETATM    2  C2  UNL     1     -33.135   8.402   4.472  1.00 20.00    -0.027 C 
HETATM    3  C4  UNL     1     -33.718   6.912   2.409  1.00 20.00     0.122 A 
HETATM    4  C5  UNL     1     -34.112   6.110   3.705  1.00 20.00     0.029 A 
HETATM    5  C6  UNL     1     -33.175   8.421   5.976  1.00 20.00     0.036 C 
HETATM    6  C7  UNL     1     -35.544   5.889   4.040  1.00 20.00     0.016 C 
ENDROOT
BRANCH   3   7
HETATM    7  C3  UNL     1     -32.489   6.553   1.701  1.00 20.00     0.267 C 
HETATM    8  O9  UNL     1     -32.269   5.446   1.229  1.00 20.00    -0.265 OA
BRANCH   7   9
HETATM    9  O10 UNL     1     -31.656   7.631   1.660  1.00 20.00    -0.326 OA
HETATM   10  C8  UNL     1     -32.116   8.736   0.876  1.00 20.00     0.213 C 
ENDBRANCH   7   9
ENDBRANCH   3   7
TORSDOF 2
ENDMDL
MODEL 7
REMARK VINA RESULT:      -0.2      2.988      4.834
REMARK  2 active torsions:
REMARK  status: ('A' for Active; 'I' for Inactive)
REMARK    1  A    between atoms: C3_3  and  C4_4 
REMARK    2  A    between atoms: C3_3  and  O10_10 
ROOT
HETATM    1  C1  UNL     1     -32.353   6.847   1.770  1.00 20.00    -0.065 A 
HETATM    2  C2  UNL     1     -31.971   5.681   1.295  1.00 20.00    -0.027 C 
HETATM    3  C4  UNL     1     -31.976   8.180   2.051  1.00 20.00     0.122 A 
HETATM    4  C5  UNL     1     -33.407   7.590   2.338  1.00 20.00     0.029 A 
HETATM    5  C6  UNL     1     -32.849   4.462   1.210  1.00 20.00     0.036 C 
HETATM    6  C7  UNL     1     -33.851   7.355   3.738  1.00 20.00     0.016 C 
ENDROOT
BRANCH   3   7
HETATM    7  C3  UNL     1     -31.787   9.045   0.886  1.00 20.00     0.267 C 
HETATM    8  O9  UNL     1     -30.976   8.827  -0.004  1.00 20.00    -0.265 OA
BRANCH   7   9
HETATM    9  O10 UNL     1     -32.642  10.104   0.961  1.00 20.00    -0.326 OA
HETATM   10  C8  UNL     1     -33.041  10.663  -0.295  1.00 20.00     0.213 C 
ENDBRANCH   7   9
ENDBRANCH   3   7
TORSDOF 2
ENDMDL
MODEL 8
REMARK VINA RESULT:      -0.2      1.980      4.351
REMARK  2 active torsions:
REMARK  status: ('A' for Active; 'I' for Inactive)
REMARK    1  A    between atoms: C3_3  and  C4_4 
REMARK    2  A    between atoms: C3_3  and  O10_10 
ROOT
HETATM    1  C1  UNL     1     -33.363   4.960   3.555  1.00 20.00    -0.065 A 
HETATM    2  C2  UNL     1     -32.785   3.909   4.094  1.00 20.00    -0.027 C 
HETATM    3  C4  UNL     1     -33.173   6.201   2.906  1.00 20.00     0.122 A 
HETATM    4  C5  UNL     1     -34.584   5.595   3.248  1.00 20.00     0.029 A 
HETATM    5  C6  UNL     1     -33.519   2.748   4.710  1.00 20.00     0.036 C 
HETATM    6  C7  UNL     1     -35.424   6.209   4.310  1.00 20.00     0.016 C 
ENDROOT
BRANCH   3   7
HETATM    7  C3  UNL     1     -32.685   6.128   1.529  1.00 20.00     0.267 C 
HETATM    8  O9  UNL     1     -32.910   5.194   0.771  1.00 20.00    -0.265 OA
BRANCH   7   9
HETATM    9  O10 UNL     1     -31.956   7.244   1.244  1.00 20.00    -0.326 OA
HETATM   10  C8  UNL     1     -32.058   8.306   2.198  1.00 20.00     0.213 C 
ENDBRANCH   7   9
ENDBRANCH   3   7
TORSDOF 2
ENDMDL
MODEL 9
REMARK VINA RESULT:      -0.1      2.288      4.570
REMARK  2 active torsions:
REMARK  status: ('A' for Active; 'I' for Inactive)
REMARK    1  A    between atoms: C3_3  and  C4_4 
REMARK    2  A    between atoms: C3_3  and  O10_10 
ROOT
HETATM    1  C1  UNL     1     -33.706   6.531   3.580  1.00 20.00    -0.065 A 
HETATM    2  C2  UNL     1     -34.252   5.344   3.736  1.00 20.00    -0.027 C 
HETATM    3  C4  UNL     1     -32.617   7.262   3.054  1.00 20.00     0.122 A 
HETATM    4  C5  UNL     1     -33.820   7.913   3.832  1.00 20.00     0.029 A 
HETATM    5  C6  UNL     1     -35.553   5.086   4.447  1.00 20.00     0.036 C 
HETATM    6  C7  UNL     1     -33.615   8.469   5.196  1.00 20.00     0.016 C 
ENDROOT
BRANCH   3   7
HETATM    7  C3  UNL     1     -32.573   7.373   1.596  1.00 20.00     0.267 C 
HETATM    8  O9  UNL     1     -33.135   6.599   0.833  1.00 20.00    -0.265 OA
BRANCH   7   9
HETATM    9  O10 UNL     1     -31.820   8.453   1.244  1.00 20.00    -0.326 OA
HETATM   10  C8  UNL     1     -32.505   9.464   0.498  1.00 20.00     0.213 C 
ENDBRANCH   7   9
ENDBRANCH   3   7
TORSDOF 2
ENDMDL
