MODEL 1
REMARK VINA RESULT:       0.2      0.000      0.000
REMARK  3 active torsions:
REMARK  status: ('A' for Active; 'I' for Inactive)
REMARK    1  A    between atoms: C1_1  and  C7_7 
REMARK    2  A    between atoms: C7_7  and  O10_10 
REMARK    3  A    between atoms: C8_8  and  N9_9 
ROOT
HETATM    1  C1  UNL     1     -33.859   6.716   3.310  1.00 20.00     0.032 C 
HETATM    2  C2  UNL     1     -33.962   7.842   4.315  1.00 20.00     0.068 C 
HETATM    3  N9  UNL     1     -33.069   6.722   2.290  1.00 20.00    -0.287 NA
ENDROOT
BRANCH   1   4
HETATM    4  C7  UNL     1     -34.707   5.470   3.530  1.00 20.00     0.161 C 
HETATM    5  C3  UNL     1     -33.862   4.315   4.042  1.00 20.00     0.045 C 
BRANCH   4   6
HETATM    6  O10 UNL     1     -35.727   5.757   4.467  1.00 20.00    -0.390 OA
HETATM    7  H27 UNL     1     -35.509   5.277   5.284  1.00 20.00     0.210 HD
ENDBRANCH   4   6
ENDBRANCH   1   4
BRANCH   3   8
HETATM    8  C8  UNL     1     -32.220   7.883   2.071  1.00 20.00     0.043 C 
HETATM    9  C4  UNL     1     -31.864   8.483   3.431  1.00 20.00     0.039 C 
HETATM   10  C5  UNL     1     -30.960   7.412   1.345  1.00 20.00     0.039 C 
HETATM   11  C6  UNL     1     -32.990   8.890   1.217  1.00 20.00     0.039 C 
ENDBRANCH   3   8
TORSDOF 3
ENDMDL
MODEL 2
REMARK VINA RESULT:       0.3      0.017      1.376
REMARK  3 active torsions:
REMARK  status: ('A' for Active; 'I' for Inactive)
REMARK    1  A    between atoms: C1_1  and  C7_7 
REMARK    2  A    between atoms: C7_7  and  O10_10 
REMARK    3  A    between atoms: C8_8  and  N9_9 
ROOT
HETATM    1  C1  UNL     1     -33.865   6.709   3.311  1.00 20.00     0.032 C 
HETATM    2  C2  UNL     1     -33.961   7.836   4.316  1.00 20.00     0.068 C 
HETATM    3  N9  UNL     1     -33.076   6.710   2.290  1.00 20.00    -0.287 NA
ENDROOT
BRANCH   1   4
HETATM    4  C7  UNL     1     -34.721   5.468   3.531  1.00 20.00     0.161 C 
HETATM    5  C3  UNL     1     -33.882   4.303   4.026  1.00 20.00     0.045 C 
BRANCH   4   6
HETATM    6  O10 UNL     1     -35.729   5.757   4.481  1.00 20.00    -0.390 OA
HETATM    7  H27 UNL     1     -35.288   6.139   5.259  1.00 20.00     0.210 HD
ENDBRANCH   4   6
ENDBRANCH   1   4
BRANCH   3   8
HETATM    8  C8  UNL     1     -32.219   7.865   2.070  1.00 20.00     0.043 C 
HETATM    9  C4  UNL     1     -30.957   7.399   1.345  1.00 20.00     0.039 C 
HETATM   10  C5  UNL     1     -32.993   8.866   1.214  1.00 20.00     0.039 C 
HETATM   11  C6  UNL     1     -31.872   8.473   3.429  1.00 20.00     0.039 C 
ENDBRANCH   3   8
TORSDOF 3
ENDMDL
MODEL 3
REMARK VINA RESULT:       0.3      1.099      1.884
REMARK  3 active torsions:
REMARK  status: ('A' for Active; 'I' for Inactive)
REMARK    1  A    between atoms: C1_1  and  C7_7 
REMARK    2  A    between atoms: C7_7  and  O10_10 
REMARK    3  A    between atoms: C8_8  and  N9_9 
ROOT
HETATM    1  C1  UNL     1     -33.581   6.431   2.654  1.00 20.00     0.032 C 
HETATM    2  C2  UNL     1     -33.029   5.413   1.681  1.00 20.00     0.068 C 
HETATM    3  N9  UNL     1     -33.154   7.645   2.760  1.00 20.00    -0.287 NA
ENDROOT
BRANCH   1   4
HETATM    4  C7  UNL     1     -34.747   6.022   3.546  1.00 20.00     0.161 C 
HETATM    5  C3  UNL     1     -34.490   4.676   4.201  1.00 20.00     0.045 C 
BRANCH   4   6
HETATM    6  O10 UNL     1     -34.938   7.003   4.548  1.00 20.00    -0.390 OA
HETATM    7  H27 UNL     1     -34.105   7.500   4.623  1.00 20.00     0.210 HD
ENDBRANCH   4   6
ENDBRANCH   1   4
BRANCH   3   8
HETATM    8  C8  UNL     1     -32.065   8.078   1.899  1.00 20.00     0.043 C 
HETATM    9  C4  UNL     1     -32.601   9.143   0.942  1.00 20.00     0.039 C 
HETATM   10  C5  UNL     1     -30.967   8.658   2.788  1.00 20.00     0.039 C 
HETATM   11  C6  UNL     1     -31.548   6.864   1.126  1.00 20.00     0.039 C 
ENDBRANCH   3   8
TORSDOF 3
ENDMDL
MODEL 4
REMARK VINA RESULT:       0.3      1.096      1.976
REMARK  3 active torsions:
REMARK  status: ('A' for Active; 'I' for Inactive)
REMARK    1  A    between atoms: C1_1  and  C7_7 
REMARK    2  A    between atoms: C7_7  and  O10_10 
REMARK    3  A    between atoms: C8_8  and  N9_9 
ROOT
HETATM    1  C1  UNL     1     -33.576   6.421   2.654  1.00 20.00     0.032 C 
HETATM    2  C2  UNL     1     -33.022   5.408   1.675  1.00 20.00     0.068 C 
HETATM    3  N9  UNL     1     -33.148   7.633   2.767  1.00 20.00    -0.287 NA
ENDROOT
BRANCH   1   4
HETATM    4  C7  UNL     1     -34.742   6.006   3.542  1.00 20.00     0.161 C 
HETATM    5  C3  UNL     1     -34.478   4.664   4.203  1.00 20.00     0.045 C 
BRANCH   4   6
HETATM    6  O10 UNL     1     -34.943   6.989   4.541  1.00 20.00    -0.390 OA
HETATM    7  H27 UNL     1     -35.845   7.333   4.426  1.00 20.00     0.210 HD
ENDBRANCH   4   6
ENDBRANCH   1   4
BRANCH   3   8
HETATM    8  C8  UNL     1     -32.059   8.072   1.909  1.00 20.00     0.043 C 
HETATM    9  C4  UNL     1     -31.547   6.864   1.124  1.00 20.00     0.039 C 
HETATM   10  C5  UNL     1     -32.608   9.136   0.960  1.00 20.00     0.039 C 
HETATM   11  C6  UNL     1     -30.954   8.654   2.791  1.00 20.00     0.039 C 
ENDBRANCH   3   8
TORSDOF 3
ENDMDL
MODEL 5
REMARK VINA RESULT:       0.3      1.100      1.441
REMARK  3 active torsions:
REMARK  status: ('A' for Active; 'I' for Inactive)
REMARK    1  A    between atoms: C1_1  and  C7_7 
REMARK    2  A    between atoms: C7_7  and  O10_10 
REMARK    3  A    between atoms: C8_8  and  N9_9 
ROOT
HETATM    1  C1  UNL     1     -33.572   6.429   2.656  1.00 20.00     0.032 C 
HETATM    2  C2  UNL     1     -33.003   5.408   1.695  1.00 20.00     0.068 C 
HETATM    3  N9  UNL     1     -33.157   7.647   2.755  1.00 20.00    -0.287 NA
ENDROOT
BRANCH   1   4
HETATM    4  C7  UNL     1     -34.740   6.016   3.543  1.00 20.00     0.161 C 
HETATM    5  C3  UNL     1     -34.480   4.672   4.202  1.00 20.00     0.045 C 
BRANCH   4   6
HETATM    6  O10 UNL     1     -34.940   6.998   4.542  1.00 20.00    -0.390 OA
HETATM    7  H27 UNL     1     -35.882   7.240   4.521  1.00 20.00     0.210 HD
ENDBRANCH   4   6
ENDBRANCH   1   4
BRANCH   3   8
HETATM    8  C8  UNL     1     -32.065   8.083   1.898  1.00 20.00     0.043 C 
HETATM    9  C4  UNL     1     -30.956   8.652   2.782  1.00 20.00     0.039 C 
HETATM   10  C5  UNL     1     -31.564   6.867   1.122  1.00 20.00     0.039 C 
HETATM   11  C6  UNL     1     -32.599   9.150   0.942  1.00 20.00     0.039 C 
ENDBRANCH   3   8
TORSDOF 3
ENDMDL
MODEL 6
REMARK VINA RESULT:       0.7      2.454      4.343
REMARK  3 active torsions:
REMARK  status: ('A' for Active; 'I' for Inactive)
REMARK    1  A    between atoms: C1_1  and  C7_7 
REMARK    2  A    between atoms: C7_7  and  O10_10 
REMARK    3  A    between atoms: C8_8  and  N9_9 
ROOT
HETATM    1  C1  UNL     1     -32.460   8.565   1.630  1.00 20.00     0.032 C 
HETATM    2  C2  UNL     1     -31.286   7.614   1.708  1.00 20.00     0.068 C 
HETATM    3  N9  UNL     1     -33.546   8.439   2.315  1.00 20.00    -0.287 NA
ENDROOT
BRANCH   1   4
HETATM    4  C7  UNL     1     -32.348   9.779   0.717  1.00 20.00     0.161 C 
HETATM    5  C3  UNL     1     -32.593   9.399  -0.734  1.00 20.00     0.045 C 
BRANCH   4   6
HETATM    6  O10 UNL     1     -33.296  10.753   1.113  1.00 20.00    -0.390 OA
HETATM    7  H27 UNL     1     -33.836  10.961   0.332  1.00 20.00     0.210 HD
ENDBRANCH   4   6
ENDBRANCH   1   4
BRANCH   3   8
HETATM    8  C8  UNL     1     -33.671   7.309   3.223  1.00 20.00     0.043 C 
HETATM    9  C4  UNL     1     -32.921   7.642   4.513  1.00 20.00     0.039 C 
HETATM   10  C5  UNL     1     -35.157   7.097   3.505  1.00 20.00     0.039 C 
HETATM   11  C6  UNL     1     -33.070   6.077   2.547  1.00 20.00     0.039 C 
ENDBRANCH   3   8
TORSDOF 3
ENDMDL
MODEL 7
REMARK VINA RESULT:       0.8      2.456      4.319
REMARK  3 active torsions:
REMARK  status: ('A' for Active; 'I' for Inactive)
REMARK    1  A    between atoms: C1_1  and  C7_7 
REMARK    2  A    between atoms: C7_7  and  O10_10 
REMARK    3  A    between atoms: C8_8  and  N9_9 
ROOT
HETATM    1  C1  UNL     1     -32.461   8.566   1.628  1.00 20.00     0.032 C 
HETATM    2  C2  UNL     1     -31.288   7.613   1.707  1.00 20.00     0.068 C 
HETATM    3  N9  UNL     1     -33.548   8.441   2.313  1.00 20.00    -0.287 NA
ENDROOT
BRANCH   1   4
HETATM    4  C7  UNL     1     -32.347   9.779   0.714  1.00 20.00     0.161 C 
HETATM    5  C3  UNL     1     -32.591   9.398  -0.736  1.00 20.00     0.045 C 
BRANCH   4   6
HETATM    6  O10 UNL     1     -33.294  10.754   1.109  1.00 20.00    -0.390 OA
HETATM    7  H27 UNL     1     -32.835  11.378   1.695  1.00 20.00     0.210 HD
ENDBRANCH   4   6
ENDBRANCH   1   4
BRANCH   3   8
HETATM    8  C8  UNL     1     -33.674   7.312   3.221  1.00 20.00     0.043 C 
HETATM    9  C4  UNL     1     -35.159   7.089   3.508  1.00 20.00     0.039 C 
HETATM   10  C5  UNL     1     -33.069   6.089   2.535  1.00 20.00     0.039 C 
HETATM   11  C6  UNL     1     -32.916   7.640   4.507  1.00 20.00     0.039 C 
ENDBRANCH   3   8
TORSDOF 3
ENDMDL
MODEL 8
REMARK VINA RESULT:       0.8      1.379      1.559
REMARK  3 active torsions:
REMARK  status: ('A' for Active; 'I' for Inactive)
REMARK    1  A    between atoms: C1_1  and  C7_7 
REMARK    2  A    between atoms: C7_7  and  O10_10 
REMARK    3  A    between atoms: C8_8  and  N9_9 
ROOT
HETATM    1  C1  UNL     1     -34.086   5.451   3.302  1.00 20.00     0.032 C 
HETATM    2  C2  UNL     1     -34.551   6.845   3.660  1.00 20.00     0.068 C 
HETATM    3  N9  UNL     1     -33.231   5.185   2.372  1.00 20.00    -0.287 NA
ENDROOT
BRANCH   1   4
HETATM    4  C7  UNL     1     -34.623   4.278   4.112  1.00 20.00     0.161 C 
HETATM    5  C3  UNL     1     -33.503   3.561   4.847  1.00 20.00     0.045 C 
BRANCH   4   6
HETATM    6  O10 UNL     1     -35.571   4.752   5.050  1.00 20.00    -0.390 OA
HETATM    7  H27 UNL     1     -36.114   3.992   5.317  1.00 20.00     0.210 HD
ENDBRANCH   4   6
ENDBRANCH   1   4
BRANCH   3   8
HETATM    8  C8  UNL     1     -32.672   6.286   1.602  1.00 20.00     0.043 C 
HETATM    9  C4  UNL     1     -32.489   7.483   2.535  1.00 20.00     0.039 C 
HETATM   10  C5  UNL     1     -31.326   5.830   1.042  1.00 20.00     0.039 C 
HETATM   11  C6  UNL     1     -33.641   6.623   0.469  1.00 20.00     0.039 C 
ENDBRANCH   3   8
TORSDOF 3
ENDMDL
MODEL 9
REMARK VINA RESULT:       0.9      1.358      1.949
REMARK  3 active torsions:
REMARK  status: ('A' for Active; 'I' for Inactive)
REMARK    1  A    between atoms: C1_1  and  C7_7 
REMARK    2  A    between atoms: C7_7  and  O10_10 
REMARK    3  A    between atoms: C8_8  and  N9_9 
ROOT
HETATM    1  C1  UNL     1     -34.095   5.480   3.310  1.00 20.00     0.032 C 
HETATM    2  C2  UNL     1     -34.555   6.875   3.674  1.00 20.00     0.068 C 
HETATM    3  N9  UNL     1     -33.237   5.214   2.383  1.00 20.00    -0.287 NA
ENDROOT
BRANCH   1   4
HETATM    4  C7  UNL     1     -34.643   4.305   4.110  1.00 20.00     0.161 C 
HETATM    5  C3  UNL     1     -33.530   3.567   4.833  1.00 20.00     0.045 C 
BRANCH   4   6
HETATM    6  O10 UNL     1     -35.582   4.781   5.057  1.00 20.00    -0.390 OA
HETATM    7  H27 UNL     1     -35.878   5.656   4.752  1.00 20.00     0.210 HD
ENDBRANCH   4   6
ENDBRANCH   1   4
BRANCH   3   8
HETATM    8  C8  UNL     1     -32.668   6.316   1.623  1.00 20.00     0.043 C 
HETATM    9  C4  UNL     1     -31.323   5.866   1.053  1.00 20.00     0.039 C 
HETATM   10  C5  UNL     1     -33.641   6.660   0.496  1.00 20.00     0.039 C 
HETATM   11  C6  UNL     1     -32.489   7.509   2.562  1.00 20.00     0.039 C 
ENDBRANCH   3   8
TORSDOF 3
ENDMDL
