MODEL 1
REMARK VINA RESULT:      -0.6      0.000      0.000
REMARK  1 active torsions:
REMARK  status: ('A' for Active; 'I' for Inactive)
REMARK    1  A    between atoms: C2_2  and  C4_4 
ROOT
HETATM    1  C1  UNL     1     -32.159   6.220   1.545  1.00 20.00     0.131 C 
HETATM    2  C3  UNL     1     -32.327   8.277   2.220  1.00 20.00     0.191 C 
HETATM    3  C4  UNL     1     -33.658   7.575   2.390  1.00 20.00     0.219 C 
HETATM    4  C5  UNL     1     -31.706   4.902   1.032  1.00 20.00     0.099 C 
HETATM    5  N7  UNL     1     -31.388   7.228   1.797  1.00 20.00    -0.268 NA
HETATM    6  O9  UNL     1     -33.489   6.318   1.761  1.00 20.00    -0.323 OA
ENDROOT
BRANCH   3   7
HETATM    7  C2  UNL     1     -33.989   7.305   3.823  1.00 20.00     0.153 C 
HETATM    8  C6  UNL     1     -35.047   6.269   4.089  1.00 20.00     0.093 C 
HETATM    9  O8  UNL     1     -33.423   7.900   4.738  1.00 20.00    -0.295 OA
ENDBRANCH   3   7
TORSDOF 1
ENDMDL
MODEL 2
REMARK VINA RESULT:      -0.4      1.398      2.096
REMARK  1 active torsions:
REMARK  status: ('A' for Active; 'I' for Inactive)
REMARK    1  A    between atoms: C2_2  and  C4_4 
ROOT
HETATM    1  C1  UNL     1     -32.430   7.987   1.480  1.00 20.00     0.131 C 
HETATM    2  C3  UNL     1     -33.049   5.993   2.078  1.00 20.00     0.191 C 
HETATM    3  C4  UNL     1     -32.833   6.850   3.309  1.00 20.00     0.219 C 
HETATM    4  C5  UNL     1     -32.052   9.221   0.746  1.00 20.00     0.099 C 
HETATM    5  N7  UNL     1     -32.897   6.909   0.938  1.00 20.00    -0.268 NA
HETATM    6  O9  UNL     1     -32.266   8.051   2.820  1.00 20.00    -0.323 OA
ENDROOT
BRANCH   3   7
HETATM    7  C2  UNL     1     -34.114   7.216   3.988  1.00 20.00     0.153 C 
HETATM    8  C6  UNL     1     -35.270   6.269   3.810  1.00 20.00     0.093 C 
HETATM    9  O8  UNL     1     -34.217   8.241   4.660  1.00 20.00    -0.295 OA
ENDBRANCH   3   7
TORSDOF 1
ENDMDL
MODEL 3
REMARK VINA RESULT:      -0.4      1.803      2.877
REMARK  1 active torsions:
REMARK  status: ('A' for Active; 'I' for Inactive)
REMARK    1  A    between atoms: C2_2  and  C4_4 
ROOT
HETATM    1  C1  UNL     1     -32.271   9.254   0.693  1.00 20.00     0.131 C 
HETATM    2  C3  UNL     1     -31.088   7.641   1.539  1.00 20.00     0.191 C 
HETATM    3  C4  UNL     1     -32.160   8.057   2.524  1.00 20.00     0.219 C 
HETATM    4  C5  UNL     1     -32.872  10.305  -0.167  1.00 20.00     0.099 C 
HETATM    5  N7  UNL     1     -31.370   8.406   0.315  1.00 20.00    -0.268 NA
HETATM    6  O9  UNL     1     -32.745   9.215   1.957  1.00 20.00    -0.323 OA
ENDROOT
BRANCH   3   7
HETATM    7  C2  UNL     1     -33.248   7.039   2.656  1.00 20.00     0.153 C 
HETATM    8  C6  UNL     1     -34.260   7.267   3.745  1.00 20.00     0.093 C 
HETATM    9  O8  UNL     1     -33.312   6.063   1.910  1.00 20.00    -0.295 OA
ENDBRANCH   3   7
TORSDOF 1
ENDMDL
MODEL 4
REMARK VINA RESULT:      -0.3      1.929      2.536
REMARK  1 active torsions:
REMARK  status: ('A' for Active; 'I' for Inactive)
REMARK    1  A    between atoms: C2_2  and  C4_4 
ROOT
HETATM    1  C1  UNL     1     -32.912   7.370   2.778  1.00 20.00     0.131 C 
HETATM    2  C3  UNL     1     -34.237   7.579   4.486  1.00 20.00     0.191 C 
HETATM    3  C4  UNL     1     -34.791   6.537   3.537  1.00 20.00     0.219 C 
HETATM    4  C5  UNL     1     -31.811   7.463   1.786  1.00 20.00     0.099 C 
HETATM    5  N7  UNL     1     -32.919   7.937   3.941  1.00 20.00    -0.268 NA
HETATM    6  O9  UNL     1     -33.961   6.611   2.392  1.00 20.00    -0.323 OA
ENDROOT
BRANCH   3   7
HETATM    7  C2  UNL     1     -34.672   5.146   4.073  1.00 20.00     0.153 C 
HETATM    8  C6  UNL     1     -33.486   4.343   3.613  1.00 20.00     0.093 C 
HETATM    9  O8  UNL     1     -35.502   4.683   4.854  1.00 20.00    -0.295 OA
ENDBRANCH   3   7
TORSDOF 1
ENDMDL
MODEL 5
REMARK VINA RESULT:      -0.1      2.333      3.427
REMARK  1 active torsions:
REMARK  status: ('A' for Active; 'I' for Inactive)
REMARK    1  A    between atoms: C2_2  and  C4_4 
ROOT
HETATM    1  C1  UNL     1     -32.567   6.698   1.716  1.00 20.00     0.131 C 
HETATM    2  C3  UNL     1     -32.389   8.619   2.714  1.00 20.00     0.191 C 
HETATM    3  C4  UNL     1     -31.685   8.674   1.375  1.00 20.00     0.219 C 
HETATM    4  C5  UNL     1     -32.883   5.304   1.317  1.00 20.00     0.099 C 
HETATM    5  N7  UNL     1     -33.057   7.310   2.746  1.00 20.00    -0.268 NA
HETATM    6  O9  UNL     1     -31.704   7.341   0.898  1.00 20.00    -0.323 OA
ENDROOT
BRANCH   3   7
HETATM    7  C2  UNL     1     -32.417   9.507   0.371  1.00 20.00     0.153 C 
HETATM    8  C6  UNL     1     -32.816  10.892   0.803  1.00 20.00     0.093 C 
HETATM    9  O8  UNL     1     -32.679   9.081  -0.752  1.00 20.00    -0.295 OA
ENDBRANCH   3   7
TORSDOF 1
ENDMDL
MODEL 6
REMARK VINA RESULT:       0.2      2.046      2.733
REMARK  1 active torsions:
REMARK  status: ('A' for Active; 'I' for Inactive)
REMARK    1  A    between atoms: C2_2  and  C4_4 
ROOT
HETATM    1  C1  UNL     1     -33.614   4.459   3.654  1.00 20.00     0.131 C 
HETATM    2  C3  UNL     1     -33.375   5.786   1.951  1.00 20.00     0.191 C 
HETATM    3  C4  UNL     1     -34.237   6.456   3.001  1.00 20.00     0.219 C 
HETATM    4  C5  UNL     1     -33.561   3.344   4.632  1.00 20.00     0.099 C 
HETATM    5  N7  UNL     1     -32.906   4.539   2.574  1.00 20.00    -0.268 NA
HETATM    6  O9  UNL     1     -34.476   5.451   3.970  1.00 20.00    -0.323 OA
ENDROOT
BRANCH   3   7
HETATM    7  C2  UNL     1     -33.533   7.576   3.698  1.00 20.00     0.153 C 
HETATM    8  C6  UNL     1     -32.381   8.210   2.967  1.00 20.00     0.093 C 
HETATM    9  O8  UNL     1     -33.879   7.960   4.814  1.00 20.00    -0.295 OA
ENDBRANCH   3   7
TORSDOF 1
ENDMDL
MODEL 7
REMARK VINA RESULT:       0.2      1.986      3.558
REMARK  1 active torsions:
REMARK  status: ('A' for Active; 'I' for Inactive)
REMARK    1  A    between atoms: C2_2  and  C4_4 
ROOT
HETATM    1  C1  UNL     1     -33.143   7.399   2.862  1.00 20.00     0.131 C 
HETATM    2  C3  UNL     1     -31.389   8.654   2.608  1.00 20.00     0.191 C 
HETATM    3  C4  UNL     1     -31.858   8.156   1.257  1.00 20.00     0.219 C 
HETATM    4  C5  UNL     1     -34.304   6.629   3.375  1.00 20.00     0.099 C 
HETATM    5  N7  UNL     1     -32.414   8.206   3.563  1.00 20.00    -0.268 NA
HETATM    6  O9  UNL     1     -32.877   7.217   1.549  1.00 20.00    -0.323 OA
ENDROOT
BRANCH   3   7
HETATM    7  C2  UNL     1     -32.483   9.234   0.430  1.00 20.00     0.153 C 
HETATM    8  C6  UNL     1     -32.676  10.570   1.094  1.00 20.00     0.093 C 
HETATM    9  O8  UNL     1     -32.820   9.038  -0.737  1.00 20.00    -0.295 OA
ENDBRANCH   3   7
TORSDOF 1
ENDMDL
MODEL 8
REMARK VINA RESULT:       0.3      1.661      3.228
REMARK  1 active torsions:
REMARK  status: ('A' for Active; 'I' for Inactive)
REMARK    1  A    between atoms: C2_2  and  C4_4 
ROOT
HETATM    1  C1  UNL     1     -34.115   6.107   3.182  1.00 20.00     0.131 C 
HETATM    2  C3  UNL     1     -32.464   5.578   1.874  1.00 20.00     0.191 C 
HETATM    3  C4  UNL     1     -33.051   6.905   1.441  1.00 20.00     0.219 C 
HETATM    4  C5  UNL     1     -35.151   6.171   4.243  1.00 20.00     0.099 C 
HETATM    5  N7  UNL     1     -33.159   5.237   3.124  1.00 20.00    -0.268 NA
HETATM    6  O9  UNL     1     -34.215   7.064   2.233  1.00 20.00    -0.323 OA
ENDROOT
BRANCH   3   7
HETATM    7  C2  UNL     1     -32.154   8.061   1.749  1.00 20.00     0.153 C 
HETATM    8  C6  UNL     1     -32.125   9.181   0.745  1.00 20.00     0.093 C 
HETATM    9  O8  UNL     1     -31.474   8.095   2.774  1.00 20.00    -0.295 OA
ENDBRANCH   3   7
TORSDOF 1
ENDMDL
MODEL 9
REMARK VINA RESULT:       0.5      1.855      2.422
REMARK  1 active torsions:
REMARK  status: ('A' for Active; 'I' for Inactive)
REMARK    1  A    between atoms: C2_2  and  C4_4 
ROOT
HETATM    1  C1  UNL     1     -32.698   7.560   2.499  1.00 20.00     0.131 C 
HETATM    2  C3  UNL     1     -34.167   7.491   4.097  1.00 20.00     0.191 C 
HETATM    3  C4  UNL     1     -34.442   6.381   3.104  1.00 20.00     0.219 C 
HETATM    4  C5  UNL     1     -31.559   7.872   1.598  1.00 20.00     0.099 C 
HETATM    5  N7  UNL     1     -32.900   8.095   3.659  1.00 20.00    -0.268 NA
HETATM    6  O9  UNL     1     -33.554   6.626   2.029  1.00 20.00    -0.323 OA
ENDROOT
BRANCH   3   7
HETATM    7  C2  UNL     1     -34.108   5.027   3.645  1.00 20.00     0.153 C 
HETATM    8  C6  UNL     1     -34.939   4.536   4.799  1.00 20.00     0.093 C 
HETATM    9  O8  UNL     1     -33.200   4.348   3.168  1.00 20.00    -0.295 OA
ENDBRANCH   3   7
TORSDOF 1
ENDMDL
