MODEL 1
REMARK VINA RESULT:      -1.7      0.000      0.000
REMARK  2 active torsions:
REMARK  status: ('A' for Active; 'I' for Inactive)
REMARK    1  A    between atoms: C1_1  and  N9_9 
REMARK    2  A    between atoms: C4_4  and  C8_8 
ROOT
HETATM    1  C2  UNL     1     -35.043   6.399   3.866  1.00 20.00     0.031 C 
HETATM    2  C3  UNL     1     -33.308   5.610   2.399  1.00 20.00     0.130 C 
HETATM    3  C4  UNL     1     -34.308   5.119   3.441  1.00 20.00     0.005 C 
HETATM    4  C5  UNL     1     -34.039   7.539   3.666  1.00 20.00     0.083 C 
HETATM    5  C6  UNL     1     -33.393   7.997   4.970  1.00 20.00     0.032 C 
HETATM    6  N9  UNL     1     -33.068   7.006   2.719  1.00 20.00    -0.355 N 
ENDROOT
BRANCH   3   7
HETATM    7  C8  UNL     1     -33.623   4.410   4.604  1.00 20.00     0.002 C 
HETATM    8  C7  UNL     1     -33.426   2.950   4.335  1.00 20.00     0.005 C 
ENDBRANCH   3   7
BRANCH   6   9
HETATM    9  C1  UNL     1     -32.115   7.765   2.077  1.00 20.00     0.351 C 
HETATM   10  O10 UNL     1     -32.310   8.660   1.264  1.00 20.00    -0.284 OA
ENDBRANCH   6   9
TORSDOF 2
ENDMDL
MODEL 2
REMARK VINA RESULT:      -0.4      2.149      4.217
REMARK  2 active torsions:
REMARK  status: ('A' for Active; 'I' for Inactive)
REMARK    1  A    between atoms: C1_1  and  N9_9 
REMARK    2  A    between atoms: C4_4  and  C8_8 
ROOT
HETATM    1  C2  UNL     1     -32.143   8.257   3.113  1.00 20.00     0.031 C 
HETATM    2  C3  UNL     1     -32.310   6.454   1.530  1.00 20.00     0.130 C 
HETATM    3  C4  UNL     1     -31.991   7.943   1.617  1.00 20.00     0.005 C 
HETATM    4  C5  UNL     1     -33.175   7.258   3.644  1.00 20.00     0.083 C 
HETATM    5  C6  UNL     1     -34.561   7.872   3.819  1.00 20.00     0.032 C 
HETATM    6  N9  UNL     1     -33.165   6.173   2.670  1.00 20.00    -0.355 N 
ENDROOT
BRANCH   3   7
HETATM    7  C8  UNL     1     -32.912   8.780   0.735  1.00 20.00     0.002 C 
HETATM    8  C7  UNL     1     -32.297  10.095   0.370  1.00 20.00     0.005 C 
ENDBRANCH   3   7
BRANCH   6   9
HETATM    9  C1  UNL     1     -33.773   4.953   2.863  1.00 20.00     0.351 C 
HETATM   10  O10 UNL     1     -33.945   4.375   3.929  1.00 20.00    -0.284 OA
ENDBRANCH   6   9
TORSDOF 2
ENDMDL
MODEL 3
REMARK VINA RESULT:      -0.3      1.626      2.778
REMARK  2 active torsions:
REMARK  status: ('A' for Active; 'I' for Inactive)
REMARK    1  A    between atoms: C1_1  and  N9_9 
REMARK    2  A    between atoms: C4_4  and  C8_8 
ROOT
HETATM    1  C2  UNL     1     -32.823   5.647   2.938  1.00 20.00     0.031 C 
HETATM    2  C3  UNL     1     -32.700   8.046   3.067  1.00 20.00     0.130 C 
HETATM    3  C4  UNL     1     -33.374   6.846   3.724  1.00 20.00     0.005 C 
HETATM    4  C5  UNL     1     -32.509   6.179   1.536  1.00 20.00     0.083 C 
HETATM    5  C6  UNL     1     -33.574   5.809   0.508  1.00 20.00     0.032 C 
HETATM    6  N9  UNL     1     -32.385   7.621   1.714  1.00 20.00    -0.355 N 
ENDROOT
BRANCH   3   7
HETATM    7  C8  UNL     1     -34.896   6.944   3.673  1.00 20.00     0.002 C 
HETATM    8  C7  UNL     1     -35.555   5.698   4.179  1.00 20.00     0.005 C 
ENDBRANCH   3   7
BRANCH   6   9
HETATM    9  C1  UNL     1     -31.882   8.479   0.761  1.00 20.00     0.351 C 
HETATM   10  O10 UNL     1     -32.362   9.548   0.405  1.00 20.00    -0.284 OA
ENDBRANCH   6   9
TORSDOF 2
ENDMDL
MODEL 4
REMARK VINA RESULT:       0.0      2.331      4.341
REMARK  2 active torsions:
REMARK  status: ('A' for Active; 'I' for Inactive)
REMARK    1  A    between atoms: C1_1  and  N9_9 
REMARK    2  A    between atoms: C4_4  and  C8_8 
ROOT
HETATM    1  C2  UNL     1     -32.012   8.534   3.194  1.00 20.00     0.031 C 
HETATM    2  C3  UNL     1     -31.829   7.498   1.031  1.00 20.00     0.130 C 
HETATM    3  C4  UNL     1     -31.766   8.860   1.713  1.00 20.00     0.005 C 
HETATM    4  C5  UNL     1     -32.878   7.270   3.201  1.00 20.00     0.083 C 
HETATM    5  C6  UNL     1     -34.351   7.561   3.470  1.00 20.00     0.032 C 
HETATM    6  N9  UNL     1     -32.658   6.671   1.890  1.00 20.00    -0.355 N 
ENDROOT
BRANCH   3   7
HETATM    7  C8  UNL     1     -32.788   9.837   1.140  1.00 20.00     0.002 C 
HETATM    8  C7  UNL     1     -32.629  10.012  -0.339  1.00 20.00     0.005 C 
ENDBRANCH   3   7
BRANCH   6   9
HETATM    9  C1  UNL     1     -33.058   5.401   1.542  1.00 20.00     0.351 C 
HETATM   10  O10 UNL     1     -32.672   4.742   0.585  1.00 20.00    -0.284 OA
ENDBRANCH   6   9
TORSDOF 2
ENDMDL
MODEL 5
REMARK VINA RESULT:       0.8      2.012      3.380
REMARK  2 active torsions:
REMARK  status: ('A' for Active; 'I' for Inactive)
REMARK    1  A    between atoms: C1_1  and  N9_9 
REMARK    2  A    between atoms: C4_4  and  C8_8 
ROOT
HETATM    1  C2  UNL     1     -31.646   6.445   1.403  1.00 20.00     0.031 C 
HETATM    2  C3  UNL     1     -33.558   5.854   2.738  1.00 20.00     0.130 C 
HETATM    3  C4  UNL     1     -32.824   5.460   1.461  1.00 20.00     0.005 C 
HETATM    4  C5  UNL     1     -32.128   7.708   2.124  1.00 20.00     0.083 C 
HETATM    5  C6  UNL     1     -32.539   8.819   1.163  1.00 20.00     0.032 C 
HETATM    6  N9  UNL     1     -33.235   7.253   2.956  1.00 20.00    -0.355 N 
ENDROOT
BRANCH   3   7
HETATM    7  C8  UNL     1     -33.726   5.536   0.233  1.00 20.00     0.002 C 
HETATM    8  C7  UNL     1     -33.866   4.208  -0.443  1.00 20.00     0.005 C 
ENDBRANCH   3   7
BRANCH   6   9
HETATM    9  C1  UNL     1     -33.820   8.008   3.948  1.00 20.00     0.351 C 
HETATM   10  O10 UNL     1     -33.475   8.079   5.121  1.00 20.00    -0.284 OA
ENDBRANCH   6   9
TORSDOF 2
ENDMDL
MODEL 6
REMARK VINA RESULT:       1.0      2.338      4.125
REMARK  2 active torsions:
REMARK  status: ('A' for Active; 'I' for Inactive)
REMARK    1  A    between atoms: C1_1  and  N9_9 
REMARK    2  A    between atoms: C4_4  and  C8_8 
ROOT
HETATM    1  C2  UNL     1     -33.571   6.660   1.451  1.00 20.00     0.031 C 
HETATM    2  C3  UNL     1     -34.222   6.442   3.757  1.00 20.00     0.130 C 
HETATM    3  C4  UNL     1     -33.706   7.467   2.752  1.00 20.00     0.005 C 
HETATM    4  C5  UNL     1     -33.296   5.217   1.885  1.00 20.00     0.083 C 
HETATM    5  C6  UNL     1     -31.824   4.831   1.764  1.00 20.00     0.032 C 
HETATM    6  N9  UNL     1     -33.777   5.152   3.259  1.00 20.00    -0.355 N 
ENDROOT
BRANCH   3   7
HETATM    7  C8  UNL     1     -32.391   8.098   3.200  1.00 20.00     0.002 C 
HETATM    8  C7  UNL     1     -31.474   8.363   2.047  1.00 20.00     0.005 C 
ENDBRANCH   3   7
BRANCH   6   9
HETATM    9  C1  UNL     1     -33.940   3.984   3.969  1.00 20.00     0.351 C 
HETATM   10  O10 UNL     1     -33.085   3.385   4.611  1.00 20.00    -0.284 OA
ENDBRANCH   6   9
TORSDOF 2
ENDMDL
MODEL 7
REMARK VINA RESULT:       1.1      2.554      3.726
REMARK  2 active torsions:
REMARK  status: ('A' for Active; 'I' for Inactive)
REMARK    1  A    between atoms: C1_1  and  N9_9 
REMARK    2  A    between atoms: C4_4  and  C8_8 
ROOT
HETATM    1  C2  UNL     1     -33.252   7.215   2.956  1.00 20.00     0.031 C 
HETATM    2  C3  UNL     1     -32.644   4.938   2.476  1.00 20.00     0.130 C 
HETATM    3  C4  UNL     1     -32.722   6.317   1.828  1.00 20.00     0.005 C 
HETATM    4  C5  UNL     1     -34.096   6.302   3.851  1.00 20.00     0.083 C 
HETATM    5  C6  UNL     1     -35.595   6.458   3.612  1.00 20.00     0.032 C 
HETATM    6  N9  UNL     1     -33.621   4.957   3.550  1.00 20.00    -0.355 N 
ENDROOT
BRANCH   3   7
HETATM    7  C8  UNL     1     -33.617   6.320   0.593  1.00 20.00     0.002 C 
HETATM    8  C7  UNL     1     -33.782   4.948   0.016  1.00 20.00     0.005 C 
ENDBRANCH   3   7
BRANCH   6   9
HETATM    9  C1  UNL     1     -33.939   3.840   4.289  1.00 20.00     0.351 C 
HETATM   10  O10 UNL     1     -33.158   3.056   4.814  1.00 20.00    -0.284 OA
ENDBRANCH   6   9
TORSDOF 2
ENDMDL
