MODEL 1
REMARK VINA RESULT:      -2.2      0.000      0.000
REMARK  1 active torsions:
REMARK  status: ('A' for Active; 'I' for Inactive)
REMARK    1  A    between atoms: C1_1  and  C4_4 
ROOT
HETATM    1  C1  UNL     1     -32.297   8.602   1.350  1.00 20.00    -0.047 C 
HETATM    2  C2  UNL     1     -32.318   9.522   0.580  1.00 20.00    -0.106 C 
HETATM    3  C6  UNL     1     -32.344  10.644  -0.358  1.00 20.00     0.112 C 
ENDROOT
BRANCH   1   4
HETATM    4  C4  UNL     1     -32.273   7.480   2.290  1.00 20.00     0.343 C 
HETATM    5  O8  UNL     1     -32.463   6.244   1.585  1.00 20.00    -0.348 OA
HETATM    6  C3  UNL     1     -33.399   5.519   2.383  1.00 20.00     0.203 C 
HETATM    7  C5  UNL     1     -34.252   6.609   2.984  1.00 20.00     0.145 C 
HETATM    8  C7  UNL     1     -34.994   6.193   4.235  1.00 20.00     0.042 C 
HETATM    9  O9  UNL     1     -33.302   7.637   3.280  1.00 20.00    -0.343 OA
ENDBRANCH   1   4
TORSDOF 1
ENDMDL
MODEL 2
REMARK VINA RESULT:      -0.2      1.155      4.335
REMARK  1 active torsions:
REMARK  status: ('A' for Active; 'I' for Inactive)
REMARK    1  A    between atoms: C1_1  and  C4_4 
ROOT
HETATM    1  C1  UNL     1     -33.486   6.646   2.642  1.00 20.00    -0.047 C 
HETATM    2  C2  UNL     1     -34.327   6.289   3.420  1.00 20.00    -0.106 C 
HETATM    3  C6  UNL     1     -35.353   5.854   4.367  1.00 20.00     0.112 C 
ENDROOT
BRANCH   1   4
HETATM    4  C4  UNL     1     -32.460   7.081   1.693  1.00 20.00     0.343 C 
HETATM    5  O8  UNL     1     -31.465   7.863   2.368  1.00 20.00    -0.348 OA
HETATM    6  C3  UNL     1     -31.236   8.974   1.501  1.00 20.00     0.203 C 
HETATM    7  C5  UNL     1     -32.584   9.189   0.859  1.00 20.00     0.145 C 
HETATM    8  C7  UNL     1     -32.532   9.957  -0.444  1.00 20.00     0.042 C 
HETATM    9  O9  UNL     1     -33.054   7.856   0.639  1.00 20.00    -0.343 OA
ENDBRANCH   1   4
TORSDOF 1
ENDMDL
MODEL 3
REMARK VINA RESULT:      -0.1      1.908      2.873
REMARK  1 active torsions:
REMARK  status: ('A' for Active; 'I' for Inactive)
REMARK    1  A    between atoms: C1_1  and  C4_4 
ROOT
HETATM    1  C1  UNL     1     -33.114   6.704   2.162  1.00 20.00    -0.047 C 
HETATM    2  C2  UNL     1     -32.362   7.588   1.854  1.00 20.00    -0.106 C 
HETATM    3  C6  UNL     1     -31.448   8.666   1.479  1.00 20.00     0.112 C 
ENDROOT
BRANCH   1   4
HETATM    4  C4  UNL     1     -34.030   5.626   2.536  1.00 20.00     0.343 C 
HETATM    5  O8  UNL     1     -34.827   6.026   3.661  1.00 20.00    -0.348 OA
HETATM    6  C3  UNL     1     -34.819   4.890   4.525  1.00 20.00     0.203 C 
HETATM    7  C5  UNL     1     -33.462   4.279   4.273  1.00 20.00     0.145 C 
HETATM    8  C7  UNL     1     -33.361   2.820   4.662  1.00 20.00     0.042 C 
HETATM    9  O9  UNL     1     -33.294   4.436   2.861  1.00 20.00    -0.343 OA
ENDBRANCH   1   4
TORSDOF 1
ENDMDL
MODEL 4
REMARK VINA RESULT:       0.2      1.786      4.699
REMARK  1 active torsions:
REMARK  status: ('A' for Active; 'I' for Inactive)
REMARK    1  A    between atoms: C1_1  and  C4_4 
ROOT
HETATM    1  C1  UNL     1     -33.613   4.681   3.427  1.00 20.00    -0.047 C 
HETATM    2  C2  UNL     1     -33.462   3.776   4.201  1.00 20.00    -0.106 C 
HETATM    3  C6  UNL     1     -33.278   2.672   5.143  1.00 20.00     0.112 C 
ENDROOT
BRANCH   1   4
HETATM    4  C4  UNL     1     -33.795   5.786   2.484  1.00 20.00     0.343 C 
HETATM    5  O8  UNL     1     -32.992   5.571   1.314  1.00 20.00    -0.348 OA
HETATM    6  C3  UNL     1     -32.397   6.842   1.053  1.00 20.00     0.203 C 
HETATM    7  C5  UNL     1     -32.233   7.432   2.432  1.00 20.00     0.145 C 
HETATM    8  C7  UNL     1     -32.093   8.938   2.445  1.00 20.00     0.042 C 
HETATM    9  O9  UNL     1     -33.433   7.032   3.099  1.00 20.00    -0.343 OA
ENDBRANCH   1   4
TORSDOF 1
ENDMDL
MODEL 5
REMARK VINA RESULT:       0.7      2.239      4.824
REMARK  1 active torsions:
REMARK  status: ('A' for Active; 'I' for Inactive)
REMARK    1  A    between atoms: C1_1  and  C4_4 
ROOT
HETATM    1  C1  UNL     1     -33.824   4.259   3.659  1.00 20.00    -0.047 C 
HETATM    2  C2  UNL     1     -33.525   3.248   4.233  1.00 20.00    -0.106 C 
HETATM    3  C6  UNL     1     -33.160   2.017   4.933  1.00 20.00     0.112 C 
ENDROOT
BRANCH   1   4
HETATM    4  C4  UNL     1     -34.187   5.491   2.958  1.00 20.00     0.343 C 
HETATM    5  O8  UNL     1     -33.070   5.970   2.194  1.00 20.00    -0.348 OA
HETATM    6  C3  UNL     1     -33.040   7.374   2.450  1.00 20.00     0.203 C 
HETATM    7  C5  UNL     1     -33.556   7.475   3.864  1.00 20.00     0.145 C 
HETATM    8  C7  UNL     1     -34.096   8.841   4.228  1.00 20.00     0.042 C 
HETATM    9  O9  UNL     1     -34.598   6.496   3.899  1.00 20.00    -0.343 OA
ENDBRANCH   1   4
TORSDOF 1
ENDMDL
