MODEL 1
REMARK VINA RESULT:      -1.5      0.000      0.000
REMARK  1 active torsions:
REMARK  status: ('A' for Active; 'I' for Inactive)
REMARK    1  A    between atoms: C1_1  and  C4_4 
ROOT
HETATM    1  C2  UNL     1     -34.503   5.610   4.058  1.00 20.00     0.031 A 
HETATM    2  C3  UNL     1     -35.346   6.666   3.408  1.00 20.00     0.031 A 
HETATM    3  C4  UNL     1     -33.853   6.857   3.514  1.00 20.00     0.078 A 
HETATM    4 BR7  UNL     1     -33.233   8.144   4.808  1.00 20.00    -0.077 Br
ENDROOT
BRANCH   3   5
HETATM    5  C1  UNL     1     -33.034   6.760   2.295  1.00 20.00     0.142 C 
HETATM    6  C5  UNL     1     -32.208   7.965   1.937  1.00 20.00     0.092 C 
HETATM    7  O6  UNL     1     -33.023   5.742   1.605  1.00 20.00    -0.297 OA
ENDBRANCH   3   5
TORSDOF 1
ENDMDL
MODEL 2
REMARK VINA RESULT:      -1.5      2.235      3.421
REMARK  1 active torsions:
REMARK  status: ('A' for Active; 'I' for Inactive)
REMARK    1  A    between atoms: C1_1  and  C4_4 
ROOT
HETATM    1  C2  UNL     1     -31.483   8.143   2.200  1.00 20.00     0.031 A 
HETATM    2  C3  UNL     1     -32.707   8.549   1.434  1.00 20.00     0.031 A 
HETATM    3  C4  UNL     1     -32.750   7.335   2.329  1.00 20.00     0.078 A 
HETATM    4 BR7  UNL     1     -32.772   5.616   1.459  1.00 20.00    -0.077 Br
ENDROOT
BRANCH   3   5
HETATM    5  C1  UNL     1     -33.514   7.404   3.586  1.00 20.00     0.142 C 
HETATM    6  C5  UNL     1     -34.782   6.597   3.653  1.00 20.00     0.092 C 
HETATM    7  O6  UNL     1     -33.131   8.084   4.537  1.00 20.00    -0.297 OA
ENDBRANCH   3   5
TORSDOF 1
ENDMDL
MODEL 3
REMARK VINA RESULT:      -1.4      1.894      2.874
REMARK  1 active torsions:
REMARK  status: ('A' for Active; 'I' for Inactive)
REMARK    1  A    between atoms: C1_1  and  C4_4 
ROOT
HETATM    1  C2  UNL     1     -33.262   5.616   0.756  1.00 20.00     0.031 A 
HETATM    2  C3  UNL     1     -32.058   5.187   1.541  1.00 20.00     0.031 A 
HETATM    3  C4  UNL     1     -32.882   6.360   2.012  1.00 20.00     0.078 A 
HETATM    4 BR7  UNL     1     -32.111   8.110   1.781  1.00 20.00    -0.077 Br
ENDROOT
BRANCH   3   5
HETATM    5  C1  UNL     1     -33.721   6.205   3.212  1.00 20.00     0.142 C 
HETATM    6  C5  UNL     1     -34.122   7.467   3.925  1.00 20.00     0.092 C 
HETATM    7  O6  UNL     1     -34.079   5.097   3.610  1.00 20.00    -0.297 OA
ENDBRANCH   3   5
TORSDOF 1
ENDMDL
MODEL 4
REMARK VINA RESULT:      -1.4      1.591      1.767
REMARK  1 active torsions:
REMARK  status: ('A' for Active; 'I' for Inactive)
REMARK    1  A    between atoms: C1_1  and  C4_4 
ROOT
HETATM    1  C2  UNL     1     -35.235   6.903   3.368  1.00 20.00     0.031 A 
HETATM    2  C3  UNL     1     -34.131   7.267   4.316  1.00 20.00     0.031 A 
HETATM    3  C4  UNL     1     -33.931   6.147   3.324  1.00 20.00     0.078 A 
HETATM    4 BR7  UNL     1     -33.945   4.353   4.027  1.00 20.00    -0.077 Br
ENDROOT
BRANCH   3   5
HETATM    5  C1  UNL     1     -33.024   6.359   2.184  1.00 20.00     0.142 C 
HETATM    6  C5  UNL     1     -32.397   7.721   2.061  1.00 20.00     0.092 C 
HETATM    7  O6  UNL     1     -32.787   5.464   1.374  1.00 20.00    -0.297 OA
ENDBRANCH   3   5
TORSDOF 1
ENDMDL
MODEL 5
REMARK VINA RESULT:      -1.4      2.536      3.160
REMARK  1 active torsions:
REMARK  status: ('A' for Active; 'I' for Inactive)
REMARK    1  A    between atoms: C1_1  and  C4_4 
ROOT
HETATM    1  C2  UNL     1     -34.014   7.331   4.217  1.00 20.00     0.031 A 
HETATM    2  C3  UNL     1     -35.191   7.146   3.306  1.00 20.00     0.031 A 
HETATM    3  C4  UNL     1     -34.164   6.049   3.437  1.00 20.00     0.078 A 
HETATM    4 BR7  UNL     1     -32.969   5.797   1.946  1.00 20.00    -0.077 Br
ENDROOT
BRANCH   3   5
HETATM    5  C1  UNL     1     -34.525   4.816   4.156  1.00 20.00     0.142 C 
HETATM    6  C5  UNL     1     -33.538   3.683   4.095  1.00 20.00     0.092 C 
HETATM    7  O6  UNL     1     -35.581   4.720   4.780  1.00 20.00    -0.297 OA
ENDBRANCH   3   5
TORSDOF 1
ENDMDL
MODEL 6
REMARK VINA RESULT:      -1.3      1.861      2.153
REMARK  1 active torsions:
REMARK  status: ('A' for Active; 'I' for Inactive)
REMARK    1  A    between atoms: C1_1  and  C4_4 
ROOT
HETATM    1  C2  UNL     1     -35.323   6.877   3.400  1.00 20.00     0.031 A 
HETATM    2  C3  UNL     1     -34.279   7.238   4.414  1.00 20.00     0.031 A 
HETATM    3  C4  UNL     1     -33.976   6.200   3.362  1.00 20.00     0.078 A 
HETATM    4 BR7  UNL     1     -33.912   4.365   3.949  1.00 20.00    -0.077 Br
ENDROOT
BRANCH   3   5
HETATM    5  C1  UNL     1     -33.039   6.536   2.278  1.00 20.00     0.142 C 
HETATM    6  C5  UNL     1     -32.714   5.440   1.300  1.00 20.00     0.092 C 
HETATM    7  O6  UNL     1     -32.550   7.660   2.173  1.00 20.00    -0.297 OA
ENDBRANCH   3   5
TORSDOF 1
ENDMDL
MODEL 7
REMARK VINA RESULT:      -1.1      2.097      3.068
REMARK  1 active torsions:
REMARK  status: ('A' for Active; 'I' for Inactive)
REMARK    1  A    between atoms: C1_1  and  C4_4 
ROOT
HETATM    1  C2  UNL     1     -33.348   5.914   1.193  1.00 20.00     0.031 A 
HETATM    2  C3  UNL     1     -32.037   5.707   1.892  1.00 20.00     0.031 A 
HETATM    3  C4  UNL     1     -32.814   6.980   2.118  1.00 20.00     0.078 A 
HETATM    4 BR7  UNL     1     -32.122   8.577   1.290  1.00 20.00    -0.077 Br
ENDROOT
BRANCH   3   5
HETATM    5  C1  UNL     1     -33.474   7.192   3.416  1.00 20.00     0.142 C 
HETATM    6  C5  UNL     1     -34.776   6.471   3.640  1.00 20.00     0.092 C 
HETATM    7  O6  UNL     1     -32.984   7.920   4.278  1.00 20.00    -0.297 OA
ENDBRANCH   3   5
TORSDOF 1
ENDMDL
MODEL 8
REMARK VINA RESULT:      -0.8      2.118      2.848
REMARK  1 active torsions:
REMARK  status: ('A' for Active; 'I' for Inactive)
REMARK    1  A    between atoms: C1_1  and  C4_4 
ROOT
HETATM    1  C2  UNL     1     -32.005   5.371   1.513  1.00 20.00     0.031 A 
HETATM    2  C3  UNL     1     -33.361   5.575   0.906  1.00 20.00     0.031 A 
HETATM    3  C4  UNL     1     -33.150   5.838   2.377  1.00 20.00     0.078 A 
HETATM    4 BR7  UNL     1     -33.890   4.549   3.603  1.00 20.00    -0.077 Br
ENDROOT
BRANCH   3   5
HETATM    5  C1  UNL     1     -33.157   7.228   2.860  1.00 20.00     0.142 C 
HETATM    6  C5  UNL     1     -34.137   7.561   3.952  1.00 20.00     0.092 C 
HETATM    7  O6  UNL     1     -32.396   8.076   2.396  1.00 20.00    -0.297 OA
ENDBRANCH   3   5
TORSDOF 1
ENDMDL
MODEL 9
REMARK VINA RESULT:      -0.7      2.261      2.597
REMARK  1 active torsions:
REMARK  status: ('A' for Active; 'I' for Inactive)
REMARK    1  A    between atoms: C1_1  and  C4_4 
ROOT
HETATM    1  C2  UNL     1     -32.144   5.510   1.768  1.00 20.00     0.031 A 
HETATM    2  C3  UNL     1     -33.164   6.027   0.797  1.00 20.00     0.031 A 
HETATM    3  C4  UNL     1     -32.842   6.819   2.041  1.00 20.00     0.078 A 
HETATM    4 BR7  UNL     1     -34.171   6.817   3.437  1.00 20.00    -0.077 Br
ENDROOT
BRANCH   3   5
HETATM    5  C1  UNL     1     -32.081   8.072   1.911  1.00 20.00     0.142 C 
HETATM    6  C5  UNL     1     -32.451   8.973   0.765  1.00 20.00     0.092 C 
HETATM    7  O6  UNL     1     -31.189   8.369   2.704  1.00 20.00    -0.297 OA
ENDBRANCH   3   5
TORSDOF 1
ENDMDL
