MODEL 1
REMARK VINA RESULT:       2.2      0.000      0.000
REMARK  1 active torsions:
REMARK  status: ('A' for Active; 'I' for Inactive)
REMARK    1  A    between atoms: C1_1  and  C8_8 
ROOT
HETATM    1  C2  UNL     1     -32.743   6.859   3.735  1.00 20.00     0.013 A 
HETATM    2  C3  UNL     1     -34.586   6.979   2.601  1.00 20.00     0.013 A 
HETATM    3  C4  UNL     1     -32.996   5.658   1.950  1.00 20.00     0.013 A 
HETATM    4  C5  UNL     1     -33.545   7.995   3.089  1.00 20.00     0.006 A 
HETATM    5  C6  UNL     1     -31.951   6.670   2.435  1.00 20.00     0.006 A 
HETATM    6  C7  UNL     1     -33.799   6.791   1.297  1.00 20.00     0.006 A 
HETATM    7  C8  UNL     1     -33.785   5.844   3.250  1.00 20.00     0.033 A 
HETATM    8  C9  UNL     1     -32.750   7.816   1.779  1.00 20.00    -0.031 A 
HETATM    9  C11 UNL     1     -32.174   8.914   0.959  1.00 20.00     0.016 C 
ENDROOT
BRANCH   7  10
HETATM   10  C1  UNL     1     -34.369   4.740   4.077  1.00 20.00     0.133 C 
HETATM   11  C10 UNL     1     -33.535   3.498   4.233  1.00 20.00     0.091 C 
HETATM   12  O12 UNL     1     -35.476   4.845   4.604  1.00 20.00    -0.297 OA
ENDBRANCH   7  10
TORSDOF 1
ENDMDL
MODEL 2
REMARK VINA RESULT:       2.2      0.008      1.537
REMARK  1 active torsions:
REMARK  status: ('A' for Active; 'I' for Inactive)
REMARK    1  A    between atoms: C1_1  and  C8_8 
ROOT
HETATM    1  C2  UNL     1     -33.007   5.660   1.941  1.00 20.00     0.013 A 
HETATM    2  C3  UNL     1     -32.742   6.856   3.729  1.00 20.00     0.013 A 
HETATM    3  C4  UNL     1     -34.587   6.988   2.600  1.00 20.00     0.013 A 
HETATM    4  C5  UNL     1     -31.955   6.666   2.426  1.00 20.00     0.006 A 
HETATM    5  C6  UNL     1     -33.806   6.798   1.294  1.00 20.00     0.006 A 
HETATM    6  C7  UNL     1     -33.541   7.998   3.087  1.00 20.00     0.006 A 
HETATM    7  C8  UNL     1     -33.791   5.848   3.245  1.00 20.00     0.033 A 
HETATM    8  C9  UNL     1     -32.750   7.817   1.774  1.00 20.00    -0.031 A 
HETATM    9  C11 UNL     1     -32.170   8.913   0.954  1.00 20.00     0.016 C 
ENDROOT
BRANCH   7  10
HETATM   10  C1  UNL     1     -34.372   4.744   4.073  1.00 20.00     0.133 C 
HETATM   11  C10 UNL     1     -33.535   3.504   4.231  1.00 20.00     0.091 C 
HETATM   12  O12 UNL     1     -35.479   4.847   4.601  1.00 20.00    -0.297 OA
ENDBRANCH   7  10
TORSDOF 1
ENDMDL
MODEL 3
REMARK VINA RESULT:       2.2      0.031      1.524
REMARK  1 active torsions:
REMARK  status: ('A' for Active; 'I' for Inactive)
REMARK    1  A    between atoms: C1_1  and  C8_8 
ROOT
HETATM    1  C2  UNL     1     -34.600   6.990   2.642  1.00 20.00     0.013 A 
HETATM    2  C3  UNL     1     -33.037   5.659   1.948  1.00 20.00     0.013 A 
HETATM    3  C4  UNL     1     -32.740   6.839   3.741  1.00 20.00     0.013 A 
HETATM    4  C5  UNL     1     -33.840   6.807   1.323  1.00 20.00     0.006 A 
HETATM    5  C6  UNL     1     -33.541   7.990   3.121  1.00 20.00     0.006 A 
HETATM    6  C7  UNL     1     -31.973   6.656   2.425  1.00 20.00     0.006 A 
HETATM    7  C8  UNL     1     -33.801   5.841   3.266  1.00 20.00     0.033 A 
HETATM    8  C9  UNL     1     -32.772   7.816   1.794  1.00 20.00    -0.031 A 
HETATM    9  C11 UNL     1     -32.199   8.916   0.975  1.00 20.00     0.016 C 
ENDROOT
BRANCH   7  10
HETATM   10  C1  UNL     1     -34.378   4.730   4.088  1.00 20.00     0.133 C 
HETATM   11  C10 UNL     1     -33.537   3.492   4.238  1.00 20.00     0.091 C 
HETATM   12  O12 UNL     1     -35.484   4.827   4.617  1.00 20.00    -0.297 OA
ENDBRANCH   7  10
TORSDOF 1
ENDMDL
MODEL 4
REMARK VINA RESULT:       2.8      2.178      4.076
REMARK  1 active torsions:
REMARK  status: ('A' for Active; 'I' for Inactive)
REMARK    1  A    between atoms: C1_1  and  C8_8 
ROOT
HETATM    1  C2  UNL     1     -32.630   7.132   3.681  1.00 20.00     0.013 A 
HETATM    2  C3  UNL     1     -33.520   6.252   1.912  1.00 20.00     0.013 A 
HETATM    3  C4  UNL     1     -34.357   8.061   2.760  1.00 20.00     0.013 A 
HETATM    4  C5  UNL     1     -33.179   5.746   3.319  1.00 20.00     0.006 A 
HETATM    5  C6  UNL     1     -34.019   7.561   4.170  1.00 20.00     0.006 A 
HETATM    6  C7  UNL     1     -34.912   6.678   2.396  1.00 20.00     0.006 A 
HETATM    7  C8  UNL     1     -32.968   7.636   2.273  1.00 20.00     0.033 A 
HETATM    8  C9  UNL     1     -34.579   6.167   3.814  1.00 20.00    -0.031 A 
HETATM    9  C11 UNL     1     -35.475   5.350   4.672  1.00 20.00     0.016 C 
ENDROOT
BRANCH   7  10
HETATM   10  C1  UNL     1     -32.063   8.457   1.406  1.00 20.00     0.133 C 
HETATM   11  C10 UNL     1     -32.650   9.706   0.807  1.00 20.00     0.091 C 
HETATM   12  O12 UNL     1     -30.897   8.127   1.196  1.00 20.00    -0.297 OA
ENDBRANCH   7  10
TORSDOF 1
ENDMDL
MODEL 5
REMARK VINA RESULT:       2.8      2.177      4.077
REMARK  1 active torsions:
REMARK  status: ('A' for Active; 'I' for Inactive)
REMARK    1  A    between atoms: C1_1  and  C8_8 
ROOT
HETATM    1  C2  UNL     1     -34.358   8.067   2.767  1.00 20.00     0.013 A 
HETATM    2  C3  UNL     1     -32.637   7.131   3.693  1.00 20.00     0.013 A 
HETATM    3  C4  UNL     1     -33.527   6.253   1.923  1.00 20.00     0.013 A 
HETATM    4  C5  UNL     1     -34.025   7.567   4.178  1.00 20.00     0.006 A 
HETATM    5  C6  UNL     1     -34.917   6.686   2.403  1.00 20.00     0.006 A 
HETATM    6  C7  UNL     1     -33.191   5.747   3.331  1.00 20.00     0.006 A 
HETATM    7  C8  UNL     1     -32.969   7.635   2.283  1.00 20.00     0.033 A 
HETATM    8  C9  UNL     1     -34.590   6.176   3.822  1.00 20.00    -0.031 A 
HETATM    9  C11 UNL     1     -35.493   5.363   4.680  1.00 20.00     0.016 C 
ENDROOT
BRANCH   7  10
HETATM   10  C1  UNL     1     -32.058   8.454   1.422  1.00 20.00     0.133 C 
HETATM   11  C10 UNL     1     -32.651   9.680   0.784  1.00 20.00     0.091 C 
HETATM   12  O12 UNL     1     -30.880   8.141   1.249  1.00 20.00    -0.297 OA
ENDBRANCH   7  10
TORSDOF 1
ENDMDL
MODEL 6
REMARK VINA RESULT:       2.8      2.184      4.088
REMARK  1 active torsions:
REMARK  status: ('A' for Active; 'I' for Inactive)
REMARK    1  A    between atoms: C1_1  and  C8_8 
ROOT
HETATM    1  C2  UNL     1     -33.526   6.276   1.904  1.00 20.00     0.013 A 
HETATM    2  C3  UNL     1     -34.353   8.088   2.758  1.00 20.00     0.013 A 
HETATM    3  C4  UNL     1     -32.630   7.146   3.674  1.00 20.00     0.013 A 
HETATM    4  C5  UNL     1     -34.915   6.708   2.390  1.00 20.00     0.006 A 
HETATM    5  C6  UNL     1     -33.186   5.764   3.309  1.00 20.00     0.006 A 
HETATM    6  C7  UNL     1     -34.016   7.581   4.167  1.00 20.00     0.006 A 
HETATM    7  C8  UNL     1     -32.966   7.656   2.268  1.00 20.00     0.033 A 
HETATM    8  C9  UNL     1     -34.584   6.192   3.806  1.00 20.00    -0.031 A 
HETATM    9  C11 UNL     1     -35.485   5.376   4.662  1.00 20.00     0.016 C 
ENDROOT
BRANCH   7  10
HETATM   10  C1  UNL     1     -32.061   8.480   1.405  1.00 20.00     0.133 C 
HETATM   11  C10 UNL     1     -32.654   9.720   0.793  1.00 20.00     0.091 C 
HETATM   12  O12 UNL     1     -30.890   8.159   1.208  1.00 20.00    -0.297 OA
ENDBRANCH   7  10
TORSDOF 1
ENDMDL
MODEL 7
REMARK VINA RESULT:       2.8      0.952      1.743
REMARK  1 active torsions:
REMARK  status: ('A' for Active; 'I' for Inactive)
REMARK    1  A    between atoms: C1_1  and  C8_8 
ROOT
HETATM    1  C2  UNL     1     -32.437   5.915   1.911  1.00 20.00     0.013 A 
HETATM    2  C3  UNL     1     -32.817   7.340   3.499  1.00 20.00     0.013 A 
HETATM    3  C4  UNL     1     -34.333   6.958   2.000  1.00 20.00     0.013 A 
HETATM    4  C5  UNL     1     -31.721   7.164   2.440  1.00 20.00     0.006 A 
HETATM    5  C6  UNL     1     -33.243   6.782   0.936  1.00 20.00     0.006 A 
HETATM    6  C7  UNL     1     -33.624   8.211   2.529  1.00 20.00     0.006 A 
HETATM    7  C8  UNL     1     -33.529   6.089   2.972  1.00 20.00     0.033 A 
HETATM    8  C9  UNL     1     -32.524   8.044   1.459  1.00 20.00    -0.031 A 
HETATM    9  C11 UNL     1     -31.964   9.133   0.616  1.00 20.00     0.016 C 
ENDROOT
BRANCH   7  10
HETATM   10  C1  UNL     1     -34.092   4.993   3.825  1.00 20.00     0.133 C 
HETATM   11  C10 UNL     1     -35.389   5.281   4.530  1.00 20.00     0.091 C 
HETATM   12  O12 UNL     1     -33.522   3.908   3.940  1.00 20.00    -0.297 OA
ENDBRANCH   7  10
TORSDOF 1
ENDMDL
MODEL 8
REMARK VINA RESULT:       2.9      0.901      1.951
REMARK  1 active torsions:
REMARK  status: ('A' for Active; 'I' for Inactive)
REMARK    1  A    between atoms: C1_1  and  C8_8 
ROOT
HETATM    1  C2  UNL     1     -34.393   6.933   2.066  1.00 20.00     0.013 A 
HETATM    2  C3  UNL     1     -32.517   5.857   1.929  1.00 20.00     0.013 A 
HETATM    3  C4  UNL     1     -32.839   7.273   3.537  1.00 20.00     0.013 A 
HETATM    4  C5  UNL     1     -33.328   6.747   0.979  1.00 20.00     0.006 A 
HETATM    5  C6  UNL     1     -33.651   8.167   2.592  1.00 20.00     0.006 A 
HETATM    6  C7  UNL     1     -31.769   7.089   2.454  1.00 20.00     0.006 A 
HETATM    7  C8  UNL     1     -33.585   6.040   3.015  1.00 20.00     0.033 A 
HETATM    8  C9  UNL     1     -32.577   7.991   1.497  1.00 20.00    -0.031 A 
HETATM    9  C11 UNL     1     -32.016   9.078   0.652  1.00 20.00     0.016 C 
ENDROOT
BRANCH   7  10
HETATM   10  C1  UNL     1     -34.149   4.942   3.864  1.00 20.00     0.133 C 
HETATM   11  C10 UNL     1     -35.434   5.238   4.586  1.00 20.00     0.091 C 
HETATM   12  O12 UNL     1     -33.589   3.851   3.963  1.00 20.00    -0.297 OA
ENDBRANCH   7  10
TORSDOF 1
ENDMDL
MODEL 9
REMARK VINA RESULT:       5.1      1.856      2.790
REMARK  1 active torsions:
REMARK  status: ('A' for Active; 'I' for Inactive)
REMARK    1  A    between atoms: C1_1  and  C8_8 
ROOT
HETATM    1  C2  UNL     1     -31.931   6.591   2.157  1.00 20.00     0.013 A 
HETATM    2  C3  UNL     1     -33.748   6.088   1.088  1.00 20.00     0.013 A 
HETATM    3  C4  UNL     1     -33.017   4.784   2.656  1.00 20.00     0.013 A 
HETATM    4  C5  UNL     1     -32.305   6.412   0.680  1.00 20.00     0.006 A 
HETATM    5  C6  UNL     1     -31.572   5.103   2.253  1.00 20.00     0.006 A 
HETATM    6  C7  UNL     1     -33.394   4.598   1.181  1.00 20.00     0.006 A 
HETATM    7  C8  UNL     1     -33.374   6.272   2.564  1.00 20.00     0.033 A 
HETATM    8  C9  UNL     1     -31.941   4.914   0.767  1.00 20.00    -0.031 A 
HETATM    9  C11 UNL     1     -31.143   4.159  -0.234  1.00 20.00     0.016 C 
ENDROOT
BRANCH   7  10
HETATM   10  C1  UNL     1     -34.180   7.035   3.569  1.00 20.00     0.133 C 
HETATM   11  C10 UNL     1     -35.464   6.400   4.030  1.00 20.00     0.091 C 
HETATM   12  O12 UNL     1     -33.809   8.126   4.000  1.00 20.00    -0.297 OA
ENDBRANCH   7  10
TORSDOF 1
ENDMDL
