MODEL 1
REMARK VINA RESULT:      -0.9      0.000      0.000
REMARK  2 active torsions:
REMARK  status: ('A' for Active; 'I' for Inactive)
REMARK    1  A    between atoms: C1_1  and  C4_4 
REMARK    2  A    between atoms: C2_2  and  N10_10 
ROOT
HETATM    1  C5  UNL     1     -35.095   4.750   4.278  1.00 20.00     0.003 C 
HETATM    2  C6  UNL     1     -33.696   4.385   3.794  1.00 20.00     0.029 C 
HETATM    3  C7  UNL     1     -35.172   6.214   4.699  1.00 20.00     0.029 C 
HETATM    4  C8  UNL     1     -33.219   5.321   2.691  1.00 20.00     0.251 C 
HETATM    5  C9  UNL     1     -34.690   7.144   3.593  1.00 20.00     0.251 C 
HETATM    6  N10 UNL     1     -33.299   6.742   3.181  1.00 20.00    -0.006 N 
HETATM    7  H24 UNL     1     -32.684   6.832   4.002  1.00 20.00     0.297 HD
ENDROOT
BRANCH   6   8
HETATM    8  C2  UNL     1     -32.756   7.678   2.177  1.00 20.00     0.118 C 
HETATM    9  C1  UNL     1     -32.314   8.440   1.361  1.00 20.00    -0.049 C 
BRANCH   9  10
HETATM   10  C4  UNL     1     -31.798   9.343   0.394  1.00 20.00     0.056 C 
HETATM   11  C3  UNL     1     -32.591  10.175  -0.288  1.00 20.00     0.021 C 
ENDBRANCH   9  10
ENDBRANCH   6   8
TORSDOF 2
ENDMDL
MODEL 2
REMARK VINA RESULT:       1.4      1.176      5.427
REMARK  2 active torsions:
REMARK  status: ('A' for Active; 'I' for Inactive)
REMARK    1  A    between atoms: C1_1  and  C4_4 
REMARK    2  A    between atoms: C2_2  and  N10_10 
ROOT
HETATM    1  C5  UNL     1     -31.854   9.889  -0.279  1.00 20.00     0.003 C 
HETATM    2  C6  UNL     1     -32.648  10.577   0.828  1.00 20.00     0.029 C 
HETATM    3  C7  UNL     1     -31.073   8.695   0.259  1.00 20.00     0.029 C 
HETATM    4  C8  UNL     1     -33.546   9.596   1.571  1.00 20.00     0.251 C 
HETATM    5  C9  UNL     1     -31.977   7.721   1.005  1.00 20.00     0.251 C 
HETATM    6  N10 UNL     1     -32.709   8.459   2.093  1.00 20.00    -0.006 N 
HETATM    7  H24 UNL     1     -32.009   8.849   2.740  1.00 20.00     0.297 HD
ENDROOT
BRANCH   6   8
HETATM    8  C2  UNL     1     -33.524   7.532   2.902  1.00 20.00     0.118 C 
HETATM    9  C1  UNL     1     -34.185   6.777   3.560  1.00 20.00    -0.049 C 
BRANCH   9  10
HETATM   10  C4  UNL     1     -34.974   5.885   4.334  1.00 20.00     0.056 C 
HETATM   11  C3  UNL     1     -34.727   4.571   4.367  1.00 20.00     0.021 C 
ENDBRANCH   9  10
ENDBRANCH   6   8
TORSDOF 2
ENDMDL
MODEL 3
REMARK VINA RESULT:       1.4      1.405      5.136
REMARK  2 active torsions:
REMARK  status: ('A' for Active; 'I' for Inactive)
REMARK    1  A    between atoms: C1_1  and  C4_4 
REMARK    2  A    between atoms: C2_2  and  N10_10 
ROOT
HETATM    1  C5  UNL     1     -31.906   8.986   1.331  1.00 20.00     0.003 C 
HETATM    2  C6  UNL     1     -31.842   7.682   0.541  1.00 20.00     0.029 C 
HETATM    3  C7  UNL     1     -33.161   9.050   2.195  1.00 20.00     0.029 C 
HETATM    4  C8  UNL     1     -31.973   6.466   1.448  1.00 20.00     0.251 C 
HETATM    5  C9  UNL     1     -33.288   7.828   3.096  1.00 20.00     0.251 C 
HETATM    6  N10 UNL     1     -33.241   6.583   2.252  1.00 20.00    -0.006 N 
HETATM    7  H24 UNL     1     -34.034   6.614   1.595  1.00 20.00     0.297 HD
ENDROOT
BRANCH   6   8
HETATM    8  C2  UNL     1     -33.457   5.379   3.077  1.00 20.00     0.118 C 
HETATM    9  C1  UNL     1     -33.634   4.400   3.749  1.00 20.00    -0.049 C 
BRANCH   9  10
HETATM   10  C4  UNL     1     -33.835   3.240   4.543  1.00 20.00     0.056 C 
HETATM   11  C3  UNL     1     -32.842   2.684   5.245  1.00 20.00     0.021 C 
ENDBRANCH   9  10
ENDBRANCH   6   8
TORSDOF 2
ENDMDL
MODEL 4
REMARK VINA RESULT:       1.7      0.692      1.788
REMARK  2 active torsions:
REMARK  status: ('A' for Active; 'I' for Inactive)
REMARK    1  A    between atoms: C1_1  and  C4_4 
REMARK    2  A    between atoms: C2_2  and  N10_10 
ROOT
HETATM    1  C5  UNL     1     -34.440   4.469   4.676  1.00 20.00     0.003 C 
HETATM    2  C6  UNL     1     -35.309   5.714   4.528  1.00 20.00     0.029 C 
HETATM    3  C7  UNL     1     -33.822   4.062   3.342  1.00 20.00     0.029 C 
HETATM    4  C8  UNL     1     -34.545   6.861   3.880  1.00 20.00     0.251 C 
HETATM    5  C9  UNL     1     -33.064   5.215   2.697  1.00 20.00     0.251 C 
HETATM    6  N10 UNL     1     -33.985   6.398   2.561  1.00 20.00    -0.006 N 
HETATM    7  H24 UNL     1     -34.773   6.121   1.959  1.00 20.00     0.297 HD
ENDROOT
BRANCH   6   8
HETATM    8  C2  UNL     1     -33.316   7.507   1.853  1.00 20.00     0.118 C 
HETATM    9  C1  UNL     1     -32.773   8.410   1.277  1.00 20.00    -0.049 C 
BRANCH   9  10
HETATM   10  C4  UNL     1     -32.136   9.478   0.593  1.00 20.00     0.056 C 
HETATM   11  C3  UNL     1     -30.927   9.340   0.039  1.00 20.00     0.021 C 
ENDBRANCH   9  10
ENDBRANCH   6   8
TORSDOF 2
ENDMDL
MODEL 5
REMARK VINA RESULT:       1.9      2.382      3.796
REMARK  2 active torsions:
REMARK  status: ('A' for Active; 'I' for Inactive)
REMARK    1  A    between atoms: C1_1  and  C4_4 
REMARK    2  A    between atoms: C2_2  and  N10_10 
ROOT
HETATM    1  C5  UNL     1     -34.319   7.627   4.326  1.00 20.00     0.003 C 
HETATM    2  C6  UNL     1     -33.570   8.344   3.207  1.00 20.00     0.029 C 
HETATM    3  C7  UNL     1     -34.927   6.317   3.837  1.00 20.00     0.029 C 
HETATM    4  C8  UNL     1     -32.531   7.441   2.555  1.00 20.00     0.251 C 
HETATM    5  C9  UNL     1     -33.883   5.421   3.182  1.00 20.00     0.251 C 
HETATM    6  N10 UNL     1     -33.202   6.182   2.075  1.00 20.00    -0.006 N 
HETATM    7  H24 UNL     1     -33.918   6.445   1.383  1.00 20.00     0.297 HD
ENDROOT
BRANCH   6   8
HETATM    8  C2  UNL     1     -32.249   5.318   1.351  1.00 20.00     0.118 C 
HETATM    9  C1  UNL     1     -31.473   4.617   0.762  1.00 20.00    -0.049 C 
BRANCH   9  10
HETATM   10  C4  UNL     1     -30.561   3.786   0.061  1.00 20.00     0.056 C 
HETATM   11  C3  UNL     1     -30.921   3.108  -1.034  1.00 20.00     0.021 C 
ENDBRANCH   9  10
ENDBRANCH   6   8
TORSDOF 2
ENDMDL
