MODEL 1
REMARK VINA RESULT:       2.8      0.000      0.000
REMARK  1 active torsions:
REMARK  status: ('A' for Active; 'I' for Inactive)
REMARK    1  A    between atoms: C3_3  and  C8_8 
ROOT
HETATM    1  C1  UNL     1     -32.857   5.294   2.606  1.00 20.00    -0.025 C 
HETATM    2  C2  UNL     1     -31.755   5.570   1.895  1.00 20.00    -0.024 C 
HETATM    3  C4  UNL     1     -33.544   6.382   0.696  1.00 20.00     0.018 C 
HETATM    4  C5  UNL     1     -33.926   6.270   2.176  1.00 20.00     0.013 C 
HETATM    5  C6  UNL     1     -32.082   6.746   1.002  1.00 20.00     0.024 C 
HETATM    6  C7  UNL     1     -33.576   7.703   2.675  1.00 20.00     0.005 C 
HETATM    7  C8  UNL     1     -32.251   8.027   1.880  1.00 20.00     0.027 C 
HETATM    8  C10 UNL     1     -33.520   7.826   4.194  1.00 20.00     0.012 C 
HETATM    9  C11 UNL     1     -31.017   8.349   2.729  1.00 20.00     0.024 C 
ENDROOT
BRANCH   7  10
HETATM   10  C3  UNL     1     -32.457   9.207   0.958  1.00 20.00     0.132 C 
HETATM   11  C9  UNL     1     -31.801   9.134  -0.394  1.00 20.00     0.091 C 
HETATM   12  O12 UNL     1     -33.130  10.180   1.298  1.00 20.00    -0.298 OA
ENDBRANCH   7  10
TORSDOF 1
ENDMDL
MODEL 2
REMARK VINA RESULT:       3.3      1.932      3.416
REMARK  1 active torsions:
REMARK  status: ('A' for Active; 'I' for Inactive)
REMARK    1  A    between atoms: C3_3  and  C8_8 
ROOT
HETATM    1  C1  UNL     1     -35.616   6.167   4.100  1.00 20.00    -0.025 C 
HETATM    2  C2  UNL     1     -35.689   6.870   2.962  1.00 20.00    -0.024 C 
HETATM    3  C4  UNL     1     -33.808   7.594   4.072  1.00 20.00     0.018 C 
HETATM    4  C5  UNL     1     -34.173   6.182   4.546  1.00 20.00     0.013 C 
HETATM    5  C6  UNL     1     -34.290   7.340   2.635  1.00 20.00     0.024 C 
HETATM    6  C7  UNL     1     -33.305   5.320   3.582  1.00 20.00     0.005 C 
HETATM    7  C8  UNL     1     -33.419   6.111   2.221  1.00 20.00     0.027 C 
HETATM    8  C10 UNL     1     -33.694   3.846   3.561  1.00 20.00     0.012 C 
HETATM    9  C11 UNL     1     -33.994   5.332   1.033  1.00 20.00     0.024 C 
ENDROOT
BRANCH   7  10
HETATM   10  C3  UNL     1     -32.064   6.619   1.784  1.00 20.00     0.132 C 
HETATM   11  C9  UNL     1     -31.891   8.112   1.708  1.00 20.00     0.091 C 
HETATM   12  O12 UNL     1     -31.145   5.848   1.504  1.00 20.00    -0.298 OA
ENDBRANCH   7  10
TORSDOF 1
ENDMDL
MODEL 3
REMARK VINA RESULT:       3.6      2.363      4.014
REMARK  1 active torsions:
REMARK  status: ('A' for Active; 'I' for Inactive)
REMARK    1  A    between atoms: C3_3  and  C8_8 
ROOT
HETATM    1  C1  UNL     1     -32.655   7.815   1.573  1.00 20.00    -0.025 C 
HETATM    2  C2  UNL     1     -33.595   7.026   1.035  1.00 20.00    -0.024 C 
HETATM    3  C4  UNL     1     -32.164   5.657   2.206  1.00 20.00     0.018 C 
HETATM    4  C5  UNL     1     -32.078   7.083   2.761  1.00 20.00     0.013 C 
HETATM    5  C6  UNL     1     -33.660   5.771   1.877  1.00 20.00     0.024 C 
HETATM    6  C7  UNL     1     -33.129   7.011   3.909  1.00 20.00     0.005 C 
HETATM    7  C8  UNL     1     -34.267   6.120   3.273  1.00 20.00     0.027 C 
HETATM    8  C10 UNL     1     -33.539   8.376   4.449  1.00 20.00     0.012 C 
HETATM    9  C11 UNL     1     -35.657   6.760   3.189  1.00 20.00     0.024 C 
ENDROOT
BRANCH   7  10
HETATM   10  C3  UNL     1     -34.434   4.835   4.051  1.00 20.00     0.132 C 
HETATM   11  C9  UNL     1     -33.337   3.814   3.917  1.00 20.00     0.091 C 
HETATM   12  O12 UNL     1     -35.420   4.633   4.760  1.00 20.00    -0.298 OA
ENDBRANCH   7  10
TORSDOF 1
ENDMDL
MODEL 4
REMARK VINA RESULT:       3.7      2.304      3.919
REMARK  1 active torsions:
REMARK  status: ('A' for Active; 'I' for Inactive)
REMARK    1  A    between atoms: C3_3  and  C8_8 
ROOT
HETATM    1  C1  UNL     1     -32.347   8.325   1.557  1.00 20.00    -0.025 C 
HETATM    2  C2  UNL     1     -33.338   7.634   0.976  1.00 20.00    -0.024 C 
HETATM    3  C4  UNL     1     -31.884   6.091   1.870  1.00 20.00     0.018 C 
HETATM    4  C5  UNL     1     -31.727   7.428   2.602  1.00 20.00     0.013 C 
HETATM    5  C6  UNL     1     -33.393   6.280   1.647  1.00 20.00     0.024 C 
HETATM    6  C7  UNL     1     -32.714   7.226   3.790  1.00 20.00     0.005 C 
HETATM    7  C8  UNL     1     -33.911   6.452   3.111  1.00 20.00     0.027 C 
HETATM    8  C10 UNL     1     -33.054   8.515   4.529  1.00 20.00     0.012 C 
HETATM    9  C11 UNL     1     -35.284   7.127   3.193  1.00 20.00     0.024 C 
ENDROOT
BRANCH   7  10
HETATM   10  C3  UNL     1     -34.072   5.078   3.720  1.00 20.00     0.132 C 
HETATM   11  C9  UNL     1     -35.249   4.876   4.635  1.00 20.00     0.091 C 
HETATM   12  O12 UNL     1     -33.278   4.169   3.478  1.00 20.00    -0.298 OA
ENDBRANCH   7  10
TORSDOF 1
ENDMDL
MODEL 5
REMARK VINA RESULT:       4.4      1.868      3.621
REMARK  1 active torsions:
REMARK  status: ('A' for Active; 'I' for Inactive)
REMARK    1  A    between atoms: C3_3  and  C8_8 
ROOT
HETATM    1  C1  UNL     1     -32.755   9.429   1.887  1.00 20.00    -0.025 C 
HETATM    2  C2  UNL     1     -32.481   8.843   0.713  1.00 20.00    -0.024 C 
HETATM    3  C4  UNL     1     -31.035   7.944   2.261  1.00 20.00     0.018 C 
HETATM    4  C5  UNL     1     -32.270   8.502   2.977  1.00 20.00     0.013 C 
HETATM    5  C6  UNL     1     -31.830   7.513   1.018  1.00 20.00     0.024 C 
HETATM    6  C7  UNL     1     -33.169   7.230   3.038  1.00 20.00     0.005 C 
HETATM    7  C8  UNL     1     -32.893   6.551   1.640  1.00 20.00     0.027 C 
HETATM    8  C10 UNL     1     -34.622   7.525   3.389  1.00 20.00     0.012 C 
HETATM    9  C11 UNL     1     -34.115   6.335   0.742  1.00 20.00     0.024 C 
ENDROOT
BRANCH   7  10
HETATM   10  C3  UNL     1     -32.251   5.194   1.823  1.00 20.00     0.132 C 
HETATM   11  C9  UNL     1     -32.754   4.357   2.968  1.00 20.00     0.091 C 
HETATM   12  O12 UNL     1     -31.362   4.794   1.072  1.00 20.00    -0.298 OA
ENDBRANCH   7  10
TORSDOF 1
ENDMDL
MODEL 6
REMARK VINA RESULT:       4.6      1.954      3.919
REMARK  1 active torsions:
REMARK  status: ('A' for Active; 'I' for Inactive)
REMARK    1  A    between atoms: C3_3  and  C8_8 
ROOT
HETATM    1  C1  UNL     1     -31.668   7.982   2.078  1.00 20.00    -0.025 C 
HETATM    2  C2  UNL     1     -31.782   7.883   3.409  1.00 20.00    -0.024 C 
HETATM    3  C4  UNL     1     -33.812   8.627   2.619  1.00 20.00     0.018 C 
HETATM    4  C5  UNL     1     -33.060   7.897   1.499  1.00 20.00     0.013 C 
HETATM    5  C6  UNL     1     -33.252   7.713   3.721  1.00 20.00     0.024 C 
HETATM    6  C7  UNL     1     -33.624   6.454   1.664  1.00 20.00     0.005 C 
HETATM    7  C8  UNL     1     -33.721   6.304   3.233  1.00 20.00     0.027 C 
HETATM    8  C10 UNL     1     -32.822   5.395   0.916  1.00 20.00     0.012 C 
HETATM    9  C11 UNL     1     -32.923   5.151   3.851  1.00 20.00     0.024 C 
ENDROOT
BRANCH   7  10
HETATM   10  C3  UNL     1     -35.157   6.110   3.662  1.00 20.00     0.132 C 
HETATM   11  C9  UNL     1     -35.421   5.033   4.680  1.00 20.00     0.091 C 
HETATM   12  O12 UNL     1     -36.067   6.800   3.202  1.00 20.00    -0.298 OA
ENDBRANCH   7  10
TORSDOF 1
ENDMDL
MODEL 7
REMARK VINA RESULT:       5.0      1.630      3.486
REMARK  1 active torsions:
REMARK  status: ('A' for Active; 'I' for Inactive)
REMARK    1  A    between atoms: C3_3  and  C8_8 
ROOT
HETATM    1  C1  UNL     1     -31.425   7.742   0.651  1.00 20.00    -0.025 C 
HETATM    2  C2  UNL     1     -30.954   7.573   1.895  1.00 20.00    -0.024 C 
HETATM    3  C4  UNL     1     -32.729   9.030   2.046  1.00 20.00     0.018 C 
HETATM    4  C5  UNL     1     -32.863   8.188   0.772  1.00 20.00     0.013 C 
HETATM    5  C6  UNL     1     -32.085   7.889   2.848  1.00 20.00     0.024 C 
HETATM    6  C7  UNL     1     -33.747   7.015   1.292  1.00 20.00     0.005 C 
HETATM    7  C8  UNL     1     -33.173   6.773   2.742  1.00 20.00     0.027 C 
HETATM    8  C10 UNL     1     -33.785   5.815   0.353  1.00 20.00     0.012 C 
HETATM    9  C11 UNL     1     -32.631   5.368   3.027  1.00 20.00     0.024 C 
ENDROOT
BRANCH   7  10
HETATM   10  C3  UNL     1     -34.231   7.044   3.787  1.00 20.00     0.132 C 
HETATM   11  C9  UNL     1     -35.434   6.141   3.784  1.00 20.00     0.091 C 
HETATM   12  O12 UNL     1     -34.113   7.960   4.602  1.00 20.00    -0.298 OA
ENDBRANCH   7  10
TORSDOF 1
ENDMDL
MODEL 8
REMARK VINA RESULT:       5.0      2.317      3.999
REMARK  1 active torsions:
REMARK  status: ('A' for Active; 'I' for Inactive)
REMARK    1  A    between atoms: C3_3  and  C8_8 
ROOT
HETATM    1  C1  UNL     1     -31.838   8.034   2.406  1.00 20.00    -0.025 C 
HETATM    2  C2  UNL     1     -32.025   7.911   3.727  1.00 20.00    -0.024 C 
HETATM    3  C4  UNL     1     -34.043   8.550   2.825  1.00 20.00     0.018 C 
HETATM    4  C5  UNL     1     -33.186   7.879   1.744  1.00 20.00     0.013 C 
HETATM    5  C6  UNL     1     -33.498   7.654   3.949  1.00 20.00     0.024 C 
HETATM    6  C7  UNL     1     -33.675   6.404   1.861  1.00 20.00     0.005 C 
HETATM    7  C8  UNL     1     -33.856   6.228   3.420  1.00 20.00     0.027 C 
HETATM    8  C10 UNL     1     -32.772   5.402   1.152  1.00 20.00     0.012 C 
HETATM    9  C11 UNL     1     -33.032   5.114   4.073  1.00 20.00     0.024 C 
ENDROOT
BRANCH   7  10
HETATM   10  C3  UNL     1     -35.302   5.947   3.760  1.00 20.00     0.132 C 
HETATM   11  C9  UNL     1     -36.339   6.773   3.048  1.00 20.00     0.091 C 
HETATM   12  O12 UNL     1     -35.616   5.084   4.580  1.00 20.00    -0.298 OA
ENDBRANCH   7  10
TORSDOF 1
ENDMDL
MODEL 9
REMARK VINA RESULT:       5.4      1.918      3.577
REMARK  1 active torsions:
REMARK  status: ('A' for Active; 'I' for Inactive)
REMARK    1  A    between atoms: C3_3  and  C8_8 
ROOT
HETATM    1  C1  UNL     1     -31.621   6.368   1.496  1.00 20.00    -0.025 C 
HETATM    2  C2  UNL     1     -32.144   7.544   1.867  1.00 20.00    -0.024 C 
HETATM    3  C4  UNL     1     -33.865   6.299   0.983  1.00 20.00     0.018 C 
HETATM    4  C5  UNL     1     -32.749   5.364   1.464  1.00 20.00     0.013 C 
HETATM    5  C6  UNL     1     -33.621   7.323   2.102  1.00 20.00     0.024 C 
HETATM    6  C7  UNL     1     -33.233   5.055   2.912  1.00 20.00     0.005 C 
HETATM    7  C8  UNL     1     -33.812   6.447   3.382  1.00 20.00     0.027 C 
HETATM    8  C10 UNL     1     -32.164   4.418   3.792  1.00 20.00     0.012 C 
HETATM    9  C11 UNL     1     -33.172   7.055   4.635  1.00 20.00     0.024 C 
ENDROOT
BRANCH   7  10
HETATM   10  C3  UNL     1     -35.292   6.341   3.665  1.00 20.00     0.132 C 
HETATM   11  C9  UNL     1     -35.724   5.264   4.624  1.00 20.00     0.091 C 
HETATM   12  O12 UNL     1     -36.106   7.100   3.138  1.00 20.00    -0.298 OA
ENDBRANCH   7  10
TORSDOF 1
ENDMDL
