MODEL 1
REMARK VINA RESULT:      -0.9      0.000      0.000
REMARK  2 active torsions:
REMARK  status: ('A' for Active; 'I' for Inactive)
REMARK    1  A    between atoms: C2_2  and  C7_7 
REMARK    2  A    between atoms: C3_3  and  C6_6 
ROOT
HETATM    1  C4  UNL     1     -33.164   6.245   1.511  1.00 20.00     0.014 C 
HETATM    2  C5  UNL     1     -31.698   6.612   1.795  1.00 20.00     0.015 C 
HETATM    3  C6  UNL     1     -33.598   7.505   2.303  1.00 20.00     0.067 C 
HETATM    4  C7  UNL     1     -32.151   8.079   2.063  1.00 20.00    -0.011 C 
HETATM    5  C10 UNL     1     -31.457   8.728   3.256  1.00 20.00     0.021 C 
ENDROOT
BRANCH   4   6
HETATM    6  C2  UNL     1     -32.061   8.960   0.862  1.00 20.00    -0.084 C 
HETATM    7  C1  UNL     1     -31.304   8.640  -0.198  1.00 20.00     0.015 C 
HETATM    8  C8  UNL     1     -32.867  10.225   0.907  1.00 20.00     0.043 C 
ENDBRANCH   4   6
BRANCH   3   9
HETATM    9  C3  UNL     1     -34.071   7.287   3.750  1.00 20.00     0.128 C 
HETATM   10  C9  UNL     1     -35.129   6.238   3.965  1.00 20.00     0.091 C 
HETATM   11  O11 UNL     1     -33.606   7.936   4.686  1.00 20.00    -0.298 OA
ENDBRANCH   3   9
TORSDOF 2
ENDMDL
MODEL 2
REMARK VINA RESULT:       0.1      2.279      3.710
REMARK  2 active torsions:
REMARK  status: ('A' for Active; 'I' for Inactive)
REMARK    1  A    between atoms: C2_2  and  C7_7 
REMARK    2  A    between atoms: C3_3  and  C6_6 
ROOT
HETATM    1  C4  UNL     1     -35.342   5.931   4.433  1.00 20.00     0.014 C 
HETATM    2  C5  UNL     1     -35.263   6.363   2.959  1.00 20.00     0.015 C 
HETATM    3  C6  UNL     1     -33.897   5.379   4.312  1.00 20.00     0.067 C 
HETATM    4  C7  UNL     1     -33.709   6.318   3.062  1.00 20.00    -0.011 C 
HETATM    5  C10 UNL     1     -33.030   5.713   1.838  1.00 20.00     0.021 C 
ENDROOT
BRANCH   4   6
HETATM    6  C2  UNL     1     -33.095   7.635   3.404  1.00 20.00    -0.084 C 
HETATM    7  C1  UNL     1     -33.319   8.238   4.581  1.00 20.00     0.015 C 
HETATM    8  C8  UNL     1     -32.212   8.246   2.355  1.00 20.00     0.043 C 
ENDBRANCH   4   6
BRANCH   3   9
HETATM    9  C3  UNL     1     -33.748   3.861   4.120  1.00 20.00     0.128 C 
HETATM   10  C9  UNL     1     -32.928   3.127   5.147  1.00 20.00     0.091 C 
HETATM   11  O11 UNL     1     -34.273   3.275   3.175  1.00 20.00    -0.298 OA
ENDBRANCH   3   9
TORSDOF 2
ENDMDL
MODEL 3
REMARK VINA RESULT:       0.3      1.801      3.232
REMARK  2 active torsions:
REMARK  status: ('A' for Active; 'I' for Inactive)
REMARK    1  A    between atoms: C2_2  and  C7_7 
REMARK    2  A    between atoms: C3_3  and  C6_6 
ROOT
HETATM    1  C4  UNL     1     -34.158   7.280   4.169  1.00 20.00     0.014 C 
HETATM    2  C5  UNL     1     -34.629   7.368   2.708  1.00 20.00     0.015 C 
HETATM    3  C6  UNL     1     -33.525   5.902   3.845  1.00 20.00     0.067 C 
HETATM    4  C7  UNL     1     -33.542   6.320   2.327  1.00 20.00    -0.011 C 
HETATM    5  C10 UNL     1     -34.022   5.274   1.326  1.00 20.00     0.021 C 
ENDROOT
BRANCH   4   6
HETATM    6  C2  UNL     1     -32.258   6.930   1.871  1.00 20.00    -0.084 C 
HETATM    7  C1  UNL     1     -32.012   8.243   1.996  1.00 20.00     0.015 C 
HETATM    8  C8  UNL     1     -31.256   5.990   1.267  1.00 20.00     0.043 C 
ENDBRANCH   4   6
BRANCH   3   9
HETATM    9  C3  UNL     1     -34.318   4.656   4.273  1.00 20.00     0.128 C 
HETATM   10  C9  UNL     1     -33.558   3.359   4.335  1.00 20.00     0.091 C 
HETATM   11  O11 UNL     1     -35.515   4.717   4.553  1.00 20.00    -0.298 OA
ENDBRANCH   3   9
TORSDOF 2
ENDMDL
MODEL 4
REMARK VINA RESULT:       0.5      1.890      4.085
REMARK  2 active torsions:
REMARK  status: ('A' for Active; 'I' for Inactive)
REMARK    1  A    between atoms: C2_2  and  C7_7 
REMARK    2  A    between atoms: C3_3  and  C6_6 
ROOT
HETATM    1  C4  UNL     1     -31.010   7.645   2.364  1.00 20.00     0.014 C 
HETATM    2  C5  UNL     1     -31.542   6.330   1.769  1.00 20.00     0.015 C 
HETATM    3  C6  UNL     1     -32.303   8.348   1.877  1.00 20.00     0.067 C 
HETATM    4  C7  UNL     1     -32.981   6.927   1.818  1.00 20.00    -0.011 C 
HETATM    5  C10 UNL     1     -33.819   6.611   0.584  1.00 20.00     0.021 C 
ENDROOT
BRANCH   4   6
HETATM    6  C2  UNL     1     -33.729   6.582   3.062  1.00 20.00    -0.084 C 
HETATM    7  C1  UNL     1     -34.197   7.524   3.894  1.00 20.00     0.015 C 
HETATM    8  C8  UNL     1     -33.929   5.118   3.329  1.00 20.00     0.043 C 
ENDBRANCH   4   6
BRANCH   3   9
HETATM    9  C3  UNL     1     -32.202   9.168   0.581  1.00 20.00     0.128 C 
HETATM   10  C9  UNL     1     -33.035  10.419   0.505  1.00 20.00     0.091 C 
HETATM   11  O11 UNL     1     -31.474   8.820  -0.348  1.00 20.00    -0.298 OA
ENDBRANCH   3   9
TORSDOF 2
ENDMDL
MODEL 5
REMARK VINA RESULT:       0.5      1.848      3.040
REMARK  2 active torsions:
REMARK  status: ('A' for Active; 'I' for Inactive)
REMARK    1  A    between atoms: C2_2  and  C7_7 
REMARK    2  A    between atoms: C3_3  and  C6_6 
ROOT
HETATM    1  C4  UNL     1     -34.698   7.247   4.252  1.00 20.00     0.014 C 
HETATM    2  C5  UNL     1     -34.853   7.318   2.724  1.00 20.00     0.015 C 
HETATM    3  C6  UNL     1     -33.677   6.096   4.060  1.00 20.00     0.067 C 
HETATM    4  C7  UNL     1     -33.476   6.602   2.582  1.00 20.00    -0.011 C 
HETATM    5  C10 UNL     1     -33.445   5.543   1.485  1.00 20.00     0.021 C 
ENDROOT
BRANCH   4   6
HETATM    6  C2  UNL     1     -32.326   7.543   2.434  1.00 20.00    -0.084 C 
HETATM    7  C1  UNL     1     -31.590   7.593   1.314  1.00 20.00     0.015 C 
HETATM    8  C8  UNL     1     -32.042   8.430   3.611  1.00 20.00     0.043 C 
ENDBRANCH   4   6
BRANCH   3   9
HETATM    9  C3  UNL     1     -34.194   4.665   4.282  1.00 20.00     0.128 C 
HETATM   10  C9  UNL     1     -33.171   3.562   4.239  1.00 20.00     0.091 C 
HETATM   11  O11 UNL     1     -35.385   4.434   4.488  1.00 20.00    -0.298 OA
ENDBRANCH   3   9
TORSDOF 2
ENDMDL
MODEL 6
REMARK VINA RESULT:       0.7      1.496      4.059
REMARK  2 active torsions:
REMARK  status: ('A' for Active; 'I' for Inactive)
REMARK    1  A    between atoms: C2_2  and  C7_7 
REMARK    2  A    between atoms: C3_3  and  C6_6 
ROOT
HETATM    1  C4  UNL     1     -32.717   5.738   1.191  1.00 20.00     0.014 C 
HETATM    2  C5  UNL     1     -34.210   6.048   1.393  1.00 20.00     0.015 C 
HETATM    3  C6  UNL     1     -32.414   6.523   2.494  1.00 20.00     0.067 C 
HETATM    4  C7  UNL     1     -33.920   6.307   2.901  1.00 20.00    -0.011 C 
HETATM    5  C10 UNL     1     -34.662   7.512   3.471  1.00 20.00     0.021 C 
ENDROOT
BRANCH   4   6
HETATM    6  C2  UNL     1     -34.129   5.107   3.764  1.00 20.00    -0.084 C 
HETATM    7  C1  UNL     1     -33.267   4.079   3.771  1.00 20.00     0.015 C 
HETATM    8  C8  UNL     1     -35.358   5.117   4.625  1.00 20.00     0.043 C 
ENDBRANCH   4   6
BRANCH   3   9
HETATM    9  C3  UNL     1     -31.895   7.961   2.333  1.00 20.00     0.128 C 
HETATM   10  C9  UNL     1     -31.996   8.567   0.959  1.00 20.00     0.091 C 
HETATM   11  O11 UNL     1     -31.422   8.586   3.281  1.00 20.00    -0.298 OA
ENDBRANCH   3   9
TORSDOF 2
ENDMDL
MODEL 7
REMARK VINA RESULT:       1.5      1.591      4.239
REMARK  2 active torsions:
REMARK  status: ('A' for Active; 'I' for Inactive)
REMARK    1  A    between atoms: C2_2  and  C7_7 
REMARK    2  A    between atoms: C3_3  and  C6_6 
ROOT
HETATM    1  C4  UNL     1     -33.168   8.445   4.251  1.00 20.00     0.014 C 
HETATM    2  C5  UNL     1     -32.900   6.968   4.585  1.00 20.00     0.015 C 
HETATM    3  C6  UNL     1     -33.470   8.024   2.789  1.00 20.00     0.067 C 
HETATM    4  C7  UNL     1     -33.728   6.566   3.327  1.00 20.00    -0.011 C 
HETATM    5  C10 UNL     1     -33.117   5.417   2.532  1.00 20.00     0.021 C 
ENDROOT
BRANCH   4   6
HETATM    6  C2  UNL     1     -35.166   6.294   3.621  1.00 20.00    -0.084 C 
HETATM    7  C1  UNL     1     -36.153   6.991   3.039  1.00 20.00     0.015 C 
HETATM    8  C8  UNL     1     -35.444   5.195   4.605  1.00 20.00     0.043 C 
ENDBRANCH   4   6
BRANCH   3   9
HETATM    9  C3  UNL     1     -32.350   8.240   1.759  1.00 20.00     0.128 C 
HETATM   10  C9  UNL     1     -32.568   9.324   0.739  1.00 20.00     0.091 C 
HETATM   11  O11 UNL     1     -31.324   7.560   1.769  1.00 20.00    -0.298 OA
ENDBRANCH   3   9
TORSDOF 2
ENDMDL
MODEL 8
REMARK VINA RESULT:       1.8      2.217      3.991
REMARK  2 active torsions:
REMARK  status: ('A' for Active; 'I' for Inactive)
REMARK    1  A    between atoms: C2_2  and  C7_7 
REMARK    2  A    between atoms: C3_3  and  C6_6 
ROOT
HETATM    1  C4  UNL     1     -32.520   7.576   1.491  1.00 20.00     0.014 C 
HETATM    2  C5  UNL     1     -32.012   7.053   2.846  1.00 20.00     0.015 C 
HETATM    3  C6  UNL     1     -33.447   6.336   1.400  1.00 20.00     0.067 C 
HETATM    4  C7  UNL     1     -33.304   6.190   2.962  1.00 20.00    -0.011 C 
HETATM    5  C10 UNL     1     -33.058   4.787   3.506  1.00 20.00     0.021 C 
ENDROOT
BRANCH   4   6
HETATM    6  C2  UNL     1     -34.403   6.860   3.717  1.00 20.00    -0.084 C 
HETATM    7  C1  UNL     1     -35.654   6.373   3.730  1.00 20.00     0.015 C 
HETATM    8  C8  UNL     1     -34.030   8.108   4.461  1.00 20.00     0.043 C 
ENDBRANCH   4   6
BRANCH   3   9
HETATM    9  C3  UNL     1     -32.971   5.178   0.507  1.00 20.00     0.128 C 
HETATM   10  C9  UNL     1     -34.017   4.502  -0.338  1.00 20.00     0.091 C 
HETATM   11  O11 UNL     1     -31.793   4.823   0.484  1.00 20.00    -0.298 OA
ENDBRANCH   3   9
TORSDOF 2
ENDMDL
