MODEL 1
REMARK VINA RESULT:       0.8      0.000      0.000
REMARK  1 active torsions:
REMARK  status: ('A' for Active; 'I' for Inactive)
REMARK    1  A    between atoms: C8_8  and  N10_10 
ROOT
HETATM    1  C1  UNL     1     -34.777   6.231   4.101  1.00 20.00     0.089 C 
HETATM    2  C8  UNL     1     -34.017   7.474   3.985  1.00 20.00     0.396 C 
HETATM    3  N9  UNL     1     -35.380   5.245   4.196  1.00 20.00    -0.195 NA
ENDROOT
BRANCH   2   4
HETATM    4  N10 UNL     1     -33.604   7.704   2.605  1.00 20.00     0.110 N 
HETATM    5  C5  UNL     1     -32.871   6.530   2.032  1.00 20.00     0.283 C 
HETATM    6  C6  UNL     1     -31.558   7.158   1.523  1.00 20.00     0.038 C 
HETATM    7  C2  UNL     1     -31.891   8.139   0.421  1.00 20.00    -0.022 C 
HETATM    8  C4  UNL     1     -31.284   8.148   2.650  1.00 20.00     0.050 C 
HETATM    9  C3  UNL     1     -32.548   9.156   0.999  1.00 20.00     0.005 C 
HETATM   10  C7  UNL     1     -32.639   8.831   2.476  1.00 20.00     0.247 C 
ENDBRANCH   2   4
TORSDOF 1
ENDMDL
MODEL 2
REMARK VINA RESULT:       0.8      1.786      2.649
REMARK  1 active torsions:
REMARK  status: ('A' for Active; 'I' for Inactive)
REMARK    1  A    between atoms: C8_8  and  N10_10 
ROOT
HETATM    1  C1  UNL     1     -33.678   3.645   4.336  1.00 20.00     0.089 C 
HETATM    2  C8  UNL     1     -34.258   4.830   3.708  1.00 20.00     0.396 C 
HETATM    3  N9  UNL     1     -33.221   2.703   4.837  1.00 20.00    -0.195 NA
ENDROOT
BRANCH   2   4
HETATM    4  N10 UNL     1     -33.216   5.770   3.312  1.00 20.00     0.110 N 
HETATM    5  C5  UNL     1     -33.632   7.194   3.520  1.00 20.00     0.283 C 
HETATM    6  C6  UNL     1     -33.398   7.829   2.134  1.00 20.00     0.038 C 
HETATM    7  C2  UNL     1     -31.919   7.770   1.825  1.00 20.00    -0.022 C 
HETATM    8  C4  UNL     1     -33.876   6.691   1.239  1.00 20.00     0.050 C 
HETATM    9  C3  UNL     1     -31.614   6.473   1.657  1.00 20.00     0.005 C 
HETATM   10  C7  UNL     1     -32.898   5.695   1.859  1.00 20.00     0.247 C 
ENDBRANCH   2   4
TORSDOF 1
ENDMDL
MODEL 3
REMARK VINA RESULT:       0.8      1.459      4.087
REMARK  1 active torsions:
REMARK  status: ('A' for Active; 'I' for Inactive)
REMARK    1  A    between atoms: C8_8  and  N10_10 
ROOT
HETATM    1  C1  UNL     1     -32.210   9.062   0.796  1.00 20.00     0.089 C 
HETATM    2  C8  UNL     1     -31.951   8.004   1.770  1.00 20.00     0.396 C 
HETATM    3  N9  UNL     1     -32.414   9.904   0.023  1.00 20.00    -0.195 NA
ENDROOT
BRANCH   2   4
HETATM    4  N10 UNL     1     -33.195   7.374   2.197  1.00 20.00     0.110 N 
HETATM    5  C5  UNL     1     -34.164   8.366   2.764  1.00 20.00     0.283 C 
HETATM    6  C6  UNL     1     -34.504   7.766   4.144  1.00 20.00     0.038 C 
HETATM    7  C2  UNL     1     -35.197   6.439   3.931  1.00 20.00    -0.022 C 
HETATM    8  C4  UNL     1     -33.127   7.254   4.555  1.00 20.00     0.050 C 
HETATM    9  C3  UNL     1     -34.279   5.604   3.419  1.00 20.00     0.005 C 
HETATM   10  C7  UNL     1     -32.992   6.395   3.300  1.00 20.00     0.247 C 
ENDBRANCH   2   4
TORSDOF 1
ENDMDL
MODEL 4
REMARK VINA RESULT:       1.0      0.898      1.888
REMARK  1 active torsions:
REMARK  status: ('A' for Active; 'I' for Inactive)
REMARK    1  A    between atoms: C8_8  and  N10_10 
ROOT
HETATM    1  C1  UNL     1     -35.100   6.021   4.257  1.00 20.00     0.089 C 
HETATM    2  C8  UNL     1     -34.430   7.274   3.913  1.00 20.00     0.396 C 
HETATM    3  N9  UNL     1     -35.634   5.028   4.531  1.00 20.00    -0.195 NA
ENDROOT
BRANCH   2   4
HETATM    4  N10 UNL     1     -33.133   7.018   3.298  1.00 20.00     0.110 N 
HETATM    5  C5  UNL     1     -32.381   8.283   3.021  1.00 20.00     0.283 C 
HETATM    6  C6  UNL     1     -32.045   8.164   1.521  1.00 20.00     0.038 C 
HETATM    7  C2  UNL     1     -31.131   6.974   1.328  1.00 20.00    -0.022 C 
HETATM    8  C4  UNL     1     -33.344   7.553   1.007  1.00 20.00     0.050 C 
HETATM    9  C3  UNL     1     -31.863   5.882   1.596  1.00 20.00     0.005 C 
HETATM   10  C7  UNL     1     -33.250   6.367   1.964  1.00 20.00     0.247 C 
ENDBRANCH   2   4
TORSDOF 1
ENDMDL
MODEL 5
REMARK VINA RESULT:       1.3      1.948      3.886
REMARK  1 active torsions:
REMARK  status: ('A' for Active; 'I' for Inactive)
REMARK    1  A    between atoms: C8_8  and  N10_10 
ROOT
HETATM    1  C1  UNL     1     -32.197   9.640   0.514  1.00 20.00     0.089 C 
HETATM    2  C8  UNL     1     -31.474   8.380   0.677  1.00 20.00     0.396 C 
HETATM    3  N9  UNL     1     -32.769  10.641   0.383  1.00 20.00    -0.195 NA
ENDROOT
BRANCH   2   4
HETATM    4  N10 UNL     1     -31.961   7.648   1.841  1.00 20.00     0.110 N 
HETATM    5  C5  UNL     1     -31.695   6.178   1.733  1.00 20.00     0.283 C 
HETATM    6  C6  UNL     1     -33.090   5.558   1.954  1.00 20.00     0.038 C 
HETATM    7  C2  UNL     1     -33.546   5.893   3.357  1.00 20.00    -0.022 C 
HETATM    8  C4  UNL     1     -33.947   6.553   1.180  1.00 20.00     0.050 C 
HETATM    9  C3  UNL     1     -33.759   7.218   3.384  1.00 20.00     0.005 C 
HETATM   10  C7  UNL     1     -33.439   7.738   1.998  1.00 20.00     0.247 C 
ENDBRANCH   2   4
TORSDOF 1
ENDMDL
MODEL 6
REMARK VINA RESULT:       1.4      0.984      1.082
REMARK  1 active torsions:
REMARK  status: ('A' for Active; 'I' for Inactive)
REMARK    1  A    between atoms: C8_8  and  N10_10 
ROOT
HETATM    1  C1  UNL     1     -34.604   5.986   3.681  1.00 20.00     0.089 C 
HETATM    2  C8  UNL     1     -33.380   5.695   2.939  1.00 20.00     0.396 C 
HETATM    3  N9  UNL     1     -35.577   6.215   4.271  1.00 20.00    -0.195 NA
ENDROOT
BRANCH   2   4
HETATM    4  N10 UNL     1     -33.135   6.710   1.920  1.00 20.00     0.110 N 
HETATM    5  C5  UNL     1     -31.858   6.465   1.175  1.00 20.00     0.283 C 
HETATM    6  C6  UNL     1     -31.109   7.805   1.326  1.00 20.00     0.038 C 
HETATM    7  C2  UNL     1     -31.909   8.882   0.627  1.00 20.00    -0.022 C 
HETATM    8  C4  UNL     1     -31.462   8.144   2.770  1.00 20.00     0.050 C 
HETATM    9  C3  UNL     1     -33.035   9.045   1.339  1.00 20.00     0.005 C 
HETATM   10  C7  UNL     1     -32.962   8.071   2.498  1.00 20.00     0.247 C 
ENDBRANCH   2   4
TORSDOF 1
ENDMDL
MODEL 7
REMARK VINA RESULT:       2.0      1.553      3.922
REMARK  1 active torsions:
REMARK  status: ('A' for Active; 'I' for Inactive)
REMARK    1  A    between atoms: C8_8  and  N10_10 
ROOT
HETATM    1  C1  UNL     1     -32.250   8.741   0.937  1.00 20.00     0.089 C 
HETATM    2  C8  UNL     1     -32.174   7.333   1.323  1.00 20.00     0.396 C 
HETATM    3  N9  UNL     1     -32.308   9.858   0.629  1.00 20.00    -0.195 NA
ENDROOT
BRANCH   2   4
HETATM    4  N10 UNL     1     -32.617   7.146   2.699  1.00 20.00     0.110 N 
HETATM    5  C5  UNL     1     -33.182   5.778   2.930  1.00 20.00     0.283 C 
HETATM    6  C6  UNL     1     -34.570   6.074   3.533  1.00 20.00     0.038 C 
HETATM    7  C2  UNL     1     -34.376   6.776   4.858  1.00 20.00    -0.022 C 
HETATM    8  C4  UNL     1     -34.976   7.274   2.684  1.00 20.00     0.050 C 
HETATM    9  C3  UNL     1     -33.865   7.986   4.580  1.00 20.00     0.005 C 
HETATM   10  C7  UNL     1     -33.729   8.064   3.074  1.00 20.00     0.247 C 
ENDBRANCH   2   4
TORSDOF 1
ENDMDL
MODEL 8
REMARK VINA RESULT:       2.0      2.253      3.560
REMARK  1 active torsions:
REMARK  status: ('A' for Active; 'I' for Inactive)
REMARK    1  A    between atoms: C8_8  and  N10_10 
ROOT
HETATM    1  C1  UNL     1     -33.345   3.116   4.596  1.00 20.00     0.089 C 
HETATM    2  C8  UNL     1     -34.052   4.009   3.681  1.00 20.00     0.396 C 
HETATM    3  N9  UNL     1     -32.784   2.404   5.321  1.00 20.00    -0.195 NA
ENDROOT
BRANCH   2   4
HETATM    4  N10 UNL     1     -34.035   5.381   4.177  1.00 20.00     0.110 N 
HETATM    5  C5  UNL     1     -35.405   5.989   4.201  1.00 20.00     0.283 C 
HETATM    6  C6  UNL     1     -35.219   7.291   3.396  1.00 20.00     0.038 C 
HETATM    7  C2  UNL     1     -34.251   8.181   4.143  1.00 20.00    -0.022 C 
HETATM    8  C4  UNL     1     -34.285   6.791   2.299  1.00 20.00     0.050 C 
HETATM    9  C3  UNL     1     -33.053   7.578   4.088  1.00 20.00     0.005 C 
HETATM   10  C7  UNL     1     -33.249   6.296   3.305  1.00 20.00     0.247 C 
ENDBRANCH   2   4
TORSDOF 1
ENDMDL
MODEL 9
REMARK VINA RESULT:       2.8      2.073      3.890
REMARK  1 active torsions:
REMARK  status: ('A' for Active; 'I' for Inactive)
REMARK    1  A    between atoms: C8_8  and  N10_10 
ROOT
HETATM    1  C1  UNL     1     -32.028   5.034   0.982  1.00 20.00     0.089 C 
HETATM    2  C8  UNL     1     -33.183   5.893   1.239  1.00 20.00     0.396 C 
HETATM    3  N9  UNL     1     -31.112   4.352   0.775  1.00 20.00    -0.195 NA
ENDROOT
BRANCH   2   4
HETATM    4  N10 UNL     1     -33.234   6.290   2.641  1.00 20.00     0.110 N 
HETATM    5  C5  UNL     1     -33.962   5.288   3.484  1.00 20.00     0.283 C 
HETATM    6  C6  UNL     1     -35.030   6.145   4.194  1.00 20.00     0.038 C 
HETATM    7  C2  UNL     1     -34.327   7.147   5.082  1.00 20.00    -0.022 C 
HETATM    8  C4  UNL     1     -35.424   7.074   3.051  1.00 20.00     0.050 C 
HETATM    9  C3  UNL     1     -33.695   8.005   4.267  1.00 20.00     0.005 C 
HETATM   10  C7  UNL     1     -33.989   7.556   2.851  1.00 20.00     0.247 C 
ENDBRANCH   2   4
TORSDOF 1
ENDMDL
