MODEL 1
REMARK VINA RESULT:      -1.3      0.000      0.000
REMARK  2 active torsions:
REMARK  status: ('A' for Active; 'I' for Inactive)
REMARK    1  A    between atoms: C1_1  and  C3_3 
REMARK    2  A    between atoms: C2_2  and  C7_7 
ROOT
HETATM    1  C4  UNL     1     -35.115   5.263   4.300  1.00 20.00     0.002 C 
HETATM    2  C5  UNL     1     -35.464   6.594   3.611  1.00 20.00     0.013 C 
HETATM    3  C6  UNL     1     -33.688   5.404   3.741  1.00 20.00     0.013 C 
HETATM    4  C7  UNL     1     -33.941   6.938   3.583  1.00 20.00    -0.026 C 
HETATM    5  C9  UNL     1     -33.480   7.760   4.787  1.00 20.00     0.019 C 
ENDROOT
BRANCH   4   6
HETATM    6  C2  UNL     1     -33.427   7.560   2.255  1.00 20.00    -0.014 C 
HETATM    7  C1  UNL     1     -32.357   8.364   2.184  1.00 20.00     0.046 C 
BRANCH   7   8
HETATM    8  C3  UNL     1     -31.916   8.927   0.879  1.00 20.00     0.145 C 
HETATM    9  C8  UNL     1     -32.597  10.189   0.418  1.00 20.00     0.096 C 
HETATM   10  O10 UNL     1     -31.048   8.390   0.194  1.00 20.00    -0.294 OA
ENDBRANCH   7   8
ENDBRANCH   4   6
TORSDOF 2
ENDMDL
MODEL 2
REMARK VINA RESULT:      -0.4      2.232      4.852
REMARK  2 active torsions:
REMARK  status: ('A' for Active; 'I' for Inactive)
REMARK    1  A    between atoms: C1_1  and  C3_3 
REMARK    2  A    between atoms: C2_2  and  C7_7 
ROOT
HETATM    1  C4  UNL     1     -31.966   9.740   0.083  1.00 20.00     0.002 C 
HETATM    2  C5  UNL     1     -31.701   8.235   0.265  1.00 20.00     0.013 C 
HETATM    3  C6  UNL     1     -32.951   9.660   1.261  1.00 20.00     0.013 C 
HETATM    4  C7  UNL     1     -32.228   8.356   1.729  1.00 20.00    -0.026 C 
HETATM    5  C9  UNL     1     -31.123   8.607   2.756  1.00 20.00     0.019 C 
ENDROOT
BRANCH   4   6
HETATM    6  C2  UNL     1     -33.168   7.208   2.192  1.00 20.00    -0.014 C 
HETATM    7  C1  UNL     1     -33.639   7.100   3.442  1.00 20.00     0.046 C 
BRANCH   7   8
HETATM    8  C3  UNL     1     -34.536   5.975   3.821  1.00 20.00     0.145 C 
HETATM    9  C8  UNL     1     -33.943   4.591   3.788  1.00 20.00     0.096 C 
HETATM   10  O10 UNL     1     -35.712   6.152   4.134  1.00 20.00    -0.294 OA
ENDBRANCH   7   8
ENDBRANCH   4   6
TORSDOF 2
ENDMDL
MODEL 3
REMARK VINA RESULT:      -0.2      2.178      4.761
REMARK  2 active torsions:
REMARK  status: ('A' for Active; 'I' for Inactive)
REMARK    1  A    between atoms: C1_1  and  C3_3 
REMARK    2  A    between atoms: C2_2  and  C7_7 
ROOT
HETATM    1  C4  UNL     1     -32.428  10.013  -0.166  1.00 20.00     0.002 C 
HETATM    2  C5  UNL     1     -32.751   8.509  -0.134  1.00 20.00     0.013 C 
HETATM    3  C6  UNL     1     -32.606  10.033   1.362  1.00 20.00     0.013 C 
HETATM    4  C7  UNL     1     -32.355   8.492   1.376  1.00 20.00    -0.026 C 
HETATM    5  C9  UNL     1     -30.892   8.114   1.618  1.00 20.00     0.019 C 
ENDROOT
BRANCH   4   6
HETATM    6  C2  UNL     1     -33.300   7.675   2.300  1.00 20.00    -0.014 C 
HETATM    7  C1  UNL     1     -33.147   6.365   2.537  1.00 20.00     0.046 C 
BRANCH   7   8
HETATM    8  C3  UNL     1     -34.089   5.641   3.433  1.00 20.00     0.145 C 
HETATM    9  C8  UNL     1     -35.270   6.420   3.950  1.00 20.00     0.096 C 
HETATM   10  O10 UNL     1     -33.915   4.467   3.755  1.00 20.00    -0.294 OA
ENDBRANCH   7   8
ENDBRANCH   4   6
TORSDOF 2
ENDMDL
MODEL 4
REMARK VINA RESULT:      -0.1      2.689      5.123
REMARK  2 active torsions:
REMARK  status: ('A' for Active; 'I' for Inactive)
REMARK    1  A    between atoms: C1_1  and  C3_3 
REMARK    2  A    between atoms: C2_2  and  C7_7 
ROOT
HETATM    1  C4  UNL     1     -31.984   8.918   1.172  1.00 20.00     0.002 C 
HETATM    2  C5  UNL     1     -33.284   8.095   1.170  1.00 20.00     0.013 C 
HETATM    3  C6  UNL     1     -31.457   7.995   2.284  1.00 20.00     0.013 C 
HETATM    4  C7  UNL     1     -32.498   6.920   1.834  1.00 20.00    -0.026 C 
HETATM    5  C9  UNL     1     -31.939   5.914   0.826  1.00 20.00     0.019 C 
ENDROOT
BRANCH   4   6
HETATM    6  C2  UNL     1     -33.242   6.194   2.990  1.00 20.00    -0.014 C 
HETATM    7  C1  UNL     1     -33.380   4.863   3.055  1.00 20.00     0.046 C 
BRANCH   7   8
HETATM    8  C3  UNL     1     -34.105   4.230   4.191  1.00 20.00     0.145 C 
HETATM    9  C8  UNL     1     -33.437   3.054   4.853  1.00 20.00     0.096 C 
HETATM   10  O10 UNL     1     -35.203   4.631   4.571  1.00 20.00    -0.294 OA
ENDBRANCH   7   8
ENDBRANCH   4   6
TORSDOF 2
ENDMDL
MODEL 5
REMARK VINA RESULT:       0.3      0.842      1.490
REMARK  2 active torsions:
REMARK  status: ('A' for Active; 'I' for Inactive)
REMARK    1  A    between atoms: C1_1  and  C3_3 
REMARK    2  A    between atoms: C2_2  and  C7_7 
ROOT
HETATM    1  C4  UNL     1     -35.172   6.446   4.479  1.00 20.00     0.002 C 
HETATM    2  C5  UNL     1     -33.846   7.224   4.403  1.00 20.00     0.013 C 
HETATM    3  C6  UNL     1     -35.286   6.588   2.951  1.00 20.00     0.013 C 
HETATM    4  C7  UNL     1     -33.744   6.833   2.895  1.00 20.00    -0.026 C 
HETATM    5  C9  UNL     1     -32.933   5.560   2.649  1.00 20.00     0.019 C 
ENDROOT
BRANCH   4   6
HETATM    6  C2  UNL     1     -33.289   7.975   1.944  1.00 20.00    -0.014 C 
HETATM    7  C1  UNL     1     -32.095   7.995   1.336  1.00 20.00     0.046 C 
BRANCH   7   8
HETATM    8  C3  UNL     1     -31.721   9.120   0.436  1.00 20.00     0.145 C 
HETATM    9  C8  UNL     1     -32.618  10.330   0.450  1.00 20.00     0.096 C 
HETATM   10  O10 UNL     1     -30.736   9.071  -0.298  1.00 20.00    -0.294 OA
ENDBRANCH   7   8
ENDBRANCH   4   6
TORSDOF 2
ENDMDL
MODEL 6
REMARK VINA RESULT:       0.3      2.303      4.689
REMARK  2 active torsions:
REMARK  status: ('A' for Active; 'I' for Inactive)
REMARK    1  A    between atoms: C1_1  and  C3_3 
REMARK    2  A    between atoms: C2_2  and  C7_7 
ROOT
HETATM    1  C4  UNL     1     -31.647   8.849   0.256  1.00 20.00     0.002 C 
HETATM    2  C5  UNL     1     -31.576   7.511   1.012  1.00 20.00     0.013 C 
HETATM    3  C6  UNL     1     -32.785   9.267   1.203  1.00 20.00     0.013 C 
HETATM    4  C7  UNL     1     -32.280   8.199   2.224  1.00 20.00    -0.026 C 
HETATM    5  C9  UNL     1     -31.303   8.759   3.259  1.00 20.00     0.019 C 
ENDROOT
BRANCH   4   6
HETATM    6  C2  UNL     1     -33.394   7.358   2.908  1.00 20.00    -0.014 C 
HETATM    7  C1  UNL     1     -33.286   6.043   3.140  1.00 20.00     0.046 C 
BRANCH   7   8
HETATM    8  C3  UNL     1     -34.391   5.295   3.799  1.00 20.00     0.145 C 
HETATM    9  C8  UNL     1     -35.643   6.071   4.116  1.00 20.00     0.096 C 
HETATM   10  O10 UNL     1     -34.294   4.104   4.089  1.00 20.00    -0.294 OA
ENDBRANCH   7   8
ENDBRANCH   4   6
TORSDOF 2
ENDMDL
MODEL 7
REMARK VINA RESULT:       0.5      3.060      5.265
REMARK  2 active torsions:
REMARK  status: ('A' for Active; 'I' for Inactive)
REMARK    1  A    between atoms: C1_1  and  C3_3 
REMARK    2  A    between atoms: C2_2  and  C7_7 
ROOT
HETATM    1  C4  UNL     1     -32.727   7.962   1.691  1.00 20.00     0.002 C 
HETATM    2  C5  UNL     1     -32.547   7.623   3.181  1.00 20.00     0.013 C 
HETATM    3  C6  UNL     1     -33.150   6.501   1.460  1.00 20.00     0.013 C 
HETATM    4  C7  UNL     1     -33.495   6.399   2.980  1.00 20.00    -0.026 C 
HETATM    5  C9  UNL     1     -34.960   6.704   3.295  1.00 20.00     0.019 C 
ENDROOT
BRANCH   4   6
HETATM    6  C2  UNL     1     -33.039   5.086   3.675  1.00 20.00    -0.014 C 
HETATM    7  C1  UNL     1     -33.892   4.161   4.135  1.00 20.00     0.046 C 
BRANCH   7   8
HETATM    8  C3  UNL     1     -33.389   2.924   4.792  1.00 20.00     0.145 C 
HETATM    9  C8  UNL     1     -32.587   3.102   6.054  1.00 20.00     0.096 C 
HETATM   10  O10 UNL     1     -33.599   1.805   4.329  1.00 20.00    -0.294 OA
ENDBRANCH   7   8
ENDBRANCH   4   6
TORSDOF 2
ENDMDL
MODEL 8
REMARK VINA RESULT:       1.2      3.299      5.215
REMARK  2 active torsions:
REMARK  status: ('A' for Active; 'I' for Inactive)
REMARK    1  A    between atoms: C1_1  and  C3_3 
REMARK    2  A    between atoms: C2_2  and  C7_7 
ROOT
HETATM    1  C4  UNL     1     -34.663   8.133   3.635  1.00 20.00     0.002 C 
HETATM    2  C5  UNL     1     -35.128   6.669   3.541  1.00 20.00     0.013 C 
HETATM    3  C6  UNL     1     -33.225   7.614   3.807  1.00 20.00     0.013 C 
HETATM    4  C7  UNL     1     -33.670   6.268   3.150  1.00 20.00    -0.026 C 
HETATM    5  C9  UNL     1     -33.436   6.220   1.639  1.00 20.00     0.019 C 
ENDROOT
BRANCH   4   6
HETATM    6  C2  UNL     1     -33.129   4.985   3.838  1.00 20.00    -0.014 C 
HETATM    7  C1  UNL     1     -33.914   3.970   4.227  1.00 20.00     0.046 C 
BRANCH   7   8
HETATM    8  C3  UNL     1     -33.331   2.768   4.881  1.00 20.00     0.145 C 
HETATM    9  C8  UNL     1     -32.504   3.000   6.118  1.00 20.00     0.096 C 
HETATM   10  O10 UNL     1     -33.499   1.634   4.436  1.00 20.00    -0.294 OA
ENDBRANCH   7   8
ENDBRANCH   4   6
TORSDOF 2
ENDMDL
MODEL 9
REMARK VINA RESULT:       1.6      1.997      2.633
REMARK  2 active torsions:
REMARK  status: ('A' for Active; 'I' for Inactive)
REMARK    1  A    between atoms: C1_1  and  C3_3 
REMARK    2  A    between atoms: C2_2  and  C7_7 
ROOT
HETATM    1  C4  UNL     1     -32.038   4.599   1.278  1.00 20.00     0.002 C 
HETATM    2  C5  UNL     1     -33.312   5.316   0.795  1.00 20.00     0.013 C 
HETATM    3  C6  UNL     1     -31.494   5.969   1.719  1.00 20.00     0.013 C 
HETATM    4  C7  UNL     1     -32.962   6.503   1.747  1.00 20.00    -0.026 C 
HETATM    5  C9  UNL     1     -33.623   6.397   3.123  1.00 20.00     0.019 C 
ENDROOT
BRANCH   4   6
HETATM    6  C2  UNL     1     -33.162   7.920   1.141  1.00 20.00    -0.014 C 
HETATM    7  C1  UNL     1     -32.216   8.868   1.157  1.00 20.00     0.046 C 
BRANCH   7   8
HETATM    8  C3  UNL     1     -32.473  10.206   0.559  1.00 20.00     0.145 C 
HETATM    9  C8  UNL     1     -32.785  10.244  -0.914  1.00 20.00     0.096 C 
HETATM   10  O10 UNL     1     -32.421  11.241   1.221  1.00 20.00    -0.294 OA
ENDBRANCH   7   8
ENDBRANCH   4   6
TORSDOF 2
ENDMDL
