MODEL 1
REMARK VINA RESULT:      -0.5      0.000      0.000
REMARK  1 active torsions:
REMARK  status: ('A' for Active; 'I' for Inactive)
REMARK    1  A    between atoms: C1_1  and  C7_7 
ROOT
HETATM    1  C2  UNL     1     -33.027   8.523   3.486  1.00 20.00     0.001 C 
HETATM    2  C3  UNL     1     -32.457   4.664   2.488  1.00 20.00     0.014 C 
HETATM    3  C4  UNL     1     -32.105   7.977   2.410  1.00 20.00     0.005 C 
HETATM    4  C5  UNL     1     -33.713   7.267   3.998  1.00 20.00     0.006 C 
HETATM    5  C6  UNL     1     -32.160   5.637   1.354  1.00 20.00     0.006 C 
HETATM    6  C7  UNL     1     -33.918   4.951   2.814  1.00 20.00     0.076 C 
HETATM    7  C8  UNL     1     -32.942   6.903   1.707  1.00 20.00    -0.010 C 
HETATM    8  C9  UNL     1     -34.027   6.476   2.724  1.00 20.00     0.002 C 
ENDROOT
BRANCH   6   9
HETATM    9  C1  UNL     1     -34.339   4.387   4.134  1.00 20.00     0.223 C 
HETATM   10  O10 UNL     1     -35.365   4.759   4.697  1.00 20.00    -0.279 OA
HETATM   11 CL11 UNL     1     -33.222   3.194   4.721  1.00 20.00    -0.043 Cl
ENDBRANCH   6   9
TORSDOF 1
ENDMDL
MODEL 2
REMARK VINA RESULT:      -0.1      3.005      4.374
REMARK  1 active torsions:
REMARK  status: ('A' for Active; 'I' for Inactive)
REMARK    1  A    between atoms: C1_1  and  C7_7 
ROOT
HETATM    1  C2  UNL     1     -33.708   4.310   2.878  1.00 20.00     0.001 C 
HETATM    2  C3  UNL     1     -32.954   8.104   3.996  1.00 20.00     0.014 C 
HETATM    3  C4  UNL     1     -34.126   4.990   4.171  1.00 20.00     0.005 C 
HETATM    4  C5  UNL     1     -33.033   5.439   2.117  1.00 20.00     0.006 C 
HETATM    5  C6  UNL     1     -34.195   7.511   4.652  1.00 20.00     0.006 C 
HETATM    6  C7  UNL     1     -33.271   8.009   2.508  1.00 20.00     0.076 C 
HETATM    7  C8  UNL     1     -34.621   6.370   3.727  1.00 20.00    -0.010 C 
HETATM    8  C9  UNL     1     -33.950   6.644   2.360  1.00 20.00     0.002 C 
ENDROOT
BRANCH   6   9
HETATM    9  C1  UNL     1     -32.063   8.185   1.645  1.00 20.00     0.223 C 
HETATM   10  O10 UNL     1     -31.064   7.485   1.782  1.00 20.00    -0.279 OA
HETATM   11 CL11 UNL     1     -32.271   9.458   0.481  1.00 20.00    -0.043 Cl
ENDBRANCH   6   9
TORSDOF 1
ENDMDL
MODEL 3
REMARK VINA RESULT:      -0.0      2.404      3.992
REMARK  1 active torsions:
REMARK  status: ('A' for Active; 'I' for Inactive)
REMARK    1  A    between atoms: C1_1  and  C7_7 
ROOT
HETATM    1  C2  UNL     1     -33.807   3.643   4.119  1.00 20.00     0.001 C 
HETATM    2  C3  UNL     1     -33.619   7.647   3.731  1.00 20.00     0.014 C 
HETATM    3  C4  UNL     1     -34.607   4.682   4.887  1.00 20.00     0.005 C 
HETATM    4  C5  UNL     1     -33.016   4.496   3.142  1.00 20.00     0.006 C 
HETATM    5  C6  UNL     1     -34.956   7.149   4.267  1.00 20.00     0.006 C 
HETATM    6  C7  UNL     1     -33.505   6.945   2.383  1.00 20.00     0.076 C 
HETATM    7  C8  UNL     1     -35.040   5.689   3.817  1.00 20.00    -0.010 C 
HETATM    8  C9  UNL     1     -34.033   5.533   2.653  1.00 20.00     0.002 C 
ENDROOT
BRANCH   6   9
HETATM    9  C1  UNL     1     -32.117   6.979   1.826  1.00 20.00     0.223 C 
HETATM   10  O10 UNL     1     -31.370   7.935   2.016  1.00 20.00    -0.279 OA
HETATM   11 CL11 UNL     1     -31.739   5.545   0.923  1.00 20.00    -0.043 Cl
ENDBRANCH   6   9
TORSDOF 1
ENDMDL
MODEL 4
REMARK VINA RESULT:       0.2      1.393      1.393
REMARK  1 active torsions:
REMARK  status: ('A' for Active; 'I' for Inactive)
REMARK    1  A    between atoms: C1_1  and  C7_7 
ROOT
HETATM    1  C2  UNL     1     -32.193   8.758   3.877  1.00 20.00     0.001 C 
HETATM    2  C3  UNL     1     -32.456   5.208   1.995  1.00 20.00     0.014 C 
HETATM    3  C4  UNL     1     -31.454   8.323   2.622  1.00 20.00     0.005 C 
HETATM    4  C5  UNL     1     -33.089   7.563   4.160  1.00 20.00     0.006 C 
HETATM    5  C6  UNL     1     -32.029   6.351   1.083  1.00 20.00     0.006 C 
HETATM    6  C7  UNL     1     -33.812   5.670   2.516  1.00 20.00     0.076 C 
HETATM    7  C8  UNL     1     -32.523   7.618   1.782  1.00 20.00    -0.010 C 
HETATM    8  C9  UNL     1     -33.618   7.167   2.778  1.00 20.00     0.002 C 
ENDROOT
BRANCH   6   9
HETATM    9  C1  UNL     1     -34.269   4.897   3.711  1.00 20.00     0.223 C 
HETATM   10  O10 UNL     1     -33.699   3.870   4.072  1.00 20.00    -0.279 OA
HETATM   11 CL11 UNL     1     -35.649   5.626   4.473  1.00 20.00    -0.043 Cl
ENDBRANCH   6   9
TORSDOF 1
ENDMDL
MODEL 5
REMARK VINA RESULT:       0.5      3.364      4.196
REMARK  1 active torsions:
REMARK  status: ('A' for Active; 'I' for Inactive)
REMARK    1  A    between atoms: C1_1  and  C7_7 
ROOT
HETATM    1  C2  UNL     1     -34.665   7.220   4.164  1.00 20.00     0.001 C 
HETATM    2  C3  UNL     1     -32.776   6.737   0.641  1.00 20.00     0.014 C 
HETATM    3  C4  UNL     1     -34.426   5.918   3.417  1.00 20.00     0.005 C 
HETATM    4  C5  UNL     1     -33.944   8.235   3.292  1.00 20.00     0.006 C 
HETATM    5  C6  UNL     1     -32.744   5.496   1.524  1.00 20.00     0.006 C 
HETATM    6  C7  UNL     1     -32.095   7.793   1.504  1.00 20.00     0.076 C 
HETATM    7  C8  UNL     1     -32.973   6.018   2.944  1.00 20.00    -0.010 C 
HETATM    8  C9  UNL     1     -32.638   7.529   2.912  1.00 20.00     0.002 C 
ENDROOT
BRANCH   6   9
HETATM    9  C1  UNL     1     -32.331   9.185   1.012  1.00 20.00     0.223 C 
HETATM   10  O10 UNL     1     -32.285  10.153   1.766  1.00 20.00    -0.279 OA
HETATM   11 CL11 UNL     1     -32.662   9.229  -0.693  1.00 20.00    -0.043 Cl
ENDBRANCH   6   9
TORSDOF 1
ENDMDL
MODEL 6
REMARK VINA RESULT:       0.9      2.368      3.228
REMARK  1 active torsions:
REMARK  status: ('A' for Active; 'I' for Inactive)
REMARK    1  A    between atoms: C1_1  and  C7_7 
ROOT
HETATM    1  C2  UNL     1     -34.701   6.364   4.290  1.00 20.00     0.001 C 
HETATM    2  C3  UNL     1     -31.535   7.304   1.987  1.00 20.00     0.014 C 
HETATM    3  C4  UNL     1     -33.921   7.668   4.285  1.00 20.00     0.005 C 
HETATM    4  C5  UNL     1     -34.039   5.581   3.169  1.00 20.00     0.006 C 
HETATM    5  C6  UNL     1     -32.325   8.518   2.463  1.00 20.00     0.006 C 
HETATM    6  C7  UNL     1     -32.574   6.499   1.214  1.00 20.00     0.076 C 
HETATM    7  C8  UNL     1     -33.715   7.976   2.799  1.00 20.00    -0.010 C 
HETATM    8  C9  UNL     1     -33.844   6.622   2.061  1.00 20.00     0.002 C 
ENDROOT
BRANCH   6   9
HETATM    9  C1  UNL     1     -32.144   5.089   0.962  1.00 20.00     0.223 C 
HETATM   10  O10 UNL     1     -31.126   4.625   1.467  1.00 20.00    -0.279 OA
HETATM   11 CL11 UNL     1     -33.240   4.251  -0.094  1.00 20.00    -0.043 Cl
ENDBRANCH   6   9
TORSDOF 1
ENDMDL
MODEL 7
REMARK VINA RESULT:       1.2      1.854      2.876
REMARK  1 active torsions:
REMARK  status: ('A' for Active; 'I' for Inactive)
REMARK    1  A    between atoms: C1_1  and  C7_7 
ROOT
HETATM    1  C2  UNL     1     -32.295   6.202   0.933  1.00 20.00     0.001 C 
HETATM    2  C3  UNL     1     -34.340   8.146   3.806  1.00 20.00     0.014 C 
HETATM    3  C4  UNL     1     -32.067   7.621   1.427  1.00 20.00     0.005 C 
HETATM    4  C5  UNL     1     -33.403   5.711   1.849  1.00 20.00     0.006 C 
HETATM    5  C6  UNL     1     -32.921   8.665   3.611  1.00 20.00     0.006 C 
HETATM    6  C7  UNL     1     -34.126   6.680   4.162  1.00 20.00     0.076 C 
HETATM    7  C8  UNL     1     -32.167   7.509   2.951  1.00 20.00    -0.010 C 
HETATM    8  C9  UNL     1     -32.995   6.233   3.231  1.00 20.00     0.002 C 
ENDROOT
BRANCH   6   9
HETATM    9  C1  UNL     1     -35.374   5.864   4.040  1.00 20.00     0.223 C 
HETATM   10  O10 UNL     1     -35.482   4.766   4.577  1.00 20.00    -0.279 OA
HETATM   11 CL11 UNL     1     -36.582   6.659   3.077  1.00 20.00    -0.043 Cl
ENDBRANCH   6   9
TORSDOF 1
ENDMDL
MODEL 8
REMARK VINA RESULT:       1.2      0.929      2.336
REMARK  1 active torsions:
REMARK  status: ('A' for Active; 'I' for Inactive)
REMARK    1  A    between atoms: C1_1  and  C7_7 
ROOT
HETATM    1  C2  UNL     1     -32.556   6.186   0.690  1.00 20.00     0.001 C 
HETATM    2  C3  UNL     1     -34.576   7.339   3.977  1.00 20.00     0.014 C 
HETATM    3  C4  UNL     1     -32.780   7.606   1.183  1.00 20.00     0.005 C 
HETATM    4  C5  UNL     1     -33.202   5.353   1.785  1.00 20.00     0.006 C 
HETATM    5  C6  UNL     1     -33.518   8.340   3.530  1.00 20.00     0.006 C 
HETATM    6  C7  UNL     1     -33.768   6.071   4.229  1.00 20.00     0.076 C 
HETATM    7  C8  UNL     1     -32.533   7.522   2.693  1.00 20.00    -0.010 C 
HETATM    8  C9  UNL     1     -32.756   6.041   3.080  1.00 20.00     0.002 C 
ENDROOT
BRANCH   6   9
HETATM    9  C1  UNL     1     -34.622   4.847   4.321  1.00 20.00     0.223 C 
HETATM   10  O10 UNL     1     -35.844   4.919   4.414  1.00 20.00    -0.279 OA
HETATM   11 CL11 UNL     1     -33.680   3.388   4.278  1.00 20.00    -0.043 Cl
ENDBRANCH   6   9
TORSDOF 1
ENDMDL
MODEL 9
REMARK VINA RESULT:       1.3      2.651      3.555
REMARK  1 active torsions:
REMARK  status: ('A' for Active; 'I' for Inactive)
REMARK    1  A    between atoms: C1_1  and  C7_7 
ROOT
HETATM    1  C2  UNL     1     -32.108   9.617   0.503  1.00 20.00     0.001 C 
HETATM    2  C3  UNL     1     -33.696   6.533   2.548  1.00 20.00     0.014 C 
HETATM    3  C4  UNL     1     -32.953   9.685   1.764  1.00 20.00     0.005 C 
HETATM    4  C5  UNL     1     -31.961   8.120   0.288  1.00 20.00     0.006 C 
HETATM    5  C6  UNL     1     -33.462   7.774   3.401  1.00 20.00     0.006 C 
HETATM    6  C7  UNL     1     -32.301   6.204   2.028  1.00 20.00     0.076 C 
HETATM    7  C8  UNL     1     -32.392   8.570   2.652  1.00 20.00    -0.010 C 
HETATM    8  C9  UNL     1     -31.697   7.572   1.695  1.00 20.00     0.002 C 
ENDROOT
BRANCH   6   9
HETATM    9  C1  UNL     1     -32.321   5.251   0.875  1.00 20.00     0.223 C 
HETATM   10  O10 UNL     1     -31.320   4.627   0.537  1.00 20.00    -0.279 OA
HETATM   11 CL11 UNL     1     -33.887   5.162   0.128  1.00 20.00    -0.043 Cl
ENDBRANCH   6   9
TORSDOF 1
ENDMDL
