MODEL 1
REMARK VINA RESULT:       2.1      0.000      0.000
REMARK  1 active torsions:
REMARK  status: ('A' for Active; 'I' for Inactive)
REMARK    1  A    between atoms: C3_3  and  C9_9 
ROOT
HETATM    1  C1  UNL     1     -32.208   4.640   2.366  1.00 20.00    -0.030 C 
HETATM    2  C2  UNL     1     -32.553   5.464   1.354  1.00 20.00    -0.029 C 
HETATM    3  C4  UNL     1     -32.981   4.525   3.666  1.00 20.00     0.032 C 
HETATM    4  C5  UNL     1     -33.732   6.420   1.398  1.00 20.00     0.044 C 
HETATM    5  C6  UNL     1     -35.283   5.846   4.469  1.00 20.00     0.007 C 
HETATM    6  C7  UNL     1     -35.591   6.885   3.343  1.00 20.00     0.018 C 
HETATM    7  C8  UNL     1     -34.320   5.202   3.446  1.00 20.00     0.005 C 
HETATM    8  C9  UNL     1     -34.115   6.645   2.865  1.00 20.00     0.027 C 
ENDROOT
BRANCH   8   9
HETATM    9  C3  UNL     1     -33.095   7.621   3.564  1.00 20.00     0.132 C 
HETATM   10  C10 UNL     1     -32.074   8.280   2.677  1.00 20.00     0.091 C 
HETATM   11  O11 UNL     1     -33.133   7.834   4.775  1.00 20.00    -0.298 OA
ENDBRANCH   8   9
TORSDOF 1
ENDMDL
MODEL 2
REMARK VINA RESULT:       2.3      1.567      3.540
REMARK  1 active torsions:
REMARK  status: ('A' for Active; 'I' for Inactive)
REMARK    1  A    between atoms: C3_3  and  C9_9 
ROOT
HETATM    1  C1  UNL     1     -33.670   7.911   4.506  1.00 20.00    -0.030 C 
HETATM    2  C2  UNL     1     -34.872   7.396   4.173  1.00 20.00    -0.029 C 
HETATM    3  C4  UNL     1     -32.404   7.701   3.698  1.00 20.00     0.032 C 
HETATM    4  C5  UNL     1     -35.110   6.499   2.971  1.00 20.00     0.044 C 
HETATM    5  C6  UNL     1     -32.033   6.287   1.341  1.00 20.00     0.007 C 
HETATM    6  C7  UNL     1     -33.402   5.593   1.043  1.00 20.00     0.018 C 
HETATM    7  C8  UNL     1     -32.827   7.148   2.350  1.00 20.00     0.005 C 
HETATM    8  C9  UNL     1     -33.765   5.905   2.539  1.00 20.00     0.027 C 
ENDROOT
BRANCH   8   9
HETATM    9  C3  UNL     1     -33.326   4.749   3.514  1.00 20.00     0.132 C 
HETATM   10  C10 UNL     1     -34.356   4.270   4.501  1.00 20.00     0.091 C 
HETATM   11  O11 UNL     1     -32.198   4.260   3.469  1.00 20.00    -0.298 OA
ENDBRANCH   8   9
TORSDOF 1
ENDMDL
MODEL 3
REMARK VINA RESULT:       2.6      1.736      3.460
REMARK  1 active torsions:
REMARK  status: ('A' for Active; 'I' for Inactive)
REMARK    1  A    between atoms: C3_3  and  C9_9 
ROOT
HETATM    1  C1  UNL     1     -34.128   7.807   4.294  1.00 20.00    -0.030 C 
HETATM    2  C2  UNL     1     -32.929   8.383   4.526  1.00 20.00    -0.029 C 
HETATM    3  C4  UNL     1     -34.417   6.897   3.117  1.00 20.00     0.032 C 
HETATM    4  C5  UNL     1     -31.723   8.235   3.615  1.00 20.00     0.044 C 
HETATM    5  C6  UNL     1     -32.729   6.059   1.082  1.00 20.00     0.007 C 
HETATM    6  C7  UNL     1     -31.389   6.836   1.295  1.00 20.00     0.018 C 
HETATM    7  C8  UNL     1     -33.077   6.508   2.519  1.00 20.00     0.005 C 
HETATM    8  C9  UNL     1     -32.214   7.786   2.235  1.00 20.00     0.027 C 
ENDROOT
BRANCH   8   9
HETATM    9  C3  UNL     1     -32.855   8.992   1.451  1.00 20.00     0.132 C 
HETATM   10  C10 UNL     1     -32.215   9.365   0.142  1.00 20.00     0.091 C 
HETATM   11  O11 UNL     1     -33.832   9.599   1.889  1.00 20.00    -0.298 OA
ENDBRANCH   8   9
TORSDOF 1
ENDMDL
MODEL 4
REMARK VINA RESULT:       3.1      1.509      3.440
REMARK  1 active torsions:
REMARK  status: ('A' for Active; 'I' for Inactive)
REMARK    1  A    between atoms: C3_3  and  C9_9 
ROOT
HETATM    1  C1  UNL     1     -33.901   7.520   4.835  1.00 20.00    -0.030 C 
HETATM    2  C2  UNL     1     -34.946   7.088   4.098  1.00 20.00    -0.029 C 
HETATM    3  C4  UNL     1     -32.574   7.961   4.248  1.00 20.00     0.032 C 
HETATM    4  C5  UNL     1     -34.919   6.942   2.587  1.00 20.00     0.044 C 
HETATM    5  C6  UNL     1     -31.777   8.086   1.594  1.00 20.00     0.007 C 
HETATM    6  C7  UNL     1     -32.950   7.462   0.769  1.00 20.00     0.018 C 
HETATM    7  C8  UNL     1     -32.792   8.152   2.758  1.00 20.00     0.005 C 
HETATM    8  C9  UNL     1     -33.456   6.876   2.135  1.00 20.00     0.027 C 
ENDROOT
BRANCH   8   9
HETATM    9  C3  UNL     1     -32.842   5.458   2.440  1.00 20.00     0.132 C 
HETATM   10  C10 UNL     1     -31.706   5.010   1.562  1.00 20.00     0.091 C 
HETATM   11  O11 UNL     1     -33.270   4.753   3.353  1.00 20.00    -0.298 OA
ENDBRANCH   8   9
TORSDOF 1
ENDMDL
MODEL 5
REMARK VINA RESULT:       3.4      1.689      3.115
REMARK  1 active torsions:
REMARK  status: ('A' for Active; 'I' for Inactive)
REMARK    1  A    between atoms: C3_3  and  C9_9 
ROOT
HETATM    1  C1  UNL     1     -35.263   7.738   3.686  1.00 20.00    -0.030 C 
HETATM    2  C2  UNL     1     -34.028   8.126   4.067  1.00 20.00    -0.029 C 
HETATM    3  C4  UNL     1     -35.659   6.295   3.438  1.00 20.00     0.032 C 
HETATM    4  C5  UNL     1     -32.857   7.177   4.256  1.00 20.00     0.044 C 
HETATM    5  C6  UNL     1     -34.138   3.987   3.665  1.00 20.00     0.007 C 
HETATM    6  C7  UNL     1     -32.684   4.467   3.980  1.00 20.00     0.018 C 
HETATM    7  C8  UNL     1     -34.563   5.428   4.029  1.00 20.00     0.005 C 
HETATM    8  C9  UNL     1     -33.160   5.882   3.495  1.00 20.00     0.027 C 
ENDROOT
BRANCH   8   9
HETATM    9  C3  UNL     1     -32.951   6.083   1.946  1.00 20.00     0.132 C 
HETATM   10  C10 UNL     1     -32.101   7.251   1.525  1.00 20.00     0.091 C 
HETATM   11  O11 UNL     1     -33.457   5.322   1.123  1.00 20.00    -0.298 OA
ENDBRANCH   8   9
TORSDOF 1
ENDMDL
MODEL 6
REMARK VINA RESULT:       3.4      1.436      2.295
REMARK  1 active torsions:
REMARK  status: ('A' for Active; 'I' for Inactive)
REMARK    1  A    between atoms: C3_3  and  C9_9 
ROOT
HETATM    1  C1  UNL     1     -31.533   7.585   1.089  1.00 20.00    -0.030 C 
HETATM    2  C2  UNL     1     -32.336   8.669   1.077  1.00 20.00    -0.029 C 
HETATM    3  C4  UNL     1     -31.832   6.318   1.867  1.00 20.00     0.032 C 
HETATM    4  C5  UNL     1     -33.622   8.786   1.876  1.00 20.00     0.044 C 
HETATM    5  C6  UNL     1     -34.010   5.709   3.472  1.00 20.00     0.007 C 
HETATM    6  C7  UNL     1     -34.860   7.019   3.549  1.00 20.00     0.018 C 
HETATM    7  C8  UNL     1     -33.288   6.390   2.288  1.00 20.00     0.005 C 
HETATM    8  C9  UNL     1     -33.582   7.753   3.007  1.00 20.00     0.027 C 
ENDROOT
BRANCH   8   9
HETATM    9  C3  UNL     1     -32.632   8.233   4.168  1.00 20.00     0.132 C 
HETATM   10  C10 UNL     1     -33.165   8.117   5.570  1.00 20.00     0.091 C 
HETATM   11  O11 UNL     1     -31.509   8.681   3.939  1.00 20.00    -0.298 OA
ENDBRANCH   8   9
TORSDOF 1
ENDMDL
MODEL 7
REMARK VINA RESULT:       3.6      1.924      3.470
REMARK  1 active torsions:
REMARK  status: ('A' for Active; 'I' for Inactive)
REMARK    1  A    between atoms: C3_3  and  C9_9 
ROOT
HETATM    1  C1  UNL     1     -34.689   7.387   3.502  1.00 20.00    -0.030 C 
HETATM    2  C2  UNL     1     -33.630   8.061   3.996  1.00 20.00    -0.029 C 
HETATM    3  C4  UNL     1     -34.593   6.336   2.414  1.00 20.00     0.032 C 
HETATM    4  C5  UNL     1     -32.205   7.892   3.496  1.00 20.00     0.044 C 
HETATM    5  C6  UNL     1     -32.358   5.390   1.071  1.00 20.00     0.007 C 
HETATM    6  C7  UNL     1     -31.164   6.271   1.562  1.00 20.00     0.018 C 
HETATM    7  C8  UNL     1     -33.126   5.971   2.280  1.00 20.00     0.005 C 
HETATM    8  C9  UNL     1     -32.256   7.263   2.100  1.00 20.00     0.027 C 
ENDROOT
BRANCH   8   9
HETATM    9  C3  UNL     1     -32.675   8.332   1.022  1.00 20.00     0.132 C 
HETATM   10  C10 UNL     1     -32.565   9.778   1.424  1.00 20.00     0.091 C 
HETATM   11  O11 UNL     1     -33.071   8.001  -0.095  1.00 20.00    -0.298 OA
ENDBRANCH   8   9
TORSDOF 1
ENDMDL
MODEL 8
REMARK VINA RESULT:       3.8      1.708      3.142
REMARK  1 active torsions:
REMARK  status: ('A' for Active; 'I' for Inactive)
REMARK    1  A    between atoms: C3_3  and  C9_9 
ROOT
HETATM    1  C1  UNL     1     -33.447   5.116   0.245  1.00 20.00    -0.030 C 
HETATM    2  C2  UNL     1     -32.455   4.663   1.040  1.00 20.00    -0.029 C 
HETATM    3  C4  UNL     1     -33.803   6.582   0.085  1.00 20.00     0.032 C 
HETATM    4  C5  UNL     1     -31.592   5.554   1.915  1.00 20.00     0.044 C 
HETATM    5  C6  UNL     1     -32.642   8.814   1.252  1.00 20.00     0.007 C 
HETATM    6  C7  UNL     1     -31.585   8.262   2.264  1.00 20.00     0.018 C 
HETATM    7  C8  UNL     1     -32.654   7.382   0.670  1.00 20.00     0.005 C 
HETATM    8  C9  UNL     1     -32.325   6.884   2.120  1.00 20.00     0.027 C 
ENDROOT
BRANCH   8   9
HETATM    9  C3  UNL     1     -33.493   6.722   3.165  1.00 20.00     0.132 C 
HETATM   10  C10 UNL     1     -33.806   7.919   4.020  1.00 20.00     0.091 C 
HETATM   11  O11 UNL     1     -34.118   5.668   3.274  1.00 20.00    -0.298 OA
ENDBRANCH   8   9
TORSDOF 1
ENDMDL
MODEL 9
REMARK VINA RESULT:       4.0      1.270      3.252
REMARK  1 active torsions:
REMARK  status: ('A' for Active; 'I' for Inactive)
REMARK    1  A    between atoms: C3_3  and  C9_9 
ROOT
HETATM    1  C1  UNL     1     -31.488   9.100   1.510  1.00 20.00    -0.030 C 
HETATM    2  C2  UNL     1     -32.723   9.160   0.971  1.00 20.00    -0.029 C 
HETATM    3  C4  UNL     1     -30.823   7.816   1.966  1.00 20.00     0.032 C 
HETATM    4  C5  UNL     1     -33.633   7.957   0.791  1.00 20.00     0.044 C 
HETATM    5  C6  UNL     1     -31.776   5.213   1.882  1.00 20.00     0.007 C 
HETATM    6  C7  UNL     1     -33.252   5.318   1.378  1.00 20.00     0.018 C 
HETATM    7  C8  UNL     1     -31.631   6.670   1.387  1.00 20.00     0.005 C 
HETATM    8  C9  UNL     1     -33.151   6.845   1.729  1.00 20.00     0.027 C 
ENDROOT
BRANCH   8   9
HETATM    9  C3  UNL     1     -33.579   7.145   3.216  1.00 20.00     0.132 C 
HETATM   10  C10 UNL     1     -34.885   6.557   3.676  1.00 20.00     0.091 C 
HETATM   11  O11 UNL     1     -32.877   7.825   3.963  1.00 20.00    -0.298 OA
ENDBRANCH   8   9
TORSDOF 1
ENDMDL
