MODEL 1
REMARK VINA RESULT:       1.9      0.000      0.000
REMARK  1 active torsions:
REMARK  status: ('A' for Active; 'I' for Inactive)
REMARK    1  A    between atoms: C3_3  and  C6_6 
ROOT
HETATM    1  C1  UNL     1     -33.525   7.625   3.501  1.00 20.00    -0.023 C 
HETATM    2  C2  UNL     1     -32.832   7.303   2.401  1.00 20.00    -0.071 C 
HETATM    3  C4  UNL     1     -34.586   6.624   3.811  1.00 20.00     0.033 C 
HETATM    4  C5  UNL     1     -34.188   5.409   2.949  1.00 20.00     0.005 C 
HETATM    5  C6  UNL     1     -33.322   6.006   1.800  1.00 20.00     0.043 C 
HETATM    6  C7  UNL     1     -31.764   8.137   1.781  1.00 20.00     0.044 C 
HETATM    7  C9  UNL     1     -33.482   4.364   3.823  1.00 20.00     0.011 C 
HETATM    8  C10 UNL     1     -34.165   6.267   0.547  1.00 20.00     0.029 C 
ENDROOT
BRANCH   5   9
HETATM    9  C3  UNL     1     -32.144   5.138   1.437  1.00 20.00     0.136 C 
HETATM   10  C8  UNL     1     -32.259   4.339   0.167  1.00 20.00     0.092 C 
HETATM   11  O11 UNL     1     -31.138   5.088   2.142  1.00 20.00    -0.297 OA
ENDBRANCH   5   9
TORSDOF 1
ENDMDL
MODEL 2
REMARK VINA RESULT:       2.4      1.424      2.999
REMARK  1 active torsions:
REMARK  status: ('A' for Active; 'I' for Inactive)
REMARK    1  A    between atoms: C3_3  and  C6_6 
ROOT
HETATM    1  C1  UNL     1     -32.018   7.407   1.894  1.00 20.00    -0.023 C 
HETATM    2  C2  UNL     1     -32.793   6.318   1.971  1.00 20.00    -0.071 C 
HETATM    3  C4  UNL     1     -32.556   8.541   2.699  1.00 20.00     0.033 C 
HETATM    4  C5  UNL     1     -33.593   7.861   3.615  1.00 20.00     0.005 C 
HETATM    5  C6  UNL     1     -33.988   6.554   2.866  1.00 20.00     0.043 C 
HETATM    6  C7  UNL     1     -32.575   5.049   1.220  1.00 20.00     0.044 C 
HETATM    7  C9  UNL     1     -32.993   7.657   5.013  1.00 20.00     0.011 C 
HETATM    8  C10 UNL     1     -35.262   6.751   2.038  1.00 20.00     0.029 C 
ENDROOT
BRANCH   5   9
HETATM    9  C3  UNL     1     -34.171   5.376   3.790  1.00 20.00     0.136 C 
HETATM   10  C8  UNL     1     -35.455   5.323   4.573  1.00 20.00     0.092 C 
HETATM   11  O11 UNL     1     -33.314   4.500   3.896  1.00 20.00    -0.297 OA
ENDBRANCH   5   9
TORSDOF 1
ENDMDL
MODEL 3
REMARK VINA RESULT:       3.4      1.497      3.019
REMARK  1 active torsions:
REMARK  status: ('A' for Active; 'I' for Inactive)
REMARK    1  A    between atoms: C3_3  and  C6_6 
ROOT
HETATM    1  C1  UNL     1     -33.198   7.760   3.558  1.00 20.00    -0.023 C 
HETATM    2  C2  UNL     1     -33.489   6.580   2.994  1.00 20.00    -0.071 C 
HETATM    3  C4  UNL     1     -32.030   8.422   2.909  1.00 20.00     0.033 C 
HETATM    4  C5  UNL     1     -31.877   7.648   1.584  1.00 20.00     0.005 C 
HETATM    5  C6  UNL     1     -32.551   6.270   1.850  1.00 20.00     0.043 C 
HETATM    6  C7  UNL     1     -34.545   5.639   3.463  1.00 20.00     0.044 C 
HETATM    7  C9  UNL     1     -32.489   8.463   0.436  1.00 20.00     0.011 C 
HETATM    8  C10 UNL     1     -31.517   5.215   2.262  1.00 20.00     0.029 C 
ENDROOT
BRANCH   5   9
HETATM    9  C3  UNL     1     -33.340   5.760   0.671  1.00 20.00     0.136 C 
HETATM   10  C8  UNL     1     -32.917   4.436   0.095  1.00 20.00     0.092 C 
HETATM   11  O11 UNL     1     -34.285   6.394   0.204  1.00 20.00    -0.297 OA
ENDBRANCH   5   9
TORSDOF 1
ENDMDL
MODEL 4
REMARK VINA RESULT:       3.6      1.429      2.933
REMARK  1 active torsions:
REMARK  status: ('A' for Active; 'I' for Inactive)
REMARK    1  A    between atoms: C3_3  and  C6_6 
ROOT
HETATM    1  C1  UNL     1     -34.100   7.866   4.140  1.00 20.00    -0.023 C 
HETATM    2  C2  UNL     1     -34.392   6.762   3.440  1.00 20.00    -0.071 C 
HETATM    3  C4  UNL     1     -32.653   8.218   4.060  1.00 20.00     0.033 C 
HETATM    4  C5  UNL     1     -32.151   7.376   2.869  1.00 20.00     0.005 C 
HETATM    5  C6  UNL     1     -33.166   6.199   2.761  1.00 20.00     0.043 C 
HETATM    6  C7  UNL     1     -35.729   6.106   3.387  1.00 20.00     0.044 C 
HETATM    7  C9  UNL     1     -32.042   8.260   1.620  1.00 20.00     0.011 C 
HETATM    8  C10 UNL     1     -32.655   4.955   3.497  1.00 20.00     0.029 C 
ENDROOT
BRANCH   5   9
HETATM    9  C3  UNL     1     -33.497   5.834   1.336  1.00 20.00     0.136 C 
HETATM   10  C8  UNL     1     -32.619   4.805   0.679  1.00 20.00     0.092 C 
HETATM   11  O11 UNL     1     -34.442   6.351   0.741  1.00 20.00    -0.297 OA
ENDBRANCH   5   9
TORSDOF 1
ENDMDL
MODEL 5
REMARK VINA RESULT:       3.7      1.861      3.452
REMARK  1 active torsions:
REMARK  status: ('A' for Active; 'I' for Inactive)
REMARK    1  A    between atoms: C3_3  and  C6_6 
ROOT
HETATM    1  C1  UNL     1     -32.215   7.863   2.488  1.00 20.00    -0.023 C 
HETATM    2  C2  UNL     1     -33.016   7.471   3.487  1.00 20.00    -0.071 C 
HETATM    3  C4  UNL     1     -32.101   6.830   1.418  1.00 20.00     0.033 C 
HETATM    4  C5  UNL     1     -33.277   5.880   1.719  1.00 20.00     0.005 C 
HETATM    5  C6  UNL     1     -33.582   6.093   3.232  1.00 20.00     0.043 C 
HETATM    6  C7  UNL     1     -33.270   8.239   4.739  1.00 20.00     0.044 C 
HETATM    7  C9  UNL     1     -34.443   6.183   0.769  1.00 20.00     0.011 C 
HETATM    8  C10 UNL     1     -32.875   5.042   4.095  1.00 20.00     0.029 C 
ENDROOT
BRANCH   5   9
HETATM    9  C3  UNL     1     -35.057   6.084   3.544  1.00 20.00     0.136 C 
HETATM   10  C8  UNL     1     -35.536   5.044   4.520  1.00 20.00     0.092 C 
HETATM   11  O11 UNL     1     -35.830   6.890   3.028  1.00 20.00    -0.297 OA
ENDBRANCH   5   9
TORSDOF 1
ENDMDL
MODEL 6
REMARK VINA RESULT:       3.7      1.869      3.817
REMARK  1 active torsions:
REMARK  status: ('A' for Active; 'I' for Inactive)
REMARK    1  A    between atoms: C3_3  and  C6_6 
ROOT
HETATM    1  C1  UNL     1     -32.865   4.820   2.165  1.00 20.00    -0.023 C 
HETATM    2  C2  UNL     1     -33.562   5.274   3.215  1.00 20.00    -0.071 C 
HETATM    3  C4  UNL     1     -32.761   5.835   1.077  1.00 20.00     0.033 C 
HETATM    4  C5  UNL     1     -33.171   7.146   1.776  1.00 20.00     0.005 C 
HETATM    5  C6  UNL     1     -34.031   6.693   2.993  1.00 20.00     0.043 C 
HETATM    6  C7  UNL     1     -33.913   4.478   4.425  1.00 20.00     0.044 C 
HETATM    7  C9  UNL     1     -31.917   7.958   2.129  1.00 20.00     0.011 C 
HETATM    8  C10 UNL     1     -35.528   6.730   2.661  1.00 20.00     0.029 C 
ENDROOT
BRANCH   5   9
HETATM    9  C3  UNL     1     -33.777   7.512   4.234  1.00 20.00     0.136 C 
HETATM   10  C8  UNL     1     -32.432   8.179   4.341  1.00 20.00     0.092 C 
HETATM   11  O11 UNL     1     -34.628   7.630   5.114  1.00 20.00    -0.297 OA
ENDBRANCH   5   9
TORSDOF 1
ENDMDL
MODEL 7
REMARK VINA RESULT:       3.9      1.299      2.701
REMARK  1 active torsions:
REMARK  status: ('A' for Active; 'I' for Inactive)
REMARK    1  A    between atoms: C3_3  and  C6_6 
ROOT
HETATM    1  C1  UNL     1     -33.751   5.194   3.535  1.00 20.00    -0.023 C 
HETATM    2  C2  UNL     1     -33.707   6.488   3.190  1.00 20.00    -0.071 C 
HETATM    3  C4  UNL     1     -33.237   4.305   2.454  1.00 20.00     0.033 C 
HETATM    4  C5  UNL     1     -32.493   5.279   1.519  1.00 20.00     0.005 C 
HETATM    5  C6  UNL     1     -33.137   6.668   1.802  1.00 20.00     0.043 C 
HETATM    6  C7  UNL     1     -34.222   7.617   4.014  1.00 20.00     0.044 C 
HETATM    7  C9  UNL     1     -30.983   5.193   1.779  1.00 20.00     0.011 C 
HETATM    8  C10 UNL     1     -34.245   6.984   0.791  1.00 20.00     0.029 C 
ENDROOT
BRANCH   5   9
HETATM    9  C3  UNL     1     -32.133   7.794   1.808  1.00 20.00     0.136 C 
HETATM   10  C8  UNL     1     -31.990   8.580   0.533  1.00 20.00     0.092 C 
HETATM   11  O11 UNL     1     -31.467   8.058   2.808  1.00 20.00    -0.297 OA
ENDBRANCH   5   9
TORSDOF 1
ENDMDL
MODEL 8
REMARK VINA RESULT:       4.1      1.800      3.399
REMARK  1 active torsions:
REMARK  status: ('A' for Active; 'I' for Inactive)
REMARK    1  A    between atoms: C3_3  and  C6_6 
ROOT
HETATM    1  C1  UNL     1     -32.306   7.820   2.554  1.00 20.00    -0.023 C 
HETATM    2  C2  UNL     1     -33.080   7.375   3.553  1.00 20.00    -0.071 C 
HETATM    3  C4  UNL     1     -32.145   6.806   1.472  1.00 20.00     0.033 C 
HETATM    4  C5  UNL     1     -33.268   5.792   1.768  1.00 20.00     0.005 C 
HETATM    5  C6  UNL     1     -33.575   5.972   3.284  1.00 20.00     0.043 C 
HETATM    6  C7  UNL     1     -33.368   8.114   4.815  1.00 20.00     0.044 C 
HETATM    7  C9  UNL     1     -34.453   6.044   0.827  1.00 20.00     0.011 C 
HETATM    8  C10 UNL     1     -32.809   4.950   4.132  1.00 20.00     0.029 C 
ENDROOT
BRANCH   5   9
HETATM    9  C3  UNL     1     -35.046   5.883   3.604  1.00 20.00     0.136 C 
HETATM   10  C8  UNL     1     -35.920   6.992   3.085  1.00 20.00     0.092 C 
HETATM   11  O11 UNL     1     -35.508   4.947   4.254  1.00 20.00    -0.297 OA
ENDBRANCH   5   9
TORSDOF 1
ENDMDL
MODEL 9
REMARK VINA RESULT:       4.2      1.962      3.844
REMARK  1 active torsions:
REMARK  status: ('A' for Active; 'I' for Inactive)
REMARK    1  A    between atoms: C3_3  and  C6_6 
ROOT
HETATM    1  C1  UNL     1     -32.012   8.706   0.192  1.00 20.00    -0.023 C 
HETATM    2  C2  UNL     1     -32.601   9.078   1.336  1.00 20.00    -0.071 C 
HETATM    3  C4  UNL     1     -31.203   7.464   0.353  1.00 20.00     0.033 C 
HETATM    4  C5  UNL     1     -31.698   6.892   1.696  1.00 20.00     0.005 C 
HETATM    5  C6  UNL     1     -32.281   8.118   2.458  1.00 20.00     0.043 C 
HETATM    6  C7  UNL     1     -33.408  10.317   1.526  1.00 20.00     0.044 C 
HETATM    7  C9  UNL     1     -32.692   5.751   1.438  1.00 20.00     0.011 C 
HETATM    8  C10 UNL     1     -31.246   8.721   3.416  1.00 20.00     0.029 C 
ENDROOT
BRANCH   5   9
HETATM    9  C3  UNL     1     -33.539   7.795   3.224  1.00 20.00     0.136 C 
HETATM   10  C8  UNL     1     -33.540   8.122   4.693  1.00 20.00     0.092 C 
HETATM   11  O11 UNL     1     -34.517   7.291   2.675  1.00 20.00    -0.297 OA
ENDBRANCH   5   9
TORSDOF 1
ENDMDL
