MODEL 1
REMARK VINA RESULT:      -0.2      0.000      0.000
REMARK  1 active torsions:
REMARK  status: ('A' for Active; 'I' for Inactive)
REMARK    1  A    between atoms: C2_2  and  C4_4 
ROOT
HETATM    1  C1  UNL     1     -34.448   6.254   3.549  1.00 20.00     0.065 C 
HETATM    2  C3  UNL     1     -33.176   6.495   2.931  1.00 20.00     0.113 A 
HETATM    3  C4  UNL     1     -33.113   7.429   1.744  1.00 20.00     0.082 A 
HETATM    4  C5  UNL     1     -32.866   5.944   1.550  1.00 20.00    -0.019 A 
HETATM    5  C7  UNL     1     -31.463   5.443   1.312  1.00 20.00     0.017 C 
HETATM    6  C8  UNL     1     -33.912   5.168   0.786  1.00 20.00     0.017 C 
HETATM    7  N9  UNL     1     -35.477   6.059   4.049  1.00 20.00    -0.197 NA
ENDROOT
BRANCH   3   8
HETATM    8  C2  UNL     1     -32.010   8.395   1.648  1.00 20.00     0.129 C 
HETATM    9  C6  UNL     1     -31.979   9.268   0.423  1.00 20.00     0.091 C 
HETATM   10  O10 UNL     1     -31.155   8.487   2.527  1.00 20.00    -0.298 OA
ENDBRANCH   3   8
TORSDOF 1
ENDMDL
MODEL 2
REMARK VINA RESULT:       0.4      2.586      3.730
REMARK  1 active torsions:
REMARK  status: ('A' for Active; 'I' for Inactive)
REMARK    1  A    between atoms: C2_2  and  C4_4 
ROOT
HETATM    1  C1  UNL     1     -32.098   7.931   1.873  1.00 20.00     0.065 C 
HETATM    2  C3  UNL     1     -33.119   6.922   1.881  1.00 20.00     0.113 A 
HETATM    3  C4  UNL     1     -32.995   5.776   2.860  1.00 20.00     0.082 A 
HETATM    4  C5  UNL     1     -32.831   5.522   1.372  1.00 20.00    -0.019 A 
HETATM    5  C7  UNL     1     -33.932   4.832   0.604  1.00 20.00     0.017 C 
HETATM    6  C8  UNL     1     -31.449   5.155   0.887  1.00 20.00     0.017 C 
HETATM    7  N9  UNL     1     -31.273   8.747   1.866  1.00 20.00    -0.197 NA
ENDROOT
BRANCH   3   8
HETATM    8  C2  UNL     1     -34.191   5.311   3.575  1.00 20.00     0.129 C 
HETATM    9  C6  UNL     1     -35.271   6.330   3.822  1.00 20.00     0.091 C 
HETATM   10  O10 UNL     1     -34.306   4.146   3.951  1.00 20.00    -0.298 OA
ENDBRANCH   3   8
TORSDOF 1
ENDMDL
MODEL 3
REMARK VINA RESULT:       0.5      2.211      3.614
REMARK  1 active torsions:
REMARK  status: ('A' for Active; 'I' for Inactive)
REMARK    1  A    between atoms: C2_2  and  C4_4 
ROOT
HETATM    1  C1  UNL     1     -32.283   5.380   1.189  1.00 20.00     0.065 C 
HETATM    2  C3  UNL     1     -32.422   6.222   2.343  1.00 20.00     0.113 A 
HETATM    3  C4  UNL     1     -33.683   7.042   2.493  1.00 20.00     0.082 A 
HETATM    4  C5  UNL     1     -32.360   7.733   2.215  1.00 20.00    -0.019 A 
HETATM    5  C7  UNL     1     -31.662   8.486   3.322  1.00 20.00     0.017 C 
HETATM    6  C8  UNL     1     -32.193   8.378   0.860  1.00 20.00     0.017 C 
HETATM    7  N9  UNL     1     -32.170   4.701   0.256  1.00 20.00    -0.197 NA
ENDROOT
BRANCH   3   8
HETATM    8  C2  UNL     1     -34.322   7.142   3.812  1.00 20.00     0.129 C 
HETATM    9  C6  UNL     1     -35.307   6.062   4.171  1.00 20.00     0.091 C 
HETATM   10  O10 UNL     1     -34.063   8.062   4.587  1.00 20.00    -0.298 OA
ENDBRANCH   3   8
TORSDOF 1
ENDMDL
MODEL 4
REMARK VINA RESULT:       0.7      2.434      3.808
REMARK  1 active torsions:
REMARK  status: ('A' for Active; 'I' for Inactive)
REMARK    1  A    between atoms: C2_2  and  C4_4 
ROOT
HETATM    1  C1  UNL     1     -32.072   8.091   1.795  1.00 20.00     0.065 C 
HETATM    2  C3  UNL     1     -33.122   7.113   1.827  1.00 20.00     0.113 A 
HETATM    3  C4  UNL     1     -33.075   6.035   2.887  1.00 20.00     0.082 A 
HETATM    4  C5  UNL     1     -32.855   5.673   1.429  1.00 20.00    -0.019 A 
HETATM    5  C7  UNL     1     -33.943   4.961   0.662  1.00 20.00     0.017 C 
HETATM    6  C8  UNL     1     -31.465   5.236   1.032  1.00 20.00     0.017 C 
HETATM    7  N9  UNL     1     -31.223   8.881   1.768  1.00 20.00    -0.197 NA
ENDROOT
BRANCH   3   8
HETATM    8  C2  UNL     1     -34.313   5.654   3.579  1.00 20.00     0.129 C 
HETATM    9  C6  UNL     1     -34.338   4.294   4.223  1.00 20.00     0.091 C 
HETATM   10  O10 UNL     1     -35.282   6.411   3.632  1.00 20.00    -0.298 OA
ENDBRANCH   3   8
TORSDOF 1
ENDMDL
MODEL 5
REMARK VINA RESULT:       0.8      1.394      1.741
REMARK  1 active torsions:
REMARK  status: ('A' for Active; 'I' for Inactive)
REMARK    1  A    between atoms: C2_2  and  C4_4 
ROOT
HETATM    1  C1  UNL     1     -34.018   7.335   3.468  1.00 20.00     0.065 C 
HETATM    2  C3  UNL     1     -32.980   8.044   2.776  1.00 20.00     0.113 A 
HETATM    3  C4  UNL     1     -33.156   8.328   1.302  1.00 20.00     0.082 A 
HETATM    4  C5  UNL     1     -32.101   7.338   1.760  1.00 20.00    -0.019 A 
HETATM    5  C7  UNL     1     -30.643   7.729   1.727  1.00 20.00     0.017 C 
HETATM    6  C8  UNL     1     -32.333   5.884   1.429  1.00 20.00     0.017 C 
HETATM    7  N9  UNL     1     -34.857   6.760   4.027  1.00 20.00    -0.197 NA
ENDROOT
BRANCH   3   8
HETATM    8  C2  UNL     1     -32.775   9.645   0.774  1.00 20.00     0.129 C 
HETATM    9  C6  UNL     1     -32.570   9.745  -0.713  1.00 20.00     0.091 C 
HETATM   10  O10 UNL     1     -32.634  10.620   1.511  1.00 20.00    -0.298 OA
ENDBRANCH   3   8
TORSDOF 1
ENDMDL
MODEL 6
REMARK VINA RESULT:       1.0      1.830      2.633
REMARK  1 active torsions:
REMARK  status: ('A' for Active; 'I' for Inactive)
REMARK    1  A    between atoms: C2_2  and  C4_4 
ROOT
HETATM    1  C1  UNL     1     -33.491   5.092   0.441  1.00 20.00     0.065 C 
HETATM    2  C3  UNL     1     -33.550   6.260   1.273  1.00 20.00     0.113 A 
HETATM    3  C4  UNL     1     -32.312   6.665   2.041  1.00 20.00     0.082 A 
HETATM    4  C5  UNL     1     -33.525   6.138   2.786  1.00 20.00    -0.019 A 
HETATM    5  C7  UNL     1     -34.399   7.092   3.564  1.00 20.00     0.017 C 
HETATM    6  C8  UNL     1     -33.394   4.783   3.441  1.00 20.00     0.017 C 
HETATM    7  N9  UNL     1     -33.443   4.148  -0.231  1.00 20.00    -0.197 NA
ENDROOT
BRANCH   3   8
HETATM    8  C2  UNL     1     -31.944   8.086   2.111  1.00 20.00     0.129 C 
HETATM    9  C6  UNL     1     -32.254   8.926   0.901  1.00 20.00     0.091 C 
HETATM   10  O10 UNL     1     -31.413   8.566   3.110  1.00 20.00    -0.298 OA
ENDBRANCH   3   8
TORSDOF 1
ENDMDL
MODEL 7
REMARK VINA RESULT:       1.0      2.576      3.656
REMARK  1 active torsions:
REMARK  status: ('A' for Active; 'I' for Inactive)
REMARK    1  A    between atoms: C2_2  and  C4_4 
ROOT
HETATM    1  C1  UNL     1     -32.717   9.451   0.765  1.00 20.00     0.065 C 
HETATM    2  C3  UNL     1     -33.192   8.324   1.515  1.00 20.00     0.113 A 
HETATM    3  C4  UNL     1     -32.659   8.108   2.914  1.00 20.00     0.082 A 
HETATM    4  C5  UNL     1     -32.282   7.144   1.804  1.00 20.00    -0.019 A 
HETATM    5  C7  UNL     1     -32.907   5.770   1.761  1.00 20.00     0.017 C 
HETATM    6  C8  UNL     1     -30.845   7.157   1.341  1.00 20.00     0.017 C 
HETATM    7  N9  UNL     1     -32.333  10.362   0.159  1.00 20.00    -0.197 NA
ENDROOT
BRANCH   3   8
HETATM    8  C2  UNL     1     -33.585   7.704   3.980  1.00 20.00     0.129 C 
HETATM    9  C6  UNL     1     -34.795   6.913   3.562  1.00 20.00     0.091 C 
HETATM   10  O10 UNL     1     -33.380   7.995   5.158  1.00 20.00    -0.298 OA
ENDBRANCH   3   8
TORSDOF 1
ENDMDL
MODEL 8
REMARK VINA RESULT:       1.0      1.843      3.145
REMARK  1 active torsions:
REMARK  status: ('A' for Active; 'I' for Inactive)
REMARK    1  A    between atoms: C2_2  and  C4_4 
ROOT
HETATM    1  C1  UNL     1     -33.882   7.607   3.826  1.00 20.00     0.065 C 
HETATM    2  C3  UNL     1     -33.507   7.423   2.454  1.00 20.00     0.113 A 
HETATM    3  C4  UNL     1     -32.421   6.423   2.128  1.00 20.00     0.082 A 
HETATM    4  C5  UNL     1     -32.162   7.907   1.944  1.00 20.00    -0.019 A 
HETATM    5  C7  UNL     1     -32.128   8.495   0.554  1.00 20.00     0.017 C 
HETATM    6  C8  UNL     1     -31.177   8.555   2.887  1.00 20.00     0.017 C 
HETATM    7  N9  UNL     1     -34.185   7.757   4.936  1.00 20.00    -0.197 NA
ENDROOT
BRANCH   3   8
HETATM    8  C2  UNL     1     -32.585   5.537   0.967  1.00 20.00     0.129 C 
HETATM    9  C6  UNL     1     -31.403   4.683   0.596  1.00 20.00     0.091 C 
HETATM   10  O10 UNL     1     -33.637   5.493   0.332  1.00 20.00    -0.298 OA
ENDBRANCH   3   8
TORSDOF 1
ENDMDL
MODEL 9
REMARK VINA RESULT:       1.1      1.486      2.926
REMARK  1 active torsions:
REMARK  status: ('A' for Active; 'I' for Inactive)
REMARK    1  A    between atoms: C2_2  and  C4_4 
ROOT
HETATM    1  C1  UNL     1     -35.086   5.472   4.178  1.00 20.00     0.065 C 
HETATM    2  C3  UNL     1     -34.538   6.412   3.243  1.00 20.00     0.113 A 
HETATM    3  C4  UNL     1     -33.035   6.549   3.149  1.00 20.00     0.082 A 
HETATM    4  C5  UNL     1     -33.864   7.684   3.723  1.00 20.00    -0.019 A 
HETATM    5  C7  UNL     1     -34.093   8.932   2.904  1.00 20.00     0.017 C 
HETATM    6  C8  UNL     1     -33.721   7.961   5.200  1.00 20.00     0.017 C 
HETATM    7  N9  UNL     1     -35.529   4.713   4.936  1.00 20.00    -0.197 NA
ENDROOT
BRANCH   3   8
HETATM    8  C2  UNL     1     -32.406   6.669   1.827  1.00 20.00     0.129 C 
HETATM    9  C6  UNL     1     -32.765   5.620   0.809  1.00 20.00     0.091 C 
HETATM   10  O10 UNL     1     -31.627   7.584   1.564  1.00 20.00    -0.298 OA
ENDBRANCH   3   8
TORSDOF 1
ENDMDL
