MODEL 1
REMARK VINA RESULT:       1.1      0.000      0.000
REMARK  1 active torsions:
REMARK  status: ('A' for Active; 'I' for Inactive)
REMARK    1  A    between atoms: C1_1  and  C3_3 
ROOT
HETATM    1  C2  UNL     1     -32.718   7.898   3.666  1.00 20.00     0.090 C 
HETATM    2  C3  UNL     1     -34.666   6.103   3.180  1.00 20.00     0.195 C 
HETATM    3  C4  UNL     1     -32.660   7.643   2.165  1.00 20.00     0.054 C 
HETATM    4  C5  UNL     1     -31.227   7.643   1.650  1.00 20.00     0.022 C 
HETATM    5  S7  UNL     1     -34.417   7.571   4.201  1.00 20.00    -0.143 SA
HETATM    6  S8  UNL     1     -33.439   6.025   1.851  1.00 20.00    -0.139 SA
ENDROOT
BRANCH   2   7
HETATM    7  C1  UNL     1     -34.506   4.896   4.038  1.00 20.00     0.242 C 
HETATM    8  O6  UNL     1     -35.358   4.571   4.859  1.00 20.00    -0.278 OA
HETATM    9 CL9  UNL     1     -33.015   4.062   3.721  1.00 20.00    -0.042 Cl
ENDBRANCH   2   7
TORSDOF 1
ENDMDL
MODEL 2
REMARK VINA RESULT:       1.2      2.465      3.800
REMARK  1 active torsions:
REMARK  status: ('A' for Active; 'I' for Inactive)
REMARK    1  A    between atoms: C1_1  and  C3_3 
ROOT
HETATM    1  C2  UNL     1     -32.526   4.343   2.926  1.00 20.00     0.090 C 
HETATM    2  C3  UNL     1     -34.248   6.412   3.021  1.00 20.00     0.195 C 
HETATM    3  C4  UNL     1     -33.739   3.818   3.684  1.00 20.00     0.054 C 
HETATM    4  C5  UNL     1     -33.335   2.876   4.809  1.00 20.00     0.022 C 
HETATM    5  S7  UNL     1     -33.106   5.668   1.837  1.00 20.00    -0.143 SA
HETATM    6  S8  UNL     1     -34.630   5.258   4.362  1.00 20.00    -0.139 SA
ENDROOT
BRANCH   2   7
HETATM    7  C1  UNL     1     -33.602   7.618   3.610  1.00 20.00     0.242 C 
HETATM    8  O6  UNL     1     -33.956   8.076   4.692  1.00 20.00    -0.278 OA
HETATM    9 CL9  UNL     1     -32.341   8.246   2.593  1.00 20.00    -0.042 Cl
ENDBRANCH   2   7
TORSDOF 1
ENDMDL
MODEL 3
REMARK VINA RESULT:       1.3      1.758      2.370
REMARK  1 active torsions:
REMARK  status: ('A' for Active; 'I' for Inactive)
REMARK    1  A    between atoms: C1_1  and  C3_3 
ROOT
HETATM    1  C2  UNL     1     -32.816   6.935   0.832  1.00 20.00     0.090 C 
HETATM    2  C3  UNL     1     -33.191   6.379   3.440  1.00 20.00     0.195 C 
HETATM    3  C4  UNL     1     -32.123   8.064   1.583  1.00 20.00     0.054 C 
HETATM    4  C5  UNL     1     -32.288   9.399   0.871  1.00 20.00     0.022 C 
HETATM    5  S7  UNL     1     -32.813   5.486   1.918  1.00 20.00    -0.143 SA
HETATM    6  S8  UNL     1     -32.858   8.148   3.250  1.00 20.00    -0.139 SA
ENDROOT
BRANCH   2   7
HETATM    7  C1  UNL     1     -34.638   6.204   3.746  1.00 20.00     0.242 C 
HETATM    8  O6  UNL     1     -35.460   7.082   3.502  1.00 20.00    -0.278 OA
HETATM    9 CL9  UNL     1     -34.972   4.656   4.461  1.00 20.00    -0.042 Cl
ENDBRANCH   2   7
TORSDOF 1
ENDMDL
MODEL 4
REMARK VINA RESULT:       1.3      3.364      4.295
REMARK  1 active torsions:
REMARK  status: ('A' for Active; 'I' for Inactive)
REMARK    1  A    between atoms: C1_1  and  C3_3 
ROOT
HETATM    1  C2  UNL     1     -33.671   8.109   4.081  1.00 20.00     0.090 C 
HETATM    2  C3  UNL     1     -31.935   7.830   2.042  1.00 20.00     0.195 C 
HETATM    3  C4  UNL     1     -33.843   6.673   3.606  1.00 20.00     0.054 C 
HETATM    4  C5  UNL     1     -35.296   6.226   3.674  1.00 20.00     0.022 C 
HETATM    5  S7  UNL     1     -31.982   8.615   3.667  1.00 20.00    -0.143 SA
HETATM    6  S8  UNL     1     -33.240   6.586   1.887  1.00 20.00    -0.139 SA
ENDROOT
BRANCH   2   7
HETATM    7  C1  UNL     1     -32.157   8.875   1.004  1.00 20.00     0.242 C 
HETATM    8  O6  UNL     1     -33.021   9.737   1.131  1.00 20.00    -0.278 OA
HETATM    9 CL9  UNL     1     -31.072   8.701  -0.341  1.00 20.00    -0.042 Cl
ENDBRANCH   2   7
TORSDOF 1
ENDMDL
MODEL 5
REMARK VINA RESULT:       1.4      1.791      2.351
REMARK  1 active torsions:
REMARK  status: ('A' for Active; 'I' for Inactive)
REMARK    1  A    between atoms: C1_1  and  C3_3 
ROOT
HETATM    1  C2  UNL     1     -32.863   6.428   1.292  1.00 20.00     0.090 C 
HETATM    2  C3  UNL     1     -33.599   6.053   3.855  1.00 20.00     0.195 C 
HETATM    3  C4  UNL     1     -32.336   7.645   2.040  1.00 20.00     0.054 C 
HETATM    4  C5  UNL     1     -32.446   8.912   1.204  1.00 20.00     0.022 C 
HETATM    5  S7  UNL     1     -32.964   5.067   2.482  1.00 20.00    -0.143 SA
HETATM    6  S8  UNL     1     -33.313   7.817   3.570  1.00 20.00    -0.139 SA
ENDROOT
BRANCH   2   7
HETATM    7  C1  UNL     1     -35.068   5.826   3.961  1.00 20.00     0.242 C 
HETATM    8  O6  UNL     1     -35.531   4.878   4.587  1.00 20.00    -0.278 OA
HETATM    9 CL9  UNL     1     -35.979   7.038   3.112  1.00 20.00    -0.042 Cl
ENDBRANCH   2   7
TORSDOF 1
ENDMDL
MODEL 6
REMARK VINA RESULT:       1.5      1.278      1.278
REMARK  1 active torsions:
REMARK  status: ('A' for Active; 'I' for Inactive)
REMARK    1  A    between atoms: C1_1  and  C3_3 
ROOT
HETATM    1  C2  UNL     1     -32.676   8.014   3.546  1.00 20.00     0.090 C 
HETATM    2  C3  UNL     1     -34.427   6.050   2.975  1.00 20.00     0.195 C 
HETATM    3  C4  UNL     1     -32.506   7.750   2.056  1.00 20.00     0.054 C 
HETATM    4  C5  UNL     1     -31.051   7.870   1.625  1.00 20.00     0.022 C 
HETATM    5  S7  UNL     1     -34.369   7.544   3.986  1.00 20.00    -0.143 SA
HETATM    6  S8  UNL     1     -33.122   6.066   1.722  1.00 20.00    -0.139 SA
ENDROOT
BRANCH   2   7
HETATM    7  C1  UNL     1     -34.214   4.870   3.860  1.00 20.00     0.242 C 
HETATM    8  O6  UNL     1     -33.249   4.125   3.721  1.00 20.00    -0.278 OA
HETATM    9 CL9  UNL     1     -35.467   4.714   5.053  1.00 20.00    -0.042 Cl
ENDBRANCH   2   7
TORSDOF 1
ENDMDL
MODEL 7
REMARK VINA RESULT:       1.5      2.696      3.999
REMARK  1 active torsions:
REMARK  status: ('A' for Active; 'I' for Inactive)
REMARK    1  A    between atoms: C1_1  and  C3_3 
ROOT
HETATM    1  C2  UNL     1     -32.525   4.375   2.790  1.00 20.00     0.090 C 
HETATM    2  C3  UNL     1     -33.898   6.690   2.710  1.00 20.00     0.195 C 
HETATM    3  C4  UNL     1     -33.809   4.104   3.562  1.00 20.00     0.054 C 
HETATM    4  C5  UNL     1     -33.566   3.193   4.758  1.00 20.00     0.022 C 
HETATM    5  S7  UNL     1     -32.881   5.693   1.600  1.00 20.00    -0.143 SA
HETATM    6  S8  UNL     1     -34.465   5.711   4.122  1.00 20.00    -0.139 SA
ENDROOT
BRANCH   2   7
HETATM    7  C1  UNL     1     -33.071   7.819   3.223  1.00 20.00     0.242 C 
HETATM    8  O6  UNL     1     -32.213   8.357   2.531  1.00 20.00    -0.278 OA
HETATM    9 CL9  UNL     1     -33.481   8.237   4.859  1.00 20.00    -0.042 Cl
ENDBRANCH   2   7
TORSDOF 1
ENDMDL
MODEL 8
REMARK VINA RESULT:       1.5      3.601      4.470
REMARK  1 active torsions:
REMARK  status: ('A' for Active; 'I' for Inactive)
REMARK    1  A    between atoms: C1_1  and  C3_3 
ROOT
HETATM    1  C2  UNL     1     -33.555   8.156   3.948  1.00 20.00     0.090 C 
HETATM    2  C3  UNL     1     -32.007   7.952   1.753  1.00 20.00     0.195 C 
HETATM    3  C4  UNL     1     -33.689   6.707   3.499  1.00 20.00     0.054 C 
HETATM    4  C5  UNL     1     -35.102   6.181   3.708  1.00 20.00     0.022 C 
HETATM    5  S7  UNL     1     -31.944   8.750   3.371  1.00 20.00    -0.143 SA
HETATM    6  S8  UNL     1     -33.249   6.635   1.731  1.00 20.00    -0.139 SA
ENDROOT
BRANCH   2   7
HETATM    7  C1  UNL     1     -32.387   8.972   0.736  1.00 20.00     0.242 C 
HETATM    8  O6  UNL     1     -32.449   8.700  -0.459  1.00 20.00    -0.278 OA
HETATM    9 CL9  UNL     1     -32.712  10.521   1.453  1.00 20.00    -0.042 Cl
ENDBRANCH   2   7
TORSDOF 1
ENDMDL
MODEL 9
REMARK VINA RESULT:       1.8      2.259      2.796
REMARK  1 active torsions:
REMARK  status: ('A' for Active; 'I' for Inactive)
REMARK    1  A    between atoms: C1_1  and  C3_3 
ROOT
HETATM    1  C2  UNL     1     -33.196   7.272   0.765  1.00 20.00     0.090 C 
HETATM    2  C3  UNL     1     -32.826   7.042   3.423  1.00 20.00     0.195 C 
HETATM    3  C4  UNL     1     -32.035   8.204   1.088  1.00 20.00     0.054 C 
HETATM    4  C5  UNL     1     -32.081   9.473   0.249  1.00 20.00     0.022 C 
HETATM    5  S7  UNL     1     -33.204   5.968   2.021  1.00 20.00    -0.143 SA
HETATM    6  S8  UNL     1     -32.140   8.619   2.861  1.00 20.00    -0.139 SA
ENDROOT
BRANCH   2   7
HETATM    7  C1  UNL     1     -34.089   7.318   4.163  1.00 20.00     0.242 C 
HETATM    8  O6  UNL     1     -34.191   8.266   4.935  1.00 20.00    -0.278 OA
HETATM    9 CL9  UNL     1     -35.330   6.160   3.792  1.00 20.00    -0.042 Cl
ENDBRANCH   2   7
TORSDOF 1
ENDMDL
