MODEL 1
REMARK VINA RESULT:      -1.9      0.000      0.000
REMARK  3 active torsions:
REMARK  status: ('A' for Active; 'I' for Inactive)
REMARK    1  A    between atoms: C8_8  and  C9_9 
REMARK    2  A    between atoms: C9_9  and  C10_10 
REMARK    3  A    between atoms: C10_10  and  O11_11 
ROOT
HETATM    1  C1  UNL     1     -35.602   5.328   4.503  1.00 20.00     0.017 C 
HETATM    2  C2  UNL     1     -34.728   5.930   3.942  1.00 20.00    -0.083 C 
HETATM    3  C3  UNL     1     -33.190   6.148   2.127  1.00 20.00    -0.010 C 
HETATM    4  C4  UNL     1     -33.691   6.643   3.272  1.00 20.00    -0.009 C 
HETATM    5  C5  UNL     1     -32.104   6.818   1.332  1.00 20.00     0.033 C 
HETATM    6  C6  UNL     1     -33.177   7.923   3.882  1.00 20.00     0.048 C 
HETATM    7  C7  UNL     1     -31.860   8.408   3.267  1.00 20.00     0.010 C 
HETATM    8  C8  UNL     1     -31.837   8.277   1.740  1.00 20.00    -0.009 C 
ENDROOT
BRANCH   8   9
HETATM    9  C9  UNL     1     -32.828   9.237   1.073  1.00 20.00     0.031 C 
BRANCH   9  10
HETATM   10  C10 UNL     1     -32.232   9.885  -0.162  1.00 20.00     0.164 C 
BRANCH  10  11
HETATM   11  O11 UNL     1     -33.292  10.302  -1.012  1.00 20.00    -0.401 OA
HETATM   12  H25 UNL     1     -33.459  11.238  -0.815  1.00 20.00     0.209 HD
ENDBRANCH  10  11
ENDBRANCH   9  10
ENDBRANCH   8   9
TORSDOF 3
ENDMDL
MODEL 2
REMARK VINA RESULT:      -0.8      1.851      2.913
REMARK  3 active torsions:
REMARK  status: ('A' for Active; 'I' for Inactive)
REMARK    1  A    between atoms: C8_8  and  C9_9 
REMARK    2  A    between atoms: C9_9  and  C10_10 
REMARK    3  A    between atoms: C10_10  and  O11_11 
ROOT
HETATM    1  C1  UNL     1     -33.246   2.358   4.908  1.00 20.00     0.017 C 
HETATM    2  C2  UNL     1     -33.432   3.395   4.333  1.00 20.00    -0.083 C 
HETATM    3  C3  UNL     1     -34.484   5.535   4.193  1.00 20.00    -0.010 C 
HETATM    4  C4  UNL     1     -33.652   4.628   3.652  1.00 20.00    -0.009 C 
HETATM    5  C5  UNL     1     -34.784   6.869   3.571  1.00 20.00     0.033 C 
HETATM    6  C6  UNL     1     -32.956   4.868   2.336  1.00 20.00     0.048 C 
HETATM    7  C7  UNL     1     -33.523   6.056   1.551  1.00 20.00     0.010 C 
HETATM    8  C8  UNL     1     -33.817   7.268   2.443  1.00 20.00    -0.009 C 
ENDROOT
BRANCH   8   9
HETATM    9  C9  UNL     1     -32.530   7.888   2.999  1.00 20.00     0.031 C 
BRANCH   9  10
HETATM   10  C10 UNL     1     -31.567   8.264   1.889  1.00 20.00     0.164 C 
BRANCH  10  11
HETATM   11  O11 UNL     1     -32.236   9.135   0.986  1.00 20.00    -0.401 OA
HETATM   12  H25 UNL     1     -32.275   8.677   0.130  1.00 20.00     0.209 HD
ENDBRANCH  10  11
ENDBRANCH   9  10
ENDBRANCH   8   9
TORSDOF 3
ENDMDL
MODEL 3
REMARK VINA RESULT:      -0.6      2.560      4.971
REMARK  3 active torsions:
REMARK  status: ('A' for Active; 'I' for Inactive)
REMARK    1  A    between atoms: C8_8  and  C9_9 
REMARK    2  A    between atoms: C9_9  and  C10_10 
REMARK    3  A    between atoms: C10_10  and  O11_11 
ROOT
HETATM    1  C1  UNL     1     -32.182  10.248  -0.366  1.00 20.00     0.017 C 
HETATM    2  C2  UNL     1     -32.352   9.384   0.449  1.00 20.00    -0.083 C 
HETATM    3  C3  UNL     1     -32.461   8.666   2.725  1.00 20.00    -0.010 C 
HETATM    4  C4  UNL     1     -32.555   8.359   1.420  1.00 20.00    -0.009 C 
HETATM    5  C5  UNL     1     -32.664   7.672   3.833  1.00 20.00     0.033 C 
HETATM    6  C6  UNL     1     -32.852   6.958   0.948  1.00 20.00     0.048 C 
HETATM    7  C7  UNL     1     -32.716   5.899   2.048  1.00 20.00     0.010 C 
HETATM    8  C8  UNL     1     -33.317   6.353   3.383  1.00 20.00    -0.009 C 
ENDROOT
BRANCH   8   9
HETATM    9  C9  UNL     1     -34.842   6.480   3.304  1.00 20.00     0.031 C 
BRANCH   9  10
HETATM   10  C10 UNL     1     -35.526   5.678   4.395  1.00 20.00     0.164 C 
BRANCH  10  11
HETATM   11  O11 UNL     1     -34.911   4.398   4.468  1.00 20.00    -0.401 OA
HETATM   12  H25 UNL     1     -35.161   4.016   5.325  1.00 20.00     0.209 HD
ENDBRANCH  10  11
ENDBRANCH   9  10
ENDBRANCH   8   9
TORSDOF 3
ENDMDL
MODEL 4
REMARK VINA RESULT:      -0.1      3.369      5.317
REMARK  3 active torsions:
REMARK  status: ('A' for Active; 'I' for Inactive)
REMARK    1  A    between atoms: C8_8  and  C9_9 
REMARK    2  A    between atoms: C9_9  and  C10_10 
REMARK    3  A    between atoms: C10_10  and  O11_11 
ROOT
HETATM    1  C1  UNL     1     -31.610   8.881   1.464  1.00 20.00     0.017 C 
HETATM    2  C2  UNL     1     -32.269   7.980   1.908  1.00 20.00    -0.083 C 
HETATM    3  C3  UNL     1     -32.974   5.699   1.851  1.00 20.00    -0.010 C 
HETATM    4  C4  UNL     1     -33.048   6.908   2.433  1.00 20.00    -0.009 C 
HETATM    5  C5  UNL     1     -33.742   4.497   2.324  1.00 20.00     0.033 C 
HETATM    6  C6  UNL     1     -33.943   7.172   3.618  1.00 20.00     0.048 C 
HETATM    7  C7  UNL     1     -34.964   6.058   3.873  1.00 20.00     0.010 C 
HETATM    8  C8  UNL     1     -34.360   4.657   3.724  1.00 20.00    -0.009 C 
ENDROOT
BRANCH   8   9
HETATM    9  C9  UNL     1     -33.338   4.359   4.827  1.00 20.00     0.031 C 
BRANCH   9  10
HETATM   10  C10 UNL     1     -32.698   2.997   4.641  1.00 20.00     0.164 C 
BRANCH  10  11
HETATM   11  O11 UNL     1     -33.728   2.026   4.515  1.00 20.00    -0.401 OA
HETATM   12  H25 UNL     1     -34.325   2.150   5.270  1.00 20.00     0.209 HD
ENDBRANCH  10  11
ENDBRANCH   9  10
ENDBRANCH   8   9
TORSDOF 3
ENDMDL
MODEL 5
REMARK VINA RESULT:       0.6      0.952      1.042
REMARK  3 active torsions:
REMARK  status: ('A' for Active; 'I' for Inactive)
REMARK    1  A    between atoms: C8_8  and  C9_9 
REMARK    2  A    between atoms: C9_9  and  C10_10 
REMARK    3  A    between atoms: C10_10  and  O11_11 
ROOT
HETATM    1  C1  UNL     1     -35.407   6.244   4.091  1.00 20.00     0.017 C 
HETATM    2  C2  UNL     1     -34.456   6.602   3.453  1.00 20.00    -0.083 C 
HETATM    3  C3  UNL     1     -32.912   6.269   1.660  1.00 20.00    -0.010 C 
HETATM    4  C4  UNL     1     -33.327   7.025   2.692  1.00 20.00    -0.009 C 
HETATM    5  C5  UNL     1     -31.743   6.621   0.785  1.00 20.00     0.033 C 
HETATM    6  C6  UNL     1     -32.623   8.300   3.082  1.00 20.00     0.048 C 
HETATM    7  C7  UNL     1     -31.251   8.470   2.420  1.00 20.00     0.010 C 
HETATM    8  C8  UNL     1     -31.256   8.072   0.939  1.00 20.00    -0.009 C 
ENDROOT
BRANCH   8   9
HETATM    9  C9  UNL     1     -32.096   9.039   0.096  1.00 20.00     0.031 C 
BRANCH   9  10
HETATM   10  C10 UNL     1     -32.604  10.204   0.923  1.00 20.00     0.164 C 
BRANCH  10  11
HETATM   11  O11 UNL     1     -33.897  10.563   0.454  1.00 20.00    -0.401 OA
HETATM   12  H25 UNL     1     -33.922  11.533   0.415  1.00 20.00     0.209 HD
ENDBRANCH  10  11
ENDBRANCH   9  10
ENDBRANCH   8   9
TORSDOF 3
ENDMDL
