MODEL 1
REMARK VINA RESULT:       0.7      0.000      0.000
REMARK  1 active torsions:
REMARK  status: ('A' for Active; 'I' for Inactive)
REMARK    1  A    between atoms: C5_5  and  C6_6 
ROOT
HETATM    1  C1  UNL     1     -33.883   7.892   4.735  1.00 20.00    -0.003 A 
HETATM    2  C2  UNL     1     -34.698   6.830   4.187  1.00 20.00    -0.003 A 
HETATM    3  C3  UNL     1     -32.987   8.256   3.800  1.00 20.00    -0.012 A 
HETATM    4  C4  UNL     1     -34.273   6.582   2.934  1.00 20.00    -0.012 A 
HETATM    5  C6  UNL     1     -33.016   8.032   1.187  1.00 20.00     0.073 A 
HETATM    6  C7  UNL     1     -33.141   7.457   2.569  1.00 20.00     0.013 A 
HETATM    7  C8  UNL     1     -31.989   7.021   1.694  1.00 20.00    -0.021 A 
HETATM    8  C9  UNL     1     -32.011   5.645   1.066  1.00 20.00     0.017 C 
HETATM    9  C10 UNL     1     -30.587   7.480   2.031  1.00 20.00     0.017 C 
ENDROOT
BRANCH   5  10
HETATM   10  C5  UNL     1     -32.647   9.439   0.975  1.00 20.00     0.237 C 
HETATM   11  O11 UNL     1     -32.593   9.965  -0.132  1.00 20.00    -0.306 OA
ENDBRANCH   5  10
TORSDOF 1
ENDMDL
MODEL 2
REMARK VINA RESULT:       1.8      1.970      3.749
REMARK  1 active torsions:
REMARK  status: ('A' for Active; 'I' for Inactive)
REMARK    1  A    between atoms: C5_5  and  C6_6 
ROOT
HETATM    1  C1  UNL     1     -32.801  10.354   0.158  1.00 20.00    -0.003 A 
HETATM    2  C2  UNL     1     -31.763   9.622  -0.534  1.00 20.00    -0.003 A 
HETATM    3  C3  UNL     1     -33.082   9.701   1.300  1.00 20.00    -0.012 A 
HETATM    4  C4  UNL     1     -31.445   8.546   0.209  1.00 20.00    -0.012 A 
HETATM    5  C6  UNL     1     -31.660   8.037   2.745  1.00 20.00     0.073 A 
HETATM    6  C7  UNL     1     -32.256   8.487   1.442  1.00 20.00     0.013 A 
HETATM    7  C8  UNL     1     -32.744   7.200   2.066  1.00 20.00    -0.021 A 
HETATM    8  C9  UNL     1     -32.318   5.876   1.472  1.00 20.00     0.017 C 
HETATM    9  C10 UNL     1     -34.133   7.145   2.662  1.00 20.00     0.017 C 
ENDROOT
BRANCH   5  10
HETATM   10  C5  UNL     1     -31.937   8.753   3.998  1.00 20.00     0.237 C 
HETATM   11  O11 UNL     1     -32.572   8.266   4.929  1.00 20.00    -0.306 OA
ENDBRANCH   5  10
TORSDOF 1
ENDMDL
MODEL 3
REMARK VINA RESULT:       1.8      2.095      3.713
REMARK  1 active torsions:
REMARK  status: ('A' for Active; 'I' for Inactive)
REMARK    1  A    between atoms: C5_5  and  C6_6 
ROOT
HETATM    1  C1  UNL     1     -32.422   9.479   0.485  1.00 20.00    -0.003 A 
HETATM    2  C2  UNL     1     -31.079   9.186   0.938  1.00 20.00    -0.003 A 
HETATM    3  C3  UNL     1     -33.221   8.467   0.868  1.00 20.00    -0.012 A 
HETATM    4  C4  UNL     1     -31.105   8.006   1.584  1.00 20.00    -0.012 A 
HETATM    5  C6  UNL     1     -32.995   6.711   2.803  1.00 20.00     0.073 A 
HETATM    6  C7  UNL     1     -32.465   7.430   1.596  1.00 20.00     0.013 A 
HETATM    7  C8  UNL     1     -32.753   5.950   1.500  1.00 20.00    -0.021 A 
HETATM    8  C9  UNL     1     -31.603   4.968   1.482  1.00 20.00     0.017 C 
HETATM    9  C10 UNL     1     -33.931   5.475   0.678  1.00 20.00     0.017 C 
ENDROOT
BRANCH   5  10
HETATM   10  C5  UNL     1     -34.360   6.947   3.295  1.00 20.00     0.237 C 
HETATM   11  O11 UNL     1     -34.970   6.154   4.004  1.00 20.00    -0.306 OA
ENDBRANCH   5  10
TORSDOF 1
ENDMDL
MODEL 4
REMARK VINA RESULT:       2.1      2.877      3.792
REMARK  1 active torsions:
REMARK  status: ('A' for Active; 'I' for Inactive)
REMARK    1  A    between atoms: C5_5  and  C6_6 
ROOT
HETATM    1  C1  UNL     1     -35.157   7.526   4.132  1.00 20.00    -0.003 A 
HETATM    2  C2  UNL     1     -33.889   8.177   4.376  1.00 20.00    -0.003 A 
HETATM    3  C3  UNL     1     -34.925   6.421   3.400  1.00 20.00    -0.012 A 
HETATM    4  C4  UNL     1     -32.924   7.447   3.786  1.00 20.00    -0.012 A 
HETATM    5  C6  UNL     1     -32.777   4.943   3.119  1.00 20.00     0.073 A 
HETATM    6  C7  UNL     1     -33.489   6.265   3.102  1.00 20.00     0.013 A 
HETATM    7  C8  UNL     1     -32.949   5.706   1.806  1.00 20.00    -0.021 A 
HETATM    8  C9  UNL     1     -31.705   6.311   1.195  1.00 20.00     0.017 C 
HETATM    9  C10 UNL     1     -33.915   5.193   0.761  1.00 20.00     0.017 C 
ENDROOT
BRANCH   5  10
HETATM   10  C5  UNL     1     -33.503   3.688   3.361  1.00 20.00     0.237 C 
HETATM   11  O11 UNL     1     -33.829   3.300   4.478  1.00 20.00    -0.306 OA
ENDBRANCH   5  10
TORSDOF 1
ENDMDL
MODEL 5
REMARK VINA RESULT:       2.2      1.837      2.946
REMARK  1 active torsions:
REMARK  status: ('A' for Active; 'I' for Inactive)
REMARK    1  A    between atoms: C5_5  and  C6_6 
ROOT
HETATM    1  C1  UNL     1     -34.885   6.658   4.093  1.00 20.00    -0.003 A 
HETATM    2  C2  UNL     1     -34.026   7.672   4.665  1.00 20.00    -0.003 A 
HETATM    3  C3  UNL     1     -34.361   6.284   2.912  1.00 20.00    -0.012 A 
HETATM    4  C4  UNL     1     -33.005   7.882   3.814  1.00 20.00    -0.012 A 
HETATM    5  C6  UNL     1     -31.910   6.403   1.984  1.00 20.00     0.073 A 
HETATM    6  C7  UNL     1     -33.122   7.028   2.615  1.00 20.00     0.013 A 
HETATM    7  C8  UNL     1     -32.708   7.464   1.228  1.00 20.00    -0.021 A 
HETATM    8  C9  UNL     1     -32.050   8.812   1.037  1.00 20.00     0.017 C 
HETATM    9  C10 UNL     1     -33.556   7.062   0.041  1.00 20.00     0.017 C 
ENDROOT
BRANCH   5  10
HETATM   10  C5  UNL     1     -31.917   5.000   1.544  1.00 20.00     0.237 C 
HETATM   11  O11 UNL     1     -31.242   4.582   0.608  1.00 20.00    -0.306 OA
ENDBRANCH   5  10
TORSDOF 1
ENDMDL
MODEL 6
REMARK VINA RESULT:       2.2      2.056      3.504
REMARK  1 active torsions:
REMARK  status: ('A' for Active; 'I' for Inactive)
REMARK    1  A    between atoms: C5_5  and  C6_6 
ROOT
HETATM    1  C1  UNL     1     -32.107   4.501   1.392  1.00 20.00    -0.003 A 
HETATM    2  C2  UNL     1     -32.839   4.891   0.207  1.00 20.00    -0.003 A 
HETATM    3  C3  UNL     1     -32.069   5.556   2.226  1.00 20.00    -0.012 A 
HETATM    4  C4  UNL     1     -33.225   6.172   0.357  1.00 20.00    -0.012 A 
HETATM    5  C6  UNL     1     -33.636   7.648   2.452  1.00 20.00     0.073 A 
HETATM    6  C7  UNL     1     -32.768   6.721   1.650  1.00 20.00     0.013 A 
HETATM    7  C8  UNL     1     -32.328   8.154   1.846  1.00 20.00    -0.021 A 
HETATM    8  C9  UNL     1     -32.436   9.130   0.696  1.00 20.00     0.017 C 
HETATM    9  C10 UNL     1     -31.149   8.450   2.746  1.00 20.00     0.017 C 
ENDROOT
BRANCH   5  10
HETATM   10  C5  UNL     1     -33.781   7.490   3.907  1.00 20.00     0.237 C 
HETATM   11  O11 UNL     1     -34.728   6.915   4.434  1.00 20.00    -0.306 OA
ENDBRANCH   5  10
TORSDOF 1
ENDMDL
MODEL 7
REMARK VINA RESULT:       2.8      2.065      3.768
REMARK  1 active torsions:
REMARK  status: ('A' for Active; 'I' for Inactive)
REMARK    1  A    between atoms: C5_5  and  C6_6 
ROOT
HETATM    1  C1  UNL     1     -32.551   9.008   1.011  1.00 20.00    -0.003 A 
HETATM    2  C2  UNL     1     -31.607   7.920   0.883  1.00 20.00    -0.003 A 
HETATM    3  C3  UNL     1     -33.359   8.740   2.052  1.00 20.00    -0.012 A 
HETATM    4  C4  UNL     1     -31.869   7.024   1.852  1.00 20.00    -0.012 A 
HETATM    5  C6  UNL     1     -33.020   7.229   4.169  1.00 20.00     0.073 A 
HETATM    6  C7  UNL     1     -33.012   7.453   2.684  1.00 20.00     0.013 A 
HETATM    7  C8  UNL     1     -34.025   6.500   3.277  1.00 20.00    -0.021 A 
HETATM    8  C9  UNL     1     -33.835   5.010   3.104  1.00 20.00     0.017 C 
HETATM    9  C10 UNL     1     -35.484   6.897   3.310  1.00 20.00     0.017 C 
ENDROOT
BRANCH   5  10
HETATM   10  C5  UNL     1     -33.462   8.280   5.097  1.00 20.00     0.237 C 
HETATM   11  O11 UNL     1     -32.717   8.827   5.904  1.00 20.00    -0.306 OA
ENDBRANCH   5  10
TORSDOF 1
ENDMDL
MODEL 8
REMARK VINA RESULT:       2.9      3.160      4.673
REMARK  1 active torsions:
REMARK  status: ('A' for Active; 'I' for Inactive)
REMARK    1  A    between atoms: C5_5  and  C6_6 
ROOT
HETATM    1  C1  UNL     1     -31.798   5.715   1.164  1.00 20.00    -0.003 A 
HETATM    2  C2  UNL     1     -32.969   5.530   0.335  1.00 20.00    -0.003 A 
HETATM    3  C3  UNL     1     -32.198   5.767   2.447  1.00 20.00    -0.012 A 
HETATM    4  C4  UNL     1     -34.045   5.474   1.141  1.00 20.00    -0.012 A 
HETATM    5  C6  UNL     1     -34.339   4.830   3.638  1.00 20.00     0.073 A 
HETATM    6  C7  UNL     1     -33.662   5.627   2.559  1.00 20.00     0.013 A 
HETATM    7  C8  UNL     1     -34.505   6.349   3.585  1.00 20.00    -0.021 A 
HETATM    8  C9  UNL     1     -35.866   6.877   3.191  1.00 20.00     0.017 C 
HETATM    9  C10 UNL     1     -33.828   7.215   4.624  1.00 20.00     0.017 C 
ENDROOT
BRANCH   5  10
HETATM   10  C5  UNL     1     -33.567   4.195   4.716  1.00 20.00     0.237 C 
HETATM   11  O11 UNL     1     -33.342   2.990   4.766  1.00 20.00    -0.306 OA
ENDBRANCH   5  10
TORSDOF 1
ENDMDL
MODEL 9
REMARK VINA RESULT:       2.9      2.018      3.890
REMARK  1 active torsions:
REMARK  status: ('A' for Active; 'I' for Inactive)
REMARK    1  A    between atoms: C5_5  and  C6_6 
ROOT
HETATM    1  C1  UNL     1     -32.334   6.677   0.951  1.00 20.00    -0.003 A 
HETATM    2  C2  UNL     1     -31.932   5.374   1.432  1.00 20.00    -0.003 A 
HETATM    3  C3  UNL     1     -33.168   7.218   1.857  1.00 20.00    -0.012 A 
HETATM    4  C4  UNL     1     -32.533   5.163   2.617  1.00 20.00    -0.012 A 
HETATM    5  C6  UNL     1     -33.464   6.775   4.425  1.00 20.00     0.073 A 
HETATM    6  C7  UNL     1     -33.382   6.310   3.000  1.00 20.00     0.013 A 
HETATM    7  C8  UNL     1     -34.692   6.175   3.741  1.00 20.00    -0.021 A 
HETATM    8  C9  UNL     1     -35.144   4.811   4.212  1.00 20.00     0.017 C 
HETATM    9  C10 UNL     1     -35.852   7.069   3.362  1.00 20.00     0.017 C 
ENDROOT
BRANCH   5  10
HETATM   10  C5  UNL     1     -33.416   8.204   4.766  1.00 20.00     0.237 C 
HETATM   11  O11 UNL     1     -32.380   8.796   5.054  1.00 20.00    -0.306 OA
ENDBRANCH   5  10
TORSDOF 1
ENDMDL
