MODEL 1
REMARK VINA RESULT:      -0.2      0.000      0.000
REMARK  1 active torsions:
REMARK  status: ('A' for Active; 'I' for Inactive)
REMARK    1  A    between atoms: C3_3  and  C6_6 
ROOT
HETATM    1  C1  UNL     1     -32.556   7.614   2.367  1.00 20.00     0.005 C 
HETATM    2  C2  UNL     1     -32.873   6.343   2.067  1.00 20.00     0.040 C 
HETATM    3  C4  UNL     1     -33.164   8.347   3.520  1.00 20.00     0.033 C 
HETATM    4  C5  UNL     1     -33.886   7.383   4.455  1.00 20.00     0.049 C 
HETATM    5  C6  UNL     1     -34.655   6.317   3.668  1.00 20.00     0.116 C 
HETATM    6  C7  UNL     1     -32.232   5.601   0.937  1.00 20.00     0.076 C 
HETATM    7  C8  UNL     1     -35.878   6.868   2.932  1.00 20.00     0.054 C 
HETATM    8  O10 UNL     1     -33.815   5.599   2.752  1.00 20.00    -0.338 OA
ENDROOT
BRANCH   5   9
HETATM    9  C3  UNL     1     -35.101   5.231   4.603  1.00 20.00     0.269 C 
HETATM   10  O9  UNL     1     -34.658   4.087   4.572  1.00 20.00    -0.304 OA
ENDBRANCH   5   9
TORSDOF 1
ENDMDL
MODEL 2
REMARK VINA RESULT:      -0.1      1.589      3.497
REMARK  1 active torsions:
REMARK  status: ('A' for Active; 'I' for Inactive)
REMARK    1  A    between atoms: C3_3  and  C6_6 
ROOT
HETATM    1  C1  UNL     1     -35.161   4.897   4.517  1.00 20.00     0.005 C 
HETATM    2  C2  UNL     1     -33.953   4.495   4.088  1.00 20.00     0.040 C 
HETATM    3  C4  UNL     1     -35.769   6.201   4.110  1.00 20.00     0.033 C 
HETATM    4  C5  UNL     1     -35.015   6.807   2.931  1.00 20.00     0.049 C 
HETATM    5  C6  UNL     1     -33.501   6.625   3.088  1.00 20.00     0.116 C 
HETATM    6  C7  UNL     1     -33.367   3.171   4.465  1.00 20.00     0.076 C 
HETATM    7  C8  UNL     1     -32.897   7.482   4.201  1.00 20.00     0.054 C 
HETATM    8  O10 UNL     1     -33.131   5.250   3.273  1.00 20.00    -0.338 OA
ENDROOT
BRANCH   5   9
HETATM    9  C3  UNL     1     -32.821   6.961   1.793  1.00 20.00     0.269 C 
HETATM   10  O9  UNL     1     -32.069   7.920   1.652  1.00 20.00    -0.304 OA
ENDBRANCH   5   9
TORSDOF 1
ENDMDL
MODEL 3
REMARK VINA RESULT:       0.4      2.176      3.813
REMARK  1 active torsions:
REMARK  status: ('A' for Active; 'I' for Inactive)
REMARK    1  A    between atoms: C3_3  and  C6_6 
ROOT
HETATM    1  C1  UNL     1     -33.482   5.841   2.808  1.00 20.00     0.005 C 
HETATM    2  C2  UNL     1     -32.707   5.990   1.720  1.00 20.00     0.040 C 
HETATM    3  C4  UNL     1     -33.986   7.001   3.605  1.00 20.00     0.033 C 
HETATM    4  C5  UNL     1     -33.794   8.307   2.842  1.00 20.00     0.049 C 
HETATM    5  C6  UNL     1     -32.441   8.336   2.123  1.00 20.00     0.116 C 
HETATM    6  C7  UNL     1     -32.240   4.828   0.902  1.00 20.00     0.076 C 
HETATM    7  C8  UNL     1     -31.248   8.457   3.073  1.00 20.00     0.054 C 
HETATM    8  O10 UNL     1     -32.259   7.210   1.251  1.00 20.00    -0.338 OA
ENDROOT
BRANCH   5   9
HETATM    9  C3  UNL     1     -32.413   9.487   1.160  1.00 20.00     0.269 C 
HETATM   10  O9  UNL     1     -32.329   9.350  -0.057  1.00 20.00    -0.304 OA
ENDBRANCH   5   9
TORSDOF 1
ENDMDL
MODEL 4
REMARK VINA RESULT:       0.5      1.752      2.746
REMARK  1 active torsions:
REMARK  status: ('A' for Active; 'I' for Inactive)
REMARK    1  A    between atoms: C3_3  and  C6_6 
ROOT
HETATM    1  C1  UNL     1     -31.723   7.558   1.132  1.00 20.00     0.005 C 
HETATM    2  C2  UNL     1     -32.597   8.549   1.378  1.00 20.00     0.040 C 
HETATM    3  C4  UNL     1     -31.807   6.224   1.801  1.00 20.00     0.033 C 
HETATM    4  C5  UNL     1     -33.153   6.048   2.495  1.00 20.00     0.049 C 
HETATM    5  C6  UNL     1     -33.590   7.341   3.193  1.00 20.00     0.116 C 
HETATM    6  C7  UNL     1     -32.534   9.867   0.674  1.00 20.00     0.076 C 
HETATM    7  C8  UNL     1     -32.750   7.684   4.424  1.00 20.00     0.054 C 
HETATM    8  O10 UNL     1     -33.626   8.462   2.296  1.00 20.00    -0.338 OA
ENDROOT
BRANCH   5   9
HETATM    9  C3  UNL     1     -35.029   7.223   3.604  1.00 20.00     0.269 C 
HETATM   10  O9  UNL     1     -35.518   6.200   4.074  1.00 20.00    -0.304 OA
ENDBRANCH   5   9
TORSDOF 1
ENDMDL
MODEL 5
REMARK VINA RESULT:       0.7      1.895      3.900
REMARK  1 active torsions:
REMARK  status: ('A' for Active; 'I' for Inactive)
REMARK    1  A    between atoms: C3_3  and  C6_6 
ROOT
HETATM    1  C1  UNL     1     -33.749   5.531   2.115  1.00 20.00     0.005 C 
HETATM    2  C2  UNL     1     -33.977   6.498   3.020  1.00 20.00     0.040 C 
HETATM    3  C4  UNL     1     -32.563   5.540   1.205  1.00 20.00     0.033 C 
HETATM    4  C5  UNL     1     -31.531   6.561   1.669  1.00 20.00     0.049 C 
HETATM    5  C6  UNL     1     -32.204   7.852   2.148  1.00 20.00     0.116 C 
HETATM    6  C7  UNL     1     -35.142   6.462   3.957  1.00 20.00     0.076 C 
HETATM    7  C8  UNL     1     -32.828   8.670   1.017  1.00 20.00     0.054 C 
HETATM    8  O10 UNL     1     -33.178   7.614   3.176  1.00 20.00    -0.338 OA
ENDROOT
BRANCH   5   9
HETATM    9  C3  UNL     1     -31.195   8.705   2.863  1.00 20.00     0.269 C 
HETATM   10  O9  UNL     1     -31.330   9.084   4.022  1.00 20.00    -0.304 OA
ENDBRANCH   5   9
TORSDOF 1
ENDMDL
MODEL 6
REMARK VINA RESULT:       0.9      1.782      2.855
REMARK  1 active torsions:
REMARK  status: ('A' for Active; 'I' for Inactive)
REMARK    1  A    between atoms: C3_3  and  C6_6 
ROOT
HETATM    1  C1  UNL     1     -33.167   4.555   2.356  1.00 20.00     0.005 C 
HETATM    2  C2  UNL     1     -33.549   4.493   3.643  1.00 20.00     0.040 C 
HETATM    3  C4  UNL     1     -33.100   5.840   1.594  1.00 20.00     0.033 C 
HETATM    4  C5  UNL     1     -33.186   7.034   2.538  1.00 20.00     0.049 C 
HETATM    5  C6  UNL     1     -34.217   6.794   3.646  1.00 20.00     0.116 C 
HETATM    6  C7  UNL     1     -33.575   3.210   4.412  1.00 20.00     0.076 C 
HETATM    7  C8  UNL     1     -35.662   6.803   3.145  1.00 20.00     0.054 C 
HETATM    8  O10 UNL     1     -33.961   5.586   4.380  1.00 20.00    -0.338 OA
ENDROOT
BRANCH   5   9
HETATM    9  C3  UNL     1     -34.063   7.845   4.707  1.00 20.00     0.269 C 
HETATM   10  O9  UNL     1     -32.976   8.246   5.110  1.00 20.00    -0.304 OA
ENDBRANCH   5   9
TORSDOF 1
ENDMDL
MODEL 7
REMARK VINA RESULT:       0.9      1.317      3.404
REMARK  1 active torsions:
REMARK  status: ('A' for Active; 'I' for Inactive)
REMARK    1  A    between atoms: C3_3  and  C6_6 
ROOT
HETATM    1  C1  UNL     1     -33.387   7.648   3.743  1.00 20.00     0.005 C 
HETATM    2  C2  UNL     1     -34.158   6.585   3.457  1.00 20.00     0.040 C 
HETATM    3  C4  UNL     1     -32.291   8.116   2.841  1.00 20.00     0.033 C 
HETATM    4  C5  UNL     1     -32.402   7.463   1.468  1.00 20.00     0.049 C 
HETATM    5  C6  UNL     1     -32.788   5.985   1.585  1.00 20.00     0.116 C 
HETATM    6  C7  UNL     1     -35.280   6.145   4.343  1.00 20.00     0.076 C 
HETATM    7  C8  UNL     1     -31.673   5.108   2.156  1.00 20.00     0.054 C 
HETATM    8  O10 UNL     1     -33.996   5.791   2.337  1.00 20.00    -0.338 OA
ENDROOT
BRANCH   5   9
HETATM    9  C3  UNL     1     -33.173   5.460   0.232  1.00 20.00     0.269 C 
HETATM   10  O9  UNL     1     -33.175   4.268  -0.057  1.00 20.00    -0.304 OA
ENDBRANCH   5   9
TORSDOF 1
ENDMDL
MODEL 8
REMARK VINA RESULT:       1.6      2.068      3.361
REMARK  1 active torsions:
REMARK  status: ('A' for Active; 'I' for Inactive)
REMARK    1  A    between atoms: C3_3  and  C6_6 
ROOT
HETATM    1  C1  UNL     1     -33.578   7.731   3.044  1.00 20.00     0.005 C 
HETATM    2  C2  UNL     1     -32.605   7.879   2.128  1.00 20.00     0.040 C 
HETATM    3  C4  UNL     1     -34.117   6.395   3.441  1.00 20.00     0.033 C 
HETATM    4  C5  UNL     1     -33.212   5.275   2.941  1.00 20.00     0.049 C 
HETATM    5  C6  UNL     1     -32.703   5.562   1.525  1.00 20.00     0.116 C 
HETATM    6  C7  UNL     1     -32.040   9.215   1.764  1.00 20.00     0.076 C 
HETATM    7  C8  UNL     1     -33.790   5.461   0.454  1.00 20.00     0.054 C 
HETATM    8  O10 UNL     1     -32.037   6.831   1.428  1.00 20.00    -0.338 OA
ENDROOT
BRANCH   5   9
HETATM    9  C3  UNL     1     -31.598   4.602   1.187  1.00 20.00     0.269 C 
HETATM   10  O9  UNL     1     -31.388   4.184   0.053  1.00 20.00    -0.304 OA
ENDBRANCH   5   9
TORSDOF 1
ENDMDL
MODEL 9
REMARK VINA RESULT:       1.6      1.351      2.526
REMARK  1 active torsions:
REMARK  status: ('A' for Active; 'I' for Inactive)
REMARK    1  A    between atoms: C3_3  and  C6_6 
ROOT
HETATM    1  C1  UNL     1     -31.975   7.083   1.554  1.00 20.00     0.005 C 
HETATM    2  C2  UNL     1     -32.326   7.678   2.707  1.00 20.00     0.040 C 
HETATM    3  C4  UNL     1     -32.712   5.909   0.995  1.00 20.00     0.033 C 
HETATM    4  C5  UNL     1     -34.050   5.722   1.702  1.00 20.00     0.049 C 
HETATM    5  C6  UNL     1     -33.919   5.961   3.210  1.00 20.00     0.116 C 
HETATM    6  C7  UNL     1     -31.610   8.878   3.242  1.00 20.00     0.076 C 
HETATM    7  C8  UNL     1     -33.132   4.868   3.935  1.00 20.00     0.054 C 
HETATM    8  O10 UNL     1     -33.362   7.249   3.514  1.00 20.00    -0.338 OA
ENDROOT
BRANCH   5   9
HETATM    9  C3  UNL     1     -35.288   6.059   3.820  1.00 20.00     0.269 C 
HETATM   10  O9  UNL     1     -35.754   5.214   4.577  1.00 20.00    -0.304 OA
ENDBRANCH   5   9
TORSDOF 1
ENDMDL
