MODEL 1
REMARK VINA RESULT:      -2.2      0.000      0.000
REMARK  1 active torsions:
REMARK  status: ('A' for Active; 'I' for Inactive)
REMARK    1  A    between atoms: C2_2  and  C3_3 
ROOT
HETATM    1  C1  UNL     1     -33.314   7.558   3.533  1.00 20.00     0.011 C 
HETATM    2  C2  UNL     1     -33.614   6.337   3.072  1.00 20.00     0.004 C 
HETATM    3  C4  UNL     1     -32.393   8.469   2.775  1.00 20.00     0.195 C 
HETATM    4  C5  UNL     1     -33.030   5.803   1.802  1.00 20.00     0.069 C 
HETATM    5  C6  UNL     1     -31.824   6.637   1.374  1.00 20.00     0.172 C 
HETATM    6  O8  UNL     1     -32.156   8.026   1.432  1.00 20.00    -0.387 OA
ENDROOT
BRANCH   2   7
HETATM    7  C3  UNL     1     -34.522   5.496   3.854  1.00 20.00     0.248 C 
HETATM    8  O7  UNL     1     -35.611   5.959   4.211  1.00 20.00    -0.274 OA
HETATM    9 CL9  UNL     1     -33.982   3.873   4.227  1.00 20.00    -0.039 Cl
ENDBRANCH   2   7
TORSDOF 1
ENDMDL
MODEL 2
REMARK VINA RESULT:      -2.0      0.369      1.655
REMARK  1 active torsions:
REMARK  status: ('A' for Active; 'I' for Inactive)
REMARK    1  A    between atoms: C2_2  and  C3_3 
ROOT
HETATM    1  C1  UNL     1     -33.055   5.697   1.928  1.00 20.00     0.011 C 
HETATM    2  C2  UNL     1     -33.550   6.262   3.037  1.00 20.00     0.004 C 
HETATM    3  C4  UNL     1     -32.069   6.424   1.060  1.00 20.00     0.195 C 
HETATM    4  C5  UNL     1     -33.177   7.651   3.453  1.00 20.00     0.069 C 
HETATM    5  C6  UNL     1     -32.525   8.401   2.293  1.00 20.00     0.172 C 
HETATM    6  O8  UNL     1     -31.517   7.582   1.697  1.00 20.00    -0.387 OA
ENDROOT
BRANCH   2   7
HETATM    7  C3  UNL     1     -34.504   5.502   3.846  1.00 20.00     0.248 C 
HETATM    8  O7  UNL     1     -35.578   6.028   4.159  1.00 20.00    -0.274 OA
HETATM    9 CL9  UNL     1     -34.038   3.881   4.313  1.00 20.00    -0.039 Cl
ENDBRANCH   2   7
TORSDOF 1
ENDMDL
MODEL 3
REMARK VINA RESULT:      -1.5      1.580      2.197
REMARK  1 active torsions:
REMARK  status: ('A' for Active; 'I' for Inactive)
REMARK    1  A    between atoms: C2_2  and  C3_3 
ROOT
HETATM    1  C1  UNL     1     -33.332   5.930   2.344  1.00 20.00     0.011 C 
HETATM    2  C2  UNL     1     -33.349   7.065   3.055  1.00 20.00     0.004 C 
HETATM    3  C4  UNL     1     -32.383   5.748   1.195  1.00 20.00     0.195 C 
HETATM    4  C5  UNL     1     -32.454   8.219   2.728  1.00 20.00     0.069 C 
HETATM    5  C6  UNL     1     -31.869   8.063   1.325  1.00 20.00     0.172 C 
HETATM    6  O8  UNL     1     -31.350   6.741   1.166  1.00 20.00    -0.387 OA
ENDROOT
BRANCH   2   7
HETATM    7  C3  UNL     1     -34.293   7.182   4.167  1.00 20.00     0.248 C 
HETATM    8  O7  UNL     1     -34.139   8.088   4.992  1.00 20.00    -0.274 OA
HETATM    9 CL9  UNL     1     -35.589   6.006   4.239  1.00 20.00    -0.039 Cl
ENDBRANCH   2   7
TORSDOF 1
ENDMDL
MODEL 4
REMARK VINA RESULT:      -1.3      2.255      4.066
REMARK  1 active torsions:
REMARK  status: ('A' for Active; 'I' for Inactive)
REMARK    1  A    between atoms: C2_2  and  C3_3 
ROOT
HETATM    1  C1  UNL     1     -33.307   4.679   3.341  1.00 20.00     0.011 C 
HETATM    2  C2  UNL     1     -33.437   5.896   2.797  1.00 20.00     0.004 C 
HETATM    3  C4  UNL     1     -34.282   4.178   4.366  1.00 20.00     0.195 C 
HETATM    4  C5  UNL     1     -34.534   6.831   3.200  1.00 20.00     0.069 C 
HETATM    5  C6  UNL     1     -35.172   6.376   4.511  1.00 20.00     0.172 C 
HETATM    6  O8  UNL     1     -35.468   4.980   4.441  1.00 20.00    -0.387 OA
ENDROOT
BRANCH   2   7
HETATM    7  C3  UNL     1     -32.458   6.326   1.798  1.00 20.00     0.248 C 
HETATM    8  O7  UNL     1     -31.936   5.478   1.065  1.00 20.00    -0.274 OA
HETATM    9 CL9  UNL     1     -32.096   8.037   1.721  1.00 20.00    -0.039 Cl
ENDBRANCH   2   7
TORSDOF 1
ENDMDL
MODEL 5
REMARK VINA RESULT:      -1.2      1.530      1.627
REMARK  1 active torsions:
REMARK  status: ('A' for Active; 'I' for Inactive)
REMARK    1  A    between atoms: C2_2  and  C3_3 
ROOT
HETATM    1  C1  UNL     1     -32.567   8.105   2.747  1.00 20.00     0.011 C 
HETATM    2  C2  UNL     1     -33.361   7.059   3.008  1.00 20.00     0.004 C 
HETATM    3  C4  UNL     1     -31.589   8.073   1.608  1.00 20.00     0.195 C 
HETATM    4  C5  UNL     1     -33.298   5.796   2.206  1.00 20.00     0.069 C 
HETATM    5  C6  UNL     1     -32.011   5.746   1.386  1.00 20.00     0.172 C 
HETATM    6  O8  UNL     1     -31.828   6.988   0.703  1.00 20.00    -0.387 OA
ENDROOT
BRANCH   2   7
HETATM    7  C3  UNL     1     -34.298   7.152   4.128  1.00 20.00     0.248 C 
HETATM    8  O7  UNL     1     -34.152   8.056   4.958  1.00 20.00    -0.274 OA
HETATM    9 CL9  UNL     1     -35.571   5.953   4.205  1.00 20.00    -0.039 Cl
ENDBRANCH   2   7
TORSDOF 1
ENDMDL
MODEL 6
REMARK VINA RESULT:      -1.1      2.467      4.195
REMARK  1 active torsions:
REMARK  status: ('A' for Active; 'I' for Inactive)
REMARK    1  A    between atoms: C2_2  and  C3_3 
ROOT
HETATM    1  C1  UNL     1     -33.197   6.099   2.385  1.00 20.00     0.011 C 
HETATM    2  C2  UNL     1     -33.011   7.421   2.482  1.00 20.00     0.004 C 
HETATM    3  C4  UNL     1     -34.184   5.386   3.264  1.00 20.00     0.195 C 
HETATM    4  C5  UNL     1     -33.745   8.254   3.486  1.00 20.00     0.069 C 
HETATM    5  C6  UNL     1     -34.372   7.368   4.561  1.00 20.00     0.172 C 
HETATM    6  O8  UNL     1     -35.071   6.285   3.943  1.00 20.00    -0.387 OA
ENDROOT
BRANCH   2   7
HETATM    7  C3  UNL     1     -32.039   8.059   1.594  1.00 20.00     0.248 C 
HETATM    8  O7  UNL     1     -30.912   7.564   1.483  1.00 20.00    -0.274 OA
HETATM    9 CL9  UNL     1     -32.560   9.499   0.745  1.00 20.00    -0.039 Cl
ENDBRANCH   2   7
TORSDOF 1
ENDMDL
MODEL 7
REMARK VINA RESULT:      -1.1      1.656      3.778
REMARK  1 active torsions:
REMARK  status: ('A' for Active; 'I' for Inactive)
REMARK    1  A    between atoms: C2_2  and  C3_3 
ROOT
HETATM    1  C1  UNL     1     -33.582   5.106   3.064  1.00 20.00     0.011 C 
HETATM    2  C2  UNL     1     -33.246   6.336   2.653  1.00 20.00     0.004 C 
HETATM    3  C4  UNL     1     -34.664   4.896   4.083  1.00 20.00     0.195 C 
HETATM    4  C5  UNL     1     -33.902   7.563   3.205  1.00 20.00     0.069 C 
HETATM    5  C6  UNL     1     -34.652   7.235   4.495  1.00 20.00     0.172 C 
HETATM    6  O8  UNL     1     -35.457   6.070   4.300  1.00 20.00    -0.387 OA
ENDROOT
BRANCH   2   7
HETATM    7  C3  UNL     1     -32.187   6.477   1.654  1.00 20.00     0.248 C 
HETATM    8  O7  UNL     1     -31.662   7.584   1.487  1.00 20.00    -0.274 OA
HETATM    9 CL9  UNL     1     -31.740   5.041   0.758  1.00 20.00    -0.039 Cl
ENDBRANCH   2   7
TORSDOF 1
ENDMDL
MODEL 8
REMARK VINA RESULT:      -0.5      2.674      4.012
REMARK  1 active torsions:
REMARK  status: ('A' for Active; 'I' for Inactive)
REMARK    1  A    between atoms: C2_2  and  C3_3 
ROOT
HETATM    1  C1  UNL     1     -33.450   8.115   3.050  1.00 20.00     0.011 C 
HETATM    2  C2  UNL     1     -32.739   7.627   2.025  1.00 20.00     0.004 C 
HETATM    3  C4  UNL     1     -34.230   7.206   3.956  1.00 20.00     0.195 C 
HETATM    4  C5  UNL     1     -32.707   6.165   1.706  1.00 20.00     0.069 C 
HETATM    5  C6  UNL     1     -33.845   5.437   2.419  1.00 20.00     0.172 C 
HETATM    6  O8  UNL     1     -33.878   5.826   3.793  1.00 20.00    -0.387 OA
ENDROOT
BRANCH   2   7
HETATM    7  C3  UNL     1     -31.995   8.563   1.180  1.00 20.00     0.248 C 
HETATM    8  O7  UNL     1     -30.871   8.245   0.779  1.00 20.00    -0.274 OA
HETATM    9 CL9  UNL     1     -32.773  10.085   0.800  1.00 20.00    -0.039 Cl
ENDBRANCH   2   7
TORSDOF 1
ENDMDL
MODEL 9
REMARK VINA RESULT:      -0.3      2.263      3.836
REMARK  1 active torsions:
REMARK  status: ('A' for Active; 'I' for Inactive)
REMARK    1  A    between atoms: C2_2  and  C3_3 
ROOT
HETATM    1  C1  UNL     1     -34.416   6.777   3.036  1.00 20.00     0.011 C 
HETATM    2  C2  UNL     1     -33.367   5.983   2.785  1.00 20.00     0.004 C 
HETATM    3  C4  UNL     1     -35.477   6.376   4.019  1.00 20.00     0.195 C 
HETATM    4  C5  UNL     1     -33.210   4.647   3.441  1.00 20.00     0.069 C 
HETATM    5  C6  UNL     1     -34.529   4.198   4.066  1.00 20.00     0.172 C 
HETATM    6  O8  UNL     1     -35.083   5.267   4.837  1.00 20.00    -0.387 OA
ENDROOT
BRANCH   2   7
HETATM    7  C3  UNL     1     -32.364   6.432   1.820  1.00 20.00     0.248 C 
HETATM    8  O7  UNL     1     -31.780   5.591   1.126  1.00 20.00    -0.274 OA
HETATM    9 CL9  UNL     1     -32.064   8.154   1.723  1.00 20.00    -0.039 Cl
ENDBRANCH   2   7
TORSDOF 1
ENDMDL
