MODEL 1
REMARK VINA RESULT:       2.3      0.000      0.000
REMARK  1 active torsions:
REMARK  status: ('A' for Active; 'I' for Inactive)
REMARK    1  A    between atoms: C5_5  and  C9_9 
ROOT
HETATM    1  C1  UNL     1     -31.455   6.654   1.986  1.00 20.00    -0.021 C 
HETATM    2  C2  UNL     1     -32.354   5.808   1.456  1.00 20.00    -0.024 C 
HETATM    3  C3  UNL     1     -33.116   7.533   3.578  1.00 20.00    -0.065 C 
HETATM    4  C4  UNL     1     -33.020   8.031   4.815  1.00 20.00     0.016 C 
HETATM    5  C6  UNL     1     -33.248   7.920   1.284  1.00 20.00     0.023 C 
HETATM    6  C7  UNL     1     -32.207   7.893   2.410  1.00 20.00     0.038 C 
HETATM    7  C8  UNL     1     -33.716   6.479   1.547  1.00 20.00     0.028 C 
HETATM    8  C9  UNL     1     -34.177   6.565   3.038  1.00 20.00     0.046 C 
HETATM    9  C11 UNL     1     -35.606   7.098   3.180  1.00 20.00     0.029 C 
ENDROOT
BRANCH   8  10
HETATM   10  C5  UNL     1     -34.082   5.229   3.733  1.00 20.00     0.136 C 
HETATM   11  C10 UNL     1     -35.197   4.879   4.682  1.00 20.00     0.092 C 
HETATM   12  O12 UNL     1     -33.142   4.461   3.531  1.00 20.00    -0.297 OA
ENDBRANCH   8  10
TORSDOF 1
ENDMDL
MODEL 2
REMARK VINA RESULT:       2.8      1.201      3.310
REMARK  1 active torsions:
REMARK  status: ('A' for Active; 'I' for Inactive)
REMARK    1  A    between atoms: C5_5  and  C9_9 
ROOT
HETATM    1  C1  UNL     1     -33.860   7.290   4.723  1.00 20.00    -0.021 C 
HETATM    2  C2  UNL     1     -33.682   8.064   3.640  1.00 20.00    -0.024 C 
HETATM    3  C3  UNL     1     -33.823   5.243   3.353  1.00 20.00    -0.065 C 
HETATM    4  C4  UNL     1     -33.427   3.989   3.596  1.00 20.00     0.016 C 
HETATM    5  C6  UNL     1     -35.558   6.794   3.247  1.00 20.00     0.023 C 
HETATM    6  C7  UNL     1     -34.674   6.095   4.286  1.00 20.00     0.038 C 
HETATM    7  C8  UNL     1     -34.364   7.371   2.470  1.00 20.00     0.028 C 
HETATM    8  C9  UNL     1     -33.584   6.072   2.084  1.00 20.00     0.046 C 
HETATM    9  C11 UNL     1     -34.138   5.410   0.819  1.00 20.00     0.029 C 
ENDROOT
BRANCH   8  10
HETATM   10  C5  UNL     1     -32.111   6.338   1.891  1.00 20.00     0.136 C 
HETATM   11  C10 UNL     1     -31.697   7.777   1.746  1.00 20.00     0.092 C 
HETATM   12  O12 UNL     1     -31.288   5.423   1.858  1.00 20.00    -0.297 OA
ENDBRANCH   8  10
TORSDOF 1
ENDMDL
MODEL 3
REMARK VINA RESULT:       3.6      2.124      3.733
REMARK  1 active torsions:
REMARK  status: ('A' for Active; 'I' for Inactive)
REMARK    1  A    between atoms: C5_5  and  C9_9 
ROOT
HETATM    1  C1  UNL     1     -34.072   5.912   1.159  1.00 20.00    -0.021 C 
HETATM    2  C2  UNL     1     -33.131   6.368   0.315  1.00 20.00    -0.024 C 
HETATM    3  C3  UNL     1     -33.232   7.343   2.980  1.00 20.00    -0.065 C 
HETATM    4  C4  UNL     1     -33.824   7.939   4.019  1.00 20.00     0.016 C 
HETATM    5  C6  UNL     1     -32.027   5.530   2.149  1.00 20.00     0.023 C 
HETATM    6  C7  UNL     1     -33.462   5.903   2.540  1.00 20.00     0.038 C 
HETATM    7  C8  UNL     1     -31.894   6.684   1.142  1.00 20.00     0.028 C 
HETATM    8  C9  UNL     1     -32.157   7.927   2.053  1.00 20.00     0.046 C 
HETATM    9  C11 UNL     1     -30.900   8.382   2.800  1.00 20.00     0.029 C 
ENDROOT
BRANCH   8  10
HETATM   10  C5  UNL     1     -32.708   9.093   1.267  1.00 20.00     0.136 C 
HETATM   11  C10 UNL     1     -32.050   9.388  -0.054  1.00 20.00     0.092 C 
HETATM   12  O12 UNL     1     -33.650   9.765   1.684  1.00 20.00    -0.297 OA
ENDBRANCH   8  10
TORSDOF 1
ENDMDL
MODEL 4
REMARK VINA RESULT:       3.8      1.555      3.569
REMARK  1 active torsions:
REMARK  status: ('A' for Active; 'I' for Inactive)
REMARK    1  A    between atoms: C5_5  and  C9_9 
ROOT
HETATM    1  C1  UNL     1     -33.519   7.078   4.759  1.00 20.00    -0.021 C 
HETATM    2  C2  UNL     1     -33.836   8.148   4.011  1.00 20.00    -0.024 C 
HETATM    3  C3  UNL     1     -33.090   5.714   2.753  1.00 20.00    -0.065 C 
HETATM    4  C4  UNL     1     -32.260   4.697   2.501  1.00 20.00     0.016 C 
HETATM    5  C6  UNL     1     -35.223   6.439   3.346  1.00 20.00     0.023 C 
HETATM    6  C7  UNL     1     -33.963   5.854   3.993  1.00 20.00     0.038 C 
HETATM    7  C8  UNL     1     -34.475   7.633   2.730  1.00 20.00     0.028 C 
HETATM    8  C9  UNL     1     -33.407   6.911   1.845  1.00 20.00     0.046 C 
HETATM    9  C11 UNL     1     -33.959   6.501   0.478  1.00 20.00     0.029 C 
ENDROOT
BRANCH   8  10
HETATM   10  C5  UNL     1     -32.178   7.764   1.641  1.00 20.00     0.136 C 
HETATM   11  C10 UNL     1     -32.358   9.028   0.844  1.00 20.00     0.092 C 
HETATM   12  O12 UNL     1     -31.085   7.444   2.106  1.00 20.00    -0.297 OA
ENDBRANCH   8  10
TORSDOF 1
ENDMDL
MODEL 5
REMARK VINA RESULT:       4.0      1.287      2.459
REMARK  1 active torsions:
REMARK  status: ('A' for Active; 'I' for Inactive)
REMARK    1  A    between atoms: C5_5  and  C9_9 
ROOT
HETATM    1  C1  UNL     1     -31.443   8.273   3.096  1.00 20.00    -0.021 C 
HETATM    2  C2  UNL     1     -30.933   7.701   1.994  1.00 20.00    -0.024 C 
HETATM    3  C3  UNL     1     -33.620   7.176   2.743  1.00 20.00    -0.065 C 
HETATM    4  C4  UNL     1     -34.573   6.749   3.578  1.00 20.00     0.016 C 
HETATM    5  C6  UNL     1     -32.813   8.849   1.336  1.00 20.00     0.023 C 
HETATM    6  C7  UNL     1     -32.909   8.520   2.830  1.00 20.00     0.038 C 
HETATM    7  C8  UNL     1     -32.070   7.547   0.995  1.00 20.00     0.028 C 
HETATM    8  C9  UNL     1     -33.083   6.466   1.493  1.00 20.00     0.046 C 
HETATM    9  C11 UNL     1     -34.171   6.162   0.459  1.00 20.00     0.029 C 
ENDROOT
BRANCH   8  10
HETATM   10  C5  UNL     1     -32.391   5.178   1.868  1.00 20.00     0.136 C 
HETATM   11  C10 UNL     1     -31.409   4.623   0.872  1.00 20.00     0.092 C 
HETATM   12  O12 UNL     1     -32.616   4.612   2.937  1.00 20.00    -0.297 OA
ENDBRANCH   8  10
TORSDOF 1
ENDMDL
MODEL 6
REMARK VINA RESULT:       4.4      1.454      2.383
REMARK  1 active torsions:
REMARK  status: ('A' for Active; 'I' for Inactive)
REMARK    1  A    between atoms: C5_5  and  C9_9 
ROOT
HETATM    1  C1  UNL     1     -33.379   5.340   0.774  1.00 20.00    -0.021 C 
HETATM    2  C2  UNL     1     -34.014   6.518   0.885  1.00 20.00    -0.024 C 
HETATM    3  C3  UNL     1     -32.945   5.266   3.198  1.00 20.00    -0.065 C 
HETATM    4  C4  UNL     1     -32.824   4.264   4.074  1.00 20.00     0.016 C 
HETATM    5  C6  UNL     1     -31.919   6.808   1.785  1.00 20.00     0.023 C 
HETATM    6  C7  UNL     1     -32.292   5.321   1.824  1.00 20.00     0.038 C 
HETATM    7  C8  UNL     1     -33.361   7.280   2.028  1.00 20.00     0.028 C 
HETATM    8  C9  UNL     1     -33.691   6.594   3.393  1.00 20.00     0.046 C 
HETATM    9  C11 UNL     1     -33.183   7.400   4.592  1.00 20.00     0.029 C 
ENDROOT
BRANCH   8  10
HETATM   10  C5  UNL     1     -35.172   6.353   3.557  1.00 20.00     0.136 C 
HETATM   11  C10 UNL     1     -35.578   5.219   4.460  1.00 20.00     0.092 C 
HETATM   12  O12 UNL     1     -36.007   7.052   2.984  1.00 20.00    -0.297 OA
ENDBRANCH   8  10
TORSDOF 1
ENDMDL
MODEL 7
REMARK VINA RESULT:       4.5      1.619      3.342
REMARK  1 active torsions:
REMARK  status: ('A' for Active; 'I' for Inactive)
REMARK    1  A    between atoms: C5_5  and  C9_9 
ROOT
HETATM    1  C1  UNL     1     -34.878   7.428   3.312  1.00 20.00    -0.021 C 
HETATM    2  C2  UNL     1     -34.974   6.096   3.166  1.00 20.00    -0.024 C 
HETATM    3  C3  UNL     1     -32.719   7.473   2.126  1.00 20.00    -0.065 C 
HETATM    4  C4  UNL     1     -32.119   8.386   1.357  1.00 20.00     0.016 C 
HETATM    5  C6  UNL     1     -32.977   6.505   4.230  1.00 20.00     0.023 C 
HETATM    6  C7  UNL     1     -33.410   7.754   3.454  1.00 20.00     0.038 C 
HETATM    7  C8  UNL     1     -33.560   5.534   3.190  1.00 20.00     0.028 C 
HETATM    8  C9  UNL     1     -32.789   5.957   1.898  1.00 20.00     0.046 C 
HETATM    9  C11 UNL     1     -31.410   5.298   1.797  1.00 20.00     0.029 C 
ENDROOT
BRANCH   8  10
HETATM   10  C5  UNL     1     -33.574   5.642   0.648  1.00 20.00     0.136 C 
HETATM   11  C10 UNL     1     -33.428   4.252   0.089  1.00 20.00     0.092 C 
HETATM   12  O12 UNL     1     -34.300   6.479   0.113  1.00 20.00    -0.297 OA
ENDBRANCH   8  10
TORSDOF 1
ENDMDL
MODEL 8
REMARK VINA RESULT:       4.6      1.624      2.826
REMARK  1 active torsions:
REMARK  status: ('A' for Active; 'I' for Inactive)
REMARK    1  A    between atoms: C5_5  and  C9_9 
ROOT
HETATM    1  C1  UNL     1     -32.576   8.836   1.236  1.00 20.00    -0.021 C 
HETATM    2  C2  UNL     1     -32.366   8.811   2.562  1.00 20.00    -0.024 C 
HETATM    3  C3  UNL     1     -33.370   6.504   1.246  1.00 20.00    -0.065 C 
HETATM    4  C4  UNL     1     -34.254   5.838   0.497  1.00 20.00     0.016 C 
HETATM    5  C6  UNL     1     -31.151   7.078   1.666  1.00 20.00     0.023 C 
HETATM    6  C7  UNL     1     -32.296   7.446   0.716  1.00 20.00     0.038 C 
HETATM    7  C8  UNL     1     -31.965   7.391   2.932  1.00 20.00     0.028 C 
HETATM    8  C9  UNL     1     -33.184   6.426   2.768  1.00 20.00     0.046 C 
HETATM    9  C11 UNL     1     -32.881   5.010   3.265  1.00 20.00     0.029 C 
ENDROOT
BRANCH   8  10
HETATM   10  C5  UNL     1     -34.410   6.943   3.481  1.00 20.00     0.136 C 
HETATM   11  C10 UNL     1     -35.383   5.913   3.987  1.00 20.00     0.092 C 
HETATM   12  O12 UNL     1     -34.602   8.148   3.644  1.00 20.00    -0.297 OA
ENDBRANCH   8  10
TORSDOF 1
ENDMDL
MODEL 9
REMARK VINA RESULT:       4.7      1.366      2.745
REMARK  1 active torsions:
REMARK  status: ('A' for Active; 'I' for Inactive)
REMARK    1  A    between atoms: C5_5  and  C9_9 
ROOT
HETATM    1  C1  UNL     1     -34.020   8.104   5.021  1.00 20.00    -0.021 C 
HETATM    2  C2  UNL     1     -33.011   7.217   5.022  1.00 20.00    -0.024 C 
HETATM    3  C3  UNL     1     -35.128   6.947   3.149  1.00 20.00    -0.065 C 
HETATM    4  C4  UNL     1     -36.409   6.799   2.798  1.00 20.00     0.016 C 
HETATM    5  C6  UNL     1     -33.118   8.098   2.901  1.00 20.00     0.023 C 
HETATM    6  C7  UNL     1     -34.479   8.253   3.590  1.00 20.00     0.038 C 
HETATM    7  C8  UNL     1     -32.810   6.757   3.586  1.00 20.00     0.028 C 
HETATM    8  C9  UNL     1     -34.022   5.883   3.125  1.00 20.00     0.046 C 
HETATM    9  C11 UNL     1     -33.808   5.270   1.738  1.00 20.00     0.029 C 
ENDROOT
BRANCH   8  10
HETATM   10  C5  UNL     1     -34.324   4.778   4.107  1.00 20.00     0.136 C 
HETATM   11  C10 UNL     1     -33.314   3.667   4.207  1.00 20.00     0.092 C 
HETATM   12  O12 UNL     1     -35.343   4.787   4.796  1.00 20.00    -0.297 OA
ENDBRANCH   8  10
TORSDOF 1
ENDMDL
