MODEL 1
REMARK VINA RESULT:      -1.7      0.000      0.000
REMARK  3 active torsions:
REMARK  status: ('A' for Active; 'I' for Inactive)
REMARK    1  A    between atoms: C2_2  and  C5_5 
REMARK    2  A    between atoms: C3_3  and  C6_6 
REMARK    3  A    between atoms: C3_3  and  O10_10 
ROOT
HETATM    1  C4  UNL     1     -33.419   5.939   1.305  1.00 20.00     0.025 A 
HETATM    2  C5  UNL     1     -33.237   5.939   2.798  1.00 20.00     0.028 A 
HETATM    3  C6  UNL     1     -32.186   6.554   1.907  1.00 20.00     0.094 A 
ENDROOT
BRANCH   3   4
HETATM    4  C3  UNL     1     -31.999   8.008   1.835  1.00 20.00     0.263 C 
HETATM    5  O9  UNL     1     -31.269   8.644   2.584  1.00 20.00    -0.265 OA
BRANCH   4   6
HETATM    6  O10 UNL     1     -32.757   8.517   0.821  1.00 20.00    -0.326 OA
HETATM    7  C8  UNL     1     -32.369   9.811   0.352  1.00 20.00     0.213 C 
ENDBRANCH   4   6
ENDBRANCH   3   4
BRANCH   2   8
HETATM    8  C2  UNL     1     -34.106   6.778   3.611  1.00 20.00    -0.088 C 
HETATM    9  C1  UNL     1     -33.625   7.791   4.348  1.00 20.00     0.014 C 
HETATM   10  C7  UNL     1     -35.567   6.445   3.578  1.00 20.00     0.043 C 
ENDBRANCH   2   8
TORSDOF 3
ENDMDL
MODEL 2
REMARK VINA RESULT:      -0.9      2.464      4.290
REMARK  3 active torsions:
REMARK  status: ('A' for Active; 'I' for Inactive)
REMARK    1  A    between atoms: C2_2  and  C5_5 
REMARK    2  A    between atoms: C3_3  and  C6_6 
REMARK    3  A    between atoms: C3_3  and  O10_10 
ROOT
HETATM    1  C4  UNL     1     -33.853   8.366   4.192  1.00 20.00     0.025 A 
HETATM    2  C5  UNL     1     -32.872   7.356   3.667  1.00 20.00     0.028 A 
HETATM    3  C6  UNL     1     -34.061   6.905   4.479  1.00 20.00     0.094 A 
ENDROOT
BRANCH   3   4
HETATM    4  C3  UNL     1     -35.191   6.203   3.857  1.00 20.00     0.263 C 
HETATM    5  O9  UNL     1     -35.929   6.701   3.018  1.00 20.00    -0.265 OA
BRANCH   4   6
HETATM    6  O10 UNL     1     -35.277   4.939   4.361  1.00 20.00    -0.326 OA
HETATM    7  C8  UNL     1     -34.093   4.144   4.237  1.00 20.00     0.213 C 
ENDBRANCH   4   6
ENDBRANCH   3   4
BRANCH   2   8
HETATM    8  C2  UNL     1     -32.816   7.111   2.232  1.00 20.00    -0.088 C 
HETATM    9  C1  UNL     1     -32.848   5.870   1.724  1.00 20.00     0.014 C 
HETATM   10  C7  UNL     1     -32.719   8.325   1.358  1.00 20.00     0.043 C 
ENDBRANCH   2   8
TORSDOF 3
ENDMDL
MODEL 3
REMARK VINA RESULT:      -0.8      0.891      2.099
REMARK  3 active torsions:
REMARK  status: ('A' for Active; 'I' for Inactive)
REMARK    1  A    between atoms: C2_2  and  C5_5 
REMARK    2  A    between atoms: C3_3  and  C6_6 
REMARK    3  A    between atoms: C3_3  and  O10_10 
ROOT
HETATM    1  C4  UNL     1     -33.864   7.614   4.254  1.00 20.00     0.025 A 
HETATM    2  C5  UNL     1     -34.300   6.791   3.075  1.00 20.00     0.028 A 
HETATM    3  C6  UNL     1     -33.660   8.140   2.860  1.00 20.00     0.094 A 
ENDROOT
BRANCH   3   4
HETATM    4  C3  UNL     1     -32.296   8.264   2.331  1.00 20.00     0.263 C 
HETATM    5  O9  UNL     1     -31.285   8.207   3.020  1.00 20.00    -0.265 OA
BRANCH   4   6
HETATM    6  O10 UNL     1     -32.344   8.451   0.981  1.00 20.00    -0.326 OA
HETATM    7  C8  UNL     1     -32.422   9.813   0.550  1.00 20.00     0.213 C 
ENDBRANCH   4   6
ENDBRANCH   3   4
BRANCH   2   8
HETATM    8  C2  UNL     1     -33.575   5.566   2.766  1.00 20.00    -0.088 C 
HETATM    9  C1  UNL     1     -32.905   5.410   1.615  1.00 20.00     0.014 C 
HETATM   10  C7  UNL     1     -33.621   4.490   3.810  1.00 20.00     0.043 C 
ENDBRANCH   2   8
TORSDOF 3
ENDMDL
MODEL 4
REMARK VINA RESULT:      -0.8      2.791      4.337
REMARK  3 active torsions:
REMARK  status: ('A' for Active; 'I' for Inactive)
REMARK    1  A    between atoms: C2_2  and  C5_5 
REMARK    2  A    between atoms: C3_3  and  C6_6 
REMARK    3  A    between atoms: C3_3  and  O10_10 
ROOT
HETATM    1  C4  UNL     1     -35.674   6.617   3.029  1.00 20.00     0.025 A 
HETATM    2  C5  UNL     1     -34.909   7.185   4.192  1.00 20.00     0.028 A 
HETATM    3  C6  UNL     1     -35.197   5.705   4.125  1.00 20.00     0.094 A 
ENDROOT
BRANCH   3   4
HETATM    4  C3  UNL     1     -34.136   4.731   3.840  1.00 20.00     0.263 C 
HETATM    5  O9  UNL     1     -33.374   4.808   2.885  1.00 20.00    -0.265 OA
BRANCH   4   6
HETATM    6  O10 UNL     1     -34.145   3.753   4.790  1.00 20.00    -0.326 OA
HETATM    7  C8  UNL     1     -33.046   2.839   4.743  1.00 20.00     0.213 C 
ENDBRANCH   4   6
ENDBRANCH   3   4
BRANCH   2   8
HETATM    8  C2  UNL     1     -33.563   7.691   3.967  1.00 20.00    -0.088 C 
HETATM    9  C1  UNL     1     -32.785   8.110   4.976  1.00 20.00     0.014 C 
HETATM   10  C7  UNL     1     -33.096   7.717   2.542  1.00 20.00     0.043 C 
ENDBRANCH   2   8
TORSDOF 3
ENDMDL
MODEL 5
REMARK VINA RESULT:      -0.8      1.774      3.662
REMARK  3 active torsions:
REMARK  status: ('A' for Active; 'I' for Inactive)
REMARK    1  A    between atoms: C2_2  and  C5_5 
REMARK    2  A    between atoms: C3_3  and  C6_6 
REMARK    3  A    between atoms: C3_3  and  O10_10 
ROOT
HETATM    1  C4  UNL     1     -32.134   5.757   2.008  1.00 20.00     0.025 A 
HETATM    2  C5  UNL     1     -32.589   6.933   1.188  1.00 20.00     0.028 A 
HETATM    3  C6  UNL     1     -33.544   6.262   2.145  1.00 20.00     0.094 A 
ENDROOT
BRANCH   3   4
HETATM    4  C3  UNL     1     -33.956   6.911   3.396  1.00 20.00     0.263 C 
HETATM    5  O9  UNL     1     -33.244   7.669   4.042  1.00 20.00    -0.265 OA
BRANCH   4   6
HETATM    6  O10 UNL     1     -35.230   6.536   3.707  1.00 20.00    -0.326 OA
HETATM    7  C8  UNL     1     -35.350   5.312   4.438  1.00 20.00     0.213 C 
ENDBRANCH   4   6
ENDBRANCH   3   4
BRANCH   2   8
HETATM    8  C2  UNL     1     -32.042   8.249   1.485  1.00 20.00    -0.088 C 
HETATM    9  C1  UNL     1     -31.083   8.427   2.405  1.00 20.00     0.014 C 
HETATM   10  C7  UNL     1     -32.613   9.394   0.702  1.00 20.00     0.043 C 
ENDBRANCH   2   8
TORSDOF 3
ENDMDL
MODEL 6
REMARK VINA RESULT:      -0.7      1.499      3.958
REMARK  3 active torsions:
REMARK  status: ('A' for Active; 'I' for Inactive)
REMARK    1  A    between atoms: C2_2  and  C5_5 
REMARK    2  A    between atoms: C3_3  and  C6_6 
REMARK    3  A    between atoms: C3_3  and  O10_10 
ROOT
HETATM    1  C4  UNL     1     -31.278   8.675   2.660  1.00 20.00     0.025 A 
HETATM    2  C5  UNL     1     -31.268   8.685   1.157  1.00 20.00     0.028 A 
HETATM    3  C6  UNL     1     -31.608   7.418   1.904  1.00 20.00     0.094 A 
ENDROOT
BRANCH   3   4
HETATM    4  C3  UNL     1     -32.979   6.895   1.940  1.00 20.00     0.263 C 
HETATM    5  O9  UNL     1     -33.432   6.098   1.129  1.00 20.00    -0.265 OA
BRANCH   4   6
HETATM    6  O10 UNL     1     -33.646   7.435   3.001  1.00 20.00    -0.326 OA
HETATM    7  C8  UNL     1     -34.503   6.536   3.712  1.00 20.00     0.213 C 
ENDBRANCH   4   6
ENDBRANCH   3   4
BRANCH   2   8
HETATM    8  C2  UNL     1     -32.301   9.432   0.453  1.00 20.00    -0.088 C 
HETATM    9  C1  UNL     1     -32.646   9.144  -0.811  1.00 20.00     0.014 C 
HETATM   10  C7  UNL     1     -32.955  10.541   1.221  1.00 20.00     0.043 C 
ENDBRANCH   2   8
TORSDOF 3
ENDMDL
MODEL 7
REMARK VINA RESULT:      -0.5      1.281      2.188
REMARK  3 active torsions:
REMARK  status: ('A' for Active; 'I' for Inactive)
REMARK    1  A    between atoms: C2_2  and  C5_5 
REMARK    2  A    between atoms: C3_3  and  C6_6 
REMARK    3  A    between atoms: C3_3  and  O10_10 
ROOT
HETATM    1  C4  UNL     1     -32.934   7.621   4.678  1.00 20.00     0.025 A 
HETATM    2  C5  UNL     1     -34.327   7.704   4.117  1.00 20.00     0.028 A 
HETATM    3  C6  UNL     1     -33.145   8.125   3.277  1.00 20.00     0.094 A 
ENDROOT
BRANCH   3   4
HETATM    4  C3  UNL     1     -32.684   7.313   2.144  1.00 20.00     0.263 C 
HETATM    5  O9  UNL     1     -33.065   6.171   1.918  1.00 20.00    -0.265 OA
BRANCH   4   6
HETATM    6  O10 UNL     1     -31.783   8.025   1.408  1.00 20.00    -0.326 OA
HETATM    7  C8  UNL     1     -32.297   9.201   0.776  1.00 20.00     0.213 C 
ENDBRANCH   4   6
ENDBRANCH   3   4
BRANCH   2   8
HETATM    8  C2  UNL     1     -35.042   6.469   3.828  1.00 20.00    -0.088 C 
HETATM    9  C1  UNL     1     -34.615   5.280   4.281  1.00 20.00     0.014 C 
HETATM   10  C7  UNL     1     -36.281   6.602   2.995  1.00 20.00     0.043 C 
ENDBRANCH   2   8
TORSDOF 3
ENDMDL
MODEL 8
REMARK VINA RESULT:      -0.5      1.466      2.407
REMARK  3 active torsions:
REMARK  status: ('A' for Active; 'I' for Inactive)
REMARK    1  A    between atoms: C2_2  and  C5_5 
REMARK    2  A    between atoms: C3_3  and  C6_6 
REMARK    3  A    between atoms: C3_3  and  O10_10 
ROOT
HETATM    1  C4  UNL     1     -33.996   4.243   3.250  1.00 20.00     0.025 A 
HETATM    2  C5  UNL     1     -33.694   5.480   4.050  1.00 20.00     0.028 A 
HETATM    3  C6  UNL     1     -32.787   5.072   2.915  1.00 20.00     0.094 A 
ENDROOT
BRANCH   3   4
HETATM    4  C3  UNL     1     -32.757   5.821   1.652  1.00 20.00     0.263 C 
HETATM    5  O9  UNL     1     -33.555   5.658   0.739  1.00 20.00    -0.265 OA
BRANCH   4   6
HETATM    6  O10 UNL     1     -31.716   6.703   1.668  1.00 20.00    -0.326 OA
HETATM    7  C8  UNL     1     -32.074   8.080   1.521  1.00 20.00     0.213 C 
ENDBRANCH   4   6
ENDBRANCH   3   4
BRANCH   2   8
HETATM    8  C2  UNL     1     -34.575   6.632   3.920  1.00 20.00    -0.088 C 
HETATM    9  C1  UNL     1     -35.830   6.516   3.461  1.00 20.00     0.014 C 
HETATM   10  C7  UNL     1     -33.998   7.954   4.328  1.00 20.00     0.043 C 
ENDBRANCH   2   8
TORSDOF 3
ENDMDL
MODEL 9
REMARK VINA RESULT:      -0.4      2.868      4.214
REMARK  3 active torsions:
REMARK  status: ('A' for Active; 'I' for Inactive)
REMARK    1  A    between atoms: C2_2  and  C5_5 
REMARK    2  A    between atoms: C3_3  and  C6_6 
REMARK    3  A    between atoms: C3_3  and  O10_10 
ROOT
HETATM    1  C4  UNL     1     -32.493   5.498   1.838  1.00 20.00     0.025 A 
HETATM    2  C5  UNL     1     -33.482   6.606   2.076  1.00 20.00     0.028 A 
HETATM    3  C6  UNL     1     -33.878   5.171   2.323  1.00 20.00     0.094 A 
ENDROOT
BRANCH   3   4
HETATM    4  C3  UNL     1     -34.059   4.650   3.684  1.00 20.00     0.263 C 
HETATM    5  O9  UNL     1     -35.090   4.770   4.334  1.00 20.00    -0.265 OA
BRANCH   4   6
HETATM    6  O10 UNL     1     -32.915   4.030   4.092  1.00 20.00    -0.326 OA
HETATM    7  C8  UNL     1     -33.101   2.821   4.835  1.00 20.00     0.213 C 
ENDBRANCH   4   6
ENDBRANCH   3   4
BRANCH   2   8
HETATM    8  C2  UNL     1     -33.260   7.518   3.189  1.00 20.00    -0.088 C 
HETATM    9  C1  UNL     1     -34.180   7.702   4.148  1.00 20.00     0.014 C 
HETATM   10  C7  UNL     1     -31.946   8.240   3.201  1.00 20.00     0.043 C 
ENDBRANCH   2   8
TORSDOF 3
ENDMDL
