MODEL 1
REMARK VINA RESULT:      -0.7      0.000      0.000
REMARK  0 active torsions:
REMARK  status: ('A' for Active; 'I' for Inactive)
ROOT
HETATM    1  C1  UNL     1     -34.219   6.357   3.479  1.00 20.00     0.026 C 
HETATM    2  C2  UNL     1     -32.766   7.219   2.160  1.00 20.00     0.017 C 
HETATM    3  C3  UNL     1     -35.257   6.320   4.322  1.00 20.00     0.040 C 
HETATM    4  C4  UNL     1     -33.681   5.158   2.755  1.00 20.00     0.073 C 
HETATM    5  C5  UNL     1     -32.850   5.798   1.635  1.00 20.00    -0.002 C 
HETATM    6  C6  UNL     1     -31.866   8.244   1.542  1.00 20.00     0.066 C 
HETATM    7  C7  UNL     1     -31.479   5.140   1.509  1.00 20.00     0.021 C 
HETATM    8  C8  UNL     1     -33.595   5.779   0.300  1.00 20.00     0.021 C 
HETATM    9  N9  UNL     1     -33.543   7.507   3.157  1.00 20.00    -0.263 NA
ENDROOT
TORSDOF 0
ENDMDL
MODEL 2
REMARK VINA RESULT:      -0.5      1.742      3.221
REMARK  0 active torsions:
REMARK  status: ('A' for Active; 'I' for Inactive)
ROOT
HETATM    1  C1  UNL     1     -33.809   4.195   4.089  1.00 20.00     0.026 C 
HETATM    2  C2  UNL     1     -33.590   5.869   2.767  1.00 20.00     0.017 C 
HETATM    3  C3  UNL     1     -33.463   3.081   4.741  1.00 20.00     0.040 C 
HETATM    4  C4  UNL     1     -34.958   5.078   4.483  1.00 20.00     0.073 C 
HETATM    5  C5  UNL     1     -34.642   6.379   3.734  1.00 20.00    -0.002 C 
HETATM    6  C6  UNL     1     -33.080   6.704   1.634  1.00 20.00     0.066 C 
HETATM    7  C7  UNL     1     -35.874   6.929   3.021  1.00 20.00     0.021 C 
HETATM    8  C8  UNL     1     -34.030   7.429   4.663  1.00 20.00     0.021 C 
HETATM    9  N9  UNL     1     -33.134   4.677   2.996  1.00 20.00    -0.263 NA
ENDROOT
TORSDOF 0
ENDMDL
MODEL 3
REMARK VINA RESULT:       0.0      1.195      2.519
REMARK  0 active torsions:
REMARK  status: ('A' for Active; 'I' for Inactive)
ROOT
HETATM    1  C1  UNL     1     -34.213   6.689   3.304  1.00 20.00     0.026 C 
HETATM    2  C2  UNL     1     -32.650   6.376   1.871  1.00 20.00     0.017 C 
HETATM    3  C3  UNL     1     -35.087   6.382   4.269  1.00 20.00     0.040 C 
HETATM    4  C4  UNL     1     -33.791   8.089   2.967  1.00 20.00     0.073 C 
HETATM    5  C5  UNL     1     -32.507   7.859   2.159  1.00 20.00    -0.002 C 
HETATM    6  C6  UNL     1     -31.750   5.662   0.911  1.00 20.00     0.066 C 
HETATM    7  C7  UNL     1     -32.485   8.702   0.888  1.00 20.00     0.021 C 
HETATM    8  C8  UNL     1     -31.257   8.107   3.005  1.00 20.00     0.021 C 
HETATM    9  N9  UNL     1     -33.578   5.753   2.528  1.00 20.00    -0.263 NA
ENDROOT
TORSDOF 0
ENDMDL
MODEL 4
REMARK VINA RESULT:       0.2      1.374      3.136
REMARK  0 active torsions:
REMARK  status: ('A' for Active; 'I' for Inactive)
ROOT
HETATM    1  C1  UNL     1     -32.549   5.816   1.447  1.00 20.00     0.026 C 
HETATM    2  C2  UNL     1     -33.292   7.228   2.879  1.00 20.00     0.017 C 
HETATM    3  C3  UNL     1     -32.570   4.765   0.621  1.00 20.00     0.040 C 
HETATM    4  C4  UNL     1     -31.532   6.917   1.381  1.00 20.00     0.073 C 
HETATM    5  C5  UNL     1     -32.203   8.032   2.194  1.00 20.00    -0.002 C 
HETATM    6  C6  UNL     1     -34.132   7.801   3.978  1.00 20.00     0.066 C 
HETATM    7  C7  UNL     1     -31.232   8.665   3.187  1.00 20.00     0.021 C 
HETATM    8  C8  UNL     1     -32.830   9.092   1.287  1.00 20.00     0.021 C 
HETATM    9  N9  UNL     1     -33.477   6.024   2.436  1.00 20.00    -0.263 NA
ENDROOT
TORSDOF 0
ENDMDL
MODEL 5
REMARK VINA RESULT:       0.5      1.278      3.310
REMARK  0 active torsions:
REMARK  status: ('A' for Active; 'I' for Inactive)
ROOT
HETATM    1  C1  UNL     1     -32.509   7.351   1.960  1.00 20.00     0.026 C 
HETATM    2  C2  UNL     1     -33.439   7.546   3.882  1.00 20.00     0.017 C 
HETATM    3  C3  UNL     1     -31.558   7.474   1.027  1.00 20.00     0.040 C 
HETATM    4  C4  UNL     1     -33.656   6.387   1.869  1.00 20.00     0.073 C 
HETATM    5  C5  UNL     1     -34.150   6.329   3.321  1.00 20.00    -0.002 C 
HETATM    6  C6  UNL     1     -33.743   8.088   5.244  1.00 20.00     0.066 C 
HETATM    7  C7  UNL     1     -35.668   6.449   3.403  1.00 20.00     0.021 C 
HETATM    8  C8  UNL     1     -33.659   5.066   4.032  1.00 20.00     0.021 C 
HETATM    9  N9  UNL     1     -32.528   8.075   3.125  1.00 20.00    -0.263 NA
ENDROOT
TORSDOF 0
ENDMDL
MODEL 6
REMARK VINA RESULT:       0.8      1.485      3.673
REMARK  0 active torsions:
REMARK  status: ('A' for Active; 'I' for Inactive)
ROOT
HETATM    1  C1  UNL     1     -32.845   5.866   1.909  1.00 20.00     0.026 C 
HETATM    2  C2  UNL     1     -33.996   5.346   3.641  1.00 20.00     0.017 C 
HETATM    3  C3  UNL     1     -32.221   5.690   0.739  1.00 20.00     0.040 C 
HETATM    4  C4  UNL     1     -33.228   7.207   2.464  1.00 20.00     0.073 C 
HETATM    5  C5  UNL     1     -34.265   6.835   3.532  1.00 20.00    -0.002 C 
HETATM    6  C6  UNL     1     -34.605   4.504   4.719  1.00 20.00     0.066 C 
HETATM    7  C7  UNL     1     -34.010   7.572   4.843  1.00 20.00     0.021 C 
HETATM    8  C8  UNL     1     -35.693   7.072   3.036  1.00 20.00     0.021 C 
HETATM    9  N9  UNL     1     -33.232   4.835   2.726  1.00 20.00    -0.263 NA
ENDROOT
TORSDOF 0
ENDMDL
MODEL 7
REMARK VINA RESULT:       1.4      1.682      3.660
REMARK  0 active torsions:
REMARK  status: ('A' for Active; 'I' for Inactive)
ROOT
HETATM    1  C1  UNL     1     -32.349   7.451   1.769  1.00 20.00     0.026 C 
HETATM    2  C2  UNL     1     -33.435   6.123   3.055  1.00 20.00     0.017 C 
HETATM    3  C3  UNL     1     -31.744   7.873   0.653  1.00 20.00     0.040 C 
HETATM    4  C4  UNL     1     -32.786   8.357   2.882  1.00 20.00     0.073 C 
HETATM    5  C5  UNL     1     -33.780   7.476   3.651  1.00 20.00    -0.002 C 
HETATM    6  C6  UNL     1     -33.977   4.845   3.616  1.00 20.00     0.066 C 
HETATM    7  C7  UNL     1     -33.533   7.532   5.155  1.00 20.00     0.021 C 
HETATM    8  C8  UNL     1     -35.228   7.838   3.317  1.00 20.00     0.021 C 
HETATM    9  N9  UNL     1     -32.667   6.138   2.011  1.00 20.00    -0.263 NA
ENDROOT
TORSDOF 0
ENDMDL
MODEL 8
REMARK VINA RESULT:       1.5      1.434      2.266
REMARK  0 active torsions:
REMARK  status: ('A' for Active; 'I' for Inactive)
ROOT
HETATM    1  C1  UNL     1     -33.464   4.413   3.722  1.00 20.00     0.026 C 
HETATM    2  C2  UNL     1     -34.068   6.427   3.302  1.00 20.00     0.017 C 
HETATM    3  C3  UNL     1     -33.549   3.174   4.218  1.00 20.00     0.040 C 
HETATM    4  C4  UNL     1     -32.519   4.819   2.630  1.00 20.00     0.073 C 
HETATM    5  C5  UNL     1     -33.123   6.145   2.149  1.00 20.00    -0.002 C 
HETATM    6  C6  UNL     1     -34.775   7.739   3.450  1.00 20.00     0.066 C 
HETATM    7  C7  UNL     1     -32.055   7.224   1.992  1.00 20.00     0.021 C 
HETATM    8  C8  UNL     1     -33.919   5.966   0.855  1.00 20.00     0.021 C 
HETATM    9  N9  UNL     1     -34.256   5.454   4.138  1.00 20.00    -0.263 NA
ENDROOT
TORSDOF 0
ENDMDL
MODEL 9
REMARK VINA RESULT:       1.6      0.897      2.891
REMARK  0 active torsions:
REMARK  status: ('A' for Active; 'I' for Inactive)
ROOT
HETATM    1  C1  UNL     1     -32.184   7.978   2.477  1.00 20.00     0.026 C 
HETATM    2  C2  UNL     1     -33.465   6.294   2.827  1.00 20.00     0.017 C 
HETATM    3  C3  UNL     1     -31.439   9.049   2.772  1.00 20.00     0.040 C 
HETATM    4  C4  UNL     1     -32.087   7.217   1.187  1.00 20.00     0.073 C 
HETATM    5  C5  UNL     1     -32.779   5.892   1.535  1.00 20.00    -0.002 C 
HETATM    6  C6  UNL     1     -34.473   5.416   3.500  1.00 20.00     0.066 C 
HETATM    7  C7  UNL     1     -33.770   5.474   0.453  1.00 20.00     0.021 C 
HETATM    8  C8  UNL     1     -31.763   4.782   1.810  1.00 20.00     0.021 C 
HETATM    9  N9  UNL     1     -33.105   7.432   3.335  1.00 20.00    -0.263 NA
ENDROOT
TORSDOF 0
ENDMDL
