MODEL 1
REMARK VINA RESULT:      -1.0      0.000      0.000
REMARK  1 active torsions:
REMARK  status: ('A' for Active; 'I' for Inactive)
REMARK    1  A    between atoms: C9_9  and  N10_10 
ROOT
HETATM    1  C1  UNL     1     -34.247   5.558   3.321  1.00 20.00     0.072 A 
HETATM    2  C2  UNL     1     -34.644   6.524   4.154  1.00 20.00    -0.002 A 
HETATM    3  C5  UNL     1     -33.265   6.163   2.401  1.00 20.00     0.243 A 
HETATM    4  C8  UNL     1     -33.992   7.834   3.887  1.00 20.00     0.154 A 
HETATM    5  N10 UNL     1     -33.146   7.496   2.769  1.00 20.00    -0.340 N 
HETATM    6  O11 UNL     1     -32.701   5.554   1.508  1.00 20.00    -0.268 OA
ENDROOT
BRANCH   5   7
HETATM    7  C9  UNL     1     -32.280   8.434   2.109  1.00 20.00     0.094 C 
HETATM    8  C6  UNL     1     -31.574   7.829   0.890  1.00 20.00     0.052 C 
HETATM    9  C3  UNL     1     -31.518   8.977  -0.061  1.00 20.00    -0.029 C 
HETATM   10  C4  UNL     1     -32.312   9.980   0.322  1.00 20.00    -0.029 C 
HETATM   11  C7  UNL     1     -33.030   9.667   1.593  1.00 20.00     0.052 C 
ENDBRANCH   5   7
TORSDOF 1
ENDMDL
MODEL 2
REMARK VINA RESULT:      -0.9      1.285      4.276
REMARK  1 active torsions:
REMARK  status: ('A' for Active; 'I' for Inactive)
REMARK    1  A    between atoms: C9_9  and  N10_10 
ROOT
HETATM    1  C1  UNL     1     -31.462   7.610   1.327  1.00 20.00     0.072 A 
HETATM    2  C2  UNL     1     -31.971   8.496   2.187  1.00 20.00    -0.002 A 
HETATM    3  C5  UNL     1     -32.240   6.366   1.483  1.00 20.00     0.243 A 
HETATM    4  C8  UNL     1     -33.105   7.955   2.984  1.00 20.00     0.154 A 
HETATM    5  N10 UNL     1     -33.191   6.614   2.463  1.00 20.00    -0.340 N 
HETATM    6  O11 UNL     1     -32.035   5.349   0.842  1.00 20.00    -0.268 OA
ENDROOT
BRANCH   5   7
HETATM    7  C9  UNL     1     -34.151   5.642   2.908  1.00 20.00     0.094 C 
HETATM    8  C6  UNL     1     -33.503   4.470   3.654  1.00 20.00     0.052 C 
HETATM    9  C3  UNL     1     -34.515   4.147   4.702  1.00 20.00    -0.029 C 
HETATM   10  C4  UNL     1     -35.433   5.110   4.822  1.00 20.00    -0.029 C 
HETATM   11  C7  UNL     1     -35.185   6.235   3.872  1.00 20.00     0.052 C 
ENDBRANCH   5   7
TORSDOF 1
ENDMDL
MODEL 3
REMARK VINA RESULT:      -0.8      1.857      2.850
REMARK  1 active torsions:
REMARK  status: ('A' for Active; 'I' for Inactive)
REMARK    1  A    between atoms: C9_9  and  N10_10 
ROOT
HETATM    1  C1  UNL     1     -34.868   4.379   4.794  1.00 20.00     0.072 A 
HETATM    2  C2  UNL     1     -33.799   3.662   4.434  1.00 20.00    -0.002 A 
HETATM    3  C5  UNL     1     -34.857   5.605   3.974  1.00 20.00     0.243 A 
HETATM    4  C8  UNL     1     -32.988   4.314   3.370  1.00 20.00     0.154 A 
HETATM    5  N10 UNL     1     -33.740   5.525   3.154  1.00 20.00    -0.340 N 
HETATM    6  O11 UNL     1     -35.699   6.484   4.049  1.00 20.00    -0.268 OA
ENDROOT
BRANCH   5   7
HETATM    7  C9  UNL     1     -33.373   6.534   2.200  1.00 20.00     0.094 C 
HETATM    8  C6  UNL     1     -32.974   7.858   2.865  1.00 20.00     0.052 C 
HETATM    9  C3  UNL     1     -31.886   8.357   1.975  1.00 20.00    -0.029 C 
HETATM   10  C4  UNL     1     -31.450   7.409   1.140  1.00 20.00    -0.029 C 
HETATM   11  C7  UNL     1     -32.178   6.121   1.334  1.00 20.00     0.052 C 
ENDBRANCH   5   7
TORSDOF 1
ENDMDL
MODEL 4
REMARK VINA RESULT:      -0.7      1.323      1.751
REMARK  1 active torsions:
REMARK  status: ('A' for Active; 'I' for Inactive)
REMARK    1  A    between atoms: C9_9  and  N10_10 
ROOT
HETATM    1  C1  UNL     1     -34.329   5.946   3.809  1.00 20.00     0.072 A 
HETATM    2  C2  UNL     1     -33.897   5.207   2.784  1.00 20.00    -0.002 A 
HETATM    3  C5  UNL     1     -33.745   7.291   3.643  1.00 20.00     0.243 A 
HETATM    4  C8  UNL     1     -33.007   5.955   1.854  1.00 20.00     0.154 A 
HETATM    5  N10 UNL     1     -32.980   7.251   2.486  1.00 20.00    -0.340 N 
HETATM    6  O11 UNL     1     -33.939   8.218   4.411  1.00 20.00    -0.268 OA
ENDROOT
BRANCH   5   7
HETATM    7  C9  UNL     1     -32.242   8.374   1.976  1.00 20.00     0.094 C 
HETATM    8  C6  UNL     1     -31.411   8.020   0.736  1.00 20.00     0.052 C 
HETATM    9  C3  UNL     1     -31.495   9.265  -0.081  1.00 20.00    -0.029 C 
HETATM   10  C4  UNL     1     -32.445  10.092   0.365  1.00 20.00    -0.029 C 
HETATM   11  C7  UNL     1     -33.150   9.535   1.557  1.00 20.00     0.052 C 
ENDBRANCH   5   7
TORSDOF 1
ENDMDL
MODEL 5
REMARK VINA RESULT:      -0.3      1.738      4.570
REMARK  1 active torsions:
REMARK  status: ('A' for Active; 'I' for Inactive)
REMARK    1  A    between atoms: C9_9  and  N10_10 
ROOT
HETATM    1  C1  UNL     1     -31.804   8.394   2.361  1.00 20.00     0.072 A 
HETATM    2  C2  UNL     1     -31.614   7.682   1.247  1.00 20.00    -0.002 A 
HETATM    3  C5  UNL     1     -32.808   7.672   3.165  1.00 20.00     0.243 A 
HETATM    4  C8  UNL     1     -32.444   6.448   1.192  1.00 20.00     0.154 A 
HETATM    5  N10 UNL     1     -33.154   6.539   2.443  1.00 20.00    -0.340 N 
HETATM    6  O11 UNL     1     -33.214   8.052   4.251  1.00 20.00    -0.268 OA
ENDROOT
BRANCH   5   7
HETATM    7  C9  UNL     1     -34.113   5.567   2.891  1.00 20.00     0.094 C 
HETATM    8  C6  UNL     1     -33.467   4.417   3.673  1.00 20.00     0.052 C 
HETATM    9  C3  UNL     1     -34.495   4.105   4.708  1.00 20.00    -0.029 C 
HETATM   10  C4  UNL     1     -35.425   5.061   4.791  1.00 20.00    -0.029 C 
HETATM   11  C7  UNL     1     -35.171   6.168   3.822  1.00 20.00     0.052 C 
ENDBRANCH   5   7
TORSDOF 1
ENDMDL
MODEL 6
REMARK VINA RESULT:      -0.0      0.903      4.119
REMARK  1 active torsions:
REMARK  status: ('A' for Active; 'I' for Inactive)
REMARK    1  A    between atoms: C9_9  and  N10_10 
ROOT
HETATM    1  C1  UNL     1     -31.579   8.009   0.476  1.00 20.00     0.072 A 
HETATM    2  C2  UNL     1     -32.077   9.159   0.941  1.00 20.00    -0.002 A 
HETATM    3  C5  UNL     1     -31.991   6.952   1.418  1.00 20.00     0.243 A 
HETATM    4  C8  UNL     1     -32.849   8.995   2.203  1.00 20.00     0.154 A 
HETATM    5  N10 UNL     1     -32.733   7.573   2.413  1.00 20.00    -0.340 N 
HETATM    6  O11 UNL     1     -31.703   5.774   1.290  1.00 20.00    -0.268 OA
ENDROOT
BRANCH   5   7
HETATM    7  C9  UNL     1     -33.318   6.879   3.527  1.00 20.00     0.094 C 
HETATM    8  C6  UNL     1     -34.690   7.441   3.919  1.00 20.00     0.052 C 
HETATM    9  C3  UNL     1     -35.437   6.220   4.338  1.00 20.00    -0.029 C 
HETATM   10  C4  UNL     1     -34.809   5.100   3.970  1.00 20.00    -0.029 C 
HETATM   11  C7  UNL     1     -33.538   5.389   3.243  1.00 20.00     0.052 C 
ENDBRANCH   5   7
TORSDOF 1
ENDMDL
MODEL 7
REMARK VINA RESULT:       0.0      1.495      1.897
REMARK  1 active torsions:
REMARK  status: ('A' for Active; 'I' for Inactive)
REMARK    1  A    between atoms: C9_9  and  N10_10 
ROOT
HETATM    1  C1  UNL     1     -35.260   4.825   4.506  1.00 20.00     0.072 A 
HETATM    2  C2  UNL     1     -35.746   6.067   4.442  1.00 20.00    -0.002 A 
HETATM    3  C5  UNL     1     -33.948   4.843   3.831  1.00 20.00     0.243 A 
HETATM    4  C8  UNL     1     -34.840   7.017   3.740  1.00 20.00     0.154 A 
HETATM    5  N10 UNL     1     -33.743   6.146   3.399  1.00 20.00    -0.340 N 
HETATM    6  O11 UNL     1     -33.229   3.865   3.710  1.00 20.00    -0.268 OA
ENDROOT
BRANCH   5   7
HETATM    7  C9  UNL     1     -32.570   6.578   2.690  1.00 20.00     0.094 C 
HETATM    8  C6  UNL     1     -32.617   6.226   1.199  1.00 20.00     0.052 C 
HETATM    9  C3  UNL     1     -31.937   7.391   0.564  1.00 20.00    -0.029 C 
HETATM   10  C4  UNL     1     -31.799   8.412   1.414  1.00 20.00    -0.029 C 
HETATM   11  C7  UNL     1     -32.365   8.096   2.758  1.00 20.00     0.052 C 
ENDBRANCH   5   7
TORSDOF 1
ENDMDL
MODEL 8
REMARK VINA RESULT:       0.1      2.336      3.413
REMARK  1 active torsions:
REMARK  status: ('A' for Active; 'I' for Inactive)
REMARK    1  A    between atoms: C9_9  and  N10_10 
ROOT
HETATM    1  C1  UNL     1     -33.601   2.992   4.865  1.00 20.00     0.072 A 
HETATM    2  C2  UNL     1     -32.401   2.876   4.289  1.00 20.00    -0.002 A 
HETATM    3  C5  UNL     1     -34.213   4.224   4.334  1.00 20.00     0.243 A 
HETATM    4  C8  UNL     1     -32.095   3.983   3.343  1.00 20.00     0.154 A 
HETATM    5  N10 UNL     1     -33.297   4.772   3.446  1.00 20.00    -0.340 N 
HETATM    6  O11 UNL     1     -35.318   4.630   4.654  1.00 20.00    -0.268 OA
ENDROOT
BRANCH   5   7
HETATM    7  C9  UNL     1     -33.521   5.988   2.715  1.00 20.00     0.094 C 
HETATM    8  C6  UNL     1     -33.390   7.238   3.592  1.00 20.00     0.052 C 
HETATM    9  C3  UNL     1     -32.779   8.231   2.661  1.00 20.00    -0.029 C 
HETATM   10  C4  UNL     1     -32.308   7.651   1.553  1.00 20.00    -0.029 C 
HETATM   11  C7  UNL     1     -32.527   6.174   1.563  1.00 20.00     0.052 C 
ENDBRANCH   5   7
TORSDOF 1
ENDMDL
MODEL 9
REMARK VINA RESULT:       0.4      1.301      4.154
REMARK  1 active torsions:
REMARK  status: ('A' for Active; 'I' for Inactive)
REMARK    1  A    between atoms: C9_9  and  N10_10 
ROOT
HETATM    1  C1  UNL     1     -31.878   9.996  -0.299  1.00 20.00     0.072 A 
HETATM    2  C2  UNL     1     -32.834  10.663   0.353  1.00 20.00    -0.002 A 
HETATM    3  C5  UNL     1     -31.656   8.737   0.437  1.00 20.00     0.243 A 
HETATM    4  C8  UNL     1     -33.336   9.944   1.555  1.00 20.00     0.154 A 
HETATM    5  N10 UNL     1     -32.530   8.748   1.514  1.00 20.00    -0.340 N 
HETATM    6  O11 UNL     1     -30.843   7.889   0.109  1.00 20.00    -0.268 OA
ENDROOT
BRANCH   5   7
HETATM    7  C9  UNL     1     -32.622   7.689   2.481  1.00 20.00     0.094 C 
HETATM    8  C6  UNL     1     -33.700   7.948   3.540  1.00 20.00     0.052 C 
HETATM    9  C3  UNL     1     -34.236   6.581   3.804  1.00 20.00    -0.029 C 
HETATM   10  C4  UNL     1     -33.840   5.703   2.879  1.00 20.00    -0.029 C 
HETATM   11  C7  UNL     1     -32.972   6.339   1.845  1.00 20.00     0.052 C 
ENDBRANCH   5   7
TORSDOF 1
ENDMDL
