MODEL 1
REMARK VINA RESULT:      -1.8      0.000      0.000
REMARK  1 active torsions:
REMARK  status: ('A' for Active; 'I' for Inactive)
REMARK    1  A    between atoms: C5_5  and  N8_8 
ROOT
HETATM    1  C1  UNL     1     -32.070   6.441   1.137  1.00 20.00     0.069 A 
HETATM    2  C2  UNL     1     -32.837   5.602   1.838  1.00 20.00     0.095 A 
HETATM    3  C3  UNL     1     -32.283   7.738   1.817  1.00 20.00     0.168 A 
HETATM    4  C6  UNL     1     -33.245   7.589   2.981  1.00 20.00     0.211 A 
HETATM    5  N8  UNL     1     -33.531   6.160   2.891  1.00 20.00    -0.354 N 
HETATM    6  O9  UNL     1     -31.747   8.779   1.471  1.00 20.00    -0.291 OA
ENDROOT
BRANCH   5   7
HETATM    7  C5  UNL     1     -34.367   5.506   3.739  1.00 20.00    -0.002 C 
HETATM    8  C4  UNL     1     -35.461   6.109   4.224  1.00 20.00     0.038 C 
HETATM    9  C7  UNL     1     -33.990   4.099   4.085  1.00 20.00     0.067 C 
ENDBRANCH   5   7
TORSDOF 1
ENDMDL
MODEL 2
REMARK VINA RESULT:      -1.6      2.306      4.064
REMARK  1 active torsions:
REMARK  status: ('A' for Active; 'I' for Inactive)
REMARK    1  A    between atoms: C5_5  and  N8_8 
ROOT
HETATM    1  C1  UNL     1     -34.910   6.969   4.276  1.00 20.00     0.069 A 
HETATM    2  C2  UNL     1     -33.990   7.384   3.400  1.00 20.00     0.095 A 
HETATM    3  C3  UNL     1     -34.870   5.497   4.131  1.00 20.00     0.168 A 
HETATM    4  C6  UNL     1     -33.846   5.081   3.093  1.00 20.00     0.211 A 
HETATM    5  N8  UNL     1     -33.343   6.392   2.694  1.00 20.00    -0.354 N 
HETATM    6  O9  UNL     1     -35.577   4.736   4.773  1.00 20.00    -0.291 OA
ENDROOT
BRANCH   5   7
HETATM    7  C5  UNL     1     -32.376   6.574   1.756  1.00 20.00    -0.002 C 
HETATM    8  C4  UNL     1     -31.931   5.544   1.023  1.00 20.00     0.038 C 
HETATM    9  C7  UNL     1     -31.857   7.969   1.603  1.00 20.00     0.067 C 
ENDBRANCH   5   7
TORSDOF 1
ENDMDL
MODEL 3
REMARK VINA RESULT:      -1.6      2.308      3.925
REMARK  1 active torsions:
REMARK  status: ('A' for Active; 'I' for Inactive)
REMARK    1  A    between atoms: C5_5  and  N8_8 
ROOT
HETATM    1  C1  UNL     1     -34.912   6.973   4.292  1.00 20.00     0.069 A 
HETATM    2  C2  UNL     1     -33.996   7.428   3.432  1.00 20.00     0.095 A 
HETATM    3  C3  UNL     1     -34.842   5.506   4.110  1.00 20.00     0.168 A 
HETATM    4  C6  UNL     1     -33.805   5.137   3.066  1.00 20.00     0.211 A 
HETATM    5  N8  UNL     1     -33.327   6.468   2.704  1.00 20.00    -0.354 N 
HETATM    6  O9  UNL     1     -35.536   4.714   4.728  1.00 20.00    -0.291 OA
ENDROOT
BRANCH   5   7
HETATM    7  C5  UNL     1     -32.360   6.693   1.776  1.00 20.00    -0.002 C 
HETATM    8  C4  UNL     1     -31.857   7.921   1.593  1.00 20.00     0.038 C 
HETATM    9  C7  UNL     1     -31.907   5.502   0.990  1.00 20.00     0.067 C 
ENDBRANCH   5   7
TORSDOF 1
ENDMDL
MODEL 4
REMARK VINA RESULT:      -1.2      1.681      2.272
REMARK  1 active torsions:
REMARK  status: ('A' for Active; 'I' for Inactive)
REMARK    1  A    between atoms: C5_5  and  N8_8 
ROOT
HETATM    1  C1  UNL     1     -31.727   7.259   1.342  1.00 20.00     0.069 A 
HETATM    2  C2  UNL     1     -32.475   7.759   2.329  1.00 20.00     0.095 A 
HETATM    3  C3  UNL     1     -32.156   5.844   1.282  1.00 20.00     0.168 A 
HETATM    4  C6  UNL     1     -33.222   5.554   2.321  1.00 20.00     0.211 A 
HETATM    5  N8  UNL     1     -33.342   6.874   2.934  1.00 20.00    -0.354 N 
HETATM    6  O9  UNL     1     -31.699   5.032   0.493  1.00 20.00    -0.291 OA
ENDROOT
BRANCH   5   7
HETATM    7  C5  UNL     1     -34.196   7.155   3.953  1.00 20.00    -0.002 C 
HETATM    8  C4  UNL     1     -33.925   8.137   4.823  1.00 20.00     0.038 C 
HETATM    9  C7  UNL     1     -35.429   6.310   4.035  1.00 20.00     0.067 C 
ENDBRANCH   5   7
TORSDOF 1
ENDMDL
MODEL 5
REMARK VINA RESULT:      -1.1      1.149      1.604
REMARK  1 active torsions:
REMARK  status: ('A' for Active; 'I' for Inactive)
REMARK    1  A    between atoms: C5_5  and  N8_8 
ROOT
HETATM    1  C1  UNL     1     -32.179   6.269   1.115  1.00 20.00     0.069 A 
HETATM    2  C2  UNL     1     -33.056   6.019   2.092  1.00 20.00     0.095 A 
HETATM    3  C3  UNL     1     -31.858   7.700   1.312  1.00 20.00     0.168 A 
HETATM    4  C6  UNL     1     -32.623   8.271   2.490  1.00 20.00     0.211 A 
HETATM    5  N8  UNL     1     -33.362   7.085   2.911  1.00 20.00    -0.354 N 
HETATM    6  O9  UNL     1     -31.078   8.321   0.607  1.00 20.00    -0.291 OA
ENDROOT
BRANCH   5   7
HETATM    7  C5  UNL     1     -34.221   7.068   3.964  1.00 20.00    -0.002 C 
HETATM    8  C4  UNL     1     -35.271   6.235   3.979  1.00 20.00     0.038 C 
HETATM    9  C7  UNL     1     -33.921   8.022   5.078  1.00 20.00     0.067 C 
ENDBRANCH   5   7
TORSDOF 1
ENDMDL
MODEL 6
REMARK VINA RESULT:      -1.1      1.195      1.529
REMARK  1 active torsions:
REMARK  status: ('A' for Active; 'I' for Inactive)
REMARK    1  A    between atoms: C5_5  and  N8_8 
ROOT
HETATM    1  C1  UNL     1     -32.217   6.322   1.111  1.00 20.00     0.069 A 
HETATM    2  C2  UNL     1     -33.069   6.107   2.118  1.00 20.00     0.095 A 
HETATM    3  C3  UNL     1     -31.842   7.742   1.288  1.00 20.00     0.168 A 
HETATM    4  C6  UNL     1     -32.549   8.345   2.487  1.00 20.00     0.211 A 
HETATM    5  N8  UNL     1     -33.312   7.186   2.939  1.00 20.00    -0.354 N 
HETATM    6  O9  UNL     1     -31.065   8.332   0.554  1.00 20.00    -0.291 OA
ENDROOT
BRANCH   5   7
HETATM    7  C5  UNL     1     -34.137   7.204   4.019  1.00 20.00    -0.002 C 
HETATM    8  C4  UNL     1     -33.897   8.025   5.051  1.00 20.00     0.038 C 
HETATM    9  C7  UNL     1     -35.302   6.266   3.978  1.00 20.00     0.067 C 
ENDBRANCH   5   7
TORSDOF 1
ENDMDL
MODEL 7
REMARK VINA RESULT:      -1.0      0.668      1.497
REMARK  1 active torsions:
REMARK  status: ('A' for Active; 'I' for Inactive)
REMARK    1  A    between atoms: C5_5  and  N8_8 
ROOT
HETATM    1  C1  UNL     1     -32.450   8.415   2.982  1.00 20.00     0.069 A 
HETATM    2  C2  UNL     1     -33.281   7.675   3.722  1.00 20.00     0.095 A 
HETATM    3  C3  UNL     1     -32.178   7.547   1.815  1.00 20.00     0.168 A 
HETATM    4  C6  UNL     1     -32.922   6.230   1.933  1.00 20.00     0.211 A 
HETATM    5  N8  UNL     1     -33.600   6.436   3.209  1.00 20.00    -0.354 N 
HETATM    6  O9  UNL     1     -31.449   7.867   0.890  1.00 20.00    -0.291 OA
ENDROOT
BRANCH   5   7
HETATM    7  C5  UNL     1     -34.420   5.516   3.781  1.00 20.00    -0.002 C 
HETATM    8  C4  UNL     1     -35.637   5.864   4.223  1.00 20.00     0.038 C 
HETATM    9  C7  UNL     1     -33.883   4.123   3.883  1.00 20.00     0.067 C 
ENDBRANCH   5   7
TORSDOF 1
ENDMDL
MODEL 8
REMARK VINA RESULT:      -0.7      2.205      4.159
REMARK  1 active torsions:
REMARK  status: ('A' for Active; 'I' for Inactive)
REMARK    1  A    between atoms: C5_5  and  N8_8 
ROOT
HETATM    1  C1  UNL     1     -34.571   7.233   4.447  1.00 20.00     0.069 A 
HETATM    2  C2  UNL     1     -33.743   7.959   3.690  1.00 20.00     0.095 A 
HETATM    3  C3  UNL     1     -34.506   5.893   3.821  1.00 20.00     0.168 A 
HETATM    4  C6  UNL     1     -33.568   5.895   2.629  1.00 20.00     0.211 A 
HETATM    5  N8  UNL     1     -33.136   7.289   2.650  1.00 20.00    -0.354 N 
HETATM    6  O9  UNL     1     -35.134   4.928   4.226  1.00 20.00    -0.291 OA
ENDROOT
BRANCH   5   7
HETATM    7  C5  UNL     1     -32.262   7.818   1.754  1.00 20.00    -0.002 C 
HETATM    8  C4  UNL     1     -31.157   7.148   1.397  1.00 20.00     0.038 C 
HETATM    9  C7  UNL     1     -32.608   9.169   1.210  1.00 20.00     0.067 C 
ENDBRANCH   5   7
TORSDOF 1
ENDMDL
MODEL 9
REMARK VINA RESULT:      -0.3      2.151      3.847
REMARK  1 active torsions:
REMARK  status: ('A' for Active; 'I' for Inactive)
REMARK    1  A    between atoms: C5_5  and  N8_8 
ROOT
HETATM    1  C1  UNL     1     -33.871   5.256   2.621  1.00 20.00     0.069 A 
HETATM    2  C2  UNL     1     -32.960   6.029   2.024  1.00 20.00     0.095 A 
HETATM    3  C3  UNL     1     -34.501   6.174   3.596  1.00 20.00     0.168 A 
HETATM    4  C6  UNL     1     -33.880   7.556   3.520  1.00 20.00     0.211 A 
HETATM    5  N8  UNL     1     -32.897   7.333   2.465  1.00 20.00    -0.354 N 
HETATM    6  O9  UNL     1     -35.400   5.843   4.352  1.00 20.00    -0.291 OA
ENDROOT
BRANCH   5   7
HETATM    7  C5  UNL     1     -32.054   8.297   2.008  1.00 20.00    -0.002 C 
HETATM    8  C4  UNL     1     -30.931   8.598   2.674  1.00 20.00     0.038 C 
HETATM    9  C7  UNL     1     -32.458   8.981   0.740  1.00 20.00     0.067 C 
ENDBRANCH   5   7
TORSDOF 1
ENDMDL
