MODEL 1
REMARK VINA RESULT:      -1.4      0.000      0.000
REMARK  2 active torsions:
REMARK  status: ('A' for Active; 'I' for Inactive)
REMARK    1  A    between atoms: C4_4  and  C6_6 
REMARK    2  A    between atoms: C7_7  and  O10_10 
ROOT
HETATM    1  C1  UNL     1     -32.731   9.505   0.415  1.00 20.00     0.218 C 
HETATM    2  C4  UNL     1     -32.769   9.157   1.668  1.00 20.00     0.043 C 
HETATM    3  O9  UNL     1     -32.697   9.819  -0.718  1.00 20.00    -0.284 OA
ENDROOT
BRANCH   2   4
HETATM    4  C6  UNL     1     -32.080   7.960   2.245  1.00 20.00     0.064 C 
HETATM    5  C3  UNL     1     -31.617   7.022   1.167  1.00 20.00    -0.020 C 
HETATM    6  C2  UNL     1     -32.307   5.878   1.153  1.00 20.00    -0.027 C 
HETATM    7  C5  UNL     1     -33.344   5.839   2.223  1.00 20.00     0.059 C 
HETATM    8  C7  UNL     1     -32.951   7.023   3.115  1.00 20.00     0.135 C 
BRANCH   8   9
HETATM    9  O10 UNL     1     -34.094   7.649   3.671  1.00 20.00    -0.389 OA
HETATM   10  C8  UNL     1     -35.098   6.699   3.991  1.00 20.00     0.202 C 
ENDBRANCH   8   9
ENDBRANCH   2   4
TORSDOF 2
ENDMDL
MODEL 2
REMARK VINA RESULT:      -0.8      2.290      4.268
REMARK  2 active torsions:
REMARK  status: ('A' for Active; 'I' for Inactive)
REMARK    1  A    between atoms: C4_4  and  C6_6 
REMARK    2  A    between atoms: C7_7  and  O10_10 
ROOT
HETATM    1  C1  UNL     1     -33.719   3.783   4.288  1.00 20.00     0.218 C 
HETATM    2  C4  UNL     1     -34.196   4.993   4.252  1.00 20.00     0.043 C 
HETATM    3  O9  UNL     1     -33.287   2.690   4.320  1.00 20.00    -0.284 OA
ENDROOT
BRANCH   2   4
HETATM    4  C6  UNL     1     -34.326   5.826   3.015  1.00 20.00     0.064 C 
HETATM    5  C3  UNL     1     -33.295   5.448   1.990  1.00 20.00    -0.020 C 
HETATM    6  C2  UNL     1     -32.372   6.399   1.818  1.00 20.00    -0.027 C 
HETATM    7  C5  UNL     1     -32.625   7.585   2.684  1.00 20.00     0.059 C 
HETATM    8  C7  UNL     1     -34.055   7.340   3.180  1.00 20.00     0.135 C 
BRANCH   8   9
HETATM    9  O10 UNL     1     -34.230   7.818   4.503  1.00 20.00    -0.389 OA
HETATM   10  C8  UNL     1     -33.017   8.332   5.029  1.00 20.00     0.202 C 
ENDBRANCH   8   9
ENDBRANCH   2   4
TORSDOF 2
ENDMDL
MODEL 3
REMARK VINA RESULT:      -0.2      2.286      3.210
REMARK  2 active torsions:
REMARK  status: ('A' for Active; 'I' for Inactive)
REMARK    1  A    between atoms: C4_4  and  C6_6 
REMARK    2  A    between atoms: C7_7  and  O10_10 
ROOT
HETATM    1  C1  UNL     1     -31.638   4.543   0.664  1.00 20.00     0.218 C 
HETATM    2  C4  UNL     1     -32.095   5.227   1.671  1.00 20.00     0.043 C 
HETATM    3  O9  UNL     1     -31.224   3.925  -0.247  1.00 20.00    -0.284 OA
ENDROOT
BRANCH   2   4
HETATM    4  C6  UNL     1     -32.865   6.506   1.559  1.00 20.00     0.064 C 
HETATM    5  C3  UNL     1     -31.950   7.696   1.539  1.00 20.00    -0.020 C 
HETATM    6  C2  UNL     1     -32.043   8.431   2.652  1.00 20.00    -0.027 C 
HETATM    7  C5  UNL     1     -33.042   7.873   3.607  1.00 20.00     0.059 C 
HETATM    8  C7  UNL     1     -33.794   6.850   2.747  1.00 20.00     0.135 C 
BRANCH   8   9
HETATM    9  O10 UNL     1     -34.191   5.726   3.515  1.00 20.00    -0.389 OA
HETATM   10  C8  UNL     1     -35.378   5.994   4.244  1.00 20.00     0.202 C 
ENDBRANCH   8   9
ENDBRANCH   2   4
TORSDOF 2
ENDMDL
MODEL 4
REMARK VINA RESULT:      -0.0      2.062      4.088
REMARK  2 active torsions:
REMARK  status: ('A' for Active; 'I' for Inactive)
REMARK    1  A    between atoms: C4_4  and  C6_6 
REMARK    2  A    between atoms: C7_7  and  O10_10 
ROOT
HETATM    1  C1  UNL     1     -35.070   5.882   4.051  1.00 20.00     0.218 C 
HETATM    2  C4  UNL     1     -34.477   6.829   3.384  1.00 20.00     0.043 C 
HETATM    3  O9  UNL     1     -35.606   5.028   4.656  1.00 20.00    -0.284 OA
ENDROOT
BRANCH   2   4
HETATM    4  C6  UNL     1     -32.994   7.017   3.299  1.00 20.00     0.064 C 
HETATM    5  C3  UNL     1     -32.630   8.472   3.243  1.00 20.00    -0.020 C 
HETATM    6  C2  UNL     1     -32.146   8.834   2.051  1.00 20.00    -0.027 C 
HETATM    7  C5  UNL     1     -32.090   7.686   1.101  1.00 20.00     0.059 C 
HETATM    8  C7  UNL     1     -32.310   6.478   2.021  1.00 20.00     0.135 C 
BRANCH   8   9
HETATM    9  O10 UNL     1     -33.039   5.456   1.362  1.00 20.00    -0.389 OA
HETATM   10  C8  UNL     1     -32.194   4.672   0.536  1.00 20.00     0.202 C 
ENDBRANCH   8   9
ENDBRANCH   2   4
TORSDOF 2
ENDMDL
MODEL 5
REMARK VINA RESULT:      -0.0      2.013      3.702
REMARK  2 active torsions:
REMARK  status: ('A' for Active; 'I' for Inactive)
REMARK    1  A    between atoms: C4_4  and  C6_6 
REMARK    2  A    between atoms: C7_7  and  O10_10 
ROOT
HETATM    1  C1  UNL     1     -32.308   4.922   0.780  1.00 20.00     0.218 C 
HETATM    2  C4  UNL     1     -33.246   5.491   1.479  1.00 20.00     0.043 C 
HETATM    3  O9  UNL     1     -31.460   4.407   0.149  1.00 20.00    -0.284 OA
ENDROOT
BRANCH   2   4
HETATM    4  C6  UNL     1     -33.164   5.784   2.944  1.00 20.00     0.064 C 
HETATM    5  C3  UNL     1     -34.335   5.205   3.685  1.00 20.00    -0.020 C 
HETATM    6  C2  UNL     1     -35.165   6.145   4.147  1.00 20.00    -0.027 C 
HETATM    7  C5  UNL     1     -34.693   7.519   3.811  1.00 20.00     0.059 C 
HETATM    8  C7  UNL     1     -33.252   7.275   3.348  1.00 20.00     0.135 C 
BRANCH   8   9
HETATM    9  O10 UNL     1     -32.884   8.176   2.317  1.00 20.00    -0.389 OA
HETATM   10  C8  UNL     1     -31.474   8.291   2.213  1.00 20.00     0.202 C 
ENDBRANCH   8   9
ENDBRANCH   2   4
TORSDOF 2
ENDMDL
MODEL 6
REMARK VINA RESULT:      -0.0      1.378      3.768
REMARK  2 active torsions:
REMARK  status: ('A' for Active; 'I' for Inactive)
REMARK    1  A    between atoms: C4_4  and  C6_6 
REMARK    2  A    between atoms: C7_7  and  O10_10 
ROOT
HETATM    1  C1  UNL     1     -34.813   6.529   3.916  1.00 20.00     0.218 C 
HETATM    2  C4  UNL     1     -33.960   7.208   3.207  1.00 20.00     0.043 C 
HETATM    3  O9  UNL     1     -35.583   5.914   4.558  1.00 20.00    -0.284 OA
ENDROOT
BRANCH   2   4
HETATM    4  C6  UNL     1     -33.558   6.878   1.803  1.00 20.00     0.064 C 
HETATM    5  C3  UNL     1     -32.861   5.550   1.731  1.00 20.00    -0.020 C 
HETATM    6  C2  UNL     1     -31.561   5.670   1.444  1.00 20.00    -0.027 C 
HETATM    7  C5  UNL     1     -31.159   7.093   1.261  1.00 20.00     0.059 C 
HETATM    8  C7  UNL     1     -32.509   7.813   1.155  1.00 20.00     0.135 C 
BRANCH   8   9
HETATM    9  O10 UNL     1     -32.450   9.105   1.735  1.00 20.00    -0.389 OA
HETATM   10  C8  UNL     1     -32.534  10.118   0.746  1.00 20.00     0.202 C 
ENDBRANCH   8   9
ENDBRANCH   2   4
TORSDOF 2
ENDMDL
MODEL 7
REMARK VINA RESULT:       0.0      1.849      3.357
REMARK  2 active torsions:
REMARK  status: ('A' for Active; 'I' for Inactive)
REMARK    1  A    between atoms: C4_4  and  C6_6 
REMARK    2  A    between atoms: C7_7  and  O10_10 
ROOT
HETATM    1  C1  UNL     1     -32.406   8.108   2.524  1.00 20.00     0.218 C 
HETATM    2  C4  UNL     1     -33.268   7.593   3.352  1.00 20.00     0.043 C 
HETATM    3  O9  UNL     1     -31.628   8.574   1.775  1.00 20.00    -0.284 OA
ENDROOT
BRANCH   2   4
HETATM    4  C6  UNL     1     -34.322   6.598   2.981  1.00 20.00     0.064 C 
HETATM    5  C3  UNL     1     -35.222   6.295   4.145  1.00 20.00    -0.020 C 
HETATM    6  C2  UNL     1     -35.055   5.054   4.612  1.00 20.00    -0.027 C 
HETATM    7  C5  UNL     1     -34.025   4.302   3.840  1.00 20.00     0.059 C 
HETATM    8  C7  UNL     1     -33.823   5.183   2.601  1.00 20.00     0.135 C 
BRANCH   8   9
HETATM    9  O10 UNL     1     -32.478   5.146   2.157  1.00 20.00    -0.389 OA
HETATM   10  C8  UNL     1     -32.404   4.991   0.749  1.00 20.00     0.202 C 
ENDBRANCH   8   9
ENDBRANCH   2   4
TORSDOF 2
ENDMDL
MODEL 8
REMARK VINA RESULT:       0.0      2.194      3.394
REMARK  2 active torsions:
REMARK  status: ('A' for Active; 'I' for Inactive)
REMARK    1  A    between atoms: C4_4  and  C6_6 
REMARK    2  A    between atoms: C7_7  and  O10_10 
ROOT
HETATM    1  C1  UNL     1     -32.205   7.431   1.889  1.00 20.00     0.218 C 
HETATM    2  C4  UNL     1     -32.528   6.260   2.354  1.00 20.00     0.043 C 
HETATM    3  O9  UNL     1     -31.913   8.491   1.471  1.00 20.00    -0.284 OA
ENDROOT
BRANCH   2   4
HETATM    4  C6  UNL     1     -33.925   5.731   2.447  1.00 20.00     0.064 C 
HETATM    5  C3  UNL     1     -34.862   6.758   3.014  1.00 20.00    -0.020 C 
HETATM    6  C2  UNL     1     -35.293   6.438   4.239  1.00 20.00    -0.027 C 
HETATM    7  C5  UNL     1     -34.733   5.137   4.704  1.00 20.00     0.059 C 
HETATM    8  C7  UNL     1     -34.144   4.546   3.417  1.00 20.00     0.135 C 
BRANCH   8   9
HETATM    9  O10 UNL     1     -32.971   3.796   3.686  1.00 20.00    -0.389 OA
HETATM   10  C8  UNL     1     -33.176   2.883   4.753  1.00 20.00     0.202 C 
ENDBRANCH   8   9
ENDBRANCH   2   4
TORSDOF 2
ENDMDL
MODEL 9
REMARK VINA RESULT:       0.2      2.078      3.874
REMARK  2 active torsions:
REMARK  status: ('A' for Active; 'I' for Inactive)
REMARK    1  A    between atoms: C4_4  and  C6_6 
REMARK    2  A    between atoms: C7_7  and  O10_10 
ROOT
HETATM    1  C1  UNL     1     -33.422   4.029   3.735  1.00 20.00     0.218 C 
HETATM    2  C4  UNL     1     -32.658   4.741   2.960  1.00 20.00     0.043 C 
HETATM    3  O9  UNL     1     -34.114   3.385   4.435  1.00 20.00    -0.284 OA
ENDROOT
BRANCH   2   4
HETATM    4  C6  UNL     1     -33.141   5.801   2.019  1.00 20.00     0.064 C 
HETATM    5  C3  UNL     1     -32.020   6.333   1.173  1.00 20.00    -0.020 C 
HETATM    6  C2  UNL     1     -31.698   7.593   1.484  1.00 20.00    -0.027 C 
HETATM    7  C5  UNL     1     -32.550   8.131   2.582  1.00 20.00     0.059 C 
HETATM    8  C7  UNL     1     -33.680   7.097   2.669  1.00 20.00     0.135 C 
BRANCH   8   9
HETATM    9  O10 UNL     1     -34.124   6.932   4.005  1.00 20.00    -0.389 OA
HETATM   10  C8  UNL     1     -35.488   6.543   4.050  1.00 20.00     0.202 C 
ENDBRANCH   8   9
ENDBRANCH   2   4
TORSDOF 2
ENDMDL
