MODEL 1
REMARK VINA RESULT:      -0.9      0.000      0.000
REMARK  1 active torsions:
REMARK  status: ('A' for Active; 'I' for Inactive)
REMARK    1  A    between atoms: C1_1  and  C7_7 
ROOT
HETATM    1  C2  UNL     1     -34.615   6.882   4.302  1.00 20.00     0.001 C 
HETATM    2  C3  UNL     1     -31.453   6.687   1.804  1.00 20.00     0.014 C 
HETATM    3  C4  UNL     1     -34.189   5.778   3.349  1.00 20.00     0.005 C 
HETATM    4  C5  UNL     1     -33.598   7.976   4.020  1.00 20.00     0.006 C 
HETATM    5  C6  UNL     1     -32.673   5.934   1.287  1.00 20.00     0.006 C 
HETATM    6  C7  UNL     1     -31.956   8.106   2.054  1.00 20.00     0.076 C 
HETATM    7  C8  UNL     1     -33.848   6.525   2.059  1.00 20.00    -0.010 C 
HETATM    8  C9  UNL     1     -33.414   7.942   2.497  1.00 20.00     0.002 C 
ENDROOT
BRANCH   6   9
HETATM    9  C1  UNL     1     -31.879   8.926   0.800  1.00 20.00     0.223 C 
HETATM   10  O10 UNL     1     -31.124   8.628  -0.121  1.00 20.00    -0.279 OA
HETATM   11 CL11 UNL     1     -32.959  10.287   0.840  1.00 20.00    -0.043 Cl
ENDBRANCH   6   9
TORSDOF 1
ENDMDL
MODEL 2
REMARK VINA RESULT:       0.2      2.522      3.881
REMARK  1 active torsions:
REMARK  status: ('A' for Active; 'I' for Inactive)
REMARK    1  A    between atoms: C1_1  and  C7_7 
ROOT
HETATM    1  C2  UNL     1     -31.755   9.714   0.249  1.00 20.00     0.001 C 
HETATM    2  C3  UNL     1     -33.404   6.309   1.653  1.00 20.00     0.014 C 
HETATM    3  C4  UNL     1     -31.216   8.293   0.246  1.00 20.00     0.005 C 
HETATM    4  C5  UNL     1     -33.060   9.572   1.016  1.00 20.00     0.006 C 
HETATM    5  C6  UNL     1     -31.882   6.320   1.743  1.00 20.00     0.006 C 
HETATM    6  C7  UNL     1     -33.841   7.563   2.405  1.00 20.00     0.076 C 
HETATM    7  C8  UNL     1     -31.501   7.794   1.663  1.00 20.00    -0.010 C 
HETATM    8  C9  UNL     1     -32.733   8.590   2.149  1.00 20.00     0.002 C 
ENDROOT
BRANCH   6   9
HETATM    9  C1  UNL     1     -33.966   7.285   3.875  1.00 20.00     0.223 C 
HETATM   10  O10 UNL     1     -33.306   7.900   4.707  1.00 20.00    -0.279 OA
HETATM   11 CL11 UNL     1     -35.124   6.033   4.208  1.00 20.00    -0.043 Cl
ENDBRANCH   6   9
TORSDOF 1
ENDMDL
MODEL 3
REMARK VINA RESULT:       0.5      2.435      3.794
REMARK  1 active torsions:
REMARK  status: ('A' for Active; 'I' for Inactive)
REMARK    1  A    between atoms: C1_1  and  C7_7 
ROOT
HETATM    1  C2  UNL     1     -31.815   9.581   0.383  1.00 20.00     0.001 C 
HETATM    2  C3  UNL     1     -33.272   5.979   1.471  1.00 20.00     0.014 C 
HETATM    3  C4  UNL     1     -31.173   8.206   0.314  1.00 20.00     0.005 C 
HETATM    4  C5  UNL     1     -33.141   9.295   1.069  1.00 20.00     0.006 C 
HETATM    5  C6  UNL     1     -31.761   6.091   1.641  1.00 20.00     0.006 C 
HETATM    6  C7  UNL     1     -33.836   7.143   2.280  1.00 20.00     0.076 C 
HETATM    7  C8  UNL     1     -31.487   7.591   1.679  1.00 20.00    -0.010 C 
HETATM    8  C9  UNL     1     -32.796   8.262   2.151  1.00 20.00     0.002 C 
ENDROOT
BRANCH   6   9
HETATM    9  C1  UNL     1     -34.010   6.756   3.720  1.00 20.00     0.223 C 
HETATM   10  O10 UNL     1     -34.437   5.651   4.043  1.00 20.00    -0.279 OA
HETATM   11 CL11 UNL     1     -33.543   8.031   4.803  1.00 20.00    -0.043 Cl
ENDBRANCH   6   9
TORSDOF 1
ENDMDL
MODEL 4
REMARK VINA RESULT:       1.4      2.919      4.326
REMARK  1 active torsions:
REMARK  status: ('A' for Active; 'I' for Inactive)
REMARK    1  A    between atoms: C1_1  and  C7_7 
ROOT
HETATM    1  C2  UNL     1     -31.671   6.935   1.012  1.00 20.00     0.001 C 
HETATM    2  C3  UNL     1     -33.373   7.122   4.665  1.00 20.00     0.014 C 
HETATM    3  C4  UNL     1     -31.963   8.137   1.893  1.00 20.00     0.005 C 
HETATM    4  C5  UNL     1     -32.275   5.787   1.805  1.00 20.00     0.006 C 
HETATM    5  C6  UNL     1     -33.656   8.351   3.808  1.00 20.00     0.006 C 
HETATM    6  C7  UNL     1     -33.854   5.947   3.819  1.00 20.00     0.076 C 
HETATM    7  C8  UNL     1     -33.393   7.892   2.378  1.00 20.00    -0.010 C 
HETATM    8  C9  UNL     1     -33.583   6.359   2.369  1.00 20.00     0.002 C 
ENDROOT
BRANCH   6   9
HETATM    9  C1  UNL     1     -35.320   5.704   4.029  1.00 20.00     0.223 C 
HETATM   10  O10 UNL     1     -35.728   4.835   4.794  1.00 20.00    -0.279 OA
HETATM   11 CL11 UNL     1     -36.303   6.779   3.082  1.00 20.00    -0.043 Cl
ENDBRANCH   6   9
TORSDOF 1
ENDMDL
MODEL 5
REMARK VINA RESULT:       1.7      2.406      3.068
REMARK  1 active torsions:
REMARK  status: ('A' for Active; 'I' for Inactive)
REMARK    1  A    between atoms: C1_1  and  C7_7 
ROOT
HETATM    1  C2  UNL     1     -34.596   7.432   4.689  1.00 20.00     0.001 C 
HETATM    2  C3  UNL     1     -32.909   7.596   1.027  1.00 20.00     0.014 C 
HETATM    3  C4  UNL     1     -33.513   8.352   4.152  1.00 20.00     0.005 C 
HETATM    4  C5  UNL     1     -34.840   6.490   3.521  1.00 20.00     0.006 C 
HETATM    5  C6  UNL     1     -31.955   7.999   2.146  1.00 20.00     0.006 C 
HETATM    6  C7  UNL     1     -33.395   6.204   1.422  1.00 20.00     0.076 C 
HETATM    7  C8  UNL     1     -32.569   7.406   3.410  1.00 20.00    -0.010 C 
HETATM    8  C9  UNL     1     -33.441   6.215   2.953  1.00 20.00     0.002 C 
ENDROOT
BRANCH   6   9
HETATM    9  C1  UNL     1     -32.444   5.151   0.935  1.00 20.00     0.223 C 
HETATM   10  O10 UNL     1     -31.297   5.068   1.364  1.00 20.00    -0.279 OA
HETATM   11 CL11 UNL     1     -33.166   4.119  -0.263  1.00 20.00    -0.043 Cl
ENDBRANCH   6   9
TORSDOF 1
ENDMDL
MODEL 6
REMARK VINA RESULT:       1.8      3.021      4.375
REMARK  1 active torsions:
REMARK  status: ('A' for Active; 'I' for Inactive)
REMARK    1  A    between atoms: C1_1  and  C7_7 
ROOT
HETATM    1  C2  UNL     1     -31.534   7.027   0.909  1.00 20.00     0.001 C 
HETATM    2  C3  UNL     1     -33.295   7.323   4.527  1.00 20.00     0.014 C 
HETATM    3  C4  UNL     1     -31.771   8.246   1.783  1.00 20.00     0.005 C 
HETATM    4  C5  UNL     1     -32.222   5.919   1.690  1.00 20.00     0.006 C 
HETATM    5  C6  UNL     1     -33.486   8.565   3.664  1.00 20.00     0.006 C 
HETATM    6  C7  UNL     1     -33.828   6.177   3.673  1.00 20.00     0.076 C 
HETATM    7  C8  UNL     1     -33.223   8.088   2.239  1.00 20.00    -0.010 C 
HETATM    8  C9  UNL     1     -33.504   6.569   2.228  1.00 20.00     0.002 C 
ENDROOT
BRANCH   6   9
HETATM    9  C1  UNL     1     -35.310   6.023   3.853  1.00 20.00     0.223 C 
HETATM   10  O10 UNL     1     -36.111   6.717   3.234  1.00 20.00    -0.279 OA
HETATM   11 CL11 UNL     1     -35.704   4.784   5.006  1.00 20.00    -0.043 Cl
ENDBRANCH   6   9
TORSDOF 1
ENDMDL
