MODEL 1
REMARK VINA RESULT:       1.9      0.000      0.000
REMARK  1 active torsions:
REMARK  status: ('A' for Active; 'I' for Inactive)
REMARK    1  A    between atoms: C4_4  and  C7_7 
ROOT
HETATM    1  C1  UNL     1     -33.653   5.435   0.801  1.00 20.00    -0.024 C 
HETATM    2  C2  UNL     1     -34.340   6.377   1.468  1.00 20.00    -0.013 C 
HETATM    3  C3  UNL     1     -32.316   7.390   2.183  1.00 20.00     0.140 C 
HETATM    4  C5  UNL     1     -31.451   6.352   1.460  1.00 20.00     0.088 C 
HETATM    5  C6  UNL     1     -32.397   5.132   1.602  1.00 20.00     0.027 C 
HETATM    6  C7  UNL     1     -32.927   5.330   3.035  1.00 20.00     0.074 C 
HETATM    7  C8  UNL     1     -33.569   6.693   2.729  1.00 20.00     0.045 C 
HETATM    8  C9  UNL     1     -34.289   7.383   3.857  1.00 20.00     0.029 C 
HETATM    9  O10 UNL     1     -32.054   8.579   2.276  1.00 20.00    -0.297 OA
ENDROOT
BRANCH   6  10
HETATM   10  C4  UNL     1     -33.845   4.233   3.496  1.00 20.00     0.237 C 
HETATM   11  O11 UNL     1     -33.636   3.550   4.493  1.00 20.00    -0.306 OA
ENDBRANCH   6  10
TORSDOF 1
ENDMDL
MODEL 2
REMARK VINA RESULT:       2.2      1.695      3.887
REMARK  1 active torsions:
REMARK  status: ('A' for Active; 'I' for Inactive)
REMARK    1  A    between atoms: C4_4  and  C7_7 
ROOT
HETATM    1  C1  UNL     1     -30.949   7.759   2.282  1.00 20.00    -0.024 C 
HETATM    2  C2  UNL     1     -31.781   8.074   3.289  1.00 20.00    -0.013 C 
HETATM    3  C3  UNL     1     -33.268   6.340   2.644  1.00 20.00     0.140 C 
HETATM    4  C5  UNL     1     -32.385   5.917   1.465  1.00 20.00     0.088 C 
HETATM    5  C6  UNL     1     -31.803   7.308   1.108  1.00 20.00     0.027 C 
HETATM    6  C7  UNL     1     -33.039   8.208   1.302  1.00 20.00     0.074 C 
HETATM    7  C8  UNL     1     -33.193   7.865   2.793  1.00 20.00     0.045 C 
HETATM    8  C9  UNL     1     -34.321   8.528   3.538  1.00 20.00     0.029 C 
HETATM    9  O10 UNL     1     -33.897   5.576   3.358  1.00 20.00    -0.297 OA
ENDROOT
BRANCH   6  10
HETATM   10  C4  UNL     1     -32.796   9.651   0.957  1.00 20.00     0.237 C 
HETATM   11  O11 UNL     1     -32.613  10.050  -0.188  1.00 20.00    -0.306 OA
ENDBRANCH   6  10
TORSDOF 1
ENDMDL
MODEL 3
REMARK VINA RESULT:       2.6      1.863      3.212
REMARK  1 active torsions:
REMARK  status: ('A' for Active; 'I' for Inactive)
REMARK    1  A    between atoms: C4_4  and  C7_7 
ROOT
HETATM    1  C1  UNL     1     -35.472   6.601   3.494  1.00 20.00    -0.024 C 
HETATM    2  C2  UNL     1     -34.849   7.308   2.536  1.00 20.00    -0.013 C 
HETATM    3  C3  UNL     1     -33.220   5.599   2.293  1.00 20.00     0.140 C 
HETATM    4  C5  UNL     1     -33.858   4.729   3.381  1.00 20.00     0.088 C 
HETATM    5  C6  UNL     1     -34.404   5.863   4.285  1.00 20.00     0.027 C 
HETATM    6  C7  UNL     1     -33.252   6.884   4.214  1.00 20.00     0.074 C 
HETATM    7  C8  UNL     1     -33.364   7.074   2.693  1.00 20.00     0.045 C 
HETATM    8  C9  UNL     1     -32.412   8.046   2.049  1.00 20.00     0.029 C 
HETATM    9  O10 UNL     1     -32.711   5.177   1.267  1.00 20.00    -0.297 OA
ENDROOT
BRANCH   6  10
HETATM   10  C4  UNL     1     -33.469   8.100   5.070  1.00 20.00     0.237 C 
HETATM   11  O11 UNL     1     -32.554   8.764   5.546  1.00 20.00    -0.306 OA
ENDBRANCH   6  10
TORSDOF 1
ENDMDL
MODEL 4
REMARK VINA RESULT:       2.8      1.977      2.602
REMARK  1 active torsions:
REMARK  status: ('A' for Active; 'I' for Inactive)
REMARK    1  A    between atoms: C4_4  and  C7_7 
ROOT
HETATM    1  C1  UNL     1     -32.761   8.673   1.296  1.00 20.00    -0.024 C 
HETATM    2  C2  UNL     1     -33.863   8.397   2.014  1.00 20.00    -0.013 C 
HETATM    3  C3  UNL     1     -32.551   8.108   3.972  1.00 20.00     0.140 C 
HETATM    4  C5  UNL     1     -31.242   8.400   3.230  1.00 20.00     0.088 C 
HETATM    5  C6  UNL     1     -31.631   7.819   1.847  1.00 20.00     0.027 C 
HETATM    6  C7  UNL     1     -32.414   6.558   2.263  1.00 20.00     0.074 C 
HETATM    7  C8  UNL     1     -33.491   7.342   3.030  1.00 20.00     0.045 C 
HETATM    8  C9  UNL     1     -34.593   6.546   3.676  1.00 20.00     0.029 C 
HETATM    9  O10 UNL     1     -32.804   8.460   5.113  1.00 20.00    -0.297 OA
ENDROOT
BRANCH   6  10
HETATM   10  C4  UNL     1     -32.877   5.725   1.101  1.00 20.00     0.237 C 
HETATM   11  O11 UNL     1     -32.247   4.768   0.661  1.00 20.00    -0.306 OA
ENDBRANCH   6  10
TORSDOF 1
ENDMDL
MODEL 5
REMARK VINA RESULT:       3.1      1.000      1.315
REMARK  1 active torsions:
REMARK  status: ('A' for Active; 'I' for Inactive)
REMARK    1  A    between atoms: C4_4  and  C7_7 
ROOT
HETATM    1  C1  UNL     1     -35.093   6.225   2.239  1.00 20.00    -0.024 C 
HETATM    2  C2  UNL     1     -34.976   7.191   3.165  1.00 20.00    -0.013 C 
HETATM    3  C3  UNL     1     -32.715   7.555   2.539  1.00 20.00     0.140 C 
HETATM    4  C5  UNL     1     -32.755   6.462   1.466  1.00 20.00     0.088 C 
HETATM    5  C6  UNL     1     -33.758   5.504   2.157  1.00 20.00     0.027 C 
HETATM    6  C7  UNL     1     -33.300   5.601   3.626  1.00 20.00     0.074 C 
HETATM    7  C8  UNL     1     -33.576   7.110   3.729  1.00 20.00     0.045 C 
HETATM    8  C9  UNL     1     -33.295   7.772   5.052  1.00 20.00     0.029 C 
HETATM    9  O10 UNL     1     -32.117   8.615   2.439  1.00 20.00    -0.297 OA
ENDROOT
BRANCH   6  10
HETATM   10  C4  UNL     1     -34.066   4.704   4.557  1.00 20.00     0.237 C 
HETATM   11  O11 UNL     1     -34.130   3.486   4.423  1.00 20.00    -0.306 OA
ENDBRANCH   6  10
TORSDOF 1
ENDMDL
MODEL 6
REMARK VINA RESULT:       3.2      1.019      3.764
REMARK  1 active torsions:
REMARK  status: ('A' for Active; 'I' for Inactive)
REMARK    1  A    between atoms: C4_4  and  C7_7 
ROOT
HETATM    1  C1  UNL     1     -35.446   7.064   2.776  1.00 20.00    -0.024 C 
HETATM    2  C2  UNL     1     -34.784   6.255   1.932  1.00 20.00    -0.013 C 
HETATM    3  C3  UNL     1     -34.077   4.894   3.744  1.00 20.00     0.140 C 
HETATM    4  C5  UNL     1     -34.795   5.767   4.779  1.00 20.00     0.088 C 
HETATM    5  C6  UNL     1     -34.645   7.134   4.066  1.00 20.00     0.027 C 
HETATM    6  C7  UNL     1     -33.212   7.025   3.508  1.00 20.00     0.074 C 
HETATM    7  C8  UNL     1     -33.526   5.799   2.634  1.00 20.00     0.045 C 
HETATM    8  C9  UNL     1     -32.401   5.242   1.803  1.00 20.00     0.029 C 
HETATM    9  O10 UNL     1     -33.992   3.677   3.790  1.00 20.00    -0.297 OA
ENDROOT
BRANCH   6  10
HETATM   10  C4  UNL     1     -32.744   8.265   2.800  1.00 20.00     0.237 C 
HETATM   11  O11 UNL     1     -31.921   8.254   1.890  1.00 20.00    -0.306 OA
ENDBRANCH   6  10
TORSDOF 1
ENDMDL
MODEL 7
REMARK VINA RESULT:       3.4      1.981      3.860
REMARK  1 active torsions:
REMARK  status: ('A' for Active; 'I' for Inactive)
REMARK    1  A    between atoms: C4_4  and  C7_7 
ROOT
HETATM    1  C1  UNL     1     -32.401   6.083   1.372  1.00 20.00    -0.024 C 
HETATM    2  C2  UNL     1     -31.531   6.694   2.194  1.00 20.00    -0.013 C 
HETATM    3  C3  UNL     1     -33.315   7.461   3.559  1.00 20.00     0.140 C 
HETATM    4  C5  UNL     1     -34.378   6.805   2.673  1.00 20.00     0.088 C 
HETATM    5  C6  UNL     1     -33.653   6.943   1.310  1.00 20.00     0.027 C 
HETATM    6  C7  UNL     1     -33.032   8.347   1.444  1.00 20.00     0.074 C 
HETATM    7  C8  UNL     1     -32.178   7.976   2.667  1.00 20.00     0.045 C 
HETATM    8  C9  UNL     1     -31.299   9.053   3.245  1.00 20.00     0.029 C 
HETATM    9  O10 UNL     1     -33.363   7.530   4.778  1.00 20.00    -0.297 OA
ENDROOT
BRANCH   6  10
HETATM   10  C4  UNL     1     -32.298   8.802   0.213  1.00 20.00     0.237 C 
HETATM   11  O11 UNL     1     -32.555   9.844  -0.381  1.00 20.00    -0.306 OA
ENDBRANCH   6  10
TORSDOF 1
ENDMDL
MODEL 8
REMARK VINA RESULT:       3.7      1.873      3.244
REMARK  1 active torsions:
REMARK  status: ('A' for Active; 'I' for Inactive)
REMARK    1  A    between atoms: C4_4  and  C7_7 
ROOT
HETATM    1  C1  UNL     1     -31.975   8.712   3.574  1.00 20.00    -0.024 C 
HETATM    2  C2  UNL     1     -31.279   7.756   2.936  1.00 20.00    -0.013 C 
HETATM    3  C3  UNL     1     -32.080   8.532   0.840  1.00 20.00     0.140 C 
HETATM    4  C5  UNL     1     -32.912   9.645   1.484  1.00 20.00     0.088 C 
HETATM    5  C6  UNL     1     -33.270   8.924   2.807  1.00 20.00     0.027 C 
HETATM    6  C7  UNL     1     -33.533   7.490   2.305  1.00 20.00     0.074 C 
HETATM    7  C8  UNL     1     -32.108   7.302   1.757  1.00 20.00     0.045 C 
HETATM    8  C9  UNL     1     -31.787   5.976   1.121  1.00 20.00     0.029 C 
HETATM    9  O10 UNL     1     -31.472   8.630  -0.215  1.00 20.00    -0.297 OA
ENDROOT
BRANCH   6  10
HETATM   10  C4  UNL     1     -33.977   6.544   3.385  1.00 20.00     0.237 C 
HETATM   11  O11 UNL     1     -35.086   6.589   3.909  1.00 20.00    -0.306 OA
ENDBRANCH   6  10
TORSDOF 1
ENDMDL
MODEL 9
REMARK VINA RESULT:       3.9      1.458      2.931
REMARK  1 active torsions:
REMARK  status: ('A' for Active; 'I' for Inactive)
REMARK    1  A    between atoms: C4_4  and  C7_7 
ROOT
HETATM    1  C1  UNL     1     -33.544   8.036   4.869  1.00 20.00    -0.024 C 
HETATM    2  C2  UNL     1     -32.747   7.029   4.474  1.00 20.00    -0.013 C 
HETATM    3  C3  UNL     1     -32.882   7.768   2.222  1.00 20.00     0.140 C 
HETATM    4  C5  UNL     1     -33.803   8.939   2.581  1.00 20.00     0.088 C 
HETATM    5  C6  UNL     1     -34.557   8.279   3.763  1.00 20.00     0.027 C 
HETATM    6  C7  UNL     1     -34.742   6.843   3.235  1.00 20.00     0.074 C 
HETATM    7  C8  UNL     1     -33.233   6.572   3.118  1.00 20.00     0.045 C 
HETATM    8  C9  UNL     1     -32.815   5.212   2.625  1.00 20.00     0.029 C 
HETATM    9  O10 UNL     1     -31.998   7.803   1.381  1.00 20.00    -0.297 OA
ENDROOT
BRANCH   6  10
HETATM   10  C4  UNL     1     -35.523   5.955   4.164  1.00 20.00     0.237 C 
HETATM   11  O11 UNL     1     -35.220   4.790   4.398  1.00 20.00    -0.306 OA
ENDBRANCH   6  10
TORSDOF 1
ENDMDL
