MODEL 1
REMARK VINA RESULT:      -2.2      0.000      0.000
REMARK  2 active torsions:
REMARK  status: ('A' for Active; 'I' for Inactive)
REMARK    1  A    between atoms: C1_1  and  C7_7 
REMARK    2  A    between atoms: C4_4  and  C7_7 
ROOT
HETATM    1  C6  UNL     1     -33.021   5.586   2.024  1.00 20.00     0.018 C 
HETATM    2  C7  UNL     1     -33.499   7.003   2.331  1.00 20.00     0.055 C 
ENDROOT
BRANCH   2   3
HETATM    3  C1  UNL     1     -34.131   7.079   3.717  1.00 20.00     0.127 C 
HETATM    4  C5  UNL     1     -35.288   6.152   3.991  1.00 20.00     0.091 C 
HETATM    5  O8  UNL     1     -33.745   7.872   4.576  1.00 20.00    -0.298 OA
ENDBRANCH   2   3
BRANCH   2   6
HETATM    6  C4  UNL     1     -32.348   7.996   2.229  1.00 20.00    -0.004 A 
HETATM    7  C2  UNL     1     -31.303   7.839   1.160  1.00 20.00     0.006 A 
HETATM    8  C3  UNL     1     -32.289   8.971   1.086  1.00 20.00     0.006 A 
ENDBRANCH   2   6
TORSDOF 2
ENDMDL
MODEL 2
REMARK VINA RESULT:      -2.2      1.517      2.278
REMARK  2 active torsions:
REMARK  status: ('A' for Active; 'I' for Inactive)
REMARK    1  A    between atoms: C1_1  and  C7_7 
REMARK    2  A    between atoms: C4_4  and  C7_7 
ROOT
HETATM    1  C6  UNL     1     -33.868   8.016   4.137  1.00 20.00     0.018 C 
HETATM    2  C7  UNL     1     -33.476   6.640   3.605  1.00 20.00     0.055 C 
ENDROOT
BRANCH   2   3
HETATM    3  C1  UNL     1     -34.538   5.599   3.946  1.00 20.00     0.127 C 
HETATM    4  C5  UNL     1     -34.082   4.164   4.032  1.00 20.00     0.091 C 
HETATM    5  O8  UNL     1     -35.720   5.894   4.120  1.00 20.00    -0.298 OA
ENDBRANCH   2   3
BRANCH   2   6
HETATM    6  C4  UNL     1     -33.257   6.685   2.098  1.00 20.00    -0.004 A 
HETATM    7  C2  UNL     1     -32.095   7.446   1.523  1.00 20.00     0.006 A 
HETATM    8  C3  UNL     1     -32.105   5.943   1.479  1.00 20.00     0.006 A 
ENDBRANCH   2   6
TORSDOF 2
ENDMDL
MODEL 3
REMARK VINA RESULT:      -1.9      1.367      3.376
REMARK  2 active torsions:
REMARK  status: ('A' for Active; 'I' for Inactive)
REMARK    1  A    between atoms: C1_1  and  C7_7 
REMARK    2  A    between atoms: C4_4  and  C7_7 
ROOT
HETATM    1  C6  UNL     1     -32.850   5.832   1.292  1.00 20.00     0.018 C 
HETATM    2  C7  UNL     1     -32.720   6.808   2.459  1.00 20.00     0.055 C 
ENDROOT
BRANCH   2   3
HETATM    3  C1  UNL     1     -31.953   8.059   2.043  1.00 20.00     0.127 C 
HETATM    4  C5  UNL     1     -32.360   8.709   0.744  1.00 20.00     0.091 C 
HETATM    5  O8  UNL     1     -31.025   8.516   2.710  1.00 20.00    -0.298 OA
ENDBRANCH   2   3
BRANCH   2   6
HETATM    6  C4  UNL     1     -34.093   7.194   2.996  1.00 20.00    -0.004 A 
HETATM    7  C2  UNL     1     -34.871   6.232   3.851  1.00 20.00     0.006 A 
HETATM    8  C3  UNL     1     -34.280   7.472   4.462  1.00 20.00     0.006 A 
ENDBRANCH   2   6
TORSDOF 2
ENDMDL
MODEL 4
REMARK VINA RESULT:      -1.9      1.876      3.532
REMARK  2 active torsions:
REMARK  status: ('A' for Active; 'I' for Inactive)
REMARK    1  A    between atoms: C1_1  and  C7_7 
REMARK    2  A    between atoms: C4_4  and  C7_7 
ROOT
HETATM    1  C6  UNL     1     -32.050   8.055   1.971  1.00 20.00     0.018 C 
HETATM    2  C7  UNL     1     -33.119   6.966   1.967  1.00 20.00     0.055 C 
ENDROOT
BRANCH   2   3
HETATM    3  C1  UNL     1     -32.622   5.713   1.252  1.00 20.00     0.127 C 
HETATM    4  C5  UNL     1     -33.586   5.037   0.310  1.00 20.00     0.091 C 
HETATM    5  O8  UNL     1     -31.499   5.246   1.444  1.00 20.00    -0.298 OA
ENDBRANCH   2   3
BRANCH   2   6
HETATM    6  C4  UNL     1     -33.544   6.619   3.389  1.00 20.00    -0.004 A 
HETATM    7  C2  UNL     1     -34.148   7.671   4.277  1.00 20.00     0.006 A 
HETATM    8  C3  UNL     1     -35.003   6.553   3.747  1.00 20.00     0.006 A 
ENDBRANCH   2   6
TORSDOF 2
ENDMDL
MODEL 5
REMARK VINA RESULT:      -1.6      1.742      2.580
REMARK  2 active torsions:
REMARK  status: ('A' for Active; 'I' for Inactive)
REMARK    1  A    between atoms: C1_1  and  C7_7 
REMARK    2  A    between atoms: C4_4  and  C7_7 
ROOT
HETATM    1  C6  UNL     1     -31.635   8.644   3.026  1.00 20.00     0.018 C 
HETATM    2  C7  UNL     1     -32.027   7.939   1.730  1.00 20.00     0.055 C 
ENDROOT
BRANCH   2   3
HETATM    3  C1  UNL     1     -32.830   6.673   2.017  1.00 20.00     0.127 C 
HETATM    4  C5  UNL     1     -33.838   6.745   3.136  1.00 20.00     0.091 C 
HETATM    5  O8  UNL     1     -32.657   5.627   1.393  1.00 20.00    -0.298 OA
ENDBRANCH   2   3
BRANCH   2   6
HETATM    6  C4  UNL     1     -32.828   8.869   0.828  1.00 20.00    -0.004 A 
HETATM    7  C2  UNL     1     -32.538  10.344   0.813  1.00 20.00     0.006 A 
HETATM    8  C3  UNL     1     -32.182   9.496  -0.376  1.00 20.00     0.006 A 
ENDBRANCH   2   6
TORSDOF 2
ENDMDL
MODEL 6
REMARK VINA RESULT:      -1.4      1.800      2.706
REMARK  2 active torsions:
REMARK  status: ('A' for Active; 'I' for Inactive)
REMARK    1  A    between atoms: C1_1  and  C7_7 
REMARK    2  A    between atoms: C4_4  and  C7_7 
ROOT
HETATM    1  C6  UNL     1     -31.627   8.635   3.022  1.00 20.00     0.018 C 
HETATM    2  C7  UNL     1     -31.972   7.973   1.691  1.00 20.00     0.055 C 
ENDROOT
BRANCH   2   3
HETATM    3  C1  UNL     1     -32.689   6.644   1.910  1.00 20.00     0.127 C 
HETATM    4  C5  UNL     1     -32.236   5.478   1.068  1.00 20.00     0.091 C 
HETATM    5  O8  UNL     1     -33.614   6.518   2.713  1.00 20.00    -0.298 OA
ENDBRANCH   2   3
BRANCH   2   6
HETATM    6  C4  UNL     1     -32.834   8.894   0.836  1.00 20.00    -0.004 A 
HETATM    7  C2  UNL     1     -32.475  10.346   0.687  1.00 20.00     0.006 A 
HETATM    8  C3  UNL     1     -32.317   9.410  -0.478  1.00 20.00     0.006 A 
ENDBRANCH   2   6
TORSDOF 2
ENDMDL
MODEL 7
REMARK VINA RESULT:      -1.3      1.673      3.676
REMARK  2 active torsions:
REMARK  status: ('A' for Active; 'I' for Inactive)
REMARK    1  A    between atoms: C1_1  and  C7_7 
REMARK    2  A    between atoms: C4_4  and  C7_7 
ROOT
HETATM    1  C6  UNL     1     -32.916   8.037   4.423  1.00 20.00     0.018 C 
HETATM    2  C7  UNL     1     -33.555   7.557   3.123  1.00 20.00     0.055 C 
ENDROOT
BRANCH   2   3
HETATM    3  C1  UNL     1     -32.495   7.280   2.061  1.00 20.00     0.127 C 
HETATM    4  C5  UNL     1     -32.464   5.892   1.474  1.00 20.00     0.091 C 
HETATM    5  O8  UNL     1     -31.678   8.130   1.708  1.00 20.00    -0.298 OA
ENDBRANCH   2   3
BRANCH   2   6
HETATM    6  C4  UNL     1     -34.393   6.307   3.360  1.00 20.00    -0.004 A 
HETATM    7  C2  UNL     1     -35.168   6.145   4.638  1.00 20.00     0.006 A 
HETATM    8  C3  UNL     1     -35.894   6.387   3.344  1.00 20.00     0.006 A 
ENDBRANCH   2   6
TORSDOF 2
ENDMDL
MODEL 8
REMARK VINA RESULT:      -1.3      2.201      3.844
REMARK  2 active torsions:
REMARK  status: ('A' for Active; 'I' for Inactive)
REMARK    1  A    between atoms: C1_1  and  C7_7 
REMARK    2  A    between atoms: C4_4  and  C7_7 
ROOT
HETATM    1  C6  UNL     1     -33.159   5.563   1.891  1.00 20.00     0.018 C 
HETATM    2  C7  UNL     1     -33.458   5.489   3.386  1.00 20.00     0.055 C 
ENDROOT
BRANCH   2   3
HETATM    3  C1  UNL     1     -34.472   6.553   3.795  1.00 20.00     0.127 C 
HETATM    4  C5  UNL     1     -33.925   7.909   4.166  1.00 20.00     0.091 C 
HETATM    5  O8  UNL     1     -35.680   6.326   3.852  1.00 20.00    -0.298 OA
ENDBRANCH   2   3
BRANCH   2   6
HETATM    6  C4  UNL     1     -33.973   4.106   3.767  1.00 20.00    -0.004 A 
HETATM    7  C2  UNL     1     -33.008   2.983   4.029  1.00 20.00     0.006 A 
HETATM    8  C3  UNL     1     -33.784   3.587   5.166  1.00 20.00     0.006 A 
ENDBRANCH   2   6
TORSDOF 2
ENDMDL
MODEL 9
REMARK VINA RESULT:      -1.1      1.945      3.675
REMARK  2 active torsions:
REMARK  status: ('A' for Active; 'I' for Inactive)
REMARK    1  A    between atoms: C1_1  and  C7_7 
REMARK    2  A    between atoms: C4_4  and  C7_7 
ROOT
HETATM    1  C6  UNL     1     -33.556   4.317   3.124  1.00 20.00     0.018 C 
HETATM    2  C7  UNL     1     -33.104   5.773   3.041  1.00 20.00     0.055 C 
ENDROOT
BRANCH   2   3
HETATM    3  C1  UNL     1     -32.394   6.052   1.720  1.00 20.00     0.127 C 
HETATM    4  C5  UNL     1     -31.971   7.476   1.460  1.00 20.00     0.091 C 
HETATM    5  O8  UNL     1     -32.190   5.173   0.882  1.00 20.00    -0.298 OA
ENDBRANCH   2   3
BRANCH   2   6
HETATM    6  C4  UNL     1     -34.289   6.717   3.203  1.00 20.00    -0.004 A 
HETATM    7  C2  UNL     1     -35.379   6.403   4.190  1.00 20.00     0.006 A 
HETATM    8  C3  UNL     1     -34.434   7.542   4.452  1.00 20.00     0.006 A 
ENDBRANCH   2   6
TORSDOF 2
ENDMDL
