MODEL 1
REMARK VINA RESULT:       1.0      0.000      0.000
REMARK  0 active torsions:
REMARK  status: ('A' for Active; 'I' for Inactive)
ROOT
HETATM    1  C1  UNL     1     -34.027   6.873   3.590  1.00 20.00     0.459 C 
HETATM    2  C2  UNL     1     -32.579   7.768   2.081  1.00 20.00     0.090 C 
HETATM    3  C3  UNL     1     -32.845   6.287   1.737  1.00 20.00     0.090 C 
HETATM    4  C4  UNL     1     -32.579   8.718   0.884  1.00 20.00     0.049 C 
HETATM    5  C5  UNL     1     -31.303   8.002   2.907  1.00 20.00     0.049 C 
HETATM    6  C6  UNL     1     -33.937   6.074   0.675  1.00 20.00     0.049 C 
HETATM    7  C7  UNL     1     -31.605   5.484   1.344  1.00 20.00     0.049 C 
HETATM    8  O8  UNL     1     -33.696   8.096   2.930  1.00 20.00    -0.322 OA
HETATM    9  O9  UNL     1     -33.352   5.771   2.982  1.00 20.00    -0.322 OA
HETATM   10  F10 UNL     1     -35.363   6.676   3.451  1.00 20.00    -0.189 F 
ENDROOT
TORSDOF 0
ENDMDL
MODEL 2
REMARK VINA RESULT:       1.2      0.759      2.749
REMARK  0 active torsions:
REMARK  status: ('A' for Active; 'I' for Inactive)
ROOT
HETATM    1  C1  UNL     1     -34.088   7.313   3.374  1.00 20.00     0.459 C 
HETATM    2  C2  UNL     1     -32.809   6.407   1.725  1.00 20.00     0.090 C 
HETATM    3  C3  UNL     1     -32.442   7.894   1.915  1.00 20.00     0.090 C 
HETATM    4  C4  UNL     1     -31.618   5.465   1.555  1.00 20.00     0.049 C 
HETATM    5  C5  UNL     1     -33.819   6.148   0.593  1.00 20.00     0.049 C 
HETATM    6  C6  UNL     1     -31.228   8.131   2.828  1.00 20.00     0.049 C 
HETATM    7  C7  UNL     1     -32.250   8.680   0.618  1.00 20.00     0.049 C 
HETATM    8  O8  UNL     1     -33.475   6.090   2.962  1.00 20.00    -0.322 OA
HETATM    9  O9  UNL     1     -33.600   8.409   2.599  1.00 20.00    -0.322 OA
HETATM   10  F10 UNL     1     -33.749   7.532   4.670  1.00 20.00    -0.189 F 
ENDROOT
TORSDOF 0
ENDMDL
MODEL 3
REMARK VINA RESULT:       1.5      1.804      3.020
REMARK  0 active torsions:
REMARK  status: ('A' for Active; 'I' for Inactive)
ROOT
HETATM    1  C1  UNL     1     -32.646   8.166   2.905  1.00 20.00     0.459 C 
HETATM    2  C2  UNL     1     -33.803   6.221   3.135  1.00 20.00     0.090 C 
HETATM    3  C3  UNL     1     -33.107   6.256   1.758  1.00 20.00     0.090 C 
HETATM    4  C4  UNL     1     -33.707   4.885   3.871  1.00 20.00     0.049 C 
HETATM    5  C5  UNL     1     -35.272   6.675   3.109  1.00 20.00     0.049 C 
HETATM    6  C6  UNL     1     -31.751   5.531   1.719  1.00 20.00     0.049 C 
HETATM    7  C7  UNL     1     -33.965   5.770   0.590  1.00 20.00     0.049 C 
HETATM    8  O8  UNL     1     -33.069   7.212   3.880  1.00 20.00    -0.322 OA
HETATM    9  O9  UNL     1     -32.847   7.662   1.584  1.00 20.00    -0.322 OA
HETATM   10  F10 UNL     1     -31.315   8.372   3.077  1.00 20.00    -0.189 F 
ENDROOT
TORSDOF 0
ENDMDL
MODEL 4
REMARK VINA RESULT:       2.1      1.958      3.135
REMARK  0 active torsions:
REMARK  status: ('A' for Active; 'I' for Inactive)
ROOT
HETATM    1  C1  UNL     1     -32.773   6.794   1.675  1.00 20.00     0.459 C 
HETATM    2  C2  UNL     1     -33.528   7.602   3.663  1.00 20.00     0.090 C 
HETATM    3  C3  UNL     1     -34.139   6.210   3.398  1.00 20.00     0.090 C 
HETATM    4  C4  UNL     1     -33.039   7.830   5.093  1.00 20.00     0.049 C 
HETATM    5  C5  UNL     1     -34.434   8.774   3.249  1.00 20.00     0.049 C 
HETATM    6  C6  UNL     1     -33.382   5.052   4.072  1.00 20.00     0.049 C 
HETATM    7  C7  UNL     1     -35.627   6.086   3.723  1.00 20.00     0.049 C 
HETATM    8  O8  UNL     1     -32.391   7.617   2.779  1.00 20.00    -0.322 OA
HETATM    9  O9  UNL     1     -33.964   6.065   1.976  1.00 20.00    -0.322 OA
HETATM   10  F10 UNL     1     -31.776   5.897   1.462  1.00 20.00    -0.189 F 
ENDROOT
TORSDOF 0
ENDMDL
MODEL 5
REMARK VINA RESULT:       2.1      1.955      2.710
REMARK  0 active torsions:
REMARK  status: ('A' for Active; 'I' for Inactive)
ROOT
HETATM    1  C1  UNL     1     -33.647   4.483   4.147  1.00 20.00     0.459 C 
HETATM    2  C2  UNL     1     -34.517   6.496   3.539  1.00 20.00     0.090 C 
HETATM    3  C3  UNL     1     -33.405   6.086   2.550  1.00 20.00     0.090 C 
HETATM    4  C4  UNL     1     -35.773   7.078   2.891  1.00 20.00     0.049 C 
HETATM    5  C5  UNL     1     -34.046   7.440   4.658  1.00 20.00     0.049 C 
HETATM    6  C6  UNL     1     -33.919   5.396   1.276  1.00 20.00     0.049 C 
HETATM    7  C7  UNL     1     -32.448   7.211   2.155  1.00 20.00     0.049 C 
HETATM    8  O8  UNL     1     -34.857   5.242   4.161  1.00 20.00    -0.322 OA
HETATM    9  O9  UNL     1     -32.673   5.102   3.305  1.00 20.00    -0.322 OA
HETATM   10  F10 UNL     1     -33.930   3.260   3.630  1.00 20.00    -0.189 F 
ENDROOT
TORSDOF 0
ENDMDL
MODEL 6
REMARK VINA RESULT:       2.5      1.718      2.737
REMARK  0 active torsions:
REMARK  status: ('A' for Active; 'I' for Inactive)
ROOT
HETATM    1  C1  UNL     1     -32.163   7.958   2.269  1.00 20.00     0.459 C 
HETATM    2  C2  UNL     1     -32.896   5.947   1.500  1.00 20.00     0.090 C 
HETATM    3  C3  UNL     1     -33.572   6.269   2.849  1.00 20.00     0.090 C 
HETATM    4  C4  UNL     1     -33.827   5.373   0.432  1.00 20.00     0.049 C 
HETATM    5  C5  UNL     1     -31.654   5.046   1.619  1.00 20.00     0.049 C 
HETATM    6  C6  UNL     1     -34.964   6.910   2.717  1.00 20.00     0.049 C 
HETATM    7  C7  UNL     1     -33.655   5.096   3.825  1.00 20.00     0.049 C 
HETATM    8  O8  UNL     1     -32.436   7.241   1.065  1.00 20.00    -0.322 OA
HETATM    9  O9  UNL     1     -32.692   7.266   3.401  1.00 20.00    -0.322 OA
HETATM   10  F10 UNL     1     -32.784   9.162   2.185  1.00 20.00    -0.189 F 
ENDROOT
TORSDOF 0
ENDMDL
MODEL 7
REMARK VINA RESULT:       2.7      1.897      3.440
REMARK  0 active torsions:
REMARK  status: ('A' for Active; 'I' for Inactive)
ROOT
HETATM    1  C1  UNL     1     -32.530   6.895   1.886  1.00 20.00     0.459 C 
HETATM    2  C2  UNL     1     -34.136   6.309   3.388  1.00 20.00     0.090 C 
HETATM    3  C3  UNL     1     -33.547   7.685   3.761  1.00 20.00     0.090 C 
HETATM    4  C4  UNL     1     -35.657   6.209   3.491  1.00 20.00     0.049 C 
HETATM    5  C5  UNL     1     -33.502   5.128   4.144  1.00 20.00     0.049 C 
HETATM    6  C6  UNL     1     -34.364   8.881   3.243  1.00 20.00     0.049 C 
HETATM    7  C7  UNL     1     -33.267   7.883   5.251  1.00 20.00     0.049 C 
HETATM    8  O8  UNL     1     -33.758   6.174   2.004  1.00 20.00    -0.322 OA
HETATM    9  O9  UNL     1     -32.293   7.684   3.053  1.00 20.00    -0.322 OA
HETATM   10  F10 UNL     1     -32.644   7.736   0.827  1.00 20.00    -0.189 F 
ENDROOT
TORSDOF 0
ENDMDL
MODEL 8
REMARK VINA RESULT:       2.8      1.960      3.239
REMARK  0 active torsions:
REMARK  status: ('A' for Active; 'I' for Inactive)
ROOT
HETATM    1  C1  UNL     1     -33.764   4.267   3.733  1.00 20.00     0.459 C 
HETATM    2  C2  UNL     1     -33.410   6.084   2.409  1.00 20.00     0.090 C 
HETATM    3  C3  UNL     1     -34.455   6.421   3.494  1.00 20.00     0.090 C 
HETATM    4  C4  UNL     1     -32.359   7.165   2.168  1.00 20.00     0.049 C 
HETATM    5  C5  UNL     1     -34.019   5.665   1.060  1.00 20.00     0.049 C 
HETATM    6  C6  UNL     1     -33.872   7.119   4.734  1.00 20.00     0.049 C 
HETATM    7  C7  UNL     1     -35.664   7.216   2.999  1.00 20.00     0.049 C 
HETATM    8  O8  UNL     1     -32.760   4.921   2.956  1.00 20.00    -0.322 OA
HETATM    9  O9  UNL     1     -34.900   5.115   3.906  1.00 20.00    -0.322 OA
HETATM   10  F10 UNL     1     -33.241   4.011   4.959  1.00 20.00    -0.189 F 
ENDROOT
TORSDOF 0
ENDMDL
MODEL 9
REMARK VINA RESULT:       2.9      1.681      2.650
REMARK  0 active torsions:
REMARK  status: ('A' for Active; 'I' for Inactive)
ROOT
HETATM    1  C1  UNL     1     -32.823   5.763   1.847  1.00 20.00     0.459 C 
HETATM    2  C2  UNL     1     -33.439   7.577   3.075  1.00 20.00     0.090 C 
HETATM    3  C3  UNL     1     -32.236   7.936   2.178  1.00 20.00     0.090 C 
HETATM    4  C4  UNL     1     -34.543   8.632   3.126  1.00 20.00     0.049 C 
HETATM    5  C5  UNL     1     -33.056   7.181   4.511  1.00 20.00     0.049 C 
HETATM    6  C6  UNL     1     -32.620   8.612   0.850  1.00 20.00     0.049 C 
HETATM    7  C7  UNL     1     -31.148   8.765   2.860  1.00 20.00     0.049 C 
HETATM    8  O8  UNL     1     -33.960   6.395   2.438  1.00 20.00    -0.322 OA
HETATM    9  O9  UNL     1     -31.695   6.640   1.858  1.00 20.00    -0.322 OA
HETATM   10  F10 UNL     1     -33.127   5.487   0.553  1.00 20.00    -0.189 F 
ENDROOT
TORSDOF 0
ENDMDL
