MODEL 1
REMARK VINA RESULT:       0.2      0.000      0.000
REMARK  0 active torsions:
REMARK  status: ('A' for Active; 'I' for Inactive)
ROOT
HETATM    1  C1  UNL     1     -31.867   5.368   1.846  1.00 20.00     0.012 A 
HETATM    2  C2  UNL     1     -33.870   7.602   4.336  1.00 20.00     0.006 A 
HETATM    3  C3  UNL     1     -31.578   7.751   1.721  1.00 20.00     0.101 C 
HETATM    4  C4  UNL     1     -31.935   6.458   1.078  1.00 20.00     0.016 A 
HETATM    5  C5  UNL     1     -33.369   7.652   3.091  1.00 20.00     0.035 A 
HETATM    6  C6  UNL     1     -34.569   5.127   4.366  1.00 20.00     0.015 A 
HETATM    7  C7  UNL     1     -33.172   5.757   1.405  1.00 20.00     0.017 A 
HETATM    8  C8  UNL     1     -34.921   6.582   4.501  1.00 20.00     0.015 A 
HETATM    9  C9  UNL     1     -34.099   6.629   2.207  1.00 20.00     0.048 A 
HETATM   10  C10 UNL     1     -35.031   5.890   3.151  1.00 20.00     0.004 A 
HETATM   11  N11 UNL     1     -32.260   8.336   2.662  1.00 20.00    -0.269 NA
ENDROOT
TORSDOF 0
ENDMDL
MODEL 2
REMARK VINA RESULT:       0.4      1.370      3.789
REMARK  0 active torsions:
REMARK  status: ('A' for Active; 'I' for Inactive)
ROOT
HETATM    1  C1  UNL     1     -33.971   7.400   4.696  1.00 20.00     0.012 A 
HETATM    2  C2  UNL     1     -31.914   5.804   1.794  1.00 20.00     0.006 A 
HETATM    3  C3  UNL     1     -34.532   5.169   3.999  1.00 20.00     0.101 C 
HETATM    4  C4  UNL     1     -34.924   6.583   4.243  1.00 20.00     0.016 A 
HETATM    5  C5  UNL     1     -33.151   5.764   2.314  1.00 20.00     0.035 A 
HETATM    6  C6  UNL     1     -31.427   8.302   2.161  1.00 20.00     0.015 A 
HETATM    7  C7  UNL     1     -34.465   7.665   3.379  1.00 20.00     0.017 A 
HETATM    8  C8  UNL     1     -31.557   7.121   1.239  1.00 20.00     0.015 A 
HETATM    9  C9  UNL     1     -33.828   7.130   2.125  1.00 20.00     0.048 A 
HETATM   10  C10 UNL     1     -32.757   8.015   1.512  1.00 20.00     0.004 A 
HETATM   11  N11 UNL     1     -33.707   4.767   3.076  1.00 20.00    -0.269 NA
ENDROOT
TORSDOF 0
ENDMDL
MODEL 3
REMARK VINA RESULT:       0.7      1.588      3.585
REMARK  0 active torsions:
REMARK  status: ('A' for Active; 'I' for Inactive)
ROOT
HETATM    1  C1  UNL     1     -33.310   5.801   0.850  1.00 20.00     0.012 A 
HETATM    2  C2  UNL     1     -33.163   9.553   1.901  1.00 20.00     0.006 A 
HETATM    3  C3  UNL     1     -33.597   6.342   3.174  1.00 20.00     0.101 C 
HETATM    4  C4  UNL     1     -32.877   5.610   2.098  1.00 20.00     0.016 A 
HETATM    5  C5  UNL     1     -32.880   8.338   2.399  1.00 20.00     0.035 A 
HETATM    6  C6  UNL     1     -32.479   9.130  -0.541  1.00 20.00     0.015 A 
HETATM    7  C7  UNL     1     -32.003   6.300   1.155  1.00 20.00     0.017 A 
HETATM    8  C8  UNL     1     -32.336   9.911   0.736  1.00 20.00     0.015 A 
HETATM    9  C9  UNL     1     -31.730   7.713   1.596  1.00 20.00     0.048 A 
HETATM   10  C10 UNL     1     -31.453   8.700   0.476  1.00 20.00     0.004 A 
HETATM   11  N11 UNL     1     -33.590   7.633   3.339  1.00 20.00    -0.269 NA
ENDROOT
TORSDOF 0
ENDMDL
MODEL 4
REMARK VINA RESULT:       0.9      0.892      3.293
REMARK  0 active torsions:
REMARK  status: ('A' for Active; 'I' for Inactive)
ROOT
HETATM    1  C1  UNL     1     -35.565   6.490   3.339  1.00 20.00     0.012 A 
HETATM    2  C2  UNL     1     -32.163   7.549   1.754  1.00 20.00     0.006 A 
HETATM    3  C3  UNL     1     -34.126   7.943   4.603  1.00 20.00     0.101 C 
HETATM    4  C4  UNL     1     -34.898   6.678   4.480  1.00 20.00     0.016 A 
HETATM    5  C5  UNL     1     -32.703   7.322   2.963  1.00 20.00     0.035 A 
HETATM    6  C6  UNL     1     -33.400   5.719   0.437  1.00 20.00     0.015 A 
HETATM    7  C7  UNL     1     -34.471   5.603   3.592  1.00 20.00     0.017 A 
HETATM    8  C8  UNL     1     -32.116   6.348   0.903  1.00 20.00     0.015 A 
HETATM    9  C9  UNL     1     -33.072   5.836   3.085  1.00 20.00     0.048 A 
HETATM   10  C10 UNL     1     -32.770   5.244   1.720  1.00 20.00     0.004 A 
HETATM   11  N11 UNL     1     -33.073   8.251   3.902  1.00 20.00    -0.269 NA
ENDROOT
TORSDOF 0
ENDMDL
MODEL 5
REMARK VINA RESULT:       1.0      1.307      2.346
REMARK  0 active torsions:
REMARK  status: ('A' for Active; 'I' for Inactive)
ROOT
HETATM    1  C1  UNL     1     -32.700   8.565   1.144  1.00 20.00     0.012 A 
HETATM    2  C2  UNL     1     -34.327   5.557   3.016  1.00 20.00     0.006 A 
HETATM    3  C3  UNL     1     -31.636   6.416   0.982  1.00 20.00     0.101 C 
HETATM    4  C4  UNL     1     -31.583   7.860   1.334  1.00 20.00     0.016 A 
HETATM    5  C5  UNL     1     -33.115   5.990   2.634  1.00 20.00     0.035 A 
HETATM    6  C6  UNL     1     -35.381   7.831   3.590  1.00 20.00     0.015 A 
HETATM    7  C7  UNL     1     -32.280   8.390   2.501  1.00 20.00     0.017 A 
HETATM    8  C8  UNL     1     -34.980   6.440   3.997  1.00 20.00     0.015 A 
HETATM    9  C9  UNL     1     -32.774   7.282   3.392  1.00 20.00     0.048 A 
HETATM   10  C10 UNL     1     -34.020   7.604   4.197  1.00 20.00     0.004 A 
HETATM   11  N11 UNL     1     -32.343   5.517   1.603  1.00 20.00    -0.269 NA
ENDROOT
TORSDOF 0
ENDMDL
MODEL 6
REMARK VINA RESULT:       2.1      1.462      2.835
REMARK  0 active torsions:
REMARK  status: ('A' for Active; 'I' for Inactive)
ROOT
HETATM    1  C1  UNL     1     -33.389   4.299   4.501  1.00 20.00     0.012 A 
HETATM    2  C2  UNL     1     -32.655   7.670   2.684  1.00 20.00     0.006 A 
HETATM    3  C3  UNL     1     -33.106   4.266   2.114  1.00 20.00     0.101 C 
HETATM    4  C4  UNL     1     -33.925   3.976   3.321  1.00 20.00     0.016 A 
HETATM    5  C5  UNL     1     -33.258   6.493   2.453  1.00 20.00     0.035 A 
HETATM    6  C6  UNL     1     -33.286   7.940   5.162  1.00 20.00     0.015 A 
HETATM    7  C7  UNL     1     -34.545   5.042   4.100  1.00 20.00     0.017 A 
HETATM    8  C8  UNL     1     -33.300   8.456   3.751  1.00 20.00     0.015 A 
HETATM    9  C9  UNL     1     -34.481   6.358   3.373  1.00 20.00     0.048 A 
HETATM   10  C10 UNL     1     -34.441   7.589   4.261  1.00 20.00     0.004 A 
HETATM   11  N11 UNL     1     -32.800   5.455   1.682  1.00 20.00    -0.269 NA
ENDROOT
TORSDOF 0
ENDMDL
MODEL 7
REMARK VINA RESULT:       2.6      1.522      2.266
REMARK  0 active torsions:
REMARK  status: ('A' for Active; 'I' for Inactive)
ROOT
HETATM    1  C1  UNL     1     -33.032   6.812   0.748  1.00 20.00     0.012 A 
HETATM    2  C2  UNL     1     -34.498   4.911   3.820  1.00 20.00     0.006 A 
HETATM    3  C3  UNL     1     -31.758   4.997   1.675  1.00 20.00     0.101 C 
HETATM    4  C4  UNL     1     -31.869   6.426   1.279  1.00 20.00     0.016 A 
HETATM    5  C5  UNL     1     -33.308   5.248   3.297  1.00 20.00     0.035 A 
HETATM    6  C6  UNL     1     -35.805   7.034   3.191  1.00 20.00     0.015 A 
HETATM    7  C7  UNL     1     -32.699   7.366   2.025  1.00 20.00     0.017 A 
HETATM    8  C8  UNL     1     -35.304   6.073   4.233  1.00 20.00     0.015 A 
HETATM    9  C9  UNL     1     -33.150   6.775   3.334  1.00 20.00     0.048 A 
HETATM   10  C10 UNL     1     -34.478   7.294   3.857  1.00 20.00     0.004 A 
HETATM   11  N11 UNL     1     -32.420   4.432   2.643  1.00 20.00    -0.269 NA
ENDROOT
TORSDOF 0
ENDMDL
MODEL 8
REMARK VINA RESULT:       2.9      1.410      3.064
REMARK  0 active torsions:
REMARK  status: ('A' for Active; 'I' for Inactive)
ROOT
HETATM    1  C1  UNL     1     -31.512   8.196   3.087  1.00 20.00     0.012 A 
HETATM    2  C2  UNL     1     -33.569   4.891   2.880  1.00 20.00     0.006 A 
HETATM    3  C3  UNL     1     -33.687   8.147   4.107  1.00 20.00     0.101 C 
HETATM    4  C4  UNL     1     -32.725   8.749   3.146  1.00 20.00     0.016 A 
HETATM    5  C5  UNL     1     -33.767   6.218   2.935  1.00 20.00     0.035 A 
HETATM    6  C6  UNL     1     -31.442   4.883   1.435  1.00 20.00     0.015 A 
HETATM    7  C7  UNL     1     -32.332   8.059   1.922  1.00 20.00     0.017 A 
HETATM    8  C8  UNL     1     -32.866   4.457   1.660  1.00 20.00     0.015 A 
HETATM    9  C9  UNL     1     -33.215   6.869   1.658  1.00 20.00     0.048 A 
HETATM   10  C10 UNL     1     -32.561   5.733   0.891  1.00 20.00     0.004 A 
HETATM   11  N11 UNL     1     -34.202   6.955   4.007  1.00 20.00    -0.269 NA
ENDROOT
TORSDOF 0
ENDMDL
