MODEL 1
REMARK VINA RESULT:      -1.7      0.000      0.000
REMARK  0 active torsions:
REMARK  status: ('A' for Active; 'I' for Inactive)
ROOT
HETATM    1  C1  UNL     1     -33.922   7.244   3.536  1.00 20.00     0.185 C 
HETATM    2  C2  UNL     1     -33.169   5.955   3.223  1.00 20.00     0.087 C 
HETATM    3  C3  UNL     1     -32.730   6.232   1.807  1.00 20.00     0.340 C 
HETATM    4  C4  UNL     1     -32.333   7.677   1.904  1.00 20.00     0.420 C 
HETATM    5  C5  UNL     1     -34.002   4.698   3.391  1.00 20.00     0.019 C 
HETATM    6  O6  UNL     1     -33.267   8.296   2.793  1.00 20.00    -0.321 OA
HETATM    7  F7  UNL     1     -31.736   5.440   1.385  1.00 20.00    -0.196 F 
HETATM    8  F8  UNL     1     -33.771   6.101   0.951  1.00 20.00    -0.196 F 
HETATM    9  F9  UNL     1     -31.102   7.807   2.452  1.00 20.00    -0.169 F 
HETATM   10  F10 UNL     1     -32.330   8.298   0.710  1.00 20.00    -0.169 F 
ENDROOT
TORSDOF 0
ENDMDL
MODEL 2
REMARK VINA RESULT:      -1.4      1.600      2.402
REMARK  0 active torsions:
REMARK  status: ('A' for Active; 'I' for Inactive)
ROOT
HETATM    1  C1  UNL     1     -32.554   8.224   2.495  1.00 20.00     0.185 C 
HETATM    2  C2  UNL     1     -32.930   7.311   3.659  1.00 20.00     0.087 C 
HETATM    3  C3  UNL     1     -33.692   6.235   2.926  1.00 20.00     0.340 C 
HETATM    4  C4  UNL     1     -32.847   6.066   1.697  1.00 20.00     0.420 C 
HETATM    5  C5  UNL     1     -33.714   8.004   4.757  1.00 20.00     0.019 C 
HETATM    6  O6  UNL     1     -32.383   7.371   1.341  1.00 20.00    -0.321 OA
HETATM    7  F7  UNL     1     -33.834   5.102   3.627  1.00 20.00    -0.196 F 
HETATM    8  F8  UNL     1     -34.923   6.676   2.577  1.00 20.00    -0.196 F 
HETATM    9  F9  UNL     1     -31.758   5.305   1.957  1.00 20.00    -0.169 F 
HETATM   10  F10 UNL     1     -33.519   5.505   0.675  1.00 20.00    -0.169 F 
ENDROOT
TORSDOF 0
ENDMDL
MODEL 3
REMARK VINA RESULT:      -1.3      1.518      3.011
REMARK  0 active torsions:
REMARK  status: ('A' for Active; 'I' for Inactive)
ROOT
HETATM    1  C1  UNL     1     -32.486   8.186   3.273  1.00 20.00     0.185 C 
HETATM    2  C2  UNL     1     -32.792   7.883   1.809  1.00 20.00     0.087 C 
HETATM    3  C3  UNL     1     -33.049   6.399   1.886  1.00 20.00     0.340 C 
HETATM    4  C4  UNL     1     -33.839   6.306   3.158  1.00 20.00     0.420 C 
HETATM    5  C5  UNL     1     -31.684   8.284   0.853  1.00 20.00     0.019 C 
HETATM    6  O6  UNL     1     -33.273   7.263   4.058  1.00 20.00    -0.321 OA
HETATM    7  F7  UNL     1     -33.702   5.909   0.823  1.00 20.00    -0.196 F 
HETATM    8  F8  UNL     1     -31.886   5.719   2.020  1.00 20.00    -0.196 F 
HETATM    9  F9  UNL     1     -35.131   6.654   2.955  1.00 20.00    -0.169 F 
HETATM   10  F10 UNL     1     -33.816   5.073   3.699  1.00 20.00    -0.169 F 
ENDROOT
TORSDOF 0
ENDMDL
MODEL 4
REMARK VINA RESULT:      -1.3      1.788      2.635
REMARK  0 active torsions:
REMARK  status: ('A' for Active; 'I' for Inactive)
ROOT
HETATM    1  C1  UNL     1     -33.241   5.617   2.510  1.00 20.00     0.185 C 
HETATM    2  C2  UNL     1     -34.329   6.571   2.992  1.00 20.00     0.087 C 
HETATM    3  C3  UNL     1     -33.489   7.747   3.424  1.00 20.00     0.340 C 
HETATM    4  C4  UNL     1     -32.470   7.795   2.324  1.00 20.00     0.420 C 
HETATM    5  C5  UNL     1     -35.217   5.995   4.079  1.00 20.00     0.019 C 
HETATM    6  O6  UNL     1     -32.176   6.438   1.982  1.00 20.00    -0.321 OA
HETATM    7  F7  UNL     1     -34.182   8.887   3.551  1.00 20.00    -0.196 F 
HETATM    8  F8  UNL     1     -32.877   7.488   4.603  1.00 20.00    -0.196 F 
HETATM    9  F9  UNL     1     -32.974   8.392   1.219  1.00 20.00    -0.169 F 
HETATM   10  F10 UNL     1     -31.348   8.449   2.680  1.00 20.00    -0.169 F 
ENDROOT
TORSDOF 0
ENDMDL
MODEL 5
REMARK VINA RESULT:      -1.2      2.410      3.529
REMARK  0 active torsions:
REMARK  status: ('A' for Active; 'I' for Inactive)
ROOT
HETATM    1  C1  UNL     1     -33.151   6.267   1.611  1.00 20.00     0.185 C 
HETATM    2  C2  UNL     1     -32.507   7.138   2.686  1.00 20.00     0.087 C 
HETATM    3  C3  UNL     1     -33.700   7.406   3.570  1.00 20.00     0.340 C 
HETATM    4  C4  UNL     1     -34.365   6.060   3.576  1.00 20.00     0.420 C 
HETATM    5  C5  UNL     1     -31.829   8.383   2.147  1.00 20.00     0.019 C 
HETATM    6  O6  UNL     1     -34.206   5.523   2.260  1.00 20.00    -0.321 OA
HETATM    7  F7  UNL     1     -33.376   7.838   4.796  1.00 20.00    -0.196 F 
HETATM    8  F8  UNL     1     -34.521   8.319   3.000  1.00 20.00    -0.196 F 
HETATM    9  F9  UNL     1     -33.749   5.217   4.436  1.00 20.00    -0.169 F 
HETATM   10  F10 UNL     1     -35.668   6.124   3.909  1.00 20.00    -0.169 F 
ENDROOT
TORSDOF 0
ENDMDL
MODEL 6
REMARK VINA RESULT:      -1.0      2.193      2.941
REMARK  0 active torsions:
REMARK  status: ('A' for Active; 'I' for Inactive)
ROOT
HETATM    1  C1  UNL     1     -32.116   7.441   2.202  1.00 20.00     0.185 C 
HETATM    2  C2  UNL     1     -33.387   6.664   1.874  1.00 20.00     0.087 C 
HETATM    3  C3  UNL     1     -33.972   6.504   3.255  1.00 20.00     0.340 C 
HETATM    4  C4  UNL     1     -33.698   7.857   3.845  1.00 20.00     0.420 C 
HETATM    5  C5  UNL     1     -33.140   5.360   1.138  1.00 20.00     0.019 C 
HETATM    6  O6  UNL     1     -32.419   8.263   3.350  1.00 20.00    -0.321 OA
HETATM    7  F7  UNL     1     -35.273   6.183   3.256  1.00 20.00    -0.196 F 
HETATM    8  F8  UNL     1     -33.301   5.557   3.951  1.00 20.00    -0.196 F 
HETATM    9  F9  UNL     1     -34.606   8.766   3.420  1.00 20.00    -0.169 F 
HETATM   10  F10 UNL     1     -33.706   7.851   5.191  1.00 20.00    -0.169 F 
ENDROOT
TORSDOF 0
ENDMDL
MODEL 7
REMARK VINA RESULT:      -1.0      1.246      2.722
REMARK  0 active torsions:
REMARK  status: ('A' for Active; 'I' for Inactive)
ROOT
HETATM    1  C1  UNL     1     -33.782   5.707   3.586  1.00 20.00     0.185 C 
HETATM    2  C2  UNL     1     -33.972   7.140   3.099  1.00 20.00     0.087 C 
HETATM    3  C3  UNL     1     -32.757   7.292   2.218  1.00 20.00     0.340 C 
HETATM    4  C4  UNL     1     -32.723   5.954   1.538  1.00 20.00     0.420 C 
HETATM    5  C5  UNL     1     -34.073   8.162   4.216  1.00 20.00     0.019 C 
HETATM    6  O6  UNL     1     -33.125   4.991   2.516  1.00 20.00    -0.321 OA
HETATM    7  F7  UNL     1     -32.839   8.317   1.358  1.00 20.00    -0.196 F 
HETATM    8  F8  UNL     1     -31.641   7.453   2.966  1.00 20.00    -0.196 F 
HETATM    9  F9  UNL     1     -33.617   5.900   0.524  1.00 20.00    -0.169 F 
HETATM   10  F10 UNL     1     -31.508   5.650   1.044  1.00 20.00    -0.169 F 
ENDROOT
TORSDOF 0
ENDMDL
MODEL 8
REMARK VINA RESULT:      -0.4      1.819      2.452
REMARK  0 active torsions:
REMARK  status: ('A' for Active; 'I' for Inactive)
ROOT
HETATM    1  C1  UNL     1     -33.948   5.512   2.799  1.00 20.00     0.185 C 
HETATM    2  C2  UNL     1     -32.547   6.003   2.448  1.00 20.00     0.087 C 
HETATM    3  C3  UNL     1     -32.777   7.493   2.428  1.00 20.00     0.340 C 
HETATM    4  C4  UNL     1     -33.676   7.664   3.618  1.00 20.00     0.420 C 
HETATM    5  C5  UNL     1     -32.000   5.430   1.155  1.00 20.00     0.019 C 
HETATM    6  O6  UNL     1     -34.543   6.527   3.639  1.00 20.00    -0.321 OA
HETATM    7  F7  UNL     1     -31.651   8.214   2.511  1.00 20.00    -0.196 F 
HETATM    8  F8  UNL     1     -33.434   7.859   1.302  1.00 20.00    -0.196 F 
HETATM    9  F9  UNL     1     -32.966   7.655   4.769  1.00 20.00    -0.169 F 
HETATM   10  F10 UNL     1     -34.390   8.804   3.572  1.00 20.00    -0.169 F 
ENDROOT
TORSDOF 0
ENDMDL
MODEL 9
REMARK VINA RESULT:       0.2      2.521      3.398
REMARK  0 active torsions:
REMARK  status: ('A' for Active; 'I' for Inactive)
ROOT
HETATM    1  C1  UNL     1     -33.221   7.611   3.161  1.00 20.00     0.185 C 
HETATM    2  C2  UNL     1     -33.337   6.358   2.297  1.00 20.00     0.087 C 
HETATM    3  C3  UNL     1     -33.998   5.416   3.271  1.00 20.00     0.340 C 
HETATM    4  C4  UNL     1     -34.993   6.327   3.928  1.00 20.00     0.420 C 
HETATM    5  C5  UNL     1     -32.014   5.868   1.742  1.00 20.00     0.019 C 
HETATM    6  O6  UNL     1     -34.355   7.600   4.058  1.00 20.00    -0.321 OA
HETATM    7  F7  UNL     1     -34.564   4.349   2.691  1.00 20.00    -0.196 F 
HETATM    8  F8  UNL     1     -33.106   4.976   4.190  1.00 20.00    -0.196 F 
HETATM    9  F9  UNL     1     -36.086   6.498   3.148  1.00 20.00    -0.169 F 
HETATM   10  F10 UNL     1     -35.401   5.876   5.129  1.00 20.00    -0.169 F 
ENDROOT
TORSDOF 0
ENDMDL
