MODEL 1
REMARK VINA RESULT:       2.0      0.000      0.000
REMARK  0 active torsions:
REMARK  status: ('A' for Active; 'I' for Inactive)
ROOT
HETATM    1  C1  UNL     1     -32.521   9.507   0.436  1.00 20.00     0.066 C 
HETATM    2  C2  UNL     1     -34.078   6.647   3.426  1.00 20.00     0.031 C 
HETATM    3  C3  UNL     1     -33.131   7.803   3.759  1.00 20.00     0.009 C 
HETATM    4  C4  UNL     1     -33.418   5.604   2.514  1.00 20.00     0.272 C 
HETATM    5  C5  UNL     1     -33.297   7.149   0.617  1.00 20.00     0.292 C 
HETATM    6  C6  UNL     1     -31.498   6.980   2.072  1.00 20.00     0.278 C 
HETATM    7  C7  UNL     1     -33.155   8.513   1.320  1.00 20.00     0.127 C 
HETATM    8  C8  UNL     1     -32.274   8.205   2.544  1.00 20.00     0.033 C 
HETATM    9  N9  UNL     1     -32.022  10.289  -0.260  1.00 20.00    -0.197 NA
HETATM   10  N10 UNL     1     -32.561   6.169   1.449  1.00 20.00     0.090 N 
ENDROOT
TORSDOF 0
ENDMDL
MODEL 2
REMARK VINA RESULT:       2.3      1.870      2.997
REMARK  0 active torsions:
REMARK  status: ('A' for Active; 'I' for Inactive)
ROOT
HETATM    1  C1  UNL     1     -32.389   7.900   2.192  1.00 20.00     0.066 C 
HETATM    2  C2  UNL     1     -34.109   4.503   4.437  1.00 20.00     0.031 C 
HETATM    3  C3  UNL     1     -33.630   4.415   2.985  1.00 20.00     0.009 C 
HETATM    4  C4  UNL     1     -35.312   5.443   4.593  1.00 20.00     0.272 C 
HETATM    5  C5  UNL     1     -33.997   7.432   4.033  1.00 20.00     0.292 C 
HETATM    6  C6  UNL     1     -35.130   6.297   2.355  1.00 20.00     0.278 C 
HETATM    7  C7  UNL     1     -32.932   6.856   3.079  1.00 20.00     0.127 C 
HETATM    8  C8  UNL     1     -33.695   5.784   2.281  1.00 20.00     0.033 C 
HETATM    9  N9  UNL     1     -31.960   8.722   1.495  1.00 20.00    -0.197 NA
HETATM   10  N10 UNL     1     -35.244   6.674   3.777  1.00 20.00     0.090 N 
ENDROOT
TORSDOF 0
ENDMDL
MODEL 3
REMARK VINA RESULT:       2.6      1.800      4.182
REMARK  0 active torsions:
REMARK  status: ('A' for Active; 'I' for Inactive)
ROOT
HETATM    1  C1  UNL     1     -33.548   3.978   4.034  1.00 20.00     0.066 C 
HETATM    2  C2  UNL     1     -32.465   8.160   3.100  1.00 20.00     0.031 C 
HETATM    3  C3  UNL     1     -33.741   7.752   3.841  1.00 20.00     0.009 C 
HETATM    4  C4  UNL     1     -32.447   7.648   1.653  1.00 20.00     0.272 C 
HETATM    5  C5  UNL     1     -32.287   5.305   2.348  1.00 20.00     0.292 C 
HETATM    6  C6  UNL     1     -34.373   6.246   1.964  1.00 20.00     0.278 C 
HETATM    7  C7  UNL     1     -33.032   5.316   3.697  1.00 20.00     0.127 C 
HETATM    8  C8  UNL     1     -34.177   6.321   3.475  1.00 20.00     0.033 C 
HETATM    9  N9  UNL     1     -33.953   2.924   4.300  1.00 20.00    -0.197 NA
HETATM   10  N10 UNL     1     -32.981   6.280   1.476  1.00 20.00     0.090 N 
ENDROOT
TORSDOF 0
ENDMDL
MODEL 4
REMARK VINA RESULT:       3.3      1.522      1.912
REMARK  0 active torsions:
REMARK  status: ('A' for Active; 'I' for Inactive)
ROOT
HETATM    1  C1  UNL     1     -32.296   8.045   1.458  1.00 20.00     0.066 C 
HETATM    2  C2  UNL     1     -35.535   6.154   3.797  1.00 20.00     0.031 C 
HETATM    3  C3  UNL     1     -34.855   7.469   4.186  1.00 20.00     0.009 C 
HETATM    4  C4  UNL     1     -34.565   4.965   3.848  1.00 20.00     0.272 C 
HETATM    5  C5  UNL     1     -33.239   5.798   1.966  1.00 20.00     0.292 C 
HETATM    6  C6  UNL     1     -32.629   6.359   4.133  1.00 20.00     0.278 C 
HETATM    7  C7  UNL     1     -33.408   7.324   2.102  1.00 20.00     0.127 C 
HETATM    8  C8  UNL     1     -33.424   7.557   3.623  1.00 20.00     0.033 C 
HETATM    9  N9  UNL     1     -31.420   8.612   0.951  1.00 20.00    -0.197 NA
HETATM   10  N10 UNL     1     -33.206   5.254   3.343  1.00 20.00     0.090 N 
ENDROOT
TORSDOF 0
ENDMDL
MODEL 5
REMARK VINA RESULT:       3.5      1.592      3.773
REMARK  0 active torsions:
REMARK  status: ('A' for Active; 'I' for Inactive)
ROOT
HETATM    1  C1  UNL     1     -34.487   6.276   3.587  1.00 20.00     0.066 C 
HETATM    2  C2  UNL     1     -32.617   8.883   0.547  1.00 20.00     0.031 C 
HETATM    3  C3  UNL     1     -33.220   7.509   0.242  1.00 20.00     0.009 C 
HETATM    4  C4  UNL     1     -31.394   8.786   1.469  1.00 20.00     0.272 C 
HETATM    5  C5  UNL     1     -32.730   8.027   3.376  1.00 20.00     0.292 C 
HETATM    6  C6  UNL     1     -31.760   6.463   1.963  1.00 20.00     0.278 C 
HETATM    7  C7  UNL     1     -33.880   7.269   2.684  1.00 20.00     0.127 C 
HETATM    8  C8  UNL     1     -33.201   6.593   1.480  1.00 20.00     0.033 C 
HETATM    9  N9  UNL     1     -34.964   5.495   4.299  1.00 20.00    -0.197 NA
HETATM   10  N10 UNL     1     -31.519   7.792   2.557  1.00 20.00     0.090 N 
ENDROOT
TORSDOF 0
ENDMDL
MODEL 6
REMARK VINA RESULT:       3.6      1.943      3.890
REMARK  0 active torsions:
REMARK  status: ('A' for Active; 'I' for Inactive)
ROOT
HETATM    1  C1  UNL     1     -34.764   5.429   4.211  1.00 20.00     0.066 C 
HETATM    2  C2  UNL     1     -31.639   7.846   2.228  1.00 20.00     0.031 C 
HETATM    3  C3  UNL     1     -33.052   8.354   2.529  1.00 20.00     0.009 C 
HETATM    4  C4  UNL     1     -31.643   6.697   1.211  1.00 20.00     0.272 C 
HETATM    5  C5  UNL     1     -32.764   5.161   2.755  1.00 20.00     0.292 C 
HETATM    6  C6  UNL     1     -34.030   6.434   1.285  1.00 20.00     0.278 C 
HETATM    7  C7  UNL     1     -33.613   6.123   3.608  1.00 20.00     0.127 C 
HETATM    8  C8  UNL     1     -34.068   7.199   2.605  1.00 20.00     0.033 C 
HETATM    9  N9  UNL     1     -35.670   4.882   4.686  1.00 20.00    -0.197 NA
HETATM   10  N10 UNL     1     -32.742   5.722   1.384  1.00 20.00     0.090 N 
ENDROOT
TORSDOF 0
ENDMDL
MODEL 7
REMARK VINA RESULT:       3.9      1.501      3.164
REMARK  0 active torsions:
REMARK  status: ('A' for Active; 'I' for Inactive)
ROOT
HETATM    1  C1  UNL     1     -32.914   5.068   0.886  1.00 20.00     0.066 C 
HETATM    2  C2  UNL     1     -32.777   7.840   4.326  1.00 20.00     0.031 C 
HETATM    3  C3  UNL     1     -34.071   7.378   3.650  1.00 20.00     0.009 C 
HETATM    4  C4  UNL     1     -31.905   8.685   3.386  1.00 20.00     0.272 C 
HETATM    5  C5  UNL     1     -31.435   6.790   1.908  1.00 20.00     0.292 C 
HETATM    6  C6  UNL     1     -33.235   8.181   1.449  1.00 20.00     0.278 C 
HETATM    7  C7  UNL     1     -32.712   5.940   2.056  1.00 20.00     0.127 C 
HETATM    8  C8  UNL     1     -33.836   6.984   2.180  1.00 20.00     0.033 C 
HETATM    9  N9  UNL     1     -33.073   4.382  -0.036  1.00 20.00    -0.197 NA
HETATM   10  N10 UNL     1     -31.862   8.206   1.988  1.00 20.00     0.090 N 
ENDROOT
TORSDOF 0
ENDMDL
MODEL 8
REMARK VINA RESULT:       4.5      2.302      4.285
REMARK  0 active torsions:
REMARK  status: ('A' for Active; 'I' for Inactive)
ROOT
HETATM    1  C1  UNL     1     -33.914   4.344   3.872  1.00 20.00     0.066 C 
HETATM    2  C2  UNL     1     -33.426   8.154   1.686  1.00 20.00     0.031 C 
HETATM    3  C3  UNL     1     -32.266   7.227   2.059  1.00 20.00     0.009 C 
HETATM    4  C4  UNL     1     -34.111   8.750   2.923  1.00 20.00     0.272 C 
HETATM    5  C5  UNL     1     -34.986   6.579   3.644  1.00 20.00     0.292 C 
HETATM    6  C6  UNL     1     -32.940   7.314   4.453  1.00 20.00     0.278 C 
HETATM    7  C7  UNL     1     -33.915   5.606   3.113  1.00 20.00     0.127 C 
HETATM    8  C8  UNL     1     -32.595   6.376   3.300  1.00 20.00     0.033 C 
HETATM    9  N9  UNL     1     -33.914   3.350   4.471  1.00 20.00    -0.197 NA
HETATM   10  N10 UNL     1     -34.271   7.809   4.053  1.00 20.00     0.090 N 
ENDROOT
TORSDOF 0
ENDMDL
MODEL 9
REMARK VINA RESULT:       4.5      1.553      3.774
REMARK  0 active torsions:
REMARK  status: ('A' for Active; 'I' for Inactive)
ROOT
HETATM    1  C1  UNL     1     -33.026   5.690   2.220  1.00 20.00     0.066 C 
HETATM    2  C2  UNL     1     -32.473   9.504   0.055  1.00 20.00     0.031 C 
HETATM    3  C3  UNL     1     -31.475   8.343   0.012  1.00 20.00     0.009 C 
HETATM    4  C4  UNL     1     -32.590  10.115   1.458  1.00 20.00     0.272 C 
HETATM    5  C5  UNL     1     -33.623   8.100   2.391  1.00 20.00     0.292 C 
HETATM    6  C6  UNL     1     -31.320   8.359   2.495  1.00 20.00     0.278 C 
HETATM    7  C7  UNL     1     -33.005   6.988   1.523  1.00 20.00     0.127 C 
HETATM    8  C8  UNL     1     -31.564   7.471   1.279  1.00 20.00     0.033 C 
HETATM    9  N9  UNL     1     -33.044   4.668   2.769  1.00 20.00    -0.197 NA
HETATM   10  N10 UNL     1     -32.574   9.132   2.563  1.00 20.00     0.090 N 
ENDROOT
TORSDOF 0
ENDMDL
