MODEL 1
REMARK VINA RESULT:      -2.1      0.000      0.000
REMARK  1 active torsions:
REMARK  status: ('A' for Active; 'I' for Inactive)
REMARK    1  A    between atoms: C3_3  and  C7_7 
ROOT
HETATM    1  C1  UNL     1     -33.423   8.099   2.941  1.00 20.00    -0.007 C 
HETATM    2  C2  UNL     1     -32.648   7.795   1.889  1.00 20.00     0.008 C 
HETATM    3  C4  UNL     1     -34.040   7.054   3.825  1.00 20.00     0.042 C 
HETATM    4  C5  UNL     1     -32.343   6.390   1.462  1.00 20.00     0.051 C 
HETATM    5  C6  UNL     1     -33.267   5.359   2.116  1.00 20.00     0.019 C 
HETATM    6  C7  UNL     1     -33.458   5.651   3.606  1.00 20.00     0.076 C 
HETATM    7 CL9  UNL     1     -31.950   9.045   0.923  1.00 20.00    -0.089 Cl
ENDROOT
BRANCH   6   8
HETATM    8  C3  UNL     1     -34.354   4.621   4.227  1.00 20.00     0.223 C 
HETATM    9  O8  UNL     1     -35.527   4.865   4.496  1.00 20.00    -0.279 OA
HETATM   10 CL10 UNL     1     -33.532   3.114   4.494  1.00 20.00    -0.043 Cl
ENDBRANCH   6   8
TORSDOF 1
ENDMDL
MODEL 2
REMARK VINA RESULT:      -2.0      0.411      1.642
REMARK  1 active torsions:
REMARK  status: ('A' for Active; 'I' for Inactive)
REMARK    1  A    between atoms: C3_3  and  C7_7 
ROOT
HETATM    1  C1  UNL     1     -32.362   6.411   1.546  1.00 20.00    -0.007 C 
HETATM    2  C2  UNL     1     -32.480   7.715   1.835  1.00 20.00     0.008 C 
HETATM    3  C4  UNL     1     -33.106   5.342   2.293  1.00 20.00     0.042 C 
HETATM    4  C5  UNL     1     -33.333   8.245   2.950  1.00 20.00     0.051 C 
HETATM    5  C6  UNL     1     -33.772   7.151   3.928  1.00 20.00     0.019 C 
HETATM    6  C7  UNL     1     -34.226   5.892   3.187  1.00 20.00     0.076 C 
HETATM    7 CL9  UNL     1     -31.612   8.898   0.924  1.00 20.00    -0.089 Cl
ENDROOT
BRANCH   6   8
HETATM    8  C3  UNL     1     -34.664   4.842   4.164  1.00 20.00     0.223 C 
HETATM    9  O8  UNL     1     -35.708   4.951   4.803  1.00 20.00    -0.279 OA
HETATM   10 CL10 UNL     1     -33.539   3.522   4.254  1.00 20.00    -0.043 Cl
ENDBRANCH   6   8
TORSDOF 1
ENDMDL
MODEL 3
REMARK VINA RESULT:      -1.6      1.258      1.258
REMARK  1 active torsions:
REMARK  status: ('A' for Active; 'I' for Inactive)
REMARK    1  A    between atoms: C3_3  and  C7_7 
ROOT
HETATM    1  C1  UNL     1     -33.084   8.192   2.762  1.00 20.00    -0.007 C 
HETATM    2  C2  UNL     1     -32.380   7.862   1.670  1.00 20.00     0.008 C 
HETATM    3  C4  UNL     1     -33.740   7.170   3.645  1.00 20.00     0.042 C 
HETATM    4  C5  UNL     1     -32.200   6.452   1.192  1.00 20.00     0.051 C 
HETATM    5  C6  UNL     1     -33.172   5.474   1.859  1.00 20.00     0.019 C 
HETATM    6  C7  UNL     1     -33.276   5.735   3.363  1.00 20.00     0.076 C 
HETATM    7 CL9  UNL     1     -31.630   9.085   0.707  1.00 20.00    -0.089 Cl
ENDROOT
BRANCH   6   8
HETATM    8  C3  UNL     1     -34.221   4.756   3.996  1.00 20.00     0.223 C 
HETATM    9  O8  UNL     1     -33.916   3.578   4.157  1.00 20.00    -0.279 OA
HETATM   10 CL10 UNL     1     -35.727   5.498   4.444  1.00 20.00    -0.043 Cl
ENDBRANCH   6   8
TORSDOF 1
ENDMDL
MODEL 4
REMARK VINA RESULT:      -1.3      2.533      4.897
REMARK  1 active torsions:
REMARK  status: ('A' for Active; 'I' for Inactive)
REMARK    1  A    between atoms: C3_3  and  C7_7 
ROOT
HETATM    1  C1  UNL     1     -33.417   5.575   2.310  1.00 20.00    -0.007 C 
HETATM    2  C2  UNL     1     -34.040   6.015   3.413  1.00 20.00     0.008 C 
HETATM    3  C4  UNL     1     -32.624   6.478   1.410  1.00 20.00     0.042 C 
HETATM    4  C5  UNL     1     -34.045   7.450   3.848  1.00 20.00     0.051 C 
HETATM    5  C6  UNL     1     -33.573   8.403   2.745  1.00 20.00     0.019 C 
HETATM    6  C7  UNL     1     -32.339   7.854   2.027  1.00 20.00     0.076 C 
HETATM    7 CL9  UNL     1     -34.920   4.920   4.419  1.00 20.00    -0.089 Cl
ENDROOT
BRANCH   6   8
HETATM    8  C3  UNL     1     -31.889   8.811   0.963  1.00 20.00     0.223 C 
HETATM    9  O8  UNL     1     -30.949   8.549   0.217  1.00 20.00    -0.279 OA
HETATM   10 CL10 UNL     1     -32.842  10.263   0.943  1.00 20.00    -0.043 Cl
ENDBRANCH   6   8
TORSDOF 1
ENDMDL
MODEL 5
REMARK VINA RESULT:      -1.1      2.370      4.550
REMARK  1 active torsions:
REMARK  status: ('A' for Active; 'I' for Inactive)
REMARK    1  A    between atoms: C3_3  and  C7_7 
ROOT
HETATM    1  C1  UNL     1     -34.160   7.270   4.081  1.00 20.00    -0.007 C 
HETATM    2  C2  UNL     1     -34.401   6.006   3.704  1.00 20.00     0.008 C 
HETATM    3  C4  UNL     1     -33.324   8.216   3.269  1.00 20.00     0.042 C 
HETATM    4  C5  UNL     1     -33.839   5.391   2.457  1.00 20.00     0.051 C 
HETATM    5  C6  UNL     1     -32.701   6.219   1.851  1.00 20.00     0.019 C 
HETATM    6  C7  UNL     1     -33.040   7.710   1.848  1.00 20.00     0.076 C 
HETATM    7 CL9  UNL     1     -35.390   4.973   4.673  1.00 20.00    -0.089 Cl
ENDROOT
BRANCH   6   8
HETATM    8  C3  UNL     1     -31.919   8.498   1.238  1.00 20.00     0.223 C 
HETATM    9  O8  UNL     1     -30.747   8.148   1.354  1.00 20.00    -0.279 OA
HETATM   10 CL10 UNL     1     -32.492   9.900   0.387  1.00 20.00    -0.043 Cl
ENDBRANCH   6   8
TORSDOF 1
ENDMDL
MODEL 6
REMARK VINA RESULT:      -0.4      1.267      2.029
REMARK  1 active torsions:
REMARK  status: ('A' for Active; 'I' for Inactive)
REMARK    1  A    between atoms: C3_3  and  C7_7 
ROOT
HETATM    1  C1  UNL     1     -32.392   7.014   1.459  1.00 20.00    -0.007 C 
HETATM    2  C2  UNL     1     -32.730   8.232   1.908  1.00 20.00     0.008 C 
HETATM    3  C4  UNL     1     -32.889   5.748   2.094  1.00 20.00     0.042 C 
HETATM    4  C5  UNL     1     -33.605   8.463   3.104  1.00 20.00     0.051 C 
HETATM    5  C6  UNL     1     -33.785   7.203   3.956  1.00 20.00     0.019 C 
HETATM    6  C7  UNL     1     -34.041   5.974   3.082  1.00 20.00     0.076 C 
HETATM    7 CL9  UNL     1     -32.141   9.652   1.120  1.00 20.00    -0.089 Cl
ENDROOT
BRANCH   6   8
HETATM    8  C3  UNL     1     -34.229   4.757   3.939  1.00 20.00     0.223 C 
HETATM    9  O8  UNL     1     -33.421   3.832   3.931  1.00 20.00    -0.279 OA
HETATM   10 CL10 UNL     1     -35.679   4.845   4.892  1.00 20.00    -0.043 Cl
ENDBRANCH   6   8
TORSDOF 1
ENDMDL
MODEL 7
REMARK VINA RESULT:       0.6      2.962      3.533
REMARK  1 active torsions:
REMARK  status: ('A' for Active; 'I' for Inactive)
REMARK    1  A    between atoms: C3_3  and  C7_7 
ROOT
HETATM    1  C1  UNL     1     -32.562   7.864   2.945  1.00 20.00    -0.007 C 
HETATM    2  C2  UNL     1     -33.541   7.513   3.791  1.00 20.00     0.008 C 
HETATM    3  C4  UNL     1     -32.160   7.020   1.771  1.00 20.00     0.042 C 
HETATM    4  C5  UNL     1     -34.314   6.233   3.681  1.00 20.00     0.051 C 
HETATM    5  C6  UNL     1     -33.653   5.224   2.737  1.00 20.00     0.019 C 
HETATM    6  C7  UNL     1     -33.162   5.900   1.456  1.00 20.00     0.076 C 
HETATM    7 CL9  UNL     1     -33.970   8.540   5.113  1.00 20.00    -0.089 Cl
ENDROOT
BRANCH   6   8
HETATM    8  C3  UNL     1     -32.533   4.891   0.543  1.00 20.00     0.223 C 
HETATM    9  O8  UNL     1     -31.320   4.697   0.534  1.00 20.00    -0.279 OA
HETATM   10 CL10 UNL     1     -33.709   4.080  -0.446  1.00 20.00    -0.043 Cl
ENDBRANCH   6   8
TORSDOF 1
ENDMDL
MODEL 8
REMARK VINA RESULT:       0.8      3.031      3.572
REMARK  1 active torsions:
REMARK  status: ('A' for Active; 'I' for Inactive)
REMARK    1  A    between atoms: C3_3  and  C7_7 
ROOT
HETATM    1  C1  UNL     1     -34.213   6.366   3.668  1.00 20.00    -0.007 C 
HETATM    2  C2  UNL     1     -33.548   7.518   3.839  1.00 20.00     0.008 C 
HETATM    3  C4  UNL     1     -33.902   5.406   2.557  1.00 20.00     0.042 C 
HETATM    4  C5  UNL     1     -32.455   7.989   2.927  1.00 20.00     0.051 C 
HETATM    5  C6  UNL     1     -32.410   7.212   1.608  1.00 20.00     0.019 C 
HETATM    6  C7  UNL     1     -32.578   5.710   1.842  1.00 20.00     0.076 C 
HETATM    7 CL9  UNL     1     -33.940   8.571   5.151  1.00 20.00    -0.089 Cl
ENDROOT
BRANCH   6   8
HETATM    8  C3  UNL     1     -32.516   4.970   0.539  1.00 20.00     0.223 C 
HETATM    9  O8  UNL     1     -31.485   4.422   0.157  1.00 20.00    -0.279 OA
HETATM   10 CL10 UNL     1     -34.035   5.000  -0.303  1.00 20.00    -0.043 Cl
ENDBRANCH   6   8
TORSDOF 1
ENDMDL
