MODEL 1
REMARK VINA RESULT:      -1.5      0.000      0.000
REMARK  5 active torsions:
REMARK  status: ('A' for Active; 'I' for Inactive)
REMARK    1  A    between atoms: C1_1  and  C5_5 
REMARK    2  A    between atoms: C5_5  and  C8_8 
REMARK    3  A    between atoms: C6_6  and  N9_9 
REMARK    4  A    between atoms: C7_7  and  N9_9 
REMARK    5  A    between atoms: C8_8  and  N9_9 
ROOT
HETATM    1  C1  UNL     1     -32.163   7.475   1.358  1.00 20.00    -0.092 C 
HETATM    2  C2  UNL     1     -32.271   8.594   0.937  1.00 20.00    -0.022 C 
HETATM    3  S10 UNL     1     -32.430  10.263   0.308  1.00 20.00     0.008 SA
ENDROOT
BRANCH   1   4
HETATM    4  C5  UNL     1     -32.032   6.104   1.874  1.00 20.00     0.122 C 
BRANCH   4   5
HETATM    5  C8  UNL     1     -33.384   5.441   2.098  1.00 20.00     0.246 C 
BRANCH   5   6
HETATM    6  N9  UNL     1     -33.783   5.556   3.542  1.00 20.00    -0.071 N 
HETATM    7  H25 UNL     1     -32.924   5.745   4.074  1.00 20.00     0.279 HD
BRANCH   6   8
HETATM    8  C6  UNL     1     -34.707   6.717   3.779  1.00 20.00     0.230 C 
HETATM    9  C3  UNL     1     -33.948   7.822   4.482  1.00 20.00     0.034 C 
ENDBRANCH   6   8
BRANCH   6  10
HETATM   10  C7  UNL     1     -34.350   4.270   4.072  1.00 20.00     0.230 C 
HETATM   11  C4  UNL     1     -33.216   3.359   4.486  1.00 20.00     0.034 C 
ENDBRANCH   6  10
ENDBRANCH   5   6
ENDBRANCH   4   5
ENDBRANCH   1   4
TORSDOF 5
ENDMDL
MODEL 2
REMARK VINA RESULT:      -0.8      3.019      5.008
REMARK  5 active torsions:
REMARK  status: ('A' for Active; 'I' for Inactive)
REMARK    1  A    between atoms: C1_1  and  C5_5 
REMARK    2  A    between atoms: C5_5  and  C8_8 
REMARK    3  A    between atoms: C6_6  and  N9_9 
REMARK    4  A    between atoms: C7_7  and  N9_9 
REMARK    5  A    between atoms: C8_8  and  N9_9 
ROOT
HETATM    1  C1  UNL     1     -34.406   5.150   4.029  1.00 20.00    -0.092 C 
HETATM    2  C2  UNL     1     -33.922   4.088   4.314  1.00 20.00    -0.022 C 
HETATM    3  S10 UNL     1     -33.199   2.506   4.736  1.00 20.00     0.008 SA
ENDROOT
BRANCH   1   4
HETATM    4  C5  UNL     1     -34.999   6.450   3.683  1.00 20.00     0.122 C 
BRANCH   4   5
HETATM    5  C8  UNL     1     -33.958   7.558   3.612  1.00 20.00     0.246 C 
BRANCH   5   6
HETATM    6  N9  UNL     1     -32.809   7.134   2.743  1.00 20.00    -0.071 N 
HETATM    7  H25 UNL     1     -32.253   6.463   3.291  1.00 20.00     0.279 HD
BRANCH   6   8
HETATM    8  C6  UNL     1     -33.272   6.412   1.510  1.00 20.00     0.230 C 
HETATM    9  C3  UNL     1     -32.277   5.325   1.166  1.00 20.00     0.034 C 
ENDBRANCH   6   8
BRANCH   6  10
HETATM   10  C7  UNL     1     -31.900   8.284   2.412  1.00 20.00     0.230 C 
HETATM   11  C4  UNL     1     -32.304   8.871   1.078  1.00 20.00     0.034 C 
ENDBRANCH   6  10
ENDBRANCH   5   6
ENDBRANCH   4   5
ENDBRANCH   1   4
TORSDOF 5
ENDMDL
MODEL 3
REMARK VINA RESULT:      -0.7      3.069      4.680
REMARK  5 active torsions:
REMARK  status: ('A' for Active; 'I' for Inactive)
REMARK    1  A    between atoms: C1_1  and  C5_5 
REMARK    2  A    between atoms: C5_5  and  C8_8 
REMARK    3  A    between atoms: C6_6  and  N9_9 
REMARK    4  A    between atoms: C7_7  and  N9_9 
REMARK    5  A    between atoms: C8_8  and  N9_9 
ROOT
HETATM    1  C1  UNL     1     -34.269   5.026   4.070  1.00 20.00    -0.092 C 
HETATM    2  C2  UNL     1     -33.857   3.928   4.328  1.00 20.00    -0.022 C 
HETATM    3  S10 UNL     1     -33.242   2.291   4.709  1.00 20.00     0.008 SA
ENDROOT
BRANCH   1   4
HETATM    4  C5  UNL     1     -34.773   6.371   3.756  1.00 20.00     0.122 C 
BRANCH   4   5
HETATM    5  C8  UNL     1     -33.648   7.371   3.529  1.00 20.00     0.246 C 
BRANCH   5   6
HETATM    6  N9  UNL     1     -33.242   7.374   2.083  1.00 20.00    -0.071 N 
HETATM    7  H25 UNL     1     -33.978   7.875   1.568  1.00 20.00     0.279 HD
BRANCH   6   8
HETATM    8  C6  UNL     1     -31.962   8.127   1.859  1.00 20.00     0.230 C 
HETATM    9  C3  UNL     1     -32.188   9.194   0.811  1.00 20.00     0.034 C 
ENDBRANCH   6   8
BRANCH   6  10
HETATM   10  C7  UNL     1     -33.183   5.985   1.513  1.00 20.00     0.230 C 
HETATM   11  C4  UNL     1     -31.738   5.561   1.379  1.00 20.00     0.034 C 
ENDBRANCH   6  10
ENDBRANCH   5   6
ENDBRANCH   4   5
ENDBRANCH   1   4
TORSDOF 5
ENDMDL
MODEL 4
REMARK VINA RESULT:      -0.6      0.552      2.327
REMARK  5 active torsions:
REMARK  status: ('A' for Active; 'I' for Inactive)
REMARK    1  A    between atoms: C1_1  and  C5_5 
REMARK    2  A    between atoms: C5_5  and  C8_8 
REMARK    3  A    between atoms: C6_6  and  N9_9 
REMARK    4  A    between atoms: C7_7  and  N9_9 
REMARK    5  A    between atoms: C8_8  and  N9_9 
ROOT
HETATM    1  C1  UNL     1     -32.564   7.252   1.247  1.00 20.00    -0.092 C 
HETATM    2  C2  UNL     1     -32.476   8.406   0.926  1.00 20.00    -0.022 C 
HETATM    3  S10 UNL     1     -32.344  10.125   0.445  1.00 20.00     0.008 SA
ENDROOT
BRANCH   1   4
HETATM    4  C5  UNL     1     -32.674   5.839   1.640  1.00 20.00     0.122 C 
BRANCH   4   5
HETATM    5  C8  UNL     1     -32.888   5.673   3.138  1.00 20.00     0.246 C 
BRANCH   5   6
HETATM    6  N9  UNL     1     -34.349   5.488   3.434  1.00 20.00    -0.071 N 
HETATM    7  H25 UNL     1     -34.792   5.172   2.561  1.00 20.00     0.279 HD
BRANCH   6   8
HETATM    8  C6  UNL     1     -34.584   4.413   4.457  1.00 20.00     0.230 C 
HETATM    9  C3  UNL     1     -33.475   3.388   4.367  1.00 20.00     0.034 C 
ENDBRANCH   6   8
BRANCH   6  10
HETATM   10  C7  UNL     1     -35.013   6.781   3.816  1.00 20.00     0.230 C 
HETATM   11  C4  UNL     1     -34.021   7.652   4.554  1.00 20.00     0.034 C 
ENDBRANCH   6  10
ENDBRANCH   5   6
ENDBRANCH   4   5
ENDBRANCH   1   4
TORSDOF 5
ENDMDL
MODEL 5
REMARK VINA RESULT:      -0.3      0.828      2.255
REMARK  5 active torsions:
REMARK  status: ('A' for Active; 'I' for Inactive)
REMARK    1  A    between atoms: C1_1  and  C5_5 
REMARK    2  A    between atoms: C5_5  and  C8_8 
REMARK    3  A    between atoms: C6_6  and  N9_9 
REMARK    4  A    between atoms: C7_7  and  N9_9 
REMARK    5  A    between atoms: C8_8  and  N9_9 
ROOT
HETATM    1  C1  UNL     1     -32.103   7.954   1.185  1.00 20.00    -0.092 C 
HETATM    2  C2  UNL     1     -32.306   9.043   0.721  1.00 20.00    -0.022 C 
HETATM    3  S10 UNL     1     -32.606  10.666   0.028  1.00 20.00     0.008 SA
ENDROOT
BRANCH   1   4
HETATM    4  C5  UNL     1     -31.857   6.620   1.753  1.00 20.00     0.122 C 
BRANCH   4   5
HETATM    5  C8  UNL     1     -33.148   5.895   2.104  1.00 20.00     0.246 C 
BRANCH   5   6
HETATM    6  N9  UNL     1     -33.961   6.720   3.061  1.00 20.00    -0.071 N 
HETATM    7  H25 UNL     1     -34.559   7.333   2.492  1.00 20.00     0.279 HD
BRANCH   6   8
HETATM    8  C6  UNL     1     -34.875   5.872   3.898  1.00 20.00     0.230 C 
HETATM    9  C3  UNL     1     -34.278   4.489   4.044  1.00 20.00     0.034 C 
ENDBRANCH   6   8
BRANCH   6  10
HETATM   10  C7  UNL     1     -33.098   7.616   3.903  1.00 20.00     0.230 C 
HETATM   11  C4  UNL     1     -33.877   8.057   5.122  1.00 20.00     0.034 C 
ENDBRANCH   6  10
ENDBRANCH   5   6
ENDBRANCH   4   5
ENDBRANCH   1   4
TORSDOF 5
ENDMDL
MODEL 6
REMARK VINA RESULT:       0.0      0.865      2.474
REMARK  5 active torsions:
REMARK  status: ('A' for Active; 'I' for Inactive)
REMARK    1  A    between atoms: C1_1  and  C5_5 
REMARK    2  A    between atoms: C5_5  and  C8_8 
REMARK    3  A    between atoms: C6_6  and  N9_9 
REMARK    4  A    between atoms: C7_7  and  N9_9 
REMARK    5  A    between atoms: C8_8  and  N9_9 
ROOT
HETATM    1  C1  UNL     1     -32.595   8.620   2.261  1.00 20.00    -0.092 C 
HETATM    2  C2  UNL     1     -32.483   9.159   1.194  1.00 20.00    -0.022 C 
HETATM    3  S10 UNL     1     -32.317   9.962  -0.397  1.00 20.00     0.008 SA
ENDROOT
BRANCH   1   4
HETATM    4  C5  UNL     1     -32.732   7.962   3.569  1.00 20.00     0.122 C 
BRANCH   4   5
HETATM    5  C8  UNL     1     -33.946   7.046   3.629  1.00 20.00     0.246 C 
BRANCH   5   6
HETATM    6  N9  UNL     1     -33.549   5.637   3.290  1.00 20.00    -0.071 N 
HETATM    7  H25 UNL     1     -32.586   5.510   3.628  1.00 20.00     0.279 HD
BRANCH   6   8
HETATM    8  C6  UNL     1     -34.399   4.626   4.005  1.00 20.00     0.230 C 
HETATM    9  C3  UNL     1     -33.552   3.424   4.361  1.00 20.00     0.034 C 
ENDBRANCH   6   8
BRANCH   6  10
HETATM   10  C7  UNL     1     -33.525   5.402   1.807  1.00 20.00     0.230 C 
HETATM   11  C4  UNL     1     -32.093   5.224   1.354  1.00 20.00     0.034 C 
ENDBRANCH   6  10
ENDBRANCH   5   6
ENDBRANCH   4   5
ENDBRANCH   1   4
TORSDOF 5
ENDMDL
MODEL 7
REMARK VINA RESULT:       0.1      1.001      2.053
REMARK  5 active torsions:
REMARK  status: ('A' for Active; 'I' for Inactive)
REMARK    1  A    between atoms: C1_1  and  C5_5 
REMARK    2  A    between atoms: C5_5  and  C8_8 
REMARK    3  A    between atoms: C6_6  and  N9_9 
REMARK    4  A    between atoms: C7_7  and  N9_9 
REMARK    5  A    between atoms: C8_8  and  N9_9 
ROOT
HETATM    1  C1  UNL     1     -32.467   8.569   2.076  1.00 20.00    -0.092 C 
HETATM    2  C2  UNL     1     -32.450   9.176   1.040  1.00 20.00    -0.022 C 
HETATM    3  S10 UNL     1     -32.427  10.080  -0.504  1.00 20.00     0.008 SA
ENDROOT
BRANCH   1   4
HETATM    4  C5  UNL     1     -32.487   7.827   3.346  1.00 20.00     0.122 C 
BRANCH   4   5
HETATM    5  C8  UNL     1     -33.887   7.364   3.721  1.00 20.00     0.246 C 
BRANCH   5   6
HETATM    6  N9  UNL     1     -34.154   6.003   3.147  1.00 20.00    -0.071 N 
HETATM    7  H25 UNL     1     -34.857   6.124   2.406  1.00 20.00     0.279 HD
BRANCH   6   8
HETATM    8  C6  UNL     1     -32.933   5.417   2.497  1.00 20.00     0.230 C 
HETATM    9  C3  UNL     1     -33.147   5.353   1.000  1.00 20.00     0.034 C 
ENDBRANCH   6   8
BRANCH   6  10
HETATM   10  C7  UNL     1     -34.750   5.070   4.163  1.00 20.00     0.230 C 
HETATM   11  C4  UNL     1     -33.862   3.854   4.305  1.00 20.00     0.034 C 
ENDBRANCH   6  10
ENDBRANCH   5   6
ENDBRANCH   4   5
ENDBRANCH   1   4
TORSDOF 5
ENDMDL
MODEL 8
REMARK VINA RESULT:       0.1      2.980      4.757
REMARK  5 active torsions:
REMARK  status: ('A' for Active; 'I' for Inactive)
REMARK    1  A    between atoms: C1_1  and  C5_5 
REMARK    2  A    between atoms: C5_5  and  C8_8 
REMARK    3  A    between atoms: C6_6  and  N9_9 
REMARK    4  A    between atoms: C7_7  and  N9_9 
REMARK    5  A    between atoms: C8_8  and  N9_9 
ROOT
HETATM    1  C1  UNL     1     -34.694   4.920   4.255  1.00 20.00    -0.092 C 
HETATM    2  C2  UNL     1     -33.995   3.958   4.421  1.00 20.00    -0.022 C 
HETATM    3  S10 UNL     1     -32.950   2.526   4.668  1.00 20.00     0.008 SA
ENDROOT
BRANCH   1   4
HETATM    4  C5  UNL     1     -35.552   6.097   4.053  1.00 20.00     0.122 C 
BRANCH   4   5
HETATM    5  C8  UNL     1     -34.853   7.191   3.258  1.00 20.00     0.246 C 
BRANCH   5   6
HETATM    6  N9  UNL     1     -33.373   6.938   3.221  1.00 20.00    -0.071 N 
HETATM    7  H25 UNL     1     -33.206   6.067   3.741  1.00 20.00     0.279 HD
BRANCH   6   8
HETATM    8  C6  UNL     1     -32.876   6.711   1.821  1.00 20.00     0.230 C 
HETATM    9  C3  UNL     1     -31.844   7.765   1.482  1.00 20.00     0.034 C 
ENDBRANCH   6   8
BRANCH   6  10
HETATM   10  C7  UNL     1     -32.600   8.018   3.923  1.00 20.00     0.230 C 
HETATM   11  C4  UNL     1     -33.291   8.359   5.225  1.00 20.00     0.034 C 
ENDBRANCH   6  10
ENDBRANCH   5   6
ENDBRANCH   4   5
ENDBRANCH   1   4
TORSDOF 5
ENDMDL
MODEL 9
REMARK VINA RESULT:       0.3      1.265      2.188
REMARK  5 active torsions:
REMARK  status: ('A' for Active; 'I' for Inactive)
REMARK    1  A    between atoms: C1_1  and  C5_5 
REMARK    2  A    between atoms: C5_5  and  C8_8 
REMARK    3  A    between atoms: C6_6  and  N9_9 
REMARK    4  A    between atoms: C7_7  and  N9_9 
REMARK    5  A    between atoms: C8_8  and  N9_9 
ROOT
HETATM    1  C1  UNL     1     -32.207   8.833   1.557  1.00 20.00    -0.092 C 
HETATM    2  C2  UNL     1     -32.398   9.502   0.578  1.00 20.00    -0.022 C 
HETATM    3  S10 UNL     1     -32.683  10.502  -0.879  1.00 20.00     0.008 SA
ENDROOT
BRANCH   1   4
HETATM    4  C5  UNL     1     -31.972   8.013   2.754  1.00 20.00     0.122 C 
BRANCH   4   5
HETATM    5  C8  UNL     1     -33.250   7.367   3.271  1.00 20.00     0.246 C 
BRANCH   5   6
HETATM    6  N9  UNL     1     -33.245   5.895   2.971  1.00 20.00    -0.071 N 
HETATM    7  H25 UNL     1     -32.350   5.524   3.319  1.00 20.00     0.279 HD
BRANCH   6   8
HETATM    8  C6  UNL     1     -34.334   5.167   3.706  1.00 20.00     0.230 C 
HETATM    9  C3  UNL     1     -35.412   6.153   4.102  1.00 20.00     0.034 C 
ENDBRANCH   6   8
BRANCH   6  10
HETATM   10  C7  UNL     1     -33.284   5.623   1.494  1.00 20.00     0.230 C 
HETATM   11  C4  UNL     1     -31.967   5.015   1.064  1.00 20.00     0.034 C 
ENDBRANCH   6  10
ENDBRANCH   5   6
ENDBRANCH   4   5
ENDBRANCH   1   4
TORSDOF 5
ENDMDL
