MODEL 1
REMARK VINA RESULT:       3.0      0.000      0.000
REMARK  1 active torsions:
REMARK  status: ('A' for Active; 'I' for Inactive)
REMARK    1  A    between atoms: C1_1  and  C5_5 
ROOT
HETATM    1  C2  UNL     1     -31.437   5.382   1.532  1.00 20.00     0.002 C 
HETATM    2  C3  UNL     1     -32.674   5.314   2.430  1.00 20.00     0.017 C 
HETATM    3  C4  UNL     1     -31.418   6.781   0.921  1.00 20.00     0.010 C 
HETATM    4  C5  UNL     1     -33.422   6.651   2.248  1.00 20.00     0.023 C 
HETATM    5  C6  UNL     1     -32.287   7.647   1.854  1.00 20.00    -0.034 C 
HETATM    6  C8  UNL     1     -34.525   6.489   1.188  1.00 20.00     0.024 C 
HETATM    7  C9  UNL     1     -31.434   8.092   3.066  1.00 20.00     0.016 C 
HETATM    8  C10 UNL     1     -32.770   8.908   1.125  1.00 20.00     0.016 C 
ENDROOT
BRANCH   4   9
HETATM    9  C1  UNL     1     -34.116   7.040   3.526  1.00 20.00     0.132 C 
HETATM   10  C7  UNL     1     -35.282   6.189   3.950  1.00 20.00     0.091 C 
HETATM   11  O11 UNL     1     -33.746   8.006   4.193  1.00 20.00    -0.298 OA
ENDBRANCH   4   9
TORSDOF 1
ENDMDL
MODEL 2
REMARK VINA RESULT:       3.1      1.287      2.759
REMARK  1 active torsions:
REMARK  status: ('A' for Active; 'I' for Inactive)
REMARK    1  A    between atoms: C1_1  and  C5_5 
ROOT
HETATM    1  C2  UNL     1     -32.776   8.866   1.549  1.00 20.00     0.002 C 
HETATM    2  C3  UNL     1     -33.869   8.552   2.573  1.00 20.00     0.017 C 
HETATM    3  C4  UNL     1     -31.897   7.622   1.452  1.00 20.00     0.010 C 
HETATM    4  C5  UNL     1     -33.548   7.154   3.141  1.00 20.00     0.023 C 
HETATM    5  C6  UNL     1     -32.769   6.464   1.978  1.00 20.00    -0.034 C 
HETATM    6  C8  UNL     1     -32.751   7.295   4.448  1.00 20.00     0.024 C 
HETATM    7  C9  UNL     1     -33.698   5.978   0.841  1.00 20.00     0.016 C 
HETATM    8  C10 UNL     1     -31.892   5.282   2.412  1.00 20.00     0.016 C 
ENDROOT
BRANCH   4   9
HETATM    9  C1  UNL     1     -34.820   6.430   3.495  1.00 20.00     0.132 C 
HETATM   10  C7  UNL     1     -34.672   5.109   4.201  1.00 20.00     0.091 C 
HETATM   11  O11 UNL     1     -35.926   6.896   3.225  1.00 20.00    -0.298 OA
ENDBRANCH   4   9
TORSDOF 1
ENDMDL
MODEL 3
REMARK VINA RESULT:       3.1      1.602      3.266
REMARK  1 active torsions:
REMARK  status: ('A' for Active; 'I' for Inactive)
REMARK    1  A    between atoms: C1_1  and  C5_5 
ROOT
HETATM    1  C2  UNL     1     -33.082   5.509   1.733  1.00 20.00     0.002 C 
HETATM    2  C3  UNL     1     -32.615   6.677   0.864  1.00 20.00     0.017 C 
HETATM    3  C4  UNL     1     -33.127   6.024   3.170  1.00 20.00     0.010 C 
HETATM    4  C5  UNL     1     -32.292   7.838   1.826  1.00 20.00     0.023 C 
HETATM    5  C6  UNL     1     -33.218   7.558   3.050  1.00 20.00    -0.034 C 
HETATM    6  C8  UNL     1     -30.789   7.842   2.151  1.00 20.00     0.024 C 
HETATM    7  C9  UNL     1     -34.690   7.955   2.791  1.00 20.00     0.016 C 
HETATM    8  C10 UNL     1     -32.769   8.228   4.356  1.00 20.00     0.016 C 
ENDROOT
BRANCH   4   9
HETATM    9  C1  UNL     1     -32.587   9.160   1.168  1.00 20.00     0.132 C 
HETATM   10  C7  UNL     1     -32.571   9.186  -0.336  1.00 20.00     0.091 C 
HETATM   11  O11 UNL     1     -32.832  10.170   1.828  1.00 20.00    -0.298 OA
ENDBRANCH   4   9
TORSDOF 1
ENDMDL
MODEL 4
REMARK VINA RESULT:       3.1      1.482      1.967
REMARK  1 active torsions:
REMARK  status: ('A' for Active; 'I' for Inactive)
REMARK    1  A    between atoms: C1_1  and  C5_5 
ROOT
HETATM    1  C2  UNL     1     -31.621   6.982   1.831  1.00 20.00     0.002 C 
HETATM    2  C3  UNL     1     -32.467   5.761   2.195  1.00 20.00     0.017 C 
HETATM    3  C4  UNL     1     -32.450   8.212   2.192  1.00 20.00     0.010 C 
HETATM    4  C5  UNL     1     -33.832   6.299   2.671  1.00 20.00     0.023 C 
HETATM    5  C6  UNL     1     -33.485   7.718   3.222  1.00 20.00    -0.034 C 
HETATM    6  C8  UNL     1     -34.829   6.296   1.501  1.00 20.00     0.024 C 
HETATM    7  C9  UNL     1     -32.823   7.672   4.619  1.00 20.00     0.016 C 
HETATM    8  C10 UNL     1     -34.677   8.682   3.294  1.00 20.00     0.016 C 
ENDROOT
BRANCH   4   9
HETATM    9  C1  UNL     1     -34.412   5.395   3.726  1.00 20.00     0.132 C 
HETATM   10  C7  UNL     1     -33.681   4.106   3.989  1.00 20.00     0.091 C 
HETATM   11  O11 UNL     1     -35.432   5.695   4.344  1.00 20.00    -0.298 OA
ENDBRANCH   4   9
TORSDOF 1
ENDMDL
MODEL 5
REMARK VINA RESULT:       3.3      1.713      3.411
REMARK  1 active torsions:
REMARK  status: ('A' for Active; 'I' for Inactive)
REMARK    1  A    between atoms: C1_1  and  C5_5 
ROOT
HETATM    1  C2  UNL     1     -32.645   8.193   4.605  1.00 20.00     0.002 C 
HETATM    2  C3  UNL     1     -31.958   7.662   3.345  1.00 20.00     0.017 C 
HETATM    3  C4  UNL     1     -34.139   7.928   4.432  1.00 20.00     0.010 C 
HETATM    4  C5  UNL     1     -33.081   7.184   2.402  1.00 20.00     0.023 C 
HETATM    5  C6  UNL     1     -34.236   6.805   3.381  1.00 20.00    -0.034 C 
HETATM    6  C8  UNL     1     -33.431   8.301   1.404  1.00 20.00     0.024 C 
HETATM    7  C9  UNL     1     -34.008   5.443   4.077  1.00 20.00     0.016 C 
HETATM    8  C10 UNL     1     -35.631   6.783   2.742  1.00 20.00     0.016 C 
ENDROOT
BRANCH   4   9
HETATM    9  C1  UNL     1     -32.611   6.013   1.581  1.00 20.00     0.132 C 
HETATM   10  C7  UNL     1     -33.550   5.510   0.519  1.00 20.00     0.091 C 
HETATM   11  O11 UNL     1     -31.511   5.494   1.767  1.00 20.00    -0.298 OA
ENDBRANCH   4   9
TORSDOF 1
ENDMDL
MODEL 6
REMARK VINA RESULT:       3.7      1.743      3.222
REMARK  1 active torsions:
REMARK  status: ('A' for Active; 'I' for Inactive)
REMARK    1  A    between atoms: C1_1  and  C5_5 
ROOT
HETATM    1  C2  UNL     1     -34.375   7.500   3.849  1.00 20.00     0.002 C 
HETATM    2  C3  UNL     1     -34.495   6.319   2.883  1.00 20.00     0.017 C 
HETATM    3  C4  UNL     1     -32.952   8.036   3.708  1.00 20.00     0.010 C 
HETATM    4  C5  UNL     1     -33.097   6.116   2.263  1.00 20.00     0.023 C 
HETATM    5  C6  UNL     1     -32.463   7.540   2.333  1.00 20.00    -0.034 C 
HETATM    6  C8  UNL     1     -32.332   5.037   3.049  1.00 20.00     0.024 C 
HETATM    7  C9  UNL     1     -33.000   8.489   1.236  1.00 20.00     0.016 C 
HETATM    8  C10 UNL     1     -30.929   7.559   2.268  1.00 20.00     0.016 C 
ENDROOT
BRANCH   4   9
HETATM    9  C1  UNL     1     -33.220   5.606   0.852  1.00 20.00     0.132 C 
HETATM   10  C7  UNL     1     -32.137   4.678   0.371  1.00 20.00     0.091 C 
HETATM   11  O11 UNL     1     -34.161   5.929   0.128  1.00 20.00    -0.298 OA
ENDBRANCH   4   9
TORSDOF 1
ENDMDL
MODEL 7
REMARK VINA RESULT:       3.8      1.719      2.503
REMARK  1 active torsions:
REMARK  status: ('A' for Active; 'I' for Inactive)
REMARK    1  A    between atoms: C1_1  and  C5_5 
ROOT
HETATM    1  C2  UNL     1     -31.823   7.907   1.714  1.00 20.00     0.002 C 
HETATM    2  C3  UNL     1     -31.776   6.389   1.900  1.00 20.00     0.017 C 
HETATM    3  C4  UNL     1     -33.208   8.360   2.171  1.00 20.00     0.010 C 
HETATM    4  C5  UNL     1     -33.181   5.961   2.371  1.00 20.00     0.023 C 
HETATM    5  C6  UNL     1     -33.722   7.235   3.091  1.00 20.00    -0.034 C 
HETATM    6  C8  UNL     1     -34.018   5.507   1.163  1.00 20.00     0.024 C 
HETATM    7  C9  UNL     1     -33.120   7.426   4.503  1.00 20.00     0.016 C 
HETATM    8  C10 UNL     1     -35.251   7.297   3.215  1.00 20.00     0.016 C 
ENDROOT
BRANCH   4   9
HETATM    9  C1  UNL     1     -33.085   4.773   3.291  1.00 20.00     0.132 C 
HETATM   10  C7  UNL     1     -34.331   4.401   4.048  1.00 20.00     0.091 C 
HETATM   11  O11 UNL     1     -32.040   4.136   3.415  1.00 20.00    -0.298 OA
ENDBRANCH   4   9
TORSDOF 1
ENDMDL
MODEL 8
REMARK VINA RESULT:       3.9      1.534      2.635
REMARK  1 active torsions:
REMARK  status: ('A' for Active; 'I' for Inactive)
REMARK    1  A    between atoms: C1_1  and  C5_5 
ROOT
HETATM    1  C2  UNL     1     -33.677   3.957   3.885  1.00 20.00     0.002 C 
HETATM    2  C3  UNL     1     -33.681   5.373   4.463  1.00 20.00     0.017 C 
HETATM    3  C4  UNL     1     -33.822   4.102   2.372  1.00 20.00     0.010 C 
HETATM    4  C5  UNL     1     -33.934   6.329   3.279  1.00 20.00     0.023 C 
HETATM    5  C6  UNL     1     -33.371   5.541   2.055  1.00 20.00    -0.034 C 
HETATM    6  C8  UNL     1     -35.433   6.660   3.190  1.00 20.00     0.024 C 
HETATM    7  C9  UNL     1     -31.826   5.579   1.978  1.00 20.00     0.016 C 
HETATM    8  C10 UNL     1     -33.925   5.993   0.697  1.00 20.00     0.016 C 
ENDROOT
BRANCH   4   9
HETATM    9  C1  UNL     1     -33.223   7.637   3.502  1.00 20.00     0.132 C 
HETATM   10  C7  UNL     1     -33.288   8.215   4.890  1.00 20.00     0.091 C 
HETATM   11  O11 UNL     1     -32.617   8.206   2.595  1.00 20.00    -0.298 OA
ENDBRANCH   4   9
TORSDOF 1
ENDMDL
MODEL 9
REMARK VINA RESULT:       4.4      1.511      3.421
REMARK  1 active torsions:
REMARK  status: ('A' for Active; 'I' for Inactive)
REMARK    1  A    between atoms: C1_1  and  C5_5 
ROOT
HETATM    1  C2  UNL     1     -33.969   7.011   4.172  1.00 20.00     0.002 C 
HETATM    2  C3  UNL     1     -32.888   8.002   3.738  1.00 20.00     0.017 C 
HETATM    3  C4  UNL     1     -34.438   6.294   2.908  1.00 20.00     0.010 C 
HETATM    4  C5  UNL     1     -32.812   7.922   2.200  1.00 20.00     0.023 C 
HETATM    5  C6  UNL     1     -33.293   6.469   1.892  1.00 20.00    -0.034 C 
HETATM    6  C8  UNL     1     -33.682   9.027   1.579  1.00 20.00     0.024 C 
HETATM    7  C9  UNL     1     -32.204   5.406   2.171  1.00 20.00     0.016 C 
HETATM    8  C10 UNL     1     -33.805   6.258   0.460  1.00 20.00     0.016 C 
ENDROOT
BRANCH   4   9
HETATM    9  C1  UNL     1     -31.404   8.177   1.732  1.00 20.00     0.132 C 
HETATM   10  C7  UNL     1     -31.240   8.688   0.326  1.00 20.00     0.091 C 
HETATM   11  O11 UNL     1     -30.434   7.980   2.463  1.00 20.00    -0.298 OA
ENDBRANCH   4   9
TORSDOF 1
ENDMDL
