MODEL 1
REMARK VINA RESULT:       0.5      0.000      0.000
REMARK  2 active torsions:
REMARK  status: ('A' for Active; 'I' for Inactive)
REMARK    1  A    between atoms: C3_3  and  C6_6 
REMARK    2  A    between atoms: C7_7  and  O11_11 
ROOT
HETATM    1  C1  UNL     1     -31.913   6.944   1.407  1.00 20.00    -0.023 C 
HETATM    2  C2  UNL     1     -32.541   8.123   1.530  1.00 20.00    -0.085 C 
HETATM    3  C4  UNL     1     -32.325   5.700   2.135  1.00 20.00     0.042 C 
HETATM    4  C5  UNL     1     -33.722   8.303   2.449  1.00 20.00     0.071 C 
HETATM    5  C6  UNL     1     -33.700   5.808   2.812  1.00 20.00     0.084 C 
HETATM    6  C7  UNL     1     -33.905   7.178   3.495  1.00 20.00     0.068 C 
HETATM    7  C8  UNL     1     -32.114   9.335   0.756  1.00 20.00     0.043 C 
HETATM    8  C9  UNL     1     -32.976   7.403   4.698  1.00 20.00     0.047 C 
ENDROOT
BRANCH   6   9
HETATM    9  O11 UNL     1     -35.260   7.283   3.954  1.00 20.00    -0.389 OA
HETATM   10  H25 UNL     1     -35.487   8.219   3.891  1.00 20.00     0.210 HD
ENDBRANCH   6   9
BRANCH   5  11
HETATM   11  C3  UNL     1     -33.879   4.651   3.759  1.00 20.00     0.238 C 
HETATM   12  O10 UNL     1     -34.903   4.461   4.408  1.00 20.00    -0.306 OA
ENDBRANCH   5  11
TORSDOF 2
ENDMDL
MODEL 2
REMARK VINA RESULT:       0.9      2.305      4.240
REMARK  2 active torsions:
REMARK  status: ('A' for Active; 'I' for Inactive)
REMARK    1  A    between atoms: C3_3  and  C6_6 
REMARK    2  A    between atoms: C7_7  and  O11_11 
ROOT
HETATM    1  C1  UNL     1     -33.827   7.324   4.134  1.00 20.00    -0.023 C 
HETATM    2  C2  UNL     1     -34.419   6.192   3.720  1.00 20.00    -0.085 C 
HETATM    3  C4  UNL     1     -32.928   8.157   3.271  1.00 20.00     0.042 C 
HETATM    4  C5  UNL     1     -34.203   5.642   2.333  1.00 20.00     0.071 C 
HETATM    5  C6  UNL     1     -32.965   7.770   1.785  1.00 20.00     0.084 C 
HETATM    6  C7  UNL     1     -32.988   6.238   1.583  1.00 20.00     0.068 C 
HETATM    7  C8  UNL     1     -35.339   5.407   4.607  1.00 20.00     0.043 C 
HETATM    8  C9  UNL     1     -31.689   5.547   2.025  1.00 20.00     0.047 C 
ENDROOT
BRANCH   6   9
HETATM    9  O11 UNL     1     -33.198   5.944   0.195  1.00 20.00    -0.389 OA
HETATM   10  H25 UNL     1     -32.761   6.654  -0.293  1.00 20.00     0.210 HD
ENDBRANCH   6   9
BRANCH   5  11
HETATM   11  C3  UNL     1     -31.820   8.435   1.069  1.00 20.00     0.238 C 
HETATM   12  O10 UNL     1     -31.960   9.384   0.304  1.00 20.00    -0.306 OA
ENDBRANCH   5  11
TORSDOF 2
ENDMDL
MODEL 3
REMARK VINA RESULT:       1.0      1.510      2.598
REMARK  2 active torsions:
REMARK  status: ('A' for Active; 'I' for Inactive)
REMARK    1  A    between atoms: C3_3  and  C6_6 
REMARK    2  A    between atoms: C7_7  and  O11_11 
ROOT
HETATM    1  C1  UNL     1     -33.646   8.081   2.820  1.00 20.00    -0.023 C 
HETATM    2  C2  UNL     1     -32.657   8.179   1.918  1.00 20.00    -0.085 C 
HETATM    3  C4  UNL     1     -34.085   6.787   3.439  1.00 20.00     0.042 C 
HETATM    4  C5  UNL     1     -31.908   6.967   1.425  1.00 20.00     0.071 C 
HETATM    5  C6  UNL     1     -33.122   5.620   3.176  1.00 20.00     0.084 C 
HETATM    6  C7  UNL     1     -32.596   5.615   1.724  1.00 20.00     0.068 C 
HETATM    7  C8  UNL     1     -32.229   9.499   1.350  1.00 20.00     0.043 C 
HETATM    8  C9  UNL     1     -33.688   5.324   0.683  1.00 20.00     0.047 C 
ENDROOT
BRANCH   6   9
HETATM    9  O11 UNL     1     -31.577   4.615   1.591  1.00 20.00    -0.389 OA
HETATM   10  H25 UNL     1     -30.736   5.091   1.617  1.00 20.00     0.210 HD
ENDBRANCH   6   9
BRANCH   5  11
HETATM   11  C3  UNL     1     -33.794   4.327   3.558  1.00 20.00     0.238 C 
HETATM   12  O10 UNL     1     -34.647   4.242   4.436  1.00 20.00    -0.306 OA
ENDBRANCH   5  11
TORSDOF 2
ENDMDL
MODEL 4
REMARK VINA RESULT:       1.7      1.781      3.836
REMARK  2 active torsions:
REMARK  status: ('A' for Active; 'I' for Inactive)
REMARK    1  A    between atoms: C3_3  and  C6_6 
REMARK    2  A    between atoms: C7_7  and  O11_11 
ROOT
HETATM    1  C1  UNL     1     -33.035   4.567   2.387  1.00 20.00    -0.023 C 
HETATM    2  C2  UNL     1     -33.495   4.468   3.644  1.00 20.00    -0.085 C 
HETATM    3  C4  UNL     1     -32.824   5.872   1.679  1.00 20.00     0.042 C 
HETATM    4  C5  UNL     1     -33.868   5.684   4.454  1.00 20.00     0.071 C 
HETATM    5  C6  UNL     1     -32.901   7.096   2.603  1.00 20.00     0.084 C 
HETATM    6  C7  UNL     1     -34.049   6.980   3.629  1.00 20.00     0.068 C 
HETATM    7  C8  UNL     1     -33.660   3.142   4.327  1.00 20.00     0.043 C 
HETATM    8  C9  UNL     1     -35.444   7.019   2.986  1.00 20.00     0.047 C 
ENDROOT
BRANCH   6   9
HETATM    9  O11 UNL     1     -33.961   8.060   4.567  1.00 20.00    -0.389 OA
HETATM   10  H25 UNL     1     -34.179   8.859   4.069  1.00 20.00     0.210 HD
ENDBRANCH   6   9
BRANCH   5  11
HETATM   11  C3  UNL     1     -32.990   8.345   1.766  1.00 20.00     0.238 C 
HETATM   12  O10 UNL     1     -32.063   8.770   1.085  1.00 20.00    -0.306 OA
ENDBRANCH   5  11
TORSDOF 2
ENDMDL
MODEL 5
REMARK VINA RESULT:       1.9      2.382      3.528
REMARK  2 active torsions:
REMARK  status: ('A' for Active; 'I' for Inactive)
REMARK    1  A    between atoms: C3_3  and  C6_6 
REMARK    2  A    between atoms: C7_7  and  O11_11 
ROOT
HETATM    1  C1  UNL     1     -34.383   6.831   3.829  1.00 20.00    -0.023 C 
HETATM    2  C2  UNL     1     -33.558   7.812   4.227  1.00 20.00    -0.085 C 
HETATM    3  C4  UNL     1     -34.128   5.962   2.634  1.00 20.00     0.042 C 
HETATM    4  C5  UNL     1     -32.294   8.143   3.474  1.00 20.00     0.071 C 
HETATM    5  C6  UNL     1     -32.706   6.091   2.068  1.00 20.00     0.084 C 
HETATM    6  C7  UNL     1     -32.220   7.557   2.045  1.00 20.00     0.068 C 
HETATM    7  C8  UNL     1     -33.836   8.636   5.449  1.00 20.00     0.043 C 
HETATM    8  C9  UNL     1     -33.001   8.440   1.059  1.00 20.00     0.047 C 
ENDROOT
BRANCH   6   9
HETATM    9  O11 UNL     1     -30.835   7.594   1.674  1.00 20.00    -0.389 OA
HETATM   10  H25 UNL     1     -30.353   7.223   2.425  1.00 20.00     0.210 HD
ENDBRANCH   6   9
BRANCH   5  11
HETATM   11  C3  UNL     1     -32.649   5.436   0.714  1.00 20.00     0.238 C 
HETATM   12  O10 UNL     1     -31.694   4.771   0.324  1.00 20.00    -0.306 OA
ENDBRANCH   5  11
TORSDOF 2
ENDMDL
MODEL 6
REMARK VINA RESULT:       2.3      1.472      2.982
REMARK  2 active torsions:
REMARK  status: ('A' for Active; 'I' for Inactive)
REMARK    1  A    between atoms: C3_3  and  C6_6 
REMARK    2  A    between atoms: C7_7  and  O11_11 
ROOT
HETATM    1  C1  UNL     1     -32.264   6.980   1.598  1.00 20.00    -0.023 C 
HETATM    2  C2  UNL     1     -32.743   5.730   1.503  1.00 20.00    -0.085 C 
HETATM    3  C4  UNL     1     -32.572   7.907   2.734  1.00 20.00     0.042 C 
HETATM    4  C5  UNL     1     -33.671   5.154   2.543  1.00 20.00     0.071 C 
HETATM    5  C6  UNL     1     -33.248   7.217   3.929  1.00 20.00     0.084 C 
HETATM    6  C7  UNL     1     -34.320   6.198   3.482  1.00 20.00     0.068 C 
HETATM    7  C8  UNL     1     -32.381   4.824   0.364  1.00 20.00     0.043 C 
HETATM    8  C9  UNL     1     -35.534   6.851   2.805  1.00 20.00     0.047 C 
ENDROOT
BRANCH   6   9
HETATM    9  O11 UNL     1     -34.786   5.466   4.623  1.00 20.00    -0.389 OA
HETATM   10  H25 UNL     1     -35.300   4.728   4.271  1.00 20.00     0.210 HD
ENDBRANCH   6   9
BRANCH   5  11
HETATM   11  C3  UNL     1     -33.792   8.263   4.864  1.00 20.00     0.238 C 
HETATM   12  O10 UNL     1     -33.179   8.682   5.841  1.00 20.00    -0.306 OA
ENDBRANCH   5  11
TORSDOF 2
ENDMDL
MODEL 7
REMARK VINA RESULT:       2.4      1.760      3.096
REMARK  2 active torsions:
REMARK  status: ('A' for Active; 'I' for Inactive)
REMARK    1  A    between atoms: C3_3  and  C6_6 
REMARK    2  A    between atoms: C7_7  and  O11_11 
ROOT
HETATM    1  C1  UNL     1     -32.877   5.032   2.382  1.00 20.00    -0.023 C 
HETATM    2  C2  UNL     1     -32.229   5.431   1.276  1.00 20.00    -0.085 C 
HETATM    3  C4  UNL     1     -33.558   5.970   3.333  1.00 20.00     0.042 C 
HETATM    4  C5  UNL     1     -32.112   6.887   0.905  1.00 20.00     0.071 C 
HETATM    5  C6  UNL     1     -33.705   7.400   2.790  1.00 20.00     0.084 C 
HETATM    6  C7  UNL     1     -32.435   7.875   2.050  1.00 20.00     0.068 C 
HETATM    7  C8  UNL     1     -31.590   4.454   0.335  1.00 20.00     0.043 C 
HETATM    8  C9  UNL     1     -31.221   8.045   2.976  1.00 20.00     0.047 C 
ENDROOT
BRANCH   6   9
HETATM    9  O11 UNL     1     -32.696   9.137   1.421  1.00 20.00    -0.389 OA
HETATM   10  H25 UNL     1     -32.003   9.734   1.732  1.00 20.00     0.210 HD
ENDBRANCH   6   9
BRANCH   5  11
HETATM   11  C3  UNL     1     -34.104   8.318   3.914  1.00 20.00     0.238 C 
HETATM   12  O10 UNL     1     -33.890   8.073   5.097  1.00 20.00    -0.306 OA
ENDBRANCH   5  11
TORSDOF 2
ENDMDL
