MODEL 1
REMARK VINA RESULT:      -0.8      0.000      0.000
REMARK  0 active torsions:
REMARK  status: ('A' for Active; 'I' for Inactive)
ROOT
HETATM    1  C1  UNL     1     -34.059   7.932   3.426  1.00 20.00     0.110 A 
HETATM    2  C2  UNL     1     -34.418   6.643   3.777  1.00 20.00     0.007 A 
HETATM    3  C3  UNL     1     -33.620   5.686   3.107  1.00 20.00     0.002 A 
HETATM    4  C4  UNL     1     -32.787   6.415   2.359  1.00 20.00     0.048 A 
HETATM    5  C5  UNL     1     -35.339   5.942   4.600  1.00 20.00     0.124 A 
HETATM    6  C6  UNL     1     -31.754   6.791   1.447  1.00 20.00     0.048 A 
HETATM    7  C7  UNL     1     -32.080   8.094   1.694  1.00 20.00     0.099 A 
HETATM    8  C8  UNL     1     -34.049   4.354   3.520  1.00 20.00     0.190 A 
HETATM    9  N9  UNL     1     -35.184   4.649   4.502  1.00 20.00    -0.296 NA
HETATM   10  N10 UNL     1     -33.057   7.700   2.558  1.00 20.00    -0.331 N 
ENDROOT
TORSDOF 0
ENDMDL
MODEL 2
REMARK VINA RESULT:      -0.7      0.896      1.860
REMARK  0 active torsions:
REMARK  status: ('A' for Active; 'I' for Inactive)
ROOT
HETATM    1  C1  UNL     1     -32.432   5.474   1.913  1.00 20.00     0.110 A 
HETATM    2  C2  UNL     1     -33.444   5.396   2.854  1.00 20.00     0.007 A 
HETATM    3  C3  UNL     1     -33.892   6.683   3.233  1.00 20.00     0.002 A 
HETATM    4  C4  UNL     1     -33.141   7.521   2.512  1.00 20.00     0.048 A 
HETATM    5  C5  UNL     1     -34.199   4.439   3.582  1.00 20.00     0.124 A 
HETATM    6  C6  UNL     1     -32.584   8.714   1.960  1.00 20.00     0.048 A 
HETATM    7  C7  UNL     1     -31.757   7.924   1.216  1.00 20.00     0.099 A 
HETATM    8  C8  UNL     1     -34.954   6.531   4.223  1.00 20.00     0.190 A 
HETATM    9  N9  UNL     1     -35.067   5.013   4.372  1.00 20.00    -0.296 NA
HETATM   10  N10 UNL     1     -32.312   6.805   1.763  1.00 20.00    -0.331 N 
ENDROOT
TORSDOF 0
ENDMDL
MODEL 3
REMARK VINA RESULT:      -0.5      1.021      3.513
REMARK  0 active torsions:
REMARK  status: ('A' for Active; 'I' for Inactive)
ROOT
HETATM    1  C1  UNL     1     -34.215   7.584   3.821  1.00 20.00     0.110 A 
HETATM    2  C2  UNL     1     -33.238   7.493   2.846  1.00 20.00     0.007 A 
HETATM    3  C3  UNL     1     -32.986   6.146   2.495  1.00 20.00     0.002 A 
HETATM    4  C4  UNL     1     -33.818   5.441   3.268  1.00 20.00     0.048 A 
HETATM    5  C5  UNL     1     -32.384   8.314   2.062  1.00 20.00     0.124 A 
HETATM    6  C6  UNL     1     -34.515   4.354   3.877  1.00 20.00     0.048 A 
HETATM    7  C7  UNL     1     -35.197   5.273   4.621  1.00 20.00     0.099 A 
HETATM    8  C8  UNL     1     -31.950   6.120   1.468  1.00 20.00     0.190 A 
HETATM    9  N9  UNL     1     -31.633   7.603   1.265  1.00 20.00    -0.296 NA
HETATM   10  N10 UNL     1     -34.512   6.287   4.019  1.00 20.00    -0.331 N 
ENDROOT
TORSDOF 0
ENDMDL
MODEL 4
REMARK VINA RESULT:       0.4      1.217      3.986
REMARK  0 active torsions:
REMARK  status: ('A' for Active; 'I' for Inactive)
ROOT
HETATM    1  C1  UNL     1     -33.182   5.239   2.221  1.00 20.00     0.110 A 
HETATM    2  C2  UNL     1     -32.633   6.475   1.932  1.00 20.00     0.007 A 
HETATM    3  C3  UNL     1     -33.208   7.492   2.730  1.00 20.00     0.002 A 
HETATM    4  C4  UNL     1     -34.099   6.851   3.492  1.00 20.00     0.048 A 
HETATM    5  C5  UNL     1     -31.666   7.079   1.085  1.00 20.00     0.124 A 
HETATM    6  C6  UNL     1     -35.114   6.577   4.458  1.00 20.00     0.048 A 
HETATM    7  C7  UNL     1     -35.035   5.264   4.096  1.00 20.00     0.099 A 
HETATM    8  C8  UNL     1     -32.587   8.765   2.376  1.00 20.00     0.190 A 
HETATM    9  N9  UNL     1     -31.591   8.368   1.285  1.00 20.00    -0.296 NA
HETATM   10  N10 UNL     1     -34.067   5.561   3.182  1.00 20.00    -0.331 N 
ENDROOT
TORSDOF 0
ENDMDL
MODEL 5
REMARK VINA RESULT:       0.7      1.466      2.120
REMARK  0 active torsions:
REMARK  status: ('A' for Active; 'I' for Inactive)
ROOT
HETATM    1  C1  UNL     1     -32.058   7.688   2.184  1.00 20.00     0.110 A 
HETATM    2  C2  UNL     1     -33.103   7.500   3.071  1.00 20.00     0.007 A 
HETATM    3  C3  UNL     1     -33.709   6.234   2.891  1.00 20.00     0.002 A 
HETATM    4  C4  UNL     1     -33.017   5.675   1.894  1.00 20.00     0.048 A 
HETATM    5  C5  UNL     1     -33.787   8.165   4.123  1.00 20.00     0.124 A 
HETATM    6  C6  UNL     1     -32.564   4.749   0.906  1.00 20.00     0.048 A 
HETATM    7  C7  UNL     1     -31.618   5.666   0.552  1.00 20.00     0.099 A 
HETATM    8  C8  UNL     1     -34.798   6.101   3.852  1.00 20.00     0.190 A 
HETATM    9  N9  UNL     1     -34.753   7.431   4.607  1.00 20.00    -0.296 NA
HETATM   10  N10 UNL     1     -32.076   6.526   1.505  1.00 20.00    -0.331 N 
ENDROOT
TORSDOF 0
ENDMDL
