MODEL 1
REMARK VINA RESULT:       0.1      0.000      0.000
REMARK  0 active torsions:
REMARK  status: ('A' for Active; 'I' for Inactive)
ROOT
HETATM    1  C1  UNL     1     -32.420   8.670   2.738  1.00 20.00     0.027 C 
HETATM    2  C2  UNL     1     -31.591   8.102   1.704  1.00 20.00     0.027 C 
HETATM    3  C3  UNL     1     -33.339   7.708   3.130  1.00 20.00     0.012 C 
HETATM    4  C4  UNL     1     -32.046   6.822   1.512  1.00 20.00     0.012 C 
HETATM    5  C5  UNL     1     -34.301   7.561   4.256  1.00 20.00     0.057 C 
HETATM    6  C6  UNL     1     -31.738   5.541   0.841  1.00 20.00     0.059 C 
HETATM    7  C7  UNL     1     -35.086   6.229   4.193  1.00 20.00     0.008 C 
HETATM    8  C8  UNL     1     -32.562   4.534   1.712  1.00 20.00     0.032 C 
HETATM    9  C9  UNL     1     -34.243   5.041   3.673  1.00 20.00     0.026 C 
HETATM   10  C10 UNL     1     -33.743   5.356   2.265  1.00 20.00     0.090 C 
HETATM   11  N11 UNL     1     -33.163   6.689   2.263  1.00 20.00    -0.349 N 
ENDROOT
TORSDOF 0
ENDMDL
MODEL 2
REMARK VINA RESULT:       1.1      0.783      4.014
REMARK  0 active torsions:
REMARK  status: ('A' for Active; 'I' for Inactive)
ROOT
HETATM    1  C1  UNL     1     -33.883   4.185   3.234  1.00 20.00     0.027 C 
HETATM    2  C2  UNL     1     -34.611   4.868   4.275  1.00 20.00     0.027 C 
HETATM    3  C3  UNL     1     -33.248   5.141   2.456  1.00 20.00     0.012 C 
HETATM    4  C4  UNL     1     -34.389   6.207   4.080  1.00 20.00     0.012 C 
HETATM    5  C5  UNL     1     -32.200   5.119   1.398  1.00 20.00     0.057 C 
HETATM    6  C6  UNL     1     -34.569   7.542   4.689  1.00 20.00     0.059 C 
HETATM    7  C7  UNL     1     -31.860   6.534   0.873  1.00 20.00     0.008 C 
HETATM    8  C8  UNL     1     -33.462   8.368   3.951  1.00 20.00     0.032 C 
HETATM    9  C9  UNL     1     -31.896   7.623   1.970  1.00 20.00     0.026 C 
HETATM   10  C10 UNL     1     -33.293   7.676   2.583  1.00 20.00     0.090 C 
HETATM   11  N11 UNL     1     -33.708   6.323   2.916  1.00 20.00    -0.349 N 
ENDROOT
TORSDOF 0
ENDMDL
MODEL 3
REMARK VINA RESULT:       1.3      0.633      2.695
REMARK  0 active torsions:
REMARK  status: ('A' for Active; 'I' for Inactive)
ROOT
HETATM    1  C1  UNL     1     -33.048   4.793   1.695  1.00 20.00     0.027 C 
HETATM    2  C2  UNL     1     -32.120   5.495   0.843  1.00 20.00     0.027 C 
HETATM    3  C3  UNL     1     -33.494   5.678   2.665  1.00 20.00     0.012 C 
HETATM    4  C4  UNL     1     -32.041   6.772   1.336  1.00 20.00     0.012 C 
HETATM    5  C5  UNL     1     -34.583   5.673   3.680  1.00 20.00     0.057 C 
HETATM    6  C6  UNL     1     -31.522   8.126   1.048  1.00 20.00     0.059 C 
HETATM    7  C7  UNL     1     -34.623   6.979   4.510  1.00 20.00     0.008 C 
HETATM    8  C8  UNL     1     -32.454   9.008   1.946  1.00 20.00     0.032 C 
HETATM    9  C9  UNL     1     -34.270   8.241   3.691  1.00 20.00     0.026 C 
HETATM   10  C10 UNL     1     -32.862   8.094   3.119  1.00 20.00     0.090 C 
HETATM   11  N11 UNL     1     -32.748   6.788   2.489  1.00 20.00    -0.349 N 
ENDROOT
TORSDOF 0
ENDMDL
MODEL 4
REMARK VINA RESULT:       1.4      0.761      2.714
REMARK  0 active torsions:
REMARK  status: ('A' for Active; 'I' for Inactive)
ROOT
HETATM    1  C1  UNL     1     -32.295   4.980   1.526  1.00 20.00     0.027 C 
HETATM    2  C2  UNL     1     -31.821   6.271   1.092  1.00 20.00     0.027 C 
HETATM    3  C3  UNL     1     -33.167   5.176   2.587  1.00 20.00     0.012 C 
HETATM    4  C4  UNL     1     -32.423   7.192   1.911  1.00 20.00     0.012 C 
HETATM    5  C5  UNL     1     -34.139   4.326   3.327  1.00 20.00     0.057 C 
HETATM    6  C6  UNL     1     -32.655   8.640   2.101  1.00 20.00     0.059 C 
HETATM    7  C7  UNL     1     -34.870   5.104   4.448  1.00 20.00     0.008 C 
HETATM    8  C8  UNL     1     -33.940   8.629   2.996  1.00 20.00     0.032 C 
HETATM    9  C9  UNL     1     -35.178   6.574   4.079  1.00 20.00     0.026 C 
HETATM   10  C10 UNL     1     -33.870   7.304   3.780  1.00 20.00     0.090 C 
HETATM   11  N11 UNL     1     -33.083   6.494   2.863  1.00 20.00    -0.349 N 
ENDROOT
TORSDOF 0
ENDMDL
MODEL 5
REMARK VINA RESULT:       1.5      0.665      3.837
REMARK  0 active torsions:
REMARK  status: ('A' for Active; 'I' for Inactive)
ROOT
HETATM    1  C1  UNL     1     -32.806   4.558   1.959  1.00 20.00     0.027 C 
HETATM    2  C2  UNL     1     -33.821   4.350   2.961  1.00 20.00     0.027 C 
HETATM    3  C3  UNL     1     -32.593   5.923   1.840  1.00 20.00     0.012 C 
HETATM    4  C4  UNL     1     -34.182   5.597   3.402  1.00 20.00     0.012 C 
HETATM    5  C5  UNL     1     -31.570   6.780   1.178  1.00 20.00     0.057 C 
HETATM    6  C6  UNL     1     -34.956   6.312   4.439  1.00 20.00     0.059 C 
HETATM    7  C7  UNL     1     -31.836   8.289   1.394  1.00 20.00     0.008 C 
HETATM    8  C8  UNL     1     -34.264   7.717   4.423  1.00 20.00     0.032 C 
HETATM    9  C9  UNL     1     -32.406   8.621   2.792  1.00 20.00     0.026 C 
HETATM   10  C10 UNL     1     -33.728   7.882   2.987  1.00 20.00     0.090 C 
HETATM   11  N11 UNL     1     -33.543   6.489   2.611  1.00 20.00    -0.349 N 
ENDROOT
TORSDOF 0
ENDMDL
MODEL 6
REMARK VINA RESULT:       1.7      0.835      2.402
REMARK  0 active torsions:
REMARK  status: ('A' for Active; 'I' for Inactive)
ROOT
HETATM    1  C1  UNL     1     -34.615   7.327   4.513  1.00 20.00     0.027 C 
HETATM    2  C2  UNL     1     -33.969   8.390   3.784  1.00 20.00     0.027 C 
HETATM    3  C3  UNL     1     -34.264   6.124   3.920  1.00 20.00     0.012 C 
HETATM    4  C4  UNL     1     -33.259   7.785   2.778  1.00 20.00     0.012 C 
HETATM    5  C5  UNL     1     -34.395   4.686   4.286  1.00 20.00     0.057 C 
HETATM    6  C6  UNL     1     -32.247   8.027   1.728  1.00 20.00     0.059 C 
HETATM    7  C7  UNL     1     -33.793   3.746   3.213  1.00 20.00     0.008 C 
HETATM    8  C8  UNL     1     -31.685   6.582   1.506  1.00 20.00     0.032 C 
HETATM    9  C9  UNL     1     -32.519   4.311   2.544  1.00 20.00     0.026 C 
HETATM   10  C10 UNL     1     -32.850   5.639   1.868  1.00 20.00     0.090 C 
HETATM   11  N11 UNL     1     -33.583   6.472   2.809  1.00 20.00    -0.349 N 
ENDROOT
TORSDOF 0
ENDMDL
MODEL 7
REMARK VINA RESULT:       2.0      0.857      3.059
REMARK  0 active torsions:
REMARK  status: ('A' for Active; 'I' for Inactive)
ROOT
HETATM    1  C1  UNL     1     -34.093   8.300   3.712  1.00 20.00     0.027 C 
HETATM    2  C2  UNL     1     -34.817   7.314   4.475  1.00 20.00     0.027 C 
HETATM    3  C3  UNL     1     -33.204   7.633   2.882  1.00 20.00     0.012 C 
HETATM    4  C4  UNL     1     -34.332   6.094   4.079  1.00 20.00     0.012 C 
HETATM    5  C5  UNL     1     -32.348   8.015   1.725  1.00 20.00     0.057 C 
HETATM    6  C6  UNL     1     -34.561   4.637   4.175  1.00 20.00     0.059 C 
HETATM    7  C7  UNL     1     -31.546   6.816   1.163  1.00 20.00     0.008 C 
HETATM    8  C8  UNL     1     -33.811   4.123   2.901  1.00 20.00     0.032 C 
HETATM    9  C9  UNL     1     -32.323   5.480   1.205  1.00 20.00     0.026 C 
HETATM   10  C10 UNL     1     -32.695   5.157   2.650  1.00 20.00     0.090 C 
HETATM   11  N11 UNL     1     -33.287   6.340   3.255  1.00 20.00    -0.349 N 
ENDROOT
TORSDOF 0
ENDMDL
MODEL 8
REMARK VINA RESULT:       2.0      0.820      2.667
REMARK  0 active torsions:
REMARK  status: ('A' for Active; 'I' for Inactive)
ROOT
HETATM    1  C1  UNL     1     -31.873   6.189   1.204  1.00 20.00     0.027 C 
HETATM    2  C2  UNL     1     -32.187   4.800   1.434  1.00 20.00     0.027 C 
HETATM    3  C3  UNL     1     -32.669   6.954   2.044  1.00 20.00     0.012 C 
HETATM    4  C4  UNL     1     -33.162   4.785   2.399  1.00 20.00     0.012 C 
HETATM    5  C5  UNL     1     -32.697   8.383   2.461  1.00 20.00     0.057 C 
HETATM    6  C6  UNL     1     -33.916   3.899   3.311  1.00 20.00     0.059 C 
HETATM    7  C7  UNL     1     -33.838   8.683   3.463  1.00 20.00     0.008 C 
HETATM    8  C8  UNL     1     -34.378   4.914   4.411  1.00 20.00     0.032 C 
HETATM    9  C9  UNL     1     -34.101   7.531   4.460  1.00 20.00     0.026 C 
HETATM   10  C10 UNL     1     -34.480   6.271   3.686  1.00 20.00     0.090 C 
HETATM   11  N11 UNL     1     -33.515   6.073   2.616  1.00 20.00    -0.349 N 
ENDROOT
TORSDOF 0
ENDMDL
MODEL 9
REMARK VINA RESULT:       2.1      0.681      2.971
REMARK  0 active torsions:
REMARK  status: ('A' for Active; 'I' for Inactive)
ROOT
HETATM    1  C1  UNL     1     -34.471   7.681   4.094  1.00 20.00     0.027 C 
HETATM    2  C2  UNL     1     -34.823   6.284   4.150  1.00 20.00     0.027 C 
HETATM    3  C3  UNL     1     -33.425   7.824   3.194  1.00 20.00     0.012 C 
HETATM    4  C4  UNL     1     -33.973   5.642   3.286  1.00 20.00     0.012 C 
HETATM    5  C5  UNL     1     -32.756   8.974   2.525  1.00 20.00     0.057 C 
HETATM    6  C6  UNL     1     -33.714   4.349   2.616  1.00 20.00     0.059 C 
HETATM    7  C7  UNL     1     -31.616   8.526   1.579  1.00 20.00     0.008 C 
HETATM    8  C8  UNL     1     -32.855   4.807   1.389  1.00 20.00     0.032 C 
HETATM    9  C9  UNL     1     -31.916   7.203   0.836  1.00 20.00     0.026 C 
HETATM   10  C10 UNL     1     -32.141   6.090   1.857  1.00 20.00     0.090 C 
HETATM   11  N11 UNL     1     -33.077   6.564   2.864  1.00 20.00    -0.349 N 
ENDROOT
TORSDOF 0
ENDMDL
