MODEL 1
REMARK VINA RESULT:       0.2      0.000      0.000
REMARK  0 active torsions:
REMARK  status: ('A' for Active; 'I' for Inactive)
ROOT
HETATM    1  C1  UNL     1     -32.411   8.597   1.402  1.00 20.00     0.100 C 
HETATM    2  C2  UNL     1     -31.894   6.240   1.008  1.00 20.00     0.042 A 
HETATM    3  C3  UNL     1     -32.085   4.902   1.350  1.00 20.00     0.118 A 
HETATM    4  C4  UNL     1     -32.593   7.216   1.713  1.00 20.00     0.054 A 
HETATM    5  C5  UNL     1     -33.450   6.803   2.712  1.00 20.00    -0.013 A 
HETATM    6  C6  UNL     1     -33.571   5.444   2.981  1.00 20.00     0.042 A 
HETATM    7  C7  UNL     1     -34.288   7.618   3.639  1.00 20.00     0.042 C 
HETATM    8  C8  UNL     1     -34.506   5.211   4.133  1.00 20.00     0.060 C 
HETATM    9  C9  UNL     1     -35.258   6.549   4.174  1.00 20.00     0.011 C 
HETATM   10  N10 UNL     1     -32.264   9.721   1.148  1.00 20.00    -0.191 NA
HETATM   11  N11 UNL     1     -32.911   4.469   2.333  1.00 20.00    -0.265 NA
ENDROOT
TORSDOF 0
ENDMDL
MODEL 2
REMARK VINA RESULT:       0.2      1.727      4.569
REMARK  0 active torsions:
REMARK  status: ('A' for Active; 'I' for Inactive)
ROOT
HETATM    1  C1  UNL     1     -33.562   3.217   4.236  1.00 20.00     0.100 C 
HETATM    2  C2  UNL     1     -35.034   5.147   4.530  1.00 20.00     0.042 A 
HETATM    3  C3  UNL     1     -35.360   6.462   4.200  1.00 20.00     0.118 A 
HETATM    4  C4  UNL     1     -33.935   4.556   3.913  1.00 20.00     0.054 A 
HETATM    5  C5  UNL     1     -33.228   5.306   2.995  1.00 20.00    -0.013 A 
HETATM    6  C6  UNL     1     -33.630   6.612   2.736  1.00 20.00     0.042 A 
HETATM    7  C7  UNL     1     -32.006   4.947   2.218  1.00 20.00     0.042 C 
HETATM    8  C8  UNL     1     -32.702   7.268   1.754  1.00 20.00     0.060 C 
HETATM    9  C9  UNL     1     -32.015   6.041   1.136  1.00 20.00     0.011 C 
HETATM   10  N10 UNL     1     -33.259   2.127   4.499  1.00 20.00    -0.191 NA
HETATM   11  N11 UNL     1     -34.677   7.224   3.312  1.00 20.00    -0.265 NA
ENDROOT
TORSDOF 0
ENDMDL
MODEL 3
REMARK VINA RESULT:       0.5      1.356      2.923
REMARK  0 active torsions:
REMARK  status: ('A' for Active; 'I' for Inactive)
ROOT
HETATM    1  C1  UNL     1     -31.857   5.083   0.902  1.00 20.00     0.100 C 
HETATM    2  C2  UNL     1     -31.927   7.422   1.611  1.00 20.00     0.042 A 
HETATM    3  C3  UNL     1     -32.484   8.408   2.424  1.00 20.00     0.118 A 
HETATM    4  C4  UNL     1     -32.393   6.116   1.729  1.00 20.00     0.054 A 
HETATM    5  C5  UNL     1     -33.381   5.864   2.659  1.00 20.00    -0.013 A 
HETATM    6  C6  UNL     1     -33.875   6.915   3.422  1.00 20.00     0.042 A 
HETATM    7  C7  UNL     1     -34.082   4.585   2.973  1.00 20.00     0.042 C 
HETATM    8  C8  UNL     1     -34.975   6.442   4.328  1.00 20.00     0.060 C 
HETATM    9  C9  UNL     1     -34.722   4.927   4.330  1.00 20.00     0.011 C 
HETATM   10  N10 UNL     1     -31.421   4.243   0.229  1.00 20.00    -0.191 NA
HETATM   11  N11 UNL     1     -33.463   8.190   3.336  1.00 20.00    -0.265 NA
ENDROOT
TORSDOF 0
ENDMDL
MODEL 4
REMARK VINA RESULT:       1.2      1.526      4.147
REMARK  0 active torsions:
REMARK  status: ('A' for Active; 'I' for Inactive)
ROOT
HETATM    1  C1  UNL     1     -35.002   5.585   4.226  1.00 20.00     0.100 C 
HETATM    2  C2  UNL     1     -33.944   7.781   4.042  1.00 20.00     0.042 A 
HETATM    3  C3  UNL     1     -33.019   8.613   3.412  1.00 20.00     0.118 A 
HETATM    4  C4  UNL     1     -34.077   6.469   3.595  1.00 20.00     0.054 A 
HETATM    5  C5  UNL     1     -33.288   6.064   2.537  1.00 20.00    -0.013 A 
HETATM    6  C6  UNL     1     -32.393   6.967   1.976  1.00 20.00     0.042 A 
HETATM    7  C7  UNL     1     -33.197   4.727   1.882  1.00 20.00     0.042 C 
HETATM    8  C8  UNL     1     -31.597   6.315   0.882  1.00 20.00     0.060 C 
HETATM    9  C9  UNL     1     -32.471   5.090   0.576  1.00 20.00     0.011 C 
HETATM   10  N10 UNL     1     -35.755   4.865   4.740  1.00 20.00    -0.191 NA
HETATM   11  N11 UNL     1     -32.224   8.237   2.380  1.00 20.00    -0.265 NA
ENDROOT
TORSDOF 0
ENDMDL
MODEL 5
REMARK VINA RESULT:       1.5      1.826      3.148
REMARK  0 active torsions:
REMARK  status: ('A' for Active; 'I' for Inactive)
ROOT
HETATM    1  C1  UNL     1     -32.631   7.080   2.186  1.00 20.00     0.100 C 
HETATM    2  C2  UNL     1     -34.731   6.922   3.428  1.00 20.00     0.042 A 
HETATM    3  C3  UNL     1     -35.595   6.170   4.224  1.00 20.00     0.118 A 
HETATM    4  C4  UNL     1     -33.533   6.346   3.015  1.00 20.00     0.054 A 
HETATM    5  C5  UNL     1     -33.258   5.058   3.426  1.00 20.00    -0.013 A 
HETATM    6  C6  UNL     1     -34.185   4.389   4.218  1.00 20.00     0.042 A 
HETATM    7  C7  UNL     1     -32.084   4.193   3.112  1.00 20.00     0.042 C 
HETATM    8  C8  UNL     1     -33.723   2.990   4.508  1.00 20.00     0.060 C 
HETATM    9  C9  UNL     1     -32.225   3.105   4.190  1.00 20.00     0.011 C 
HETATM   10  N10 UNL     1     -31.897   7.677   1.513  1.00 20.00    -0.191 NA
HETATM   11  N11 UNL     1     -35.355   4.900   4.632  1.00 20.00    -0.265 NA
ENDROOT
TORSDOF 0
ENDMDL
MODEL 6
REMARK VINA RESULT:       1.7      1.835      3.533
REMARK  0 active torsions:
REMARK  status: ('A' for Active; 'I' for Inactive)
ROOT
HETATM    1  C1  UNL     1     -34.907   5.390   4.017  1.00 20.00     0.100 C 
HETATM    2  C2  UNL     1     -33.561   5.305   1.977  1.00 20.00     0.042 A 
HETATM    3  C3  UNL     1     -32.595   5.888   1.158  1.00 20.00     0.118 A 
HETATM    4  C4  UNL     1     -33.911   5.950   3.161  1.00 20.00     0.054 A 
HETATM    5  C5  UNL     1     -33.270   7.133   3.466  1.00 20.00    -0.013 A 
HETATM    6  C6  UNL     1     -32.322   7.636   2.582  1.00 20.00     0.042 A 
HETATM    7  C7  UNL     1     -33.466   8.043   4.632  1.00 20.00     0.042 C 
HETATM    8  C8  UNL     1     -31.788   8.952   3.070  1.00 20.00     0.060 C 
HETATM    9  C9  UNL     1     -32.192   8.901   4.551  1.00 20.00     0.011 C 
HETATM   10  N10 UNL     1     -35.716   4.935   4.714  1.00 20.00    -0.191 NA
HETATM   11  N11 UNL     1     -31.960   7.054   1.427  1.00 20.00    -0.265 NA
ENDROOT
TORSDOF 0
ENDMDL
MODEL 7
REMARK VINA RESULT:       1.8      1.628      3.784
REMARK  0 active torsions:
REMARK  status: ('A' for Active; 'I' for Inactive)
ROOT
HETATM    1  C1  UNL     1     -31.992   4.874   0.835  1.00 20.00     0.100 C 
HETATM    2  C2  UNL     1     -33.478   5.333   2.723  1.00 20.00     0.042 A 
HETATM    3  C3  UNL     1     -34.068   6.260   3.581  1.00 20.00     0.118 A 
HETATM    4  C4  UNL     1     -32.627   5.795   1.722  1.00 20.00     0.054 A 
HETATM    5  C5  UNL     1     -32.421   7.157   1.627  1.00 20.00    -0.013 A 
HETATM    6  C6  UNL     1     -33.054   8.001   2.532  1.00 20.00     0.042 A 
HETATM    7  C7  UNL     1     -31.548   7.919   0.688  1.00 20.00     0.042 C 
HETATM    8  C8  UNL     1     -32.657   9.429   2.292  1.00 20.00     0.060 C 
HETATM    9  C9  UNL     1     -32.104   9.343   0.862  1.00 20.00     0.011 C 
HETATM   10  N10 UNL     1     -31.476   4.125   0.113  1.00 20.00    -0.191 NA
HETATM   11  N11 UNL     1     -33.874   7.600   3.516  1.00 20.00    -0.265 NA
ENDROOT
TORSDOF 0
ENDMDL
MODEL 8
REMARK VINA RESULT:       2.0      1.476      3.464
REMARK  0 active torsions:
REMARK  status: ('A' for Active; 'I' for Inactive)
ROOT
HETATM    1  C1  UNL     1     -33.571   3.883   3.818  1.00 20.00     0.100 C 
HETATM    2  C2  UNL     1     -32.340   4.831   1.930  1.00 20.00     0.042 A 
HETATM    3  C3  UNL     1     -31.984   5.949   1.176  1.00 20.00     0.118 A 
HETATM    4  C4  UNL     1     -33.173   5.006   3.032  1.00 20.00     0.054 A 
HETATM    5  C5  UNL     1     -33.597   6.286   3.325  1.00 20.00    -0.013 A 
HETATM    6  C6  UNL     1     -33.189   7.336   2.511  1.00 20.00     0.042 A 
HETATM    7  C7  UNL     1     -34.508   6.758   4.408  1.00 20.00     0.042 C 
HETATM    8  C8  UNL     1     -33.801   8.630   2.967  1.00 20.00     0.060 C 
HETATM    9  C9  UNL     1     -34.215   8.268   4.401  1.00 20.00     0.011 C 
HETATM   10  N10 UNL     1     -33.895   2.969   4.458  1.00 20.00    -0.191 NA
HETATM   11  N11 UNL     1     -32.394   7.214   1.435  1.00 20.00    -0.265 NA
ENDROOT
TORSDOF 0
ENDMDL
MODEL 9
REMARK VINA RESULT:       2.2      1.148      2.773
REMARK  0 active torsions:
REMARK  status: ('A' for Active; 'I' for Inactive)
ROOT
HETATM    1  C1  UNL     1     -32.456   8.964   1.207  1.00 20.00     0.100 C 
HETATM    2  C2  UNL     1     -33.751   8.421   3.209  1.00 20.00     0.042 A 
HETATM    3  C3  UNL     1     -34.287   7.454   4.059  1.00 20.00     0.118 A 
HETATM    4  C4  UNL     1     -33.008   8.004   2.108  1.00 20.00     0.054 A 
HETATM    5  C5  UNL     1     -32.833   6.648   1.922  1.00 20.00    -0.013 A 
HETATM    6  C6  UNL     1     -33.410   5.761   2.824  1.00 20.00     0.042 A 
HETATM    7  C7  UNL     1     -32.122   5.925   0.827  1.00 20.00     0.042 C 
HETATM    8  C8  UNL     1     -33.148   4.341   2.414  1.00 20.00     0.060 C 
HETATM    9  C9  UNL     1     -31.967   4.528   1.450  1.00 20.00     0.011 C 
HETATM   10  N10 UNL     1     -32.007   9.745   0.474  1.00 20.00    -0.191 NA
HETATM   11  N11 UNL     1     -34.141   6.117   3.893  1.00 20.00    -0.265 NA
ENDROOT
TORSDOF 0
ENDMDL
