MODEL 1
REMARK VINA RESULT:      -0.4      0.000      0.000
REMARK  1 active torsions:
REMARK  status: ('A' for Active; 'I' for Inactive)
REMARK    1  A    between atoms: C6_6  and  N10_10 
ROOT
HETATM    1  C1  UNL     1     -33.546   4.101   3.568  1.00 20.00     0.066 C 
HETATM    2  C2  UNL     1     -32.513   6.851   2.017  1.00 20.00    -0.054 C 
HETATM    3  C3  UNL     1     -32.055   7.940   1.394  1.00 20.00     0.016 C 
HETATM    4  C4  UNL     1     -32.631   5.401   1.595  1.00 20.00     0.057 C 
HETATM    5  C5  UNL     1     -33.659   5.298   2.758  1.00 20.00     0.134 C 
HETATM    6  C6  UNL     1     -33.065   6.589   3.402  1.00 20.00     0.268 C 
HETATM    7  N9  UNL     1     -33.456   3.143   4.216  1.00 20.00    -0.197 NA
ENDROOT
BRANCH   6   8
HETATM    8  N10 UNL     1     -34.178   7.463   3.761  1.00 20.00     0.089 N 
HETATM    9  C7  UNL     1     -33.834   8.282   4.924  1.00 20.00     0.310 C 
HETATM   10  C8  UNL     1     -35.382   6.677   4.029  1.00 20.00     0.310 C 
ENDBRANCH   6   8
TORSDOF 1
ENDMDL
MODEL 2
REMARK VINA RESULT:      -0.1      1.648      3.682
REMARK  1 active torsions:
REMARK  status: ('A' for Active; 'I' for Inactive)
REMARK    1  A    between atoms: C6_6  and  N10_10 
ROOT
HETATM    1  C1  UNL     1     -32.433   9.216   1.315  1.00 20.00     0.066 C 
HETATM    2  C2  UNL     1     -32.568   5.912   1.636  1.00 20.00    -0.054 C 
HETATM    3  C3  UNL     1     -32.630   4.581   1.720  1.00 20.00     0.016 C 
HETATM    4  C4  UNL     1     -31.592   6.852   0.959  1.00 20.00     0.057 C 
HETATM    5  C5  UNL     1     -32.182   7.923   1.921  1.00 20.00     0.134 C 
HETATM    6  C6  UNL     1     -33.448   7.037   2.137  1.00 20.00     0.268 C 
HETATM    7  N9  UNL     1     -32.634  10.250   0.831  1.00 20.00    -0.197 NA
ENDROOT
BRANCH   6   8
HETATM    8  N10 UNL     1     -33.713   6.976   3.571  1.00 20.00     0.089 N 
HETATM    9  C7  UNL     1     -34.987   6.305   3.830  1.00 20.00     0.310 C 
HETATM   10  C8  UNL     1     -33.717   8.320   4.150  1.00 20.00     0.310 C 
ENDBRANCH   6   8
TORSDOF 1
ENDMDL
MODEL 3
REMARK VINA RESULT:       0.8      1.755      2.760
REMARK  1 active torsions:
REMARK  status: ('A' for Active; 'I' for Inactive)
REMARK    1  A    between atoms: C6_6  and  N10_10 
ROOT
HETATM    1  C1  UNL     1     -32.086   5.184   1.015  1.00 20.00     0.066 C 
HETATM    2  C2  UNL     1     -33.363   7.255   3.277  1.00 20.00    -0.054 C 
HETATM    3  C3  UNL     1     -33.834   8.105   4.191  1.00 20.00     0.016 C 
HETATM    4  C4  UNL     1     -32.801   7.454   1.884  1.00 20.00     0.057 C 
HETATM    5  C5  UNL     1     -33.115   5.941   1.700  1.00 20.00     0.134 C 
HETATM    6  C6  UNL     1     -33.151   5.756   3.248  1.00 20.00     0.268 C 
HETATM    7  N9  UNL     1     -31.263   4.578   0.467  1.00 20.00    -0.197 NA
ENDROOT
BRANCH   6   8
HETATM    8  N10 UNL     1     -34.349   4.992   3.580  1.00 20.00     0.089 N 
HETATM    9  C7  UNL     1     -35.291   5.816   4.338  1.00 20.00     0.310 C 
HETATM   10  C8  UNL     1     -33.998   3.790   4.338  1.00 20.00     0.310 C 
ENDBRANCH   6   8
TORSDOF 1
ENDMDL
MODEL 4
REMARK VINA RESULT:       1.0      2.039      3.491
REMARK  1 active torsions:
REMARK  status: ('A' for Active; 'I' for Inactive)
REMARK    1  A    between atoms: C6_6  and  N10_10 
ROOT
HETATM    1  C1  UNL     1     -33.778   7.840   4.130  1.00 20.00     0.066 C 
HETATM    2  C2  UNL     1     -32.551   6.000   1.651  1.00 20.00    -0.054 C 
HETATM    3  C3  UNL     1     -32.037   5.235   0.685  1.00 20.00     0.016 C 
HETATM    4  C4  UNL     1     -33.575   5.735   2.734  1.00 20.00     0.057 C 
HETATM    5  C5  UNL     1     -33.700   7.284   2.793  1.00 20.00     0.134 C 
HETATM    6  C6  UNL     1     -32.309   7.426   2.099  1.00 20.00     0.268 C 
HETATM    7  N9  UNL     1     -33.840   8.284   5.199  1.00 20.00    -0.197 NA
ENDROOT
BRANCH   6   8
HETATM    8  N10 UNL     1     -32.443   8.405   1.025  1.00 20.00     0.089 N 
HETATM    9  C7  UNL     1     -31.202   8.495   0.255  1.00 20.00     0.310 C 
HETATM   10  C8  UNL     1     -32.802   9.716   1.567  1.00 20.00     0.310 C 
ENDBRANCH   6   8
TORSDOF 1
ENDMDL
MODEL 5
REMARK VINA RESULT:       1.2      1.930      3.266
REMARK  1 active torsions:
REMARK  status: ('A' for Active; 'I' for Inactive)
REMARK    1  A    between atoms: C6_6  and  N10_10 
ROOT
HETATM    1  C1  UNL     1     -32.941   5.051   0.889  1.00 20.00     0.066 C 
HETATM    2  C2  UNL     1     -33.831   7.053   3.386  1.00 20.00    -0.054 C 
HETATM    3  C3  UNL     1     -34.232   7.842   4.386  1.00 20.00     0.016 C 
HETATM    4  C4  UNL     1     -33.727   5.548   3.246  1.00 20.00     0.057 C 
HETATM    5  C5  UNL     1     -32.760   5.871   2.071  1.00 20.00     0.134 C 
HETATM    6  C6  UNL     1     -33.354   7.310   1.973  1.00 20.00     0.268 C 
HETATM    7  N9  UNL     1     -33.086   4.394  -0.056  1.00 20.00    -0.197 NA
ENDROOT
BRANCH   6   8
HETATM    8  N10 UNL     1     -32.240   8.250   1.896  1.00 20.00     0.089 N 
HETATM    9  C7  UNL     1     -32.529   9.312   0.931  1.00 20.00     0.310 C 
HETATM   10  C8  UNL     1     -31.005   7.553   1.532  1.00 20.00     0.310 C 
ENDBRANCH   6   8
TORSDOF 1
ENDMDL
MODEL 6
REMARK VINA RESULT:       1.4      1.667      3.192
REMARK  1 active torsions:
REMARK  status: ('A' for Active; 'I' for Inactive)
REMARK    1  A    between atoms: C6_6  and  N10_10 
ROOT
HETATM    1  C1  UNL     1     -34.683   6.453   3.840  1.00 20.00     0.066 C 
HETATM    2  C2  UNL     1     -32.411   7.859   1.866  1.00 20.00    -0.054 C 
HETATM    3  C3  UNL     1     -31.530   8.454   1.059  1.00 20.00     0.016 C 
HETATM    4  C4  UNL     1     -33.118   8.314   3.126  1.00 20.00     0.057 C 
HETATM    5  C5  UNL     1     -33.356   6.795   3.365  1.00 20.00     0.134 C 
HETATM    6  C6  UNL     1     -33.104   6.513   1.851  1.00 20.00     0.268 C 
HETATM    7  N9  UNL     1     -35.743   6.179   4.221  1.00 20.00    -0.197 NA
ENDROOT
BRANCH   6   8
HETATM    8  N10 UNL     1     -32.184   5.385   1.753  1.00 20.00     0.089 N 
HETATM    9  C7  UNL     1     -32.178   4.843   0.394  1.00 20.00     0.310 C 
HETATM   10  C8  UNL     1     -32.545   4.343   2.715  1.00 20.00     0.310 C 
ENDBRANCH   6   8
TORSDOF 1
ENDMDL
MODEL 7
REMARK VINA RESULT:       1.4      1.957      3.098
REMARK  1 active torsions:
REMARK  status: ('A' for Active; 'I' for Inactive)
REMARK    1  A    between atoms: C6_6  and  N10_10 
ROOT
HETATM    1  C1  UNL     1     -33.058   4.919   0.760  1.00 20.00     0.066 C 
HETATM    2  C2  UNL     1     -33.757   6.939   3.303  1.00 20.00    -0.054 C 
HETATM    3  C3  UNL     1     -34.081   7.741   4.319  1.00 20.00     0.016 C 
HETATM    4  C4  UNL     1     -33.826   5.437   3.118  1.00 20.00     0.057 C 
HETATM    5  C5  UNL     1     -32.805   5.678   1.969  1.00 20.00     0.134 C 
HETATM    6  C6  UNL     1     -33.225   7.179   1.906  1.00 20.00     0.268 C 
HETATM    7  N9  UNL     1     -33.259   4.311  -0.207  1.00 20.00    -0.197 NA
ENDROOT
BRANCH   6   8
HETATM    8  N10 UNL     1     -32.007   7.983   1.876  1.00 20.00     0.089 N 
HETATM    9  C7  UNL     1     -31.772   8.607   3.178  1.00 20.00     0.310 C 
HETATM   10  C8  UNL     1     -32.091   9.003   0.830  1.00 20.00     0.310 C 
ENDBRANCH   6   8
TORSDOF 1
ENDMDL
MODEL 8
REMARK VINA RESULT:       1.6      1.668      2.143
REMARK  1 active torsions:
REMARK  status: ('A' for Active; 'I' for Inactive)
REMARK    1  A    between atoms: C6_6  and  N10_10 
ROOT
HETATM    1  C1  UNL     1     -33.017   5.567   0.944  1.00 20.00     0.066 C 
HETATM    2  C2  UNL     1     -32.012   8.110   2.830  1.00 20.00    -0.054 C 
HETATM    3  C3  UNL     1     -31.566   9.116   3.586  1.00 20.00     0.016 C 
HETATM    4  C4  UNL     1     -31.772   7.730   1.383  1.00 20.00     0.057 C 
HETATM    5  C5  UNL     1     -33.070   6.887   1.542  1.00 20.00     0.134 C 
HETATM    6  C6  UNL     1     -32.903   6.915   3.093  1.00 20.00     0.268 C 
HETATM    7  N9  UNL     1     -32.976   4.512   0.464  1.00 20.00    -0.197 NA
ENDROOT
BRANCH   6   8
HETATM    8  N10 UNL     1     -34.193   7.267   3.676  1.00 20.00     0.089 N 
HETATM    9  C7  UNL     1     -34.010   7.947   4.959  1.00 20.00     0.310 C 
HETATM   10  C8  UNL     1     -35.023   6.073   3.846  1.00 20.00     0.310 C 
ENDBRANCH   6   8
TORSDOF 1
ENDMDL
MODEL 9
REMARK VINA RESULT:       1.7      1.490      3.919
REMARK  1 active torsions:
REMARK  status: ('A' for Active; 'I' for Inactive)
REMARK    1  A    between atoms: C6_6  and  N10_10 
ROOT
HETATM    1  C1  UNL     1     -34.215   7.745   4.409  1.00 20.00     0.066 C 
HETATM    2  C2  UNL     1     -33.884   4.527   3.653  1.00 20.00    -0.054 C 
HETATM    3  C3  UNL     1     -33.740   3.226   3.392  1.00 20.00     0.016 C 
HETATM    4  C4  UNL     1     -34.883   5.302   4.487  1.00 20.00     0.057 C 
HETATM    5  C5  UNL     1     -34.412   6.525   3.649  1.00 20.00     0.134 C 
HETATM    6  C6  UNL     1     -33.104   5.766   3.269  1.00 20.00     0.268 C 
HETATM    7  N9  UNL     1     -34.058   8.720   5.016  1.00 20.00    -0.197 NA
ENDROOT
BRANCH   6   8
HETATM    8  N10 UNL     1     -32.907   5.908   1.829  1.00 20.00     0.089 N 
HETATM    9  C7  UNL     1     -31.976   4.892   1.335  1.00 20.00     0.310 C 
HETATM   10  C8  UNL     1     -32.416   7.248   1.508  1.00 20.00     0.310 C 
ENDBRANCH   6   8
TORSDOF 1
ENDMDL
