MODEL 1
REMARK VINA RESULT:      -1.1      0.000      0.000
REMARK  1 active torsions:
REMARK  status: ('A' for Active; 'I' for Inactive)
REMARK    1  A    between atoms: C2_2  and  C5_5 
ROOT
HETATM    1  C1  UNL     1     -32.545   8.875   0.637  1.00 20.00     0.270 A 
HETATM    2  C2  UNL     1     -32.364   7.953   1.814  1.00 20.00     0.181 A 
HETATM    3  O6  UNL     1     -31.362   8.084   0.794  1.00 20.00    -0.336 OA
HETATM    4 CL7  UNL     1     -32.413  10.608   0.768  1.00 20.00    -0.091 Cl
HETATM    5 CL8  UNL     1     -31.984   8.603   3.408  1.00 20.00    -0.084 Cl
ENDROOT
BRANCH   2   6
HETATM    6  C5  UNL     1     -33.059   6.592   1.810  1.00 20.00     0.032 C 
HETATM    7  C3  UNL     1     -32.060   5.479   1.500  1.00 20.00     0.014 C 
HETATM    8  C4  UNL     1     -33.749   6.338   3.148  1.00 20.00     0.014 C 
ENDBRANCH   2   6
TORSDOF 1
ENDMDL
MODEL 2
REMARK VINA RESULT:      -0.8      3.185      3.790
REMARK  1 active torsions:
REMARK  status: ('A' for Active; 'I' for Inactive)
REMARK    1  A    between atoms: C2_2  and  C5_5 
ROOT
HETATM    1  C1  UNL     1     -34.697   6.797   3.382  1.00 20.00     0.270 A 
HETATM    2  C2  UNL     1     -33.428   6.127   2.922  1.00 20.00     0.181 A 
HETATM    3  O6  UNL     1     -33.416   7.184   3.893  1.00 20.00    -0.336 OA
HETATM    4 CL7  UNL     1     -35.829   6.032   4.462  1.00 20.00    -0.091 Cl
HETATM    5 CL8  UNL     1     -33.019   4.508   3.486  1.00 20.00    -0.084 Cl
ENDROOT
BRANCH   2   6
HETATM    6  C5  UNL     1     -32.816   6.528   1.581  1.00 20.00     0.032 C 
HETATM    7  C3  UNL     1     -31.923   7.756   1.745  1.00 20.00     0.014 C 
HETATM    8  C4  UNL     1     -32.027   5.366   0.982  1.00 20.00     0.014 C 
ENDBRANCH   2   6
TORSDOF 1
ENDMDL
MODEL 3
REMARK VINA RESULT:      -0.7      1.570      2.015
REMARK  1 active torsions:
REMARK  status: ('A' for Active; 'I' for Inactive)
REMARK    1  A    between atoms: C2_2  and  C5_5 
ROOT
HETATM    1  C1  UNL     1     -32.856   7.307   1.485  1.00 20.00     0.270 A 
HETATM    2  C2  UNL     1     -33.189   6.889   2.894  1.00 20.00     0.181 A 
HETATM    3  O6  UNL     1     -32.052   6.358   2.195  1.00 20.00    -0.336 OA
HETATM    4 CL7  UNL     1     -32.168   8.860   1.100  1.00 20.00    -0.091 Cl
HETATM    5 CL8  UNL     1     -32.870   7.974   4.245  1.00 20.00    -0.084 Cl
ENDROOT
BRANCH   2   6
HETATM    6  C5  UNL     1     -34.293   5.859   3.126  1.00 20.00     0.032 C 
HETATM    7  C3  UNL     1     -33.714   4.575   3.716  1.00 20.00     0.014 C 
HETATM    8  C4  UNL     1     -35.375   6.430   4.039  1.00 20.00     0.014 C 
ENDBRANCH   2   6
TORSDOF 1
ENDMDL
MODEL 4
REMARK VINA RESULT:      -0.5      3.256      4.363
REMARK  1 active torsions:
REMARK  status: ('A' for Active; 'I' for Inactive)
REMARK    1  A    between atoms: C2_2  and  C5_5 
ROOT
HETATM    1  C1  UNL     1     -33.179   5.161   3.482  1.00 20.00     0.270 A 
HETATM    2  C2  UNL     1     -34.064   6.371   3.336  1.00 20.00     0.181 A 
HETATM    3  O6  UNL     1     -33.684   5.571   2.206  1.00 20.00    -0.336 OA
HETATM    4 CL7  UNL     1     -33.743   3.657   4.157  1.00 20.00    -0.091 Cl
HETATM    5 CL8  UNL     1     -35.752   6.309   3.839  1.00 20.00    -0.084 Cl
ENDROOT
BRANCH   2   6
HETATM    6  C5  UNL     1     -33.432   7.762   3.335  1.00 20.00     0.032 C 
HETATM    7  C3  UNL     1     -32.986   8.151   4.743  1.00 20.00     0.014 C 
HETATM    8  C4  UNL     1     -32.255   7.815   2.364  1.00 20.00     0.014 C 
ENDBRANCH   2   6
TORSDOF 1
ENDMDL
MODEL 5
REMARK VINA RESULT:      -0.5      2.233      3.024
REMARK  1 active torsions:
REMARK  status: ('A' for Active; 'I' for Inactive)
REMARK    1  A    between atoms: C2_2  and  C5_5 
ROOT
HETATM    1  C1  UNL     1     -32.509   7.663   2.802  1.00 20.00     0.270 A 
HETATM    2  C2  UNL     1     -33.385   6.448   2.637  1.00 20.00     0.181 A 
HETATM    3  O6  UNL     1     -33.870   7.773   2.370  1.00 20.00    -0.336 OA
HETATM    4 CL7  UNL     1     -31.241   8.070   1.678  1.00 20.00    -0.091 Cl
HETATM    5 CL8  UNL     1     -33.170   5.373   1.258  1.00 20.00    -0.084 Cl
ENDROOT
BRANCH   2   6
HETATM    6  C5  UNL     1     -34.016   5.810   3.873  1.00 20.00     0.032 C 
HETATM    7  C3  UNL     1     -35.468   6.258   4.027  1.00 20.00     0.014 C 
HETATM    8  C4  UNL     1     -33.929   4.287   3.795  1.00 20.00     0.014 C 
ENDBRANCH   2   6
TORSDOF 1
ENDMDL
MODEL 6
REMARK VINA RESULT:      -0.5      0.671      1.406
REMARK  1 active torsions:
REMARK  status: ('A' for Active; 'I' for Inactive)
REMARK    1  A    between atoms: C2_2  and  C5_5 
ROOT
HETATM    1  C1  UNL     1     -32.574   8.515   0.987  1.00 20.00     0.270 A 
HETATM    2  C2  UNL     1     -32.253   7.899   2.324  1.00 20.00     0.181 A 
HETATM    3  O6  UNL     1     -31.360   7.788   1.205  1.00 20.00    -0.336 OA
HETATM    4 CL7  UNL     1     -32.478  10.229   0.691  1.00 20.00    -0.091 Cl
HETATM    5 CL8  UNL     1     -31.738   8.911   3.672  1.00 20.00    -0.084 Cl
ENDROOT
BRANCH   2   6
HETATM    6  C5  UNL     1     -32.907   6.574   2.712  1.00 20.00     0.032 C 
HETATM    7  C3  UNL     1     -34.259   6.818   3.380  1.00 20.00     0.014 C 
HETATM    8  C4  UNL     1     -33.068   5.676   1.487  1.00 20.00     0.014 C 
ENDBRANCH   2   6
TORSDOF 1
ENDMDL
MODEL 7
REMARK VINA RESULT:      -0.3      2.528      3.409
REMARK  1 active torsions:
REMARK  status: ('A' for Active; 'I' for Inactive)
REMARK    1  A    between atoms: C2_2  and  C5_5 
ROOT
HETATM    1  C1  UNL     1     -33.528   5.437   1.853  1.00 20.00     0.270 A 
HETATM    2  C2  UNL     1     -33.237   6.665   2.676  1.00 20.00     0.181 A 
HETATM    3  O6  UNL     1     -32.809   5.359   3.089  1.00 20.00    -0.336 OA
HETATM    4 CL7  UNL     1     -32.684   5.073   0.373  1.00 20.00    -0.091 Cl
HETATM    5 CL8  UNL     1     -31.989   7.803   2.172  1.00 20.00    -0.084 Cl
ENDROOT
BRANCH   2   6
HETATM    6  C5  UNL     1     -34.338   7.250   3.559  1.00 20.00     0.032 C 
HETATM    7  C3  UNL     1     -35.270   6.147   4.056  1.00 20.00     0.014 C 
HETATM    8  C4  UNL     1     -33.734   8.013   4.736  1.00 20.00     0.014 C 
ENDBRANCH   2   6
TORSDOF 1
ENDMDL
MODEL 8
REMARK VINA RESULT:      -0.2      3.139      3.714
REMARK  1 active torsions:
REMARK  status: ('A' for Active; 'I' for Inactive)
REMARK    1  A    between atoms: C2_2  and  C5_5 
ROOT
HETATM    1  C1  UNL     1     -32.503   6.034   1.649  1.00 20.00     0.270 A 
HETATM    2  C2  UNL     1     -33.560   5.728   2.678  1.00 20.00     0.181 A 
HETATM    3  O6  UNL     1     -33.816   5.606   1.270  1.00 20.00    -0.336 OA
HETATM    4 CL7  UNL     1     -31.158   4.971   1.336  1.00 20.00    -0.091 Cl
HETATM    5 CL8  UNL     1     -33.488   4.240   3.618  1.00 20.00    -0.084 Cl
ENDROOT
BRANCH   2   6
HETATM    6  C5  UNL     1     -34.318   6.881   3.334  1.00 20.00     0.032 C 
HETATM    7  C3  UNL     1     -35.514   6.356   4.126  1.00 20.00     0.014 C 
HETATM    8  C4  UNL     1     -33.389   7.690   4.236  1.00 20.00     0.014 C 
ENDBRANCH   2   6
TORSDOF 1
ENDMDL
MODEL 9
REMARK VINA RESULT:      -0.2      2.378      3.687
REMARK  1 active torsions:
REMARK  status: ('A' for Active; 'I' for Inactive)
REMARK    1  A    between atoms: C2_2  and  C5_5 
ROOT
HETATM    1  C1  UNL     1     -32.965   5.417   2.642  1.00 20.00     0.270 A 
HETATM    2  C2  UNL     1     -33.140   6.911   2.718  1.00 20.00     0.181 A 
HETATM    3  O6  UNL     1     -33.701   6.137   1.647  1.00 20.00    -0.336 OA
HETATM    4 CL7  UNL     1     -33.825   4.313   3.679  1.00 20.00    -0.091 Cl
HETATM    5 CL8  UNL     1     -34.263   7.620   3.877  1.00 20.00    -0.084 Cl
ENDROOT
BRANCH   2   6
HETATM    6  C5  UNL     1     -31.996   7.821   2.274  1.00 20.00     0.032 C 
HETATM    7  C3  UNL     1     -32.393   8.616   1.032  1.00 20.00     0.014 C 
HETATM    8  C4  UNL     1     -31.588   8.761   3.406  1.00 20.00     0.014 C 
ENDBRANCH   2   6
TORSDOF 1
ENDMDL
