MODEL 1
REMARK VINA RESULT:      -3.1      0.000      0.000
REMARK  0 active torsions:
REMARK  status: ('A' for Active; 'I' for Inactive)
ROOT
HETATM    1  C1  UNL     1     -33.558   5.534   2.177  1.00 20.00     0.044 A 
HETATM    2  C2  UNL     1     -32.542   6.002   1.430  1.00 20.00     0.014 A 
HETATM    3  C3  UNL     1     -34.048   6.301   3.301  1.00 20.00     0.156 A 
HETATM    4  C4  UNL     1     -33.513   7.488   3.625  1.00 20.00     0.202 A 
HETATM    5  C5  UNL     1     -31.862   7.286   1.697  1.00 20.00     0.224 A 
HETATM    6  C6  UNL     1     -32.395   8.092   2.884  1.00 20.00     0.293 A 
HETATM    7  O7  UNL     1     -32.510   8.557   1.532  1.00 20.00    -0.328 OA
HETATM    8  F8  UNL     1     -35.072   5.792   4.017  1.00 20.00    -0.203 F 
HETATM    9  F9  UNL     1     -34.020   8.161   4.681  1.00 20.00    -0.201 F 
HETATM   10  F10 UNL     1     -31.430   8.725   3.661  1.00 20.00    -0.200 F 
ENDROOT
TORSDOF 0
ENDMDL
MODEL 2
REMARK VINA RESULT:      -2.4      2.101      3.725
REMARK  0 active torsions:
REMARK  status: ('A' for Active; 'I' for Inactive)
ROOT
HETATM    1  C1  UNL     1     -32.772   8.389   3.207  1.00 20.00     0.044 A 
HETATM    2  C2  UNL     1     -33.652   8.149   4.195  1.00 20.00     0.014 A 
HETATM    3  C3  UNL     1     -32.496   7.374   2.214  1.00 20.00     0.156 A 
HETATM    4  C4  UNL     1     -33.107   6.179   2.247  1.00 20.00     0.202 A 
HETATM    5  C5  UNL     1     -34.375   6.869   4.345  1.00 20.00     0.224 A 
HETATM    6  C6  UNL     1     -34.080   5.805   3.285  1.00 20.00     0.293 A 
HETATM    7  O7  UNL     1     -35.369   6.423   3.410  1.00 20.00    -0.328 OA
HETATM    8  F8  UNL     1     -31.609   7.664   1.241  1.00 20.00    -0.203 F 
HETATM    9  F9  UNL     1     -32.813   5.275   1.287  1.00 20.00    -0.201 F 
HETATM   10  F10 UNL     1     -33.988   4.499   3.755  1.00 20.00    -0.200 F 
ENDROOT
TORSDOF 0
ENDMDL
MODEL 3
REMARK VINA RESULT:      -2.2      1.467      2.995
REMARK  0 active torsions:
REMARK  status: ('A' for Active; 'I' for Inactive)
ROOT
HETATM    1  C1  UNL     1     -32.122   6.986   1.795  1.00 20.00     0.044 A 
HETATM    2  C2  UNL     1     -32.791   5.852   1.520  1.00 20.00     0.014 A 
HETATM    3  C3  UNL     1     -32.492   7.792   2.937  1.00 20.00     0.156 A 
HETATM    4  C4  UNL     1     -33.500   7.434   3.748  1.00 20.00     0.202 A 
HETATM    5  C5  UNL     1     -33.927   5.363   2.330  1.00 20.00     0.224 A 
HETATM    6  C6  UNL     1     -34.305   6.221   3.539  1.00 20.00     0.293 A 
HETATM    7  O7  UNL     1     -33.775   4.895   3.679  1.00 20.00    -0.328 OA
HETATM    8  F8  UNL     1     -31.788   8.918   3.173  1.00 20.00    -0.203 F 
HETATM    9  F9  UNL     1     -33.793   8.226   4.804  1.00 20.00    -0.201 F 
HETATM   10  F10 UNL     1     -35.669   6.355   3.777  1.00 20.00    -0.200 F 
ENDROOT
TORSDOF 0
ENDMDL
MODEL 4
REMARK VINA RESULT:      -1.8      1.591      2.775
REMARK  0 active torsions:
REMARK  status: ('A' for Active; 'I' for Inactive)
ROOT
HETATM    1  C1  UNL     1     -32.592   8.413   2.929  1.00 20.00     0.044 A 
HETATM    2  C2  UNL     1     -31.904   8.128   1.809  1.00 20.00     0.014 A 
HETATM    3  C3  UNL     1     -33.481   7.429   3.508  1.00 20.00     0.156 A 
HETATM    4  C4  UNL     1     -33.640   6.218   2.953  1.00 20.00     0.202 A 
HETATM    5  C5  UNL     1     -32.008   6.836   1.099  1.00 20.00     0.224 A 
HETATM    6  C6  UNL     1     -32.945   5.801   1.725  1.00 20.00     0.293 A 
HETATM    7  O7  UNL     1     -31.526   5.603   1.655  1.00 20.00    -0.328 OA
HETATM    8  F8  UNL     1     -34.145   7.760   4.634  1.00 20.00    -0.203 F 
HETATM    9  F9  UNL     1     -34.478   5.339   3.546  1.00 20.00    -0.201 F 
HETATM   10  F10 UNL     1     -33.704   5.059   0.827  1.00 20.00    -0.200 F 
ENDROOT
TORSDOF 0
ENDMDL
MODEL 5
REMARK VINA RESULT:      -1.5      1.995      2.645
REMARK  0 active torsions:
REMARK  status: ('A' for Active; 'I' for Inactive)
ROOT
HETATM    1  C1  UNL     1     -34.249   6.320   3.761  1.00 20.00     0.044 A 
HETATM    2  C2  UNL     1     -34.100   7.653   3.857  1.00 20.00     0.014 A 
HETATM    3  C3  UNL     1     -33.468   5.567   2.805  1.00 20.00     0.156 A 
HETATM    4  C4  UNL     1     -32.579   6.170   1.998  1.00 20.00     0.202 A 
HETATM    5  C5  UNL     1     -33.167   8.429   3.015  1.00 20.00     0.224 A 
HETATM    6  C6  UNL     1     -32.341   7.621   2.012  1.00 20.00     0.293 A 
HETATM    7  O7  UNL     1     -31.741   8.306   3.120  1.00 20.00    -0.328 OA
HETATM    8  F8  UNL     1     -33.649   4.232   2.749  1.00 20.00    -0.203 F 
HETATM    9  F9  UNL     1     -31.873   5.411   1.131  1.00 20.00    -0.201 F 
HETATM   10  F10 UNL     1     -32.162   8.213   0.766  1.00 20.00    -0.200 F 
ENDROOT
TORSDOF 0
ENDMDL
MODEL 6
REMARK VINA RESULT:      -1.1      2.018      2.794
REMARK  0 active torsions:
REMARK  status: ('A' for Active; 'I' for Inactive)
ROOT
HETATM    1  C1  UNL     1     -33.754   5.409   2.687  1.00 20.00     0.044 A 
HETATM    2  C2  UNL     1     -34.310   6.277   3.551  1.00 20.00     0.014 A 
HETATM    3  C3  UNL     1     -32.686   5.838   1.810  1.00 20.00     0.156 A 
HETATM    4  C4  UNL     1     -32.222   7.097   1.836  1.00 20.00     0.202 A 
HETATM    5  C5  UNL     1     -33.896   7.691   3.661  1.00 20.00     0.224 A 
HETATM    6  C6  UNL     1     -32.761   8.131   2.734  1.00 20.00     0.293 A 
HETATM    7  O7  UNL     1     -32.609   8.087   4.159  1.00 20.00    -0.328 OA
HETATM    8  F8  UNL     1     -32.157   4.930   0.965  1.00 20.00    -0.203 F 
HETATM    9  F9  UNL     1     -31.217   7.435   0.998  1.00 20.00    -0.201 F 
HETATM   10  F10 UNL     1     -32.897   9.399   2.178  1.00 20.00    -0.200 F 
ENDROOT
TORSDOF 0
ENDMDL
MODEL 7
REMARK VINA RESULT:      -1.0      2.099      2.899
REMARK  0 active torsions:
REMARK  status: ('A' for Active; 'I' for Inactive)
ROOT
HETATM    1  C1  UNL     1     -33.658   5.071   2.972  1.00 20.00     0.044 A 
HETATM    2  C2  UNL     1     -34.499   5.552   3.906  1.00 20.00     0.014 A 
HETATM    3  C3  UNL     1     -32.845   5.976   2.190  1.00 20.00     0.156 A 
HETATM    4  C4  UNL     1     -32.902   7.304   2.373  1.00 20.00     0.202 A 
HETATM    5  C5  UNL     1     -34.661   6.994   4.187  1.00 20.00     0.224 A 
HETATM    6  C6  UNL     1     -33.790   7.940   3.358  1.00 20.00     0.293 A 
HETATM    7  O7  UNL     1     -33.623   7.792   4.775  1.00 20.00    -0.328 OA
HETATM    8  F8  UNL     1     -32.014   5.446   1.270  1.00 20.00    -0.203 F 
HETATM    9  F9  UNL     1     -32.111   8.097   1.616  1.00 20.00    -0.201 F 
HETATM   10  F10 UNL     1     -34.408   9.115   2.942  1.00 20.00    -0.200 F 
ENDROOT
TORSDOF 0
ENDMDL
MODEL 8
REMARK VINA RESULT:      -0.9      1.693      2.484
REMARK  0 active torsions:
REMARK  status: ('A' for Active; 'I' for Inactive)
ROOT
HETATM    1  C1  UNL     1     -34.425   6.033   4.025  1.00 20.00     0.044 A 
HETATM    2  C2  UNL     1     -34.058   4.929   3.348  1.00 20.00     0.014 A 
HETATM    3  C3  UNL     1     -33.904   7.327   3.643  1.00 20.00     0.156 A 
HETATM    4  C4  UNL     1     -33.054   7.463   2.613  1.00 20.00     0.202 A 
HETATM    5  C5  UNL     1     -33.118   4.951   2.208  1.00 20.00     0.224 A 
HETATM    6  C6  UNL     1     -32.580   6.326   1.809  1.00 20.00     0.293 A 
HETATM    7  O7  UNL     1     -33.437   5.563   0.949  1.00 20.00    -0.328 OA
HETATM    8  F8  UNL     1     -34.305   8.404   4.349  1.00 20.00    -0.203 F 
HETATM    9  F9  UNL     1     -32.609   8.701   2.301  1.00 20.00    -0.201 F 
HETATM   10  F10 UNL     1     -31.238   6.364   1.447  1.00 20.00    -0.200 F 
ENDROOT
TORSDOF 0
ENDMDL
MODEL 9
REMARK VINA RESULT:      -0.5      1.195      1.886
REMARK  0 active torsions:
REMARK  status: ('A' for Active; 'I' for Inactive)
ROOT
HETATM    1  C1  UNL     1     -32.692   5.683   1.973  1.00 20.00     0.044 A 
HETATM    2  C2  UNL     1     -32.261   6.957   1.920  1.00 20.00     0.014 A 
HETATM    3  C3  UNL     1     -33.722   5.302   2.913  1.00 20.00     0.156 A 
HETATM    4  C4  UNL     1     -34.274   6.197   3.747  1.00 20.00     0.202 A 
HETATM    5  C5  UNL     1     -32.781   8.027   2.796  1.00 20.00     0.224 A 
HETATM    6  C6  UNL     1     -33.876   7.612   3.782  1.00 20.00     0.293 A 
HETATM    7  O7  UNL     1     -34.125   8.523   2.702  1.00 20.00    -0.328 OA
HETATM    8  F8  UNL     1     -34.124   4.014   2.926  1.00 20.00    -0.203 F 
HETATM    9  F9  UNL     1     -35.239   5.780   4.598  1.00 20.00    -0.201 F 
HETATM   10  F10 UNL     1     -33.791   8.183   5.047  1.00 20.00    -0.200 F 
ENDROOT
TORSDOF 0
ENDMDL
