MODEL 1
REMARK VINA RESULT:       2.6      0.000      0.000
REMARK  1 active torsions:
REMARK  status: ('A' for Active; 'I' for Inactive)
REMARK    1  A    between atoms: C3_3  and  C8_8 
ROOT
HETATM    1  C1  UNL     1     -33.408   7.688   4.405  1.00 20.00    -0.024 C 
HETATM    2  C2  UNL     1     -33.263   6.396   4.743  1.00 20.00    -0.021 C 
HETATM    3  C4  UNL     1     -35.599   7.293   3.369  1.00 20.00     0.010 C 
HETATM    4  C5  UNL     1     -35.439   5.798   3.736  1.00 20.00     0.014 C 
HETATM    5  C6  UNL     1     -33.329   5.672   2.383  1.00 20.00     0.026 C 
HETATM    6  C7  UNL     1     -34.208   7.927   3.140  1.00 20.00     0.019 C 
HETATM    7  C8  UNL     1     -33.537   7.155   1.977  1.00 20.00     0.063 C 
HETATM    8  C9  UNL     1     -33.933   5.415   3.793  1.00 20.00    -0.026 C 
HETATM    9  C11 UNL     1     -33.742   3.965   4.226  1.00 20.00     0.019 C 
ENDROOT
BRANCH   7  10
HETATM   10  C3  UNL     1     -32.235   7.780   1.569  1.00 20.00     0.128 C 
HETATM   11  C10 UNL     1     -32.311   9.134   0.916  1.00 20.00     0.091 C 
HETATM   12  O12 UNL     1     -31.160   7.215   1.761  1.00 20.00    -0.298 OA
ENDBRANCH   7  10
TORSDOF 1
ENDMDL
MODEL 2
REMARK VINA RESULT:       2.7      1.390      2.799
REMARK  1 active torsions:
REMARK  status: ('A' for Active; 'I' for Inactive)
REMARK    1  A    between atoms: C3_3  and  C8_8 
ROOT
HETATM    1  C1  UNL     1     -33.472   6.161   0.543  1.00 20.00    -0.024 C 
HETATM    2  C2  UNL     1     -34.424   6.287   1.481  1.00 20.00    -0.021 C 
HETATM    3  C4  UNL     1     -31.912   5.084   2.103  1.00 20.00     0.010 C 
HETATM    4  C5  UNL     1     -32.993   5.239   3.201  1.00 20.00     0.014 C 
HETATM    5  C6  UNL     1     -32.988   7.727   2.882  1.00 20.00     0.026 C 
HETATM    6  C7  UNL     1     -32.052   6.222   1.068  1.00 20.00     0.019 C 
HETATM    7  C8  UNL     1     -31.863   7.560   1.827  1.00 20.00     0.063 C 
HETATM    8  C9  UNL     1     -33.898   6.466   2.896  1.00 20.00    -0.026 C 
HETATM    9  C11 UNL     1     -35.020   6.598   3.921  1.00 20.00     0.019 C 
ENDROOT
BRANCH   7  10
HETATM   10  C3  UNL     1     -31.834   8.733   0.892  1.00 20.00     0.128 C 
HETATM   11  C10 UNL     1     -32.829   9.832   1.155  1.00 20.00     0.091 C 
HETATM   12  O12 UNL     1     -31.036   8.795  -0.041  1.00 20.00    -0.298 OA
ENDBRANCH   7  10
TORSDOF 1
ENDMDL
MODEL 3
REMARK VINA RESULT:       3.6      1.730      2.615
REMARK  1 active torsions:
REMARK  status: ('A' for Active; 'I' for Inactive)
REMARK    1  A    between atoms: C3_3  and  C8_8 
ROOT
HETATM    1  C1  UNL     1     -31.184   7.582   2.379  1.00 20.00    -0.024 C 
HETATM    2  C2  UNL     1     -31.347   6.398   1.767  1.00 20.00    -0.021 C 
HETATM    3  C4  UNL     1     -33.410   7.487   3.411  1.00 20.00     0.010 C 
HETATM    4  C5  UNL     1     -33.620   6.130   2.698  1.00 20.00     0.014 C 
HETATM    5  C6  UNL     1     -33.277   7.226   0.468  1.00 20.00     0.026 C 
HETATM    6  C7  UNL     1     -32.461   8.375   2.576  1.00 20.00     0.019 C 
HETATM    7  C8  UNL     1     -33.128   8.588   1.194  1.00 20.00     0.063 C 
HETATM    8  C9  UNL     1     -32.784   6.074   1.389  1.00 20.00    -0.026 C 
HETATM    9  C11 UNL     1     -32.912   4.717   0.703  1.00 20.00     0.019 C 
ENDROOT
BRANCH   7  10
HETATM   10  C3  UNL     1     -32.360   9.560   0.347  1.00 20.00     0.128 C 
HETATM   11  C10 UNL     1     -32.671  11.020   0.541  1.00 20.00     0.091 C 
HETATM   12  O12 UNL     1     -31.518   9.183  -0.465  1.00 20.00    -0.298 OA
ENDBRANCH   7  10
TORSDOF 1
ENDMDL
MODEL 4
REMARK VINA RESULT:       3.9      2.034      3.947
REMARK  1 active torsions:
REMARK  status: ('A' for Active; 'I' for Inactive)
REMARK    1  A    between atoms: C3_3  and  C8_8 
ROOT
HETATM    1  C1  UNL     1     -35.094   6.710   2.685  1.00 20.00    -0.024 C 
HETATM    2  C2  UNL     1     -34.335   6.506   1.597  1.00 20.00    -0.021 C 
HETATM    3  C4  UNL     1     -33.348   8.027   3.801  1.00 20.00     0.010 C 
HETATM    4  C5  UNL     1     -32.454   7.786   2.561  1.00 20.00     0.014 C 
HETATM    5  C6  UNL     1     -32.616   5.306   2.903  1.00 20.00     0.026 C 
HETATM    6  C7  UNL     1     -34.321   6.841   3.983  1.00 20.00     0.019 C 
HETATM    7  C8  UNL     1     -33.461   5.567   4.177  1.00 20.00     0.063 C 
HETATM    8  C9  UNL     1     -32.840   6.448   1.871  1.00 20.00    -0.026 C 
HETATM    9  C11 UNL     1     -32.025   6.220   0.601  1.00 20.00     0.019 C 
ENDROOT
BRANCH   7  10
HETATM   10  C3  UNL     1     -34.303   4.370   4.509  1.00 20.00     0.128 C 
HETATM   11  C10 UNL     1     -33.605   3.036   4.527  1.00 20.00     0.091 C 
HETATM   12  O12 UNL     1     -35.503   4.473   4.755  1.00 20.00    -0.298 OA
ENDBRANCH   7  10
TORSDOF 1
ENDMDL
MODEL 5
REMARK VINA RESULT:       3.9      2.002      3.937
REMARK  1 active torsions:
REMARK  status: ('A' for Active; 'I' for Inactive)
REMARK    1  A    between atoms: C3_3  and  C8_8 
ROOT
HETATM    1  C1  UNL     1     -34.197   6.676   1.103  1.00 20.00    -0.024 C 
HETATM    2  C2  UNL     1     -33.423   5.733   0.541  1.00 20.00    -0.021 C 
HETATM    3  C4  UNL     1     -32.261   7.945   1.921  1.00 20.00     0.010 C 
HETATM    4  C5  UNL     1     -31.355   6.858   1.294  1.00 20.00     0.014 C 
HETATM    5  C6  UNL     1     -32.444   5.103   2.719  1.00 20.00     0.026 C 
HETATM    6  C7  UNL     1     -33.611   7.323   2.342  1.00 20.00     0.019 C 
HETATM    7  C8  UNL     1     -33.302   6.214   3.379  1.00 20.00     0.063 C 
HETATM    8  C9  UNL     1     -32.100   5.494   1.253  1.00 20.00    -0.026 C 
HETATM    9  C11 UNL     1     -31.259   4.420   0.572  1.00 20.00     0.019 C 
ENDROOT
BRANCH   7  10
HETATM   10  C3  UNL     1     -34.555   5.636   3.969  1.00 20.00     0.128 C 
HETATM   11  C10 UNL     1     -34.490   4.202   4.422  1.00 20.00     0.091 C 
HETATM   12  O12 UNL     1     -35.583   6.301   4.079  1.00 20.00    -0.298 OA
ENDBRANCH   7  10
TORSDOF 1
ENDMDL
MODEL 6
REMARK VINA RESULT:       4.3      1.657      2.990
REMARK  1 active torsions:
REMARK  status: ('A' for Active; 'I' for Inactive)
REMARK    1  A    between atoms: C3_3  and  C8_8 
ROOT
HETATM    1  C1  UNL     1     -31.755   6.980   1.664  1.00 20.00    -0.024 C 
HETATM    2  C2  UNL     1     -32.900   6.473   2.149  1.00 20.00    -0.021 C 
HETATM    3  C4  UNL     1     -31.407   8.393   3.642  1.00 20.00     0.010 C 
HETATM    4  C5  UNL     1     -32.734   7.831   4.206  1.00 20.00     0.014 C 
HETATM    5  C6  UNL     1     -33.974   8.696   2.204  1.00 20.00     0.026 C 
HETATM    6  C7  UNL     1     -31.457   8.402   2.098  1.00 20.00     0.019 C 
HETATM    7  C8  UNL     1     -32.645   9.304   1.682  1.00 20.00     0.063 C 
HETATM    8  C9  UNL     1     -33.682   7.420   3.045  1.00 20.00    -0.026 C 
HETATM    9  C11 UNL     1     -34.969   6.793   3.571  1.00 20.00     0.019 C 
ENDROOT
BRANCH   7  10
HETATM   10  C3  UNL     1     -32.702   9.505   0.196  1.00 20.00     0.128 C 
HETATM   11  C10 UNL     1     -32.276  10.852  -0.321  1.00 20.00     0.091 C 
HETATM   12  O12 UNL     1     -33.076   8.612  -0.562  1.00 20.00    -0.298 OA
ENDBRANCH   7  10
TORSDOF 1
ENDMDL
MODEL 7
REMARK VINA RESULT:       4.3      1.739      3.998
REMARK  1 active torsions:
REMARK  status: ('A' for Active; 'I' for Inactive)
REMARK    1  A    between atoms: C3_3  and  C8_8 
ROOT
HETATM    1  C1  UNL     1     -32.090   5.318   1.524  1.00 20.00    -0.024 C 
HETATM    2  C2  UNL     1     -31.342   6.352   1.941  1.00 20.00    -0.021 C 
HETATM    3  C4  UNL     1     -33.620   6.777   0.275  1.00 20.00     0.010 C 
HETATM    4  C5  UNL     1     -32.778   7.981   0.762  1.00 20.00     0.014 C 
HETATM    5  C6  UNL     1     -33.242   7.365   3.150  1.00 20.00     0.026 C 
HETATM    6  C7  UNL     1     -33.557   5.639   1.318  1.00 20.00     0.019 C 
HETATM    7  C8  UNL     1     -34.131   6.198   2.644  1.00 20.00     0.063 C 
HETATM    8  C9  UNL     1     -32.107   7.653   2.126  1.00 20.00    -0.026 C 
HETATM    9  C11 UNL     1     -31.209   8.793   2.594  1.00 20.00     0.019 C 
ENDROOT
BRANCH   7  10
HETATM   10  C3  UNL     1     -34.255   5.133   3.694  1.00 20.00     0.128 C 
HETATM   11  C10 UNL     1     -35.410   5.257   4.651  1.00 20.00     0.091 C 
HETATM   12  O12 UNL     1     -33.453   4.204   3.767  1.00 20.00    -0.298 OA
ENDBRANCH   7  10
TORSDOF 1
ENDMDL
MODEL 8
REMARK VINA RESULT:       4.6      1.736      4.230
REMARK  1 active torsions:
REMARK  status: ('A' for Active; 'I' for Inactive)
REMARK    1  A    between atoms: C3_3  and  C8_8 
ROOT
HETATM    1  C1  UNL     1     -31.375   7.539   2.954  1.00 20.00    -0.024 C 
HETATM    2  C2  UNL     1     -31.419   8.734   2.344  1.00 20.00    -0.021 C 
HETATM    3  C4  UNL     1     -31.926   6.332   0.888  1.00 20.00     0.010 C 
HETATM    4  C5  UNL     1     -31.998   7.703   0.174  1.00 20.00     0.014 C 
HETATM    5  C6  UNL     1     -33.800   8.452   1.751  1.00 20.00     0.026 C 
HETATM    6  C7  UNL     1     -32.311   6.496   2.376  1.00 20.00     0.019 C 
HETATM    7  C8  UNL     1     -33.757   7.052   2.418  1.00 20.00     0.063 C 
HETATM    8  C9  UNL     1     -32.398   8.816   1.183  1.00 20.00    -0.026 C 
HETATM    9  C11 UNL     1     -32.403  10.191   0.524  1.00 20.00     0.019 C 
ENDROOT
BRANCH   7  10
HETATM   10  C3  UNL     1     -34.291   7.115   3.819  1.00 20.00     0.128 C 
HETATM   11  C10 UNL     1     -35.279   6.051   4.214  1.00 20.00     0.091 C 
HETATM   12  O12 UNL     1     -33.937   7.992   4.605  1.00 20.00    -0.298 OA
ENDBRANCH   7  10
TORSDOF 1
ENDMDL
MODEL 9
REMARK VINA RESULT:       5.5      1.694      3.785
REMARK  1 active torsions:
REMARK  status: ('A' for Active; 'I' for Inactive)
REMARK    1  A    between atoms: C3_3  and  C8_8 
ROOT
HETATM    1  C1  UNL     1     -34.585   8.229   3.497  1.00 20.00    -0.024 C 
HETATM    2  C2  UNL     1     -33.984   8.383   2.306  1.00 20.00    -0.021 C 
HETATM    3  C4  UNL     1     -32.468   8.428   4.723  1.00 20.00     0.010 C 
HETATM    4  C5  UNL     1     -31.758   8.590   3.358  1.00 20.00     0.014 C 
HETATM    5  C6  UNL     1     -32.618   6.350   2.623  1.00 20.00     0.026 C 
HETATM    6  C7  UNL     1     -33.733   7.557   4.555  1.00 20.00     0.019 C 
HETATM    7  C8  UNL     1     -33.274   6.178   4.018  1.00 20.00     0.063 C 
HETATM    8  C9  UNL     1     -32.559   7.858   2.244  1.00 20.00    -0.026 C 
HETATM    9  C11 UNL     1     -31.923   8.064   0.873  1.00 20.00     0.019 C 
ENDROOT
BRANCH   7  10
HETATM   10  C3  UNL     1     -34.408   5.198   3.954  1.00 20.00     0.128 C 
HETATM   11  C10 UNL     1     -35.799   5.766   4.043  1.00 20.00     0.091 C 
HETATM   12  O12 UNL     1     -34.211   3.991   3.833  1.00 20.00    -0.298 OA
ENDBRANCH   7  10
TORSDOF 1
ENDMDL
