MODEL 1
REMARK VINA RESULT:      -1.0      0.000      0.000
REMARK  1 active torsions:
REMARK  status: ('A' for Active; 'I' for Inactive)
REMARK    1  A    between atoms: C3_3  and  C4_4 
ROOT
HETATM    1  C1  UNL     1     -33.074   7.717   4.086  1.00 20.00     0.061 C 
HETATM    2  C2  UNL     1     -32.276   8.431   3.290  1.00 20.00     0.087 C 
HETATM    3  C4  UNL     1     -33.641   6.559   3.337  1.00 20.00     0.376 C 
HETATM    4  C5  UNL     1     -32.227   7.818   1.934  1.00 20.00     0.463 C 
HETATM    5  C6  UNL     1     -32.957   5.600   1.175  1.00 20.00     0.324 C 
HETATM    6  N7  UNL     1     -33.290   6.799   1.925  1.00 20.00     0.211 N 
HETATM    7  F9  UNL     1     -33.120   5.391   3.798  1.00 20.00    -0.195 F 
HETATM    8  F10 UNL     1     -32.458   8.730   0.958  1.00 20.00    -0.169 F 
HETATM    9  F11 UNL     1     -31.003   7.279   1.696  1.00 20.00    -0.169 F 
ENDROOT
BRANCH   3  10
HETATM   10  C3  UNL     1     -35.128   6.584   3.455  1.00 20.00     0.312 C 
HETATM   11  O8  UNL     1     -35.754   5.898   4.257  1.00 20.00    -0.301 OA
ENDBRANCH   3  10
TORSDOF 1
ENDMDL
MODEL 2
REMARK VINA RESULT:      -0.9      1.442      2.441
REMARK  1 active torsions:
REMARK  status: ('A' for Active; 'I' for Inactive)
REMARK    1  A    between atoms: C3_3  and  C4_4 
ROOT
HETATM    1  C1  UNL     1     -33.208   5.650   1.689  1.00 20.00     0.061 C 
HETATM    2  C2  UNL     1     -32.390   6.624   1.284  1.00 20.00     0.087 C 
HETATM    3  C4  UNL     1     -33.795   5.994   3.016  1.00 20.00     0.376 C 
HETATM    4  C5  UNL     1     -32.356   7.715   2.296  1.00 20.00     0.463 C 
HETATM    5  C6  UNL     1     -33.841   8.151   4.203  1.00 20.00     0.324 C 
HETATM    6  N7  UNL     1     -33.043   7.174   3.481  1.00 20.00     0.211 N 
HETATM    7  F9  UNL     1     -35.125   6.253   2.897  1.00 20.00    -0.195 F 
HETATM    8  F10 UNL     1     -31.086   8.063   2.622  1.00 20.00    -0.169 F 
HETATM    9  F11 UNL     1     -32.965   8.831   1.819  1.00 20.00    -0.169 F 
ENDROOT
BRANCH   3  10
HETATM   10  C3  UNL     1     -33.535   4.874   3.968  1.00 20.00     0.312 C 
HETATM   11  O8  UNL     1     -34.324   3.956   4.162  1.00 20.00    -0.301 OA
ENDBRANCH   3  10
TORSDOF 1
ENDMDL
MODEL 3
REMARK VINA RESULT:      -0.8      2.256      3.737
REMARK  1 active torsions:
REMARK  status: ('A' for Active; 'I' for Inactive)
REMARK    1  A    between atoms: C3_3  and  C4_4 
ROOT
HETATM    1  C1  UNL     1     -32.403   6.656   1.261  1.00 20.00     0.061 C 
HETATM    2  C2  UNL     1     -33.272   5.788   1.785  1.00 20.00     0.087 C 
HETATM    3  C4  UNL     1     -32.304   7.866   2.127  1.00 20.00     0.376 C 
HETATM    4  C5  UNL     1     -33.833   6.331   3.052  1.00 20.00     0.463 C 
HETATM    5  C6  UNL     1     -33.079   8.212   4.439  1.00 20.00     0.324 C 
HETATM    6  N7  UNL     1     -33.402   7.738   3.103  1.00 20.00     0.211 N 
HETATM    7  F9  UNL     1     -31.088   7.921   2.734  1.00 20.00    -0.195 F 
HETATM    8  F10 UNL     1     -35.188   6.265   3.075  1.00 20.00    -0.169 F 
HETATM    9  F11 UNL     1     -33.382   5.620   4.118  1.00 20.00    -0.169 F 
ENDROOT
BRANCH   3  10
HETATM   10  C3  UNL     1     -32.562   9.080   1.298  1.00 20.00     0.312 C 
HETATM   11  O8  UNL     1     -32.035   9.278   0.209  1.00 20.00    -0.301 OA
ENDBRANCH   3  10
TORSDOF 1
ENDMDL
MODEL 4
REMARK VINA RESULT:      -0.5      2.439      3.226
REMARK  1 active torsions:
REMARK  status: ('A' for Active; 'I' for Inactive)
REMARK    1  A    between atoms: C3_3  and  C4_4 
ROOT
HETATM    1  C1  UNL     1     -32.136   7.604   1.573  1.00 20.00     0.061 C 
HETATM    2  C2  UNL     1     -32.356   8.438   2.592  1.00 20.00     0.087 C 
HETATM    3  C4  UNL     1     -32.839   6.310   1.811  1.00 20.00     0.376 C 
HETATM    4  C5  UNL     1     -33.229   7.786   3.605  1.00 20.00     0.463 C 
HETATM    5  C6  UNL     1     -34.599   5.754   3.441  1.00 20.00     0.324 C 
HETATM    6  N7  UNL     1     -33.303   6.370   3.209  1.00 20.00     0.211 N 
HETATM    7  F9  UNL     1     -33.873   6.161   0.939  1.00 20.00    -0.195 F 
HETATM    8  F10 UNL     1     -32.716   7.886   4.856  1.00 20.00    -0.169 F 
HETATM    9  F11 UNL     1     -34.455   8.373   3.629  1.00 20.00    -0.169 F 
ENDROOT
BRANCH   3  10
HETATM   10  C3  UNL     1     -31.856   5.194   1.696  1.00 20.00     0.312 C 
HETATM   11  O8  UNL     1     -31.552   4.668   0.630  1.00 20.00    -0.301 OA
ENDBRANCH   3  10
TORSDOF 1
ENDMDL
MODEL 5
REMARK VINA RESULT:      -0.5      1.887      2.771
REMARK  1 active torsions:
REMARK  status: ('A' for Active; 'I' for Inactive)
REMARK    1  A    between atoms: C3_3  and  C4_4 
ROOT
HETATM    1  C1  UNL     1     -34.125   6.237   3.594  1.00 20.00     0.061 C 
HETATM    2  C2  UNL     1     -33.722   5.364   2.668  1.00 20.00     0.087 C 
HETATM    3  C4  UNL     1     -33.517   7.574   3.335  1.00 20.00     0.376 C 
HETATM    4  C5  UNL     1     -32.811   6.032   1.700  1.00 20.00     0.463 C 
HETATM    5  C6  UNL     1     -32.380   8.420   1.321  1.00 20.00     0.324 C 
HETATM    6  N7  UNL     1     -32.501   7.344   2.291  1.00 20.00     0.211 N 
HETATM    7  F9  UNL     1     -34.466   8.461   2.934  1.00 20.00    -0.195 F 
HETATM    8  F10 UNL     1     -31.666   5.330   1.515  1.00 20.00    -0.169 F 
HETATM    9  F11 UNL     1     -33.407   6.149   0.484  1.00 20.00    -0.169 F 
ENDROOT
BRANCH   3  10
HETATM   10  C3  UNL     1     -32.816   8.036   4.569  1.00 20.00     0.312 C 
HETATM   11  O8  UNL     1     -33.401   8.338   5.604  1.00 20.00    -0.301 OA
ENDBRANCH   3  10
TORSDOF 1
ENDMDL
MODEL 6
REMARK VINA RESULT:      -0.4      2.219      3.050
REMARK  1 active torsions:
REMARK  status: ('A' for Active; 'I' for Inactive)
REMARK    1  A    between atoms: C3_3  and  C4_4 
ROOT
HETATM    1  C1  UNL     1     -33.667   5.092   2.893  1.00 20.00     0.061 C 
HETATM    2  C2  UNL     1     -34.127   5.957   3.800  1.00 20.00     0.087 C 
HETATM    3  C4  UNL     1     -32.868   5.811   1.860  1.00 20.00     0.376 C 
HETATM    4  C5  UNL     1     -33.676   7.335   3.465  1.00 20.00     0.463 C 
HETATM    5  C6  UNL     1     -31.950   8.096   1.893  1.00 20.00     0.324 C 
HETATM    6  N7  UNL     1     -33.108   7.245   2.110  1.00 20.00     0.211 N 
HETATM    7  F9  UNL     1     -31.550   5.490   1.967  1.00 20.00    -0.195 F 
HETATM    8  F10 UNL     1     -34.703   8.220   3.474  1.00 20.00    -0.169 F 
HETATM    9  F11 UNL     1     -32.764   7.774   4.372  1.00 20.00    -0.169 F 
ENDROOT
BRANCH   3  10
HETATM   10  C3  UNL     1     -33.408   5.480   0.509  1.00 20.00     0.312 C 
HETATM   11  O8  UNL     1     -33.242   4.394  -0.037  1.00 20.00    -0.301 OA
ENDBRANCH   3  10
TORSDOF 1
ENDMDL
MODEL 7
REMARK VINA RESULT:       0.1      1.592      1.984
REMARK  1 active torsions:
REMARK  status: ('A' for Active; 'I' for Inactive)
REMARK    1  A    between atoms: C3_3  and  C4_4 
ROOT
HETATM    1  C1  UNL     1     -32.936   7.897   2.485  1.00 20.00     0.061 C 
HETATM    2  C2  UNL     1     -32.397   7.242   1.454  1.00 20.00     0.087 C 
HETATM    3  C4  UNL     1     -33.555   6.931   3.438  1.00 20.00     0.376 C 
HETATM    4  C5  UNL     1     -32.598   5.777   1.620  1.00 20.00     0.463 C 
HETATM    5  C6  UNL     1     -33.288   4.488   3.594  1.00 20.00     0.324 C 
HETATM    6  N7  UNL     1     -33.547   5.633   2.737  1.00 20.00     0.211 N 
HETATM    7  F9  UNL     1     -32.848   6.886   4.599  1.00 20.00    -0.195 F 
HETATM    8  F10 UNL     1     -33.115   5.207   0.504  1.00 20.00    -0.169 F 
HETATM    9  F11 UNL     1     -31.416   5.157   1.874  1.00 20.00    -0.169 F 
ENDROOT
BRANCH   3  10
HETATM   10  C3  UNL     1     -34.976   7.322   3.672  1.00 20.00     0.312 C 
HETATM   11  O8  UNL     1     -35.900   6.518   3.708  1.00 20.00    -0.301 OA
ENDBRANCH   3  10
TORSDOF 1
ENDMDL
MODEL 8
REMARK VINA RESULT:       0.6      2.231      3.618
REMARK  1 active torsions:
REMARK  status: ('A' for Active; 'I' for Inactive)
REMARK    1  A    between atoms: C3_3  and  C4_4 
ROOT
HETATM    1  C1  UNL     1     -35.317   6.018   4.301  1.00 20.00     0.061 C 
HETATM    2  C2  UNL     1     -35.073   4.747   4.626  1.00 20.00     0.087 C 
HETATM    3  C4  UNL     1     -34.283   6.509   3.345  1.00 20.00     0.376 C 
HETATM    4  C5  UNL     1     -33.856   4.264   3.917  1.00 20.00     0.463 C 
HETATM    5  C6  UNL     1     -32.635   5.242   2.025  1.00 20.00     0.324 C 
HETATM    6  N7  UNL     1     -33.242   5.465   3.326  1.00 20.00     0.211 N 
HETATM    7  F9  UNL     1     -34.826   6.708   2.114  1.00 20.00    -0.195 F 
HETATM    8  F10 UNL     1     -32.980   3.669   4.764  1.00 20.00    -0.169 F 
HETATM    9  F11 UNL     1     -34.186   3.343   2.974  1.00 20.00    -0.169 F 
ENDROOT
BRANCH   3  10
HETATM   10  C3  UNL     1     -33.674   7.759   3.887  1.00 20.00     0.312 C 
HETATM   11  O8  UNL     1     -33.619   8.019   5.085  1.00 20.00    -0.301 OA
ENDBRANCH   3  10
TORSDOF 1
ENDMDL
MODEL 9
REMARK VINA RESULT:       1.3      2.179      3.558
REMARK  1 active torsions:
REMARK  status: ('A' for Active; 'I' for Inactive)
REMARK    1  A    between atoms: C3_3  and  C4_4 
ROOT
HETATM    1  C1  UNL     1     -33.345   8.270   4.015  1.00 20.00     0.061 C 
HETATM    2  C2  UNL     1     -34.157   7.364   4.566  1.00 20.00     0.087 C 
HETATM    3  C4  UNL     1     -32.969   7.847   2.635  1.00 20.00     0.376 C 
HETATM    4  C5  UNL     1     -34.405   6.252   3.608  1.00 20.00     0.463 C 
HETATM    5  C6  UNL     1     -33.964   6.114   1.196  1.00 20.00     0.324 C 
HETATM    6  N7  UNL     1     -33.446   6.457   2.510  1.00 20.00     0.211 N 
HETATM    7  F9  UNL     1     -33.541   8.665   1.712  1.00 20.00    -0.195 F 
HETATM    8  F10 UNL     1     -34.199   5.039   4.177  1.00 20.00    -0.169 F 
HETATM    9  F11 UNL     1     -35.692   6.275   3.171  1.00 20.00    -0.169 F 
ENDROOT
BRANCH   3  10
HETATM   10  C3  UNL     1     -31.481   7.838   2.518  1.00 20.00     0.312 C 
HETATM   11  O8  UNL     1     -30.889   7.747   1.448  1.00 20.00    -0.301 OA
ENDBRANCH   3  10
TORSDOF 1
ENDMDL
