MODEL 1
REMARK VINA RESULT:       0.2      0.000      0.000
REMARK  1 active torsions:
REMARK  status: ('A' for Active; 'I' for Inactive)
REMARK    1  A    between atoms: C7_7  and  C10_10 
ROOT
HETATM    1  C1  UNL     1     -31.983  10.015   0.235  1.00 20.00     0.015 C 
HETATM    2  C2  UNL     1     -32.459   9.021   0.711  1.00 20.00    -0.085 C 
HETATM    3  C3  UNL     1     -32.522   5.496   2.075  1.00 20.00    -0.018 C 
HETATM    4  C4  UNL     1     -33.501   5.629   2.988  1.00 20.00    -0.059 C 
HETATM    5  C5  UNL     1     -32.041   6.651   1.253  1.00 20.00     0.072 C 
HETATM    6  C6  UNL     1     -33.042   7.806   1.293  1.00 20.00     0.203 C 
HETATM    7  C7  UNL     1     -34.135   6.985   3.251  1.00 20.00     0.151 C 
HETATM    8  C8  UNL     1     -34.030   4.443   3.739  1.00 20.00     0.046 C 
HETATM    9  O11 UNL     1     -33.384   8.061   2.656  1.00 20.00    -0.364 OA
ENDROOT
BRANCH   7  10
HETATM   10  C10 UNL     1     -34.238   7.323   4.736  1.00 20.00     0.032 C 
HETATM   11  C9  UNL     1     -33.173   8.279   5.161  1.00 20.00     0.008 C 
ENDBRANCH   7  10
TORSDOF 1
ENDMDL
MODEL 2
REMARK VINA RESULT:       0.2      1.544      4.609
REMARK  1 active torsions:
REMARK  status: ('A' for Active; 'I' for Inactive)
REMARK    1  A    between atoms: C7_7  and  C10_10 
ROOT
HETATM    1  C1  UNL     1     -35.670   4.976   5.013  1.00 20.00     0.015 C 
HETATM    2  C2  UNL     1     -35.090   5.681   4.233  1.00 20.00    -0.085 C 
HETATM    3  C3  UNL     1     -32.736   8.405   3.083  1.00 20.00    -0.018 C 
HETATM    4  C4  UNL     1     -32.332   7.872   1.916  1.00 20.00    -0.059 C 
HETATM    5  C5  UNL     1     -33.670   7.686   4.005  1.00 20.00     0.072 C 
HETATM    6  C6  UNL     1     -34.380   6.542   3.279  1.00 20.00     0.203 C 
HETATM    7  C7  UNL     1     -32.786   6.481   1.503  1.00 20.00     0.151 C 
HETATM    8  C8  UNL     1     -31.467   8.646   0.965  1.00 20.00     0.046 C 
HETATM    9  O11 UNL     1     -33.399   5.765   2.591  1.00 20.00    -0.364 OA
ENDROOT
BRANCH   7  10
HETATM   10  C10 UNL     1     -31.641   5.596   1.015  1.00 20.00     0.032 C 
HETATM   11  C9  UNL     1     -32.146   4.378   0.316  1.00 20.00     0.008 C 
ENDBRANCH   7  10
TORSDOF 1
ENDMDL
MODEL 3
REMARK VINA RESULT:       0.6      1.193      2.929
REMARK  1 active torsions:
REMARK  status: ('A' for Active; 'I' for Inactive)
REMARK    1  A    between atoms: C7_7  and  C10_10 
ROOT
HETATM    1  C1  UNL     1     -32.365  10.231   0.628  1.00 20.00     0.015 C 
HETATM    2  C2  UNL     1     -32.472   9.238   1.295  1.00 20.00    -0.085 C 
HETATM    3  C3  UNL     1     -34.176   6.704   3.523  1.00 20.00    -0.018 C 
HETATM    4  C4  UNL     1     -33.542   5.590   3.118  1.00 20.00    -0.059 C 
HETATM    5  C5  UNL     1     -33.909   8.041   2.904  1.00 20.00     0.072 C 
HETATM    6  C6  UNL     1     -32.602   8.023   2.109  1.00 20.00     0.203 C 
HETATM    7  C7  UNL     1     -32.546   5.640   1.971  1.00 20.00     0.151 C 
HETATM    8  C8  UNL     1     -33.758   4.276   3.810  1.00 20.00     0.046 C 
HETATM    9  O11 UNL     1     -32.612   6.884   1.248  1.00 20.00    -0.364 OA
ENDROOT
BRANCH   7  10
HETATM   10  C10 UNL     1     -32.768   4.544   0.933  1.00 20.00     0.032 C 
HETATM   11  C9  UNL     1     -31.507   4.205   0.209  1.00 20.00     0.008 C 
ENDBRANCH   7  10
TORSDOF 1
ENDMDL
MODEL 4
REMARK VINA RESULT:       0.9      1.644      3.238
REMARK  1 active torsions:
REMARK  status: ('A' for Active; 'I' for Inactive)
REMARK    1  A    between atoms: C7_7  and  C10_10 
ROOT
HETATM    1  C1  UNL     1     -31.649   4.135  -0.228  1.00 20.00     0.015 C 
HETATM    2  C2  UNL     1     -31.844   4.852   0.714  1.00 20.00    -0.085 C 
HETATM    3  C3  UNL     1     -32.378   8.105   2.565  1.00 20.00    -0.018 C 
HETATM    4  C4  UNL     1     -33.201   7.675   3.537  1.00 20.00    -0.059 C 
HETATM    5  C5  UNL     1     -31.882   7.196   1.483  1.00 20.00     0.072 C 
HETATM    6  C6  UNL     1     -32.084   5.730   1.867  1.00 20.00     0.203 C 
HETATM    7  C7  UNL     1     -33.699   6.239   3.550  1.00 20.00     0.151 C 
HETATM    8  C8  UNL     1     -33.616   8.578   4.662  1.00 20.00     0.046 C 
HETATM    9  O11 UNL     1     -33.432   5.560   2.309  1.00 20.00    -0.364 OA
ENDROOT
BRANCH   7  10
HETATM   10  C10 UNL     1     -35.206   6.127   3.769  1.00 20.00     0.032 C 
HETATM   11  C9  UNL     1     -35.546   5.019   4.711  1.00 20.00     0.008 C 
ENDBRANCH   7  10
TORSDOF 1
ENDMDL
MODEL 5
REMARK VINA RESULT:       1.6      1.585      2.967
REMARK  1 active torsions:
REMARK  status: ('A' for Active; 'I' for Inactive)
REMARK    1  A    between atoms: C7_7  and  C10_10 
ROOT
HETATM    1  C1  UNL     1     -31.603   8.375   0.983  1.00 20.00     0.015 C 
HETATM    2  C2  UNL     1     -32.241   7.858   1.859  1.00 20.00    -0.085 C 
HETATM    3  C3  UNL     1     -35.333   6.836   3.780  1.00 20.00    -0.018 C 
HETATM    4  C4  UNL     1     -34.912   5.655   4.267  1.00 20.00    -0.059 C 
HETATM    5  C5  UNL     1     -34.483   7.670   2.872  1.00 20.00     0.072 C 
HETATM    6  C6  UNL     1     -33.021   7.224   2.929  1.00 20.00     0.203 C 
HETATM    7  C7  UNL     1     -33.553   5.097   3.875  1.00 20.00     0.151 C 
HETATM    8  C8  UNL     1     -35.741   4.876   5.245  1.00 20.00     0.046 C 
HETATM    9  O11 UNL     1     -32.974   5.806   2.763  1.00 20.00    -0.364 OA
ENDROOT
BRANCH   7  10
HETATM   10  C10 UNL     1     -33.605   3.631   3.451  1.00 20.00     0.032 C 
HETATM   11  C9  UNL     1     -33.162   2.723   4.550  1.00 20.00     0.008 C 
ENDBRANCH   7  10
TORSDOF 1
ENDMDL
MODEL 6
REMARK VINA RESULT:       1.7      1.351      4.159
REMARK  1 active torsions:
REMARK  status: ('A' for Active; 'I' for Inactive)
REMARK    1  A    between atoms: C7_7  and  C10_10 
ROOT
HETATM    1  C1  UNL     1     -35.439   6.129   4.327  1.00 20.00     0.015 C 
HETATM    2  C2  UNL     1     -34.470   6.504   3.725  1.00 20.00    -0.085 C 
HETATM    3  C3  UNL     1     -31.929   6.607   0.928  1.00 20.00    -0.018 C 
HETATM    4  C4  UNL     1     -31.635   7.919   0.944  1.00 20.00    -0.059 C 
HETATM    5  C5  UNL     1     -32.960   6.012   1.837  1.00 20.00     0.072 C 
HETATM    6  C6  UNL     1     -33.286   6.964   2.989  1.00 20.00     0.203 C 
HETATM    7  C7  UNL     1     -32.378   8.867   1.870  1.00 20.00     0.151 C 
HETATM    8  C8  UNL     1     -30.537   8.480   0.088  1.00 20.00     0.046 C 
HETATM    9  O11 UNL     1     -33.549   8.258   2.446  1.00 20.00    -0.364 OA
ENDROOT
BRANCH   7  10
HETATM   10  C10 UNL     1     -32.870  10.131   1.168  1.00 20.00     0.032 C 
HETATM   11  C9  UNL     1     -32.853   9.979  -0.317  1.00 20.00     0.008 C 
ENDBRANCH   7  10
TORSDOF 1
ENDMDL
MODEL 7
REMARK VINA RESULT:       1.8      1.002      3.624
REMARK  1 active torsions:
REMARK  status: ('A' for Active; 'I' for Inactive)
REMARK    1  A    between atoms: C7_7  and  C10_10 
ROOT
HETATM    1  C1  UNL     1     -34.104   8.961   5.749  1.00 20.00     0.015 C 
HETATM    2  C2  UNL     1     -33.648   8.205   4.936  1.00 20.00    -0.085 C 
HETATM    3  C3  UNL     1     -33.669   5.492   2.303  1.00 20.00    -0.018 C 
HETATM    4  C4  UNL     1     -32.645   5.914   1.541  1.00 20.00    -0.059 C 
HETATM    5  C5  UNL     1     -34.140   6.261   3.499  1.00 20.00     0.072 C 
HETATM    6  C6  UNL     1     -33.090   7.282   3.940  1.00 20.00     0.203 C 
HETATM    7  C7  UNL     1     -31.943   7.227   1.847  1.00 20.00     0.151 C 
HETATM    8  C8  UNL     1     -32.131   5.086   0.400  1.00 20.00     0.046 C 
HETATM    9  O11 UNL     1     -32.675   8.027   2.795  1.00 20.00    -0.364 OA
ENDROOT
BRANCH   7  10
HETATM   10  C10 UNL     1     -31.757   8.110   0.615  1.00 20.00     0.032 C 
HETATM   11  C9  UNL     1     -32.428   9.433   0.778  1.00 20.00     0.008 C 
ENDBRANCH   7  10
TORSDOF 1
ENDMDL
MODEL 8
REMARK VINA RESULT:       1.9      1.688      4.694
REMARK  1 active torsions:
REMARK  status: ('A' for Active; 'I' for Inactive)
REMARK    1  A    between atoms: C7_7  and  C10_10 
ROOT
HETATM    1  C1  UNL     1     -33.075   2.063   4.558  1.00 20.00     0.015 C 
HETATM    2  C2  UNL     1     -33.531   3.105   4.174  1.00 20.00    -0.085 C 
HETATM    3  C3  UNL     1     -35.379   6.395   4.402  1.00 20.00    -0.018 C 
HETATM    4  C4  UNL     1     -34.680   7.105   3.499  1.00 20.00    -0.059 C 
HETATM    5  C5  UNL     1     -35.020   4.984   4.755  1.00 20.00     0.072 C 
HETATM    6  C6  UNL     1     -34.088   4.379   3.704  1.00 20.00     0.203 C 
HETATM    7  C7  UNL     1     -33.458   6.506   2.822  1.00 20.00     0.151 C 
HETATM    8  C8  UNL     1     -35.109   8.485   3.094  1.00 20.00     0.046 C 
HETATM    9  O11 UNL     1     -33.019   5.295   3.466  1.00 20.00    -0.364 OA
ENDROOT
BRANCH   7  10
HETATM   10  C10 UNL     1     -32.250   7.441   2.827  1.00 20.00     0.032 C 
HETATM   11  C9  UNL     1     -31.906   7.904   1.450  1.00 20.00     0.008 C 
ENDBRANCH   7  10
TORSDOF 1
ENDMDL
MODEL 9
REMARK VINA RESULT:       2.0      1.676      3.539
REMARK  1 active torsions:
REMARK  status: ('A' for Active; 'I' for Inactive)
REMARK    1  A    between atoms: C7_7  and  C10_10 
ROOT
HETATM    1  C1  UNL     1     -30.844   3.610  -0.329  1.00 20.00     0.015 C 
HETATM    2  C2  UNL     1     -31.616   4.266   0.316  1.00 20.00    -0.085 C 
HETATM    3  C3  UNL     1     -33.507   5.401   3.387  1.00 20.00    -0.018 C 
HETATM    4  C4  UNL     1     -33.626   6.710   3.103  1.00 20.00    -0.059 C 
HETATM    5  C5  UNL     1     -32.765   4.457   2.491  1.00 20.00     0.072 C 
HETATM    6  C6  UNL     1     -32.558   5.069   1.105  1.00 20.00     0.203 C 
HETATM    7  C7  UNL     1     -32.969   7.296   1.864  1.00 20.00     0.151 C 
HETATM    8  C8  UNL     1     -34.448   7.621   3.967  1.00 20.00     0.046 C 
HETATM    9  O11 UNL     1     -32.027   6.385   1.266  1.00 20.00    -0.364 OA
ENDROOT
BRANCH   7  10
HETATM   10  C10 UNL     1     -32.188   8.576   2.146  1.00 20.00     0.032 C 
HETATM   11  C9  UNL     1     -32.097   9.446   0.936  1.00 20.00     0.008 C 
ENDBRANCH   7  10
TORSDOF 1
ENDMDL
