MODEL 1
REMARK VINA RESULT:      -1.8      0.000      0.000
REMARK  2 active torsions:
REMARK  status: ('A' for Active; 'I' for Inactive)
REMARK    1  A    between atoms: C3_3  and  C5_5 
REMARK    2  A    between atoms: C5_5  and  C9_9 
ROOT
HETATM    1  C1  UNL     1     -34.310   6.670   3.055  1.00 20.00    -0.012 A 
HETATM    2  C2  UNL     1     -34.904   4.789   4.622  1.00 20.00    -0.020 A 
HETATM    3  C3  UNL     1     -33.251   5.965   2.633  1.00 20.00    -0.003 A 
HETATM    4  C4  UNL     1     -33.843   4.078   4.201  1.00 20.00    -0.083 A 
HETATM    5  C6  UNL     1     -35.254   6.153   4.101  1.00 20.00     0.055 A 
HETATM    6  C7  UNL     1     -32.893   4.602   3.149  1.00 20.00     0.075 A 
HETATM    7  C8  UNL     1     -33.531   2.717   4.751  1.00 20.00     0.043 C 
ENDROOT
BRANCH   3   8
HETATM    8  C5  UNL     1     -32.395   6.567   1.608  1.00 20.00     0.261 C 
HETATM    9  O10 UNL     1     -31.974   5.896   0.663  1.00 20.00    -0.283 OA
BRANCH   8  10
HETATM   10  C9  UNL     1     -32.057   8.023   1.762  1.00 20.00     0.455 C 
HETATM   11  F11 UNL     1     -33.113   8.830   1.490  1.00 20.00    -0.163 F 
HETATM   12  F12 UNL     1     -31.052   8.397   0.930  1.00 20.00    -0.163 F 
HETATM   13  F13 UNL     1     -31.653   8.317   3.024  1.00 20.00    -0.163 F 
ENDBRANCH   8  10
ENDBRANCH   3   8
TORSDOF 2
ENDMDL
MODEL 2
REMARK VINA RESULT:      -1.3      2.268      3.247
REMARK  2 active torsions:
REMARK  status: ('A' for Active; 'I' for Inactive)
REMARK    1  A    between atoms: C3_3  and  C5_5 
REMARK    2  A    between atoms: C5_5  and  C9_9 
ROOT
HETATM    1  C1  UNL     1     -32.402   6.678   1.015  1.00 20.00    -0.012 A 
HETATM    2  C2  UNL     1     -33.607   6.017   3.126  1.00 20.00    -0.020 A 
HETATM    3  C3  UNL     1     -32.363   7.945   1.451  1.00 20.00    -0.003 A 
HETATM    4  C4  UNL     1     -33.570   7.287   3.567  1.00 20.00    -0.083 A 
HETATM    5  C6  UNL     1     -33.032   5.574   1.811  1.00 20.00     0.055 A 
HETATM    6  C7  UNL     1     -32.935   8.397   2.762  1.00 20.00     0.075 A 
HETATM    7  C8  UNL     1     -34.158   7.685   4.889  1.00 20.00     0.043 C 
ENDROOT
BRANCH   3   8
HETATM    8  C5  UNL     1     -31.722   8.943   0.590  1.00 20.00     0.261 C 
HETATM    9  O10 UNL     1     -30.547   8.814   0.242  1.00 20.00    -0.283 OA
BRANCH   8  10
HETATM   10  C9  UNL     1     -32.555  10.118   0.160  1.00 20.00     0.455 C 
HETATM   11  F11 UNL     1     -33.461  10.481   1.102  1.00 20.00    -0.163 F 
HETATM   12  F12 UNL     1     -33.252   9.852  -0.974  1.00 20.00    -0.163 F 
HETATM   13  F13 UNL     1     -31.792  11.212  -0.093  1.00 20.00    -0.163 F 
ENDBRANCH   8  10
ENDBRANCH   3   8
TORSDOF 2
ENDMDL
MODEL 3
REMARK VINA RESULT:      -1.1      2.000      2.757
REMARK  2 active torsions:
REMARK  status: ('A' for Active; 'I' for Inactive)
REMARK    1  A    between atoms: C3_3  and  C5_5 
REMARK    2  A    between atoms: C5_5  and  C9_9 
ROOT
HETATM    1  C1  UNL     1     -32.133   6.424   1.432  1.00 20.00    -0.012 A 
HETATM    2  C2  UNL     1     -33.830   4.993   2.621  1.00 20.00    -0.020 A 
HETATM    3  C3  UNL     1     -32.557   7.485   2.133  1.00 20.00    -0.003 A 
HETATM    4  C4  UNL     1     -34.259   6.055   3.328  1.00 20.00    -0.083 A 
HETATM    5  C6  UNL     1     -32.729   5.058   1.603  1.00 20.00     0.055 A 
HETATM    6  C7  UNL     1     -33.657   7.430   3.151  1.00 20.00     0.075 A 
HETATM    7  C8  UNL     1     -35.364   5.944   4.336  1.00 20.00     0.043 C 
ENDROOT
BRANCH   3   8
HETATM    8  C5  UNL     1     -31.903   8.773   1.884  1.00 20.00     0.261 C 
HETATM    9  O10 UNL     1     -31.218   9.311   2.755  1.00 20.00    -0.283 OA
BRANCH   8  10
HETATM   10  C9  UNL     1     -32.108   9.399   0.533  1.00 20.00     0.455 C 
HETATM   11  F11 UNL     1     -33.181   8.884  -0.117  1.00 20.00    -0.163 F 
HETATM   12  F12 UNL     1     -31.033   9.215  -0.275  1.00 20.00    -0.163 F 
HETATM   13  F13 UNL     1     -32.309  10.738   0.623  1.00 20.00    -0.163 F 
ENDBRANCH   8  10
ENDBRANCH   3   8
TORSDOF 2
ENDMDL
MODEL 4
REMARK VINA RESULT:      -1.0      1.469      1.629
REMARK  2 active torsions:
REMARK  status: ('A' for Active; 'I' for Inactive)
REMARK    1  A    between atoms: C3_3  and  C5_5 
REMARK    2  A    between atoms: C5_5  and  C9_9 
ROOT
HETATM    1  C1  UNL     1     -34.625   7.143   3.743  1.00 20.00    -0.012 A 
HETATM    2  C2  UNL     1     -35.136   4.771   4.419  1.00 20.00    -0.020 A 
HETATM    3  C3  UNL     1     -33.385   6.763   3.400  1.00 20.00    -0.003 A 
HETATM    4  C4  UNL     1     -33.894   4.385   4.076  1.00 20.00    -0.083 A 
HETATM    5  C6  UNL     1     -35.636   6.181   4.292  1.00 20.00     0.055 A 
HETATM    6  C7  UNL     1     -32.877   5.357   3.524  1.00 20.00     0.075 A 
HETATM    7  C8  UNL     1     -33.436   2.964   4.221  1.00 20.00     0.043 C 
ENDROOT
BRANCH   3   8
HETATM    8  C5  UNL     1     -32.479   7.787   2.874  1.00 20.00     0.261 C 
HETATM    9  O10 UNL     1     -31.978   8.630   3.621  1.00 20.00    -0.283 OA
BRANCH   8  10
HETATM   10  C9  UNL     1     -32.195   7.764   1.398  1.00 20.00     0.455 C 
HETATM   11  F11 UNL     1     -32.931   6.829   0.746  1.00 20.00    -0.163 F 
HETATM   12  F12 UNL     1     -30.892   7.488   1.141  1.00 20.00    -0.163 F 
HETATM   13  F13 UNL     1     -32.469   8.957   0.813  1.00 20.00    -0.163 F 
ENDBRANCH   8  10
ENDBRANCH   3   8
TORSDOF 2
ENDMDL
MODEL 5
REMARK VINA RESULT:      -1.0      2.259      3.109
REMARK  2 active torsions:
REMARK  status: ('A' for Active; 'I' for Inactive)
REMARK    1  A    between atoms: C3_3  and  C5_5 
REMARK    2  A    between atoms: C5_5  and  C9_9 
ROOT
HETATM    1  C1  UNL     1     -31.988   8.842   3.444  1.00 20.00    -0.012 A 
HETATM    2  C2  UNL     1     -33.669   7.632   4.878  1.00 20.00    -0.020 A 
HETATM    3  C3  UNL     1     -32.537   8.285   2.355  1.00 20.00    -0.003 A 
HETATM    4  C4  UNL     1     -34.223   7.071   3.789  1.00 20.00    -0.083 A 
HETATM    5  C6  UNL     1     -32.499   8.573   4.829  1.00 20.00     0.055 A 
HETATM    6  C7  UNL     1     -33.704   7.344   2.396  1.00 20.00     0.075 A 
HETATM    7  C8  UNL     1     -35.392   6.136   3.885  1.00 20.00     0.043 C 
ENDROOT
BRANCH   3   8
HETATM    8  C5  UNL     1     -31.956   8.618   1.052  1.00 20.00     0.261 C 
HETATM    9  O10 UNL     1     -31.027   7.955   0.587  1.00 20.00    -0.283 OA
BRANCH   8  10
HETATM   10  C9  UNL     1     -32.537   9.795   0.320  1.00 20.00     0.455 C 
HETATM   11  F11 UNL     1     -31.603  10.734   0.028  1.00 20.00    -0.163 F 
HETATM   12  F12 UNL     1     -33.502  10.413   1.047  1.00 20.00    -0.163 F 
HETATM   13  F13 UNL     1     -33.105   9.427  -0.857  1.00 20.00    -0.163 F 
ENDBRANCH   8  10
ENDBRANCH   3   8
TORSDOF 2
ENDMDL
MODEL 6
REMARK VINA RESULT:      -0.8      3.162      5.067
REMARK  2 active torsions:
REMARK  status: ('A' for Active; 'I' for Inactive)
REMARK    1  A    between atoms: C3_3  and  C5_5 
REMARK    2  A    between atoms: C5_5  and  C9_9 
ROOT
HETATM    1  C1  UNL     1     -32.689   6.417   2.339  1.00 20.00    -0.012 A 
HETATM    2  C2  UNL     1     -31.813   7.855   0.465  1.00 20.00    -0.020 A 
HETATM    3  C3  UNL     1     -33.308   7.489   2.853  1.00 20.00    -0.003 A 
HETATM    4  C4  UNL     1     -32.433   8.933   0.977  1.00 20.00    -0.083 A 
HETATM    5  C6  UNL     1     -31.871   6.488   1.083  1.00 20.00     0.055 A 
HETATM    6  C7  UNL     1     -33.255   8.858   2.243  1.00 20.00     0.075 A 
HETATM    7  C8  UNL     1     -32.348  10.282   0.326  1.00 20.00     0.043 C 
ENDROOT
BRANCH   3   8
HETATM    8  C5  UNL     1     -34.080   7.305   4.085  1.00 20.00     0.261 C 
HETATM    9  O10 UNL     1     -33.859   8.001   5.078  1.00 20.00    -0.283 OA
BRANCH   8  10
HETATM   10  C9  UNL     1     -35.139   6.239   4.081  1.00 20.00     0.455 C 
HETATM   11  F11 UNL     1     -34.642   5.020   3.754  1.00 20.00    -0.163 F 
HETATM   12  F12 UNL     1     -36.125   6.513   3.190  1.00 20.00    -0.163 F 
HETATM   13  F13 UNL     1     -35.730   6.110   5.296  1.00 20.00    -0.163 F 
ENDBRANCH   8  10
ENDBRANCH   3   8
TORSDOF 2
ENDMDL
MODEL 7
REMARK VINA RESULT:      -0.8      2.713      4.755
REMARK  2 active torsions:
REMARK  status: ('A' for Active; 'I' for Inactive)
REMARK    1  A    between atoms: C3_3  and  C5_5 
REMARK    2  A    between atoms: C5_5  and  C9_9 
ROOT
HETATM    1  C1  UNL     1     -32.498   5.322   1.796  1.00 20.00    -0.012 A 
HETATM    2  C2  UNL     1     -31.592   7.419   0.734  1.00 20.00    -0.020 A 
HETATM    3  C3  UNL     1     -33.254   6.077   2.607  1.00 20.00    -0.003 A 
HETATM    4  C4  UNL     1     -32.348   8.180   1.546  1.00 20.00    -0.083 A 
HETATM    5  C6  UNL     1     -31.582   5.918   0.768  1.00 20.00     0.055 A 
HETATM    6  C7  UNL     1     -33.269   7.576   2.581  1.00 20.00     0.075 A 
HETATM    7  C8  UNL     1     -32.326   9.678   1.478  1.00 20.00     0.043 C 
ENDROOT
BRANCH   3   8
HETATM    8  C5  UNL     1     -34.112   5.388   3.575  1.00 20.00     0.261 C 
HETATM    9  O10 UNL     1     -33.911   4.208   3.868  1.00 20.00    -0.283 OA
BRANCH   8  10
HETATM   10  C9  UNL     1     -35.236   6.178   4.183  1.00 20.00     0.455 C 
HETATM   11  F11 UNL     1     -34.804   7.320   4.775  1.00 20.00    -0.163 F 
HETATM   12  F12 UNL     1     -35.894   5.468   5.134  1.00 20.00    -0.163 F 
HETATM   13  F13 UNL     1     -36.157   6.542   3.255  1.00 20.00    -0.163 F 
ENDBRANCH   8  10
ENDBRANCH   3   8
TORSDOF 2
ENDMDL
MODEL 8
REMARK VINA RESULT:      -0.7      2.689      4.663
REMARK  2 active torsions:
REMARK  status: ('A' for Active; 'I' for Inactive)
REMARK    1  A    between atoms: C3_3  and  C5_5 
REMARK    2  A    between atoms: C5_5  and  C9_9 
ROOT
HETATM    1  C1  UNL     1     -32.358   5.320   1.885  1.00 20.00    -0.012 A 
HETATM    2  C2  UNL     1     -31.490   7.400   0.759  1.00 20.00    -0.020 A 
HETATM    3  C3  UNL     1     -33.196   6.078   2.608  1.00 20.00    -0.003 A 
HETATM    4  C4  UNL     1     -32.330   8.164   1.481  1.00 20.00    -0.083 A 
HETATM    5  C6  UNL     1     -31.411   5.905   0.879  1.00 20.00     0.055 A 
HETATM    6  C7  UNL     1     -33.281   7.571   2.495  1.00 20.00     0.075 A 
HETATM    7  C8  UNL     1     -32.375   9.655   1.329  1.00 20.00     0.043 C 
ENDROOT
BRANCH   3   8
HETATM    8  C5  UNL     1     -34.077   5.400   3.563  1.00 20.00     0.261 C 
HETATM    9  O10 UNL     1     -33.894   4.218   3.859  1.00 20.00    -0.283 OA
BRANCH   8  10
HETATM   10  C9  UNL     1     -35.201   6.204   4.153  1.00 20.00     0.455 C 
HETATM   11  F11 UNL     1     -36.118   6.570   3.222  1.00 20.00    -0.163 F 
HETATM   12  F12 UNL     1     -34.752   7.346   4.733  1.00 20.00    -0.163 F 
HETATM   13  F13 UNL     1     -35.868   5.511   5.110  1.00 20.00    -0.163 F 
ENDBRANCH   8  10
ENDBRANCH   3   8
TORSDOF 2
ENDMDL
MODEL 9
REMARK VINA RESULT:      -0.7      3.214      4.410
REMARK  2 active torsions:
REMARK  status: ('A' for Active; 'I' for Inactive)
REMARK    1  A    between atoms: C3_3  and  C5_5 
REMARK    2  A    between atoms: C5_5  and  C9_9 
ROOT
HETATM    1  C1  UNL     1     -32.700   8.264   2.643  1.00 20.00    -0.012 A 
HETATM    2  C2  UNL     1     -31.531   7.013   0.795  1.00 20.00    -0.020 A 
HETATM    3  C3  UNL     1     -33.303   7.125   3.013  1.00 20.00    -0.003 A 
HETATM    4  C4  UNL     1     -32.133   5.868   1.163  1.00 20.00    -0.083 A 
HETATM    5  C6  UNL     1     -31.745   8.328   1.487  1.00 20.00     0.055 A 
HETATM    6  C7  UNL     1     -33.096   5.807   2.327  1.00 20.00     0.075 A 
HETATM    7  C8  UNL     1     -31.890   4.575   0.442  1.00 20.00     0.043 C 
ENDROOT
BRANCH   3   8
HETATM    8  C5  UNL     1     -34.218   7.179   4.156  1.00 20.00     0.261 C 
HETATM    9  O10 UNL     1     -34.095   8.047   5.022  1.00 20.00    -0.283 OA
BRANCH   8  10
HETATM   10  C9  UNL     1     -35.298   6.136   4.224  1.00 20.00     0.455 C 
HETATM   11  F11 UNL     1     -34.824   4.886   3.989  1.00 20.00    -0.163 F 
HETATM   12  F12 UNL     1     -36.275   6.363   3.309  1.00 20.00    -0.163 F 
HETATM   13  F13 UNL     1     -35.896   6.106   5.442  1.00 20.00    -0.163 F 
ENDBRANCH   8  10
ENDBRANCH   3   8
TORSDOF 2
ENDMDL
