MODEL 1
REMARK VINA RESULT:       1.2      0.000      0.000
REMARK  0 active torsions:
REMARK  status: ('A' for Active; 'I' for Inactive)
ROOT
HETATM    1  C1  UNL     1     -32.130   7.619   1.533  1.00 20.00    -0.056 A 
HETATM    2  C2  UNL     1     -33.576   6.236   2.706  1.00 20.00     0.087 A 
HETATM    3  C3  UNL     1     -31.259   8.132   0.654  1.00 20.00     0.017 C 
HETATM    4  C4  UNL     1     -32.690   8.389   2.717  1.00 20.00     0.158 A 
HETATM    5  C5  UNL     1     -34.409   7.384   4.480  1.00 20.00     0.144 A 
HETATM    6  C6  UNL     1     -34.981   5.941   4.438  1.00 20.00     0.141 A 
HETATM    7  C7  UNL     1     -32.715   6.196   1.519  1.00 20.00     0.035 A 
HETATM    8  C8  UNL     1     -31.626   5.134   1.687  1.00 20.00     0.028 C 
HETATM    9  C9  UNL     1     -33.550   5.939   0.264  1.00 20.00     0.028 C 
HETATM   10  N10 UNL     1     -33.550   7.393   3.317  1.00 20.00    -0.365 N 
HETATM   11  N11 UNL     1     -34.352   5.328   3.246  1.00 20.00    -0.377 N 
HETATM   12  H26 UNL     1     -34.447   4.399   2.856  1.00 20.00     0.160 HD
ENDROOT
TORSDOF 0
ENDMDL
MODEL 2
REMARK VINA RESULT:       1.6      1.261      4.029
REMARK  0 active torsions:
REMARK  status: ('A' for Active; 'I' for Inactive)
ROOT
HETATM    1  C1  UNL     1     -34.508   5.963   3.818  1.00 20.00    -0.056 A 
HETATM    2  C2  UNL     1     -33.024   7.355   2.705  1.00 20.00     0.087 A 
HETATM    3  C3  UNL     1     -35.437   5.453   4.636  1.00 20.00     0.017 C 
HETATM    4  C4  UNL     1     -33.764   5.150   2.772  1.00 20.00     0.158 A 
HETATM    5  C5  UNL     1     -31.906   6.139   1.146  1.00 20.00     0.144 A 
HETATM    6  C6  UNL     1     -31.440   7.621   1.129  1.00 20.00     0.141 A 
HETATM    7  C7  UNL     1     -34.024   7.422   3.775  1.00 20.00     0.035 A 
HETATM    8  C8  UNL     1     -33.367   7.841   5.093  1.00 20.00     0.028 C 
HETATM    9  C9  UNL     1     -35.152   8.382   3.390  1.00 20.00     0.028 C 
HETATM   10  N10 UNL     1     -32.904   6.158   2.193  1.00 20.00    -0.365 N 
HETATM   11  N11 UNL     1     -32.245   8.274   2.185  1.00 20.00    -0.377 N 
HETATM   12  H26 UNL     1     -32.256   9.234   2.507  1.00 20.00     0.160 HD
ENDROOT
TORSDOF 0
ENDMDL
MODEL 3
REMARK VINA RESULT:       2.0      1.525      3.866
REMARK  0 active torsions:
REMARK  status: ('A' for Active; 'I' for Inactive)
ROOT
HETATM    1  C1  UNL     1     -33.721   5.442   3.368  1.00 20.00    -0.056 A 
HETATM    2  C2  UNL     1     -33.241   7.548   2.522  1.00 20.00     0.087 A 
HETATM    3  C3  UNL     1     -34.214   4.410   4.063  1.00 20.00     0.017 C 
HETATM    4  C4  UNL     1     -32.675   5.303   2.274  1.00 20.00     0.158 A 
HETATM    5  C5  UNL     1     -31.672   7.342   0.892  1.00 20.00     0.144 A 
HETATM    6  C6  UNL     1     -32.078   8.829   1.083  1.00 20.00     0.141 A 
HETATM    7  C7  UNL     1     -34.100   6.924   3.533  1.00 20.00     0.035 A 
HETATM    8  C8  UNL     1     -33.748   7.447   4.927  1.00 20.00     0.028 C 
HETATM    9  C9  UNL     1     -35.574   7.171   3.205  1.00 20.00     0.028 C 
HETATM   10  N10 UNL     1     -32.504   6.682   1.874  1.00 20.00    -0.365 N 
HETATM   11  N11 UNL     1     -33.089   8.800   2.164  1.00 20.00    -0.377 N 
HETATM   12  H26 UNL     1     -33.609   9.552   2.600  1.00 20.00     0.160 HD
ENDROOT
TORSDOF 0
ENDMDL
MODEL 4
REMARK VINA RESULT:       2.6      1.381      3.331
REMARK  0 active torsions:
REMARK  status: ('A' for Active; 'I' for Inactive)
ROOT
HETATM    1  C1  UNL     1     -33.529   5.770   2.991  1.00 20.00    -0.056 A 
HETATM    2  C2  UNL     1     -32.475   7.186   1.486  1.00 20.00     0.087 A 
HETATM    3  C3  UNL     1     -34.048   4.710   3.623  1.00 20.00     0.017 C 
HETATM    4  C4  UNL     1     -33.606   7.193   3.520  1.00 20.00     0.158 A 
HETATM    5  C5  UNL     1     -32.596   9.313   2.274  1.00 20.00     0.144 A 
HETATM    6  C6  UNL     1     -31.842   9.269   0.916  1.00 20.00     0.141 A 
HETATM    7  C7  UNL     1     -32.779   5.761   1.648  1.00 20.00     0.035 A 
HETATM    8  C8  UNL     1     -33.671   5.274   0.503  1.00 20.00     0.028 C 
HETATM    9  C9  UNL     1     -31.487   4.945   1.727  1.00 20.00     0.028 C 
HETATM   10  N10 UNL     1     -32.915   7.917   2.477  1.00 20.00    -0.365 N 
HETATM   11  N11 UNL     1     -31.848   7.838   0.537  1.00 20.00    -0.377 N 
HETATM   12  H26 UNL     1     -31.467   7.371  -0.277  1.00 20.00     0.160 HD
ENDROOT
TORSDOF 0
ENDMDL
MODEL 5
REMARK VINA RESULT:       2.7      1.385      2.767
REMARK  0 active torsions:
REMARK  status: ('A' for Active; 'I' for Inactive)
ROOT
HETATM    1  C1  UNL     1     -32.552   7.504   2.201  1.00 20.00    -0.056 A 
HETATM    2  C2  UNL     1     -34.017   6.533   3.714  1.00 20.00     0.087 A 
HETATM    3  C3  UNL     1     -31.797   8.358   1.498  1.00 20.00     0.017 C 
HETATM    4  C4  UNL     1     -32.613   6.010   1.932  1.00 20.00     0.158 A 
HETATM    5  C5  UNL     1     -34.115   4.300   3.308  1.00 20.00     0.144 A 
HETATM    6  C6  UNL     1     -35.038   4.687   4.496  1.00 20.00     0.141 A 
HETATM    7  C7  UNL     1     -33.475   7.854   3.381  1.00 20.00     0.035 A 
HETATM    8  C8  UNL     1     -34.601   8.800   2.958  1.00 20.00     0.028 C 
HETATM    9  C9  UNL     1     -32.690   8.422   4.565  1.00 20.00     0.028 C 
HETATM   10  N10 UNL     1     -33.552   5.582   2.945  1.00 20.00    -0.365 N 
HETATM   11  N11 UNL     1     -34.869   6.150   4.634  1.00 20.00    -0.377 N 
HETATM   12  H26 UNL     1     -35.291   6.804   5.283  1.00 20.00     0.160 HD
ENDROOT
TORSDOF 0
ENDMDL
MODEL 6
REMARK VINA RESULT:       2.9      1.041      2.563
REMARK  0 active torsions:
REMARK  status: ('A' for Active; 'I' for Inactive)
ROOT
HETATM    1  C1  UNL     1     -31.933   7.359   1.383  1.00 20.00    -0.056 A 
HETATM    2  C2  UNL     1     -33.470   7.417   3.119  1.00 20.00     0.087 A 
HETATM    3  C3  UNL     1     -31.003   7.663   0.468  1.00 20.00     0.017 C 
HETATM    4  C4  UNL     1     -32.567   5.985   1.522  1.00 20.00     0.158 A 
HETATM    5  C5  UNL     1     -34.423   5.366   3.322  1.00 20.00     0.144 A 
HETATM    6  C6  UNL     1     -34.999   6.350   4.377  1.00 20.00     0.141 A 
HETATM    7  C7  UNL     1     -32.524   8.308   2.439  1.00 20.00     0.035 A 
HETATM    8  C8  UNL     1     -33.267   9.481   1.795  1.00 20.00     0.028 C 
HETATM    9  C9  UNL     1     -31.457   8.801   3.419  1.00 20.00     0.028 C 
HETATM   10  N10 UNL     1     -33.475   6.206   2.625  1.00 20.00    -0.365 N 
HETATM   11  N11 UNL     1     -34.293   7.624   4.119  1.00 20.00    -0.377 N 
HETATM   12  H26 UNL     1     -34.370   8.525   4.576  1.00 20.00     0.160 HD
ENDROOT
TORSDOF 0
ENDMDL
MODEL 7
REMARK VINA RESULT:       3.0      1.214      3.511
REMARK  0 active torsions:
REMARK  status: ('A' for Active; 'I' for Inactive)
ROOT
HETATM    1  C1  UNL     1     -33.738   7.652   4.257  1.00 20.00    -0.056 A 
HETATM    2  C2  UNL     1     -33.479   6.246   2.432  1.00 20.00     0.087 A 
HETATM    3  C3  UNL     1     -34.163   8.256   5.375  1.00 20.00     0.017 C 
HETATM    4  C4  UNL     1     -32.534   8.112   3.452  1.00 20.00     0.158 A 
HETATM    5  C5  UNL     1     -31.684   6.936   1.224  1.00 20.00     0.144 A 
HETATM    6  C6  UNL     1     -32.340   5.687   0.573  1.00 20.00     0.141 A 
HETATM    7  C7  UNL     1     -34.364   6.416   3.588  1.00 20.00     0.035 A 
HETATM    8  C8  UNL     1     -35.798   6.687   3.126  1.00 20.00     0.028 C 
HETATM    9  C9  UNL     1     -34.299   5.187   4.496  1.00 20.00     0.028 C 
HETATM   10  N10 UNL     1     -32.528   7.142   2.380  1.00 20.00    -0.365 N 
HETATM   11  N11 UNL     1     -33.479   5.364   1.461  1.00 20.00    -0.377 N 
HETATM   12  H26 UNL     1     -34.171   4.626   1.403  1.00 20.00     0.160 HD
ENDROOT
TORSDOF 0
ENDMDL
MODEL 8
REMARK VINA RESULT:       3.2      1.026      2.494
REMARK  0 active torsions:
REMARK  status: ('A' for Active; 'I' for Inactive)
ROOT
HETATM    1  C1  UNL     1     -32.295   5.872   1.386  1.00 20.00    -0.056 A 
HETATM    2  C2  UNL     1     -33.254   7.340   2.904  1.00 20.00     0.087 A 
HETATM    3  C3  UNL     1     -31.562   5.310   0.417  1.00 20.00     0.017 C 
HETATM    4  C4  UNL     1     -33.330   5.121   2.207  1.00 20.00     0.158 A 
HETATM    5  C5  UNL     1     -34.806   6.220   4.127  1.00 20.00     0.144 A 
HETATM    6  C6  UNL     1     -34.724   7.707   4.567  1.00 20.00     0.141 A 
HETATM    7  C7  UNL     1     -32.239   7.339   1.846  1.00 20.00     0.035 A 
HETATM    8  C8  UNL     1     -32.638   8.300   0.724  1.00 20.00     0.028 C 
HETATM    9  C9  UNL     1     -30.868   7.700   2.422  1.00 20.00     0.028 C 
HETATM   10  N10 UNL     1     -33.811   6.170   3.078  1.00 20.00    -0.365 N 
HETATM   11  N11 UNL     1     -33.687   8.296   3.690  1.00 20.00    -0.377 N 
HETATM   12  H26 UNL     1     -33.325   9.240   3.641  1.00 20.00     0.160 HD
ENDROOT
TORSDOF 0
ENDMDL
MODEL 9
REMARK VINA RESULT:       4.0      1.533      2.733
REMARK  0 active torsions:
REMARK  status: ('A' for Active; 'I' for Inactive)
ROOT
HETATM    1  C1  UNL     1     -33.340   6.116   1.763  1.00 20.00    -0.056 A 
HETATM    2  C2  UNL     1     -33.417   7.220   3.801  1.00 20.00     0.087 A 
HETATM    3  C3  UNL     1     -33.555   5.293   0.729  1.00 20.00     0.017 C 
HETATM    4  C4  UNL     1     -32.277   7.203   1.772  1.00 20.00     0.158 A 
HETATM    5  C5  UNL     1     -31.825   8.839   3.818  1.00 20.00     0.144 A 
HETATM    6  C6  UNL     1     -32.610   8.823   5.158  1.00 20.00     0.141 A 
HETATM    7  C7  UNL     1     -34.098   6.126   3.101  1.00 20.00     0.035 A 
HETATM    8  C8  UNL     1     -33.918   4.812   3.865  1.00 20.00     0.028 C 
HETATM    9  C9  UNL     1     -35.580   6.456   2.911  1.00 20.00     0.028 C 
HETATM   10  N10 UNL     1     -32.469   7.770   3.088  1.00 20.00    -0.365 N 
HETATM   11  N11 UNL     1     -33.594   7.730   4.996  1.00 20.00    -0.377 N 
HETATM   12  H26 UNL     1     -34.300   7.379   5.632  1.00 20.00     0.160 HD
ENDROOT
TORSDOF 0
ENDMDL
