MODEL 1
REMARK VINA RESULT:      -2.4      0.000      0.000
REMARK  2 active torsions:
REMARK  status: ('A' for Active; 'I' for Inactive)
REMARK    1  A    between atoms: C3_3  and  C10_10 
REMARK    2  A    between atoms: C7_7  and  O11_11 
ROOT
HETATM    1  C1  UNL     1     -32.677   9.733   0.026  1.00 20.00     0.012 C 
HETATM    2  C2  UNL     1     -32.229   9.084   0.932  1.00 20.00    -0.113 C 
HETATM    3  C10 UNL     1     -31.671   8.299   2.035  1.00 20.00     0.127 C 
ENDROOT
BRANCH   3   4
HETATM    4  C3  UNL     1     -32.683   7.322   2.527  1.00 20.00    -0.060 C 
HETATM    5  C4  UNL     1     -33.407   7.371   3.659  1.00 20.00    -0.052 C 
HETATM    6  C7  UNL     1     -34.370   6.225   3.746  1.00 20.00     0.147 C 
HETATM    7  C8  UNL     1     -33.381   8.388   4.748  1.00 20.00     0.046 C 
HETATM    8  C5  UNL     1     -33.870   5.266   2.668  1.00 20.00     0.045 C 
HETATM    9  C6  UNL     1     -33.073   6.134   1.681  1.00 20.00     0.014 C 
HETATM   10  C9  UNL     1     -31.904   5.361   1.079  1.00 20.00     0.015 C 
BRANCH   6  11
HETATM   11  O11 UNL     1     -35.680   6.684   3.458  1.00 20.00    -0.391 OA
HETATM   12  H25 UNL     1     -36.184   6.641   4.287  1.00 20.00     0.210 HD
ENDBRANCH   6  11
ENDBRANCH   3   4
TORSDOF 2
ENDMDL
MODEL 2
REMARK VINA RESULT:      -2.1      1.847      4.484
REMARK  2 active torsions:
REMARK  status: ('A' for Active; 'I' for Inactive)
REMARK    1  A    between atoms: C3_3  and  C10_10 
REMARK    2  A    between atoms: C7_7  and  O11_11 
ROOT
HETATM    1  C1  UNL     1     -33.698   3.518   4.433  1.00 20.00     0.012 C 
HETATM    2  C2  UNL     1     -34.163   4.552   4.035  1.00 20.00    -0.113 C 
HETATM    3  C10 UNL     1     -34.741   5.807   3.553  1.00 20.00     0.127 C 
ENDROOT
BRANCH   3   4
HETATM    4  C3  UNL     1     -33.660   6.719   3.083  1.00 20.00    -0.060 C 
HETATM    5  C4  UNL     1     -32.829   6.555   2.039  1.00 20.00    -0.052 C 
HETATM    6  C7  UNL     1     -31.931   7.743   1.859  1.00 20.00     0.147 C 
HETATM    7  C8  UNL     1     -32.729   5.413   1.087  1.00 20.00     0.046 C 
HETATM    8  C5  UNL     1     -32.091   8.503   3.173  1.00 20.00     0.045 C 
HETATM    9  C6  UNL     1     -33.446   8.058   3.746  1.00 20.00     0.014 C 
HETATM   10  C9  UNL     1     -33.422   8.025   5.270  1.00 20.00     0.015 C 
BRANCH   6  11
HETATM   11  O11 UNL     1     -32.383   8.516   0.760  1.00 20.00    -0.391 OA
HETATM   12  H25 UNL     1     -33.353   8.508   0.788  1.00 20.00     0.210 HD
ENDBRANCH   6  11
ENDBRANCH   3   4
TORSDOF 2
ENDMDL
MODEL 3
REMARK VINA RESULT:      -1.3      1.961      3.918
REMARK  2 active torsions:
REMARK  status: ('A' for Active; 'I' for Inactive)
REMARK    1  A    between atoms: C3_3  and  C10_10 
REMARK    2  A    between atoms: C7_7  and  O11_11 
ROOT
HETATM    1  C1  UNL     1     -33.076   3.114   4.643  1.00 20.00     0.012 C 
HETATM    2  C2  UNL     1     -33.731   3.999   4.162  1.00 20.00    -0.113 C 
HETATM    3  C10 UNL     1     -34.539   5.072   3.579  1.00 20.00     0.127 C 
ENDROOT
BRANCH   3   4
HETATM    4  C3  UNL     1     -33.654   6.140   3.035  1.00 20.00    -0.060 C 
HETATM    5  C4  UNL     1     -33.522   7.408   3.460  1.00 20.00    -0.052 C 
HETATM    6  C7  UNL     1     -32.466   8.141   2.686  1.00 20.00     0.147 C 
HETATM    7  C8  UNL     1     -34.241   8.110   4.561  1.00 20.00     0.046 C 
HETATM    8  C5  UNL     1     -32.225   7.235   1.481  1.00 20.00     0.045 C 
HETATM    9  C6  UNL     1     -32.685   5.835   1.918  1.00 20.00     0.014 C 
HETATM   10  C9  UNL     1     -33.275   5.053   0.749  1.00 20.00     0.015 C 
BRANCH   6  11
HETATM   11  O11 UNL     1     -31.297   8.262   3.480  1.00 20.00    -0.391 OA
HETATM   12  H25 UNL     1     -31.538   8.787   4.261  1.00 20.00     0.210 HD
ENDBRANCH   6  11
ENDBRANCH   3   4
TORSDOF 2
ENDMDL
MODEL 4
REMARK VINA RESULT:      -1.1      1.104      2.650
REMARK  2 active torsions:
REMARK  status: ('A' for Active; 'I' for Inactive)
REMARK    1  A    between atoms: C3_3  and  C10_10 
REMARK    2  A    between atoms: C7_7  and  O11_11 
ROOT
HETATM    1  C1  UNL     1     -32.592   9.555   0.150  1.00 20.00     0.012 C 
HETATM    2  C2  UNL     1     -32.213   8.917   1.095  1.00 20.00    -0.113 C 
HETATM    3  C10 UNL     1     -31.741   8.146   2.247  1.00 20.00     0.127 C 
ENDROOT
BRANCH   3   4
HETATM    4  C3  UNL     1     -32.784   7.168   2.668  1.00 20.00    -0.060 C 
HETATM    5  C4  UNL     1     -33.034   5.948   2.162  1.00 20.00    -0.052 C 
HETATM    6  C7  UNL     1     -34.125   5.251   2.920  1.00 20.00     0.147 C 
HETATM    7  C8  UNL     1     -32.371   5.248   1.026  1.00 20.00     0.046 C 
HETATM    8  C5  UNL     1     -34.753   6.375   3.740  1.00 20.00     0.045 C 
HETATM    9  C6  UNL     1     -33.668   7.457   3.858  1.00 20.00     0.014 C 
HETATM   10  C9  UNL     1     -34.276   8.855   3.882  1.00 20.00     0.015 C 
BRANCH   6  11
HETATM   11  O11 UNL     1     -33.558   4.258   3.759  1.00 20.00    -0.391 OA
HETATM   12  H25 UNL     1     -34.104   4.220   4.561  1.00 20.00     0.210 HD
ENDBRANCH   6  11
ENDBRANCH   3   4
TORSDOF 2
ENDMDL
MODEL 5
REMARK VINA RESULT:       0.4      1.426      3.213
REMARK  2 active torsions:
REMARK  status: ('A' for Active; 'I' for Inactive)
REMARK    1  A    between atoms: C3_3  and  C10_10 
REMARK    2  A    between atoms: C7_7  and  O11_11 
ROOT
HETATM    1  C1  UNL     1     -31.126   4.462   0.972  1.00 20.00     0.012 C 
HETATM    2  C2  UNL     1     -32.167   5.037   1.140  1.00 20.00    -0.113 C 
HETATM    3  C10 UNL     1     -33.441   5.731   1.338  1.00 20.00     0.127 C 
ENDROOT
BRANCH   3   4
HETATM    4  C3  UNL     1     -33.278   6.820   2.343  1.00 20.00    -0.060 C 
HETATM    5  C4  UNL     1     -34.013   7.052   3.444  1.00 20.00    -0.052 C 
HETATM    6  C7  UNL     1     -33.474   8.208   4.232  1.00 20.00     0.147 C 
HETATM    7  C8  UNL     1     -35.208   6.317   3.950  1.00 20.00     0.046 C 
HETATM    8  C5  UNL     1     -32.510   8.877   3.254  1.00 20.00     0.045 C 
HETATM    9  C6  UNL     1     -32.122   7.785   2.244  1.00 20.00     0.014 C 
HETATM   10  C9  UNL     1     -31.888   8.370   0.856  1.00 20.00     0.015 C 
BRANCH   6  11
HETATM   11  O11 UNL     1     -32.790   7.724   5.376  1.00 20.00    -0.391 OA
HETATM   12  H25 UNL     1     -31.840   7.788   5.186  1.00 20.00     0.210 HD
ENDBRANCH   6  11
ENDBRANCH   3   4
TORSDOF 2
ENDMDL
