MODEL 1
REMARK VINA RESULT:       0.9      0.000      0.000
REMARK  1 active torsions:
REMARK  status: ('A' for Active; 'I' for Inactive)
REMARK    1  A    between atoms: C3_3  and  C6_6 
ROOT
HETATM    1  C1  UNL     1     -32.804   8.354   2.882  1.00 20.00    -0.024 C 
HETATM    2  C2  UNL     1     -32.404   7.302   2.144  1.00 20.00    -0.083 C 
HETATM    3  C4  UNL     1     -33.718   8.266   4.071  1.00 20.00     0.032 C 
HETATM    4  C5  UNL     1     -32.825   5.871   2.464  1.00 20.00     0.021 C 
HETATM    5  C6  UNL     1     -33.507   5.781   3.851  1.00 20.00     0.066 C 
HETATM    6  C7  UNL     1     -34.482   6.933   4.166  1.00 20.00    -0.003 C 
HETATM    7  C8  UNL     1     -31.459   7.492   0.989  1.00 20.00     0.043 C 
HETATM    8  C10 UNL     1     -33.635   5.256   1.313  1.00 20.00     0.015 C 
HETATM    9  C11 UNL     1     -35.742   6.987   3.294  1.00 20.00     0.011 C 
ENDROOT
BRANCH   5  10
HETATM   10  C3  UNL     1     -34.099   4.428   4.130  1.00 20.00     0.128 C 
HETATM   11  C9  UNL     1     -33.165   3.252   4.052  1.00 20.00     0.091 C 
HETATM   12  O12 UNL     1     -35.289   4.289   4.409  1.00 20.00    -0.298 OA
ENDBRANCH   5  10
TORSDOF 1
ENDMDL
MODEL 2
REMARK VINA RESULT:       2.7      2.353      4.183
REMARK  1 active torsions:
REMARK  status: ('A' for Active; 'I' for Inactive)
REMARK    1  A    between atoms: C3_3  and  C6_6 
ROOT
HETATM    1  C1  UNL     1     -34.277   6.487   3.976  1.00 20.00    -0.024 C 
HETATM    2  C2  UNL     1     -33.718   5.760   2.990  1.00 20.00    -0.083 C 
HETATM    3  C4  UNL     1     -34.186   7.982   4.091  1.00 20.00     0.032 C 
HETATM    4  C5  UNL     1     -32.940   6.397   1.843  1.00 20.00     0.021 C 
HETATM    5  C6  UNL     1     -33.121   7.935   1.825  1.00 20.00     0.066 C 
HETATM    6  C7  UNL     1     -33.085   8.604   3.214  1.00 20.00    -0.003 C 
HETATM    7  C8  UNL     1     -33.893   4.266   2.948  1.00 20.00     0.043 C 
HETATM    8  C10 UNL     1     -31.478   5.927   1.829  1.00 20.00     0.015 C 
HETATM    9  C11 UNL     1     -31.736   8.542   3.941  1.00 20.00     0.011 C 
ENDROOT
BRANCH   5  10
HETATM   10  C3  UNL     1     -32.233   8.621   0.827  1.00 20.00     0.128 C 
HETATM   11  C9  UNL     1     -32.669   9.980   0.352  1.00 20.00     0.091 C 
HETATM   12  O12 UNL     1     -31.197   8.097   0.418  1.00 20.00    -0.298 OA
ENDBRANCH   5  10
TORSDOF 1
ENDMDL
MODEL 3
REMARK VINA RESULT:       3.1      1.431      2.825
REMARK  1 active torsions:
REMARK  status: ('A' for Active; 'I' for Inactive)
REMARK    1  A    between atoms: C3_3  and  C6_6 
ROOT
HETATM    1  C1  UNL     1     -31.804   6.586   1.440  1.00 20.00    -0.024 C 
HETATM    2  C2  UNL     1     -32.227   7.632   2.174  1.00 20.00    -0.083 C 
HETATM    3  C4  UNL     1     -32.504   5.260   1.359  1.00 20.00     0.032 C 
HETATM    4  C5  UNL     1     -33.510   7.588   2.997  1.00 20.00     0.021 C 
HETATM    5  C6  UNL     1     -34.356   6.336   2.657  1.00 20.00     0.066 C 
HETATM    6  C7  UNL     1     -33.541   5.039   2.476  1.00 20.00    -0.003 C 
HETATM    7  C8  UNL     1     -31.468   8.931   2.162  1.00 20.00     0.043 C 
HETATM    8  C10 UNL     1     -33.221   7.776   4.493  1.00 20.00     0.015 C 
HETATM    9  C11 UNL     1     -32.849   4.512   3.738  1.00 20.00     0.011 C 
ENDROOT
BRANCH   5  10
HETATM   10  C3  UNL     1     -35.535   6.157   3.570  1.00 20.00     0.128 C 
HETATM   11  C9  UNL     1     -35.381   5.166   4.691  1.00 20.00     0.091 C 
HETATM   12  O12 UNL     1     -36.578   6.791   3.409  1.00 20.00    -0.298 OA
ENDBRANCH   5  10
TORSDOF 1
ENDMDL
MODEL 4
REMARK VINA RESULT:       3.8      2.105      4.304
REMARK  1 active torsions:
REMARK  status: ('A' for Active; 'I' for Inactive)
REMARK    1  A    between atoms: C3_3  and  C6_6 
ROOT
HETATM    1  C1  UNL     1     -33.820   4.280   3.114  1.00 20.00    -0.024 C 
HETATM    2  C2  UNL     1     -34.331   5.322   3.796  1.00 20.00    -0.083 C 
HETATM    3  C4  UNL     1     -32.762   4.390   2.054  1.00 20.00     0.032 C 
HETATM    4  C5  UNL     1     -33.856   6.755   3.578  1.00 20.00     0.021 C 
HETATM    5  C6  UNL     1     -32.572   6.798   2.713  1.00 20.00     0.066 C 
HETATM    6  C7  UNL     1     -32.566   5.821   1.521  1.00 20.00    -0.003 C 
HETATM    7  C8  UNL     1     -35.369   5.103   4.863  1.00 20.00     0.043 C 
HETATM    8  C10 UNL     1     -34.996   7.651   3.073  1.00 20.00     0.015 C 
HETATM    9  C11 UNL     1     -33.593   6.115   0.421  1.00 20.00     0.011 C 
ENDROOT
BRANCH   5  10
HETATM   10  C3  UNL     1     -32.172   8.192   2.323  1.00 20.00     0.128 C 
HETATM   11  C9  UNL     1     -31.598   9.061   3.408  1.00 20.00     0.091 C 
HETATM   12  O12 UNL     1     -32.305   8.603   1.171  1.00 20.00    -0.298 OA
ENDBRANCH   5  10
TORSDOF 1
ENDMDL
MODEL 5
REMARK VINA RESULT:       3.8      1.878      3.868
REMARK  1 active torsions:
REMARK  status: ('A' for Active; 'I' for Inactive)
REMARK    1  A    between atoms: C3_3  and  C6_6 
ROOT
HETATM    1  C1  UNL     1     -35.036   4.860   4.566  1.00 20.00    -0.024 C 
HETATM    2  C2  UNL     1     -34.017   4.093   4.136  1.00 20.00    -0.083 C 
HETATM    3  C4  UNL     1     -35.318   6.254   4.082  1.00 20.00     0.032 C 
HETATM    4  C5  UNL     1     -33.036   4.559   3.065  1.00 20.00     0.021 C 
HETATM    5  C6  UNL     1     -33.527   5.858   2.378  1.00 20.00     0.066 C 
HETATM    6  C7  UNL     1     -34.138   6.901   3.335  1.00 20.00    -0.003 C 
HETATM    7  C8  UNL     1     -33.838   2.695   4.662  1.00 20.00     0.043 C 
HETATM    8  C10 UNL     1     -31.603   4.628   3.611  1.00 20.00     0.015 C 
HETATM    9  C11 UNL     1     -33.162   7.527   4.338  1.00 20.00     0.011 C 
ENDROOT
BRANCH   5  10
HETATM   10  C3  UNL     1     -32.510   6.451   1.446  1.00 20.00     0.128 C 
HETATM   11  C9  UNL     1     -32.333   7.944   1.497  1.00 20.00     0.091 C 
HETATM   12  O12 UNL     1     -31.851   5.750   0.678  1.00 20.00    -0.298 OA
ENDBRANCH   5  10
TORSDOF 1
ENDMDL
MODEL 6
REMARK VINA RESULT:       3.8      2.109      4.337
REMARK  1 active torsions:
REMARK  status: ('A' for Active; 'I' for Inactive)
REMARK    1  A    between atoms: C3_3  and  C6_6 
ROOT
HETATM    1  C1  UNL     1     -33.643   4.324   2.696  1.00 20.00    -0.024 C 
HETATM    2  C2  UNL     1     -34.080   5.250   3.569  1.00 20.00    -0.083 C 
HETATM    3  C4  UNL     1     -32.672   4.592   1.582  1.00 20.00     0.032 C 
HETATM    4  C5  UNL     1     -33.600   6.698   3.536  1.00 20.00     0.021 C 
HETATM    5  C6  UNL     1     -32.389   6.868   2.586  1.00 20.00     0.066 C 
HETATM    6  C7  UNL     1     -32.496   6.087   1.261  1.00 20.00    -0.003 C 
HETATM    7  C8  UNL     1     -35.033   4.873   4.672  1.00 20.00     0.043 C 
HETATM    8  C10 UNL     1     -34.762   7.666   3.270  1.00 20.00     0.015 C 
HETATM    9  C11 UNL     1     -33.602   6.553   0.307  1.00 20.00     0.011 C 
ENDROOT
BRANCH   5  10
HETATM   10  C3  UNL     1     -31.998   8.304   2.383  1.00 20.00     0.128 C 
HETATM   11  C9  UNL     1     -32.180   8.867   1.000  1.00 20.00     0.091 C 
HETATM   12  O12 UNL     1     -31.550   8.987   3.304  1.00 20.00    -0.298 OA
ENDBRANCH   5  10
TORSDOF 1
ENDMDL
