MODEL 1
REMARK VINA RESULT:      -1.5      0.000      0.000
REMARK  1 active torsions:
REMARK  status: ('A' for Active; 'I' for Inactive)
REMARK    1  A    between atoms: C5_5  and  C8_8 
ROOT
HETATM    1  C1  UNL     1     -35.169   5.247   4.243  1.00 20.00    -0.027 C 
HETATM    2  C2  UNL     1     -35.282   6.559   4.004  1.00 20.00    -0.029 C 
HETATM    3  C3  UNL     1     -33.113   4.615   2.901  1.00 20.00    -0.020 C 
HETATM    4  C4  UNL     1     -32.952   5.678   2.086  1.00 20.00    -0.076 C 
HETATM    5  C6  UNL     1     -33.873   4.498   4.193  1.00 20.00     0.054 C 
HETATM    6  C7  UNL     1     -34.101   7.416   3.684  1.00 20.00     0.043 C 
HETATM    7  C8  UNL     1     -33.460   7.092   2.328  1.00 20.00     0.086 C 
HETATM    8  C9  UNL     1     -32.241   5.467   0.765  1.00 20.00     0.044 C 
ENDROOT
BRANCH   7   9
HETATM    9  C5  UNL     1     -32.287   8.022   2.181  1.00 20.00     0.131 C 
HETATM   10  C10 UNL     1     -32.242   8.864   0.935  1.00 20.00     0.091 C 
HETATM   11  O11 UNL     1     -31.410   8.093   3.040  1.00 20.00    -0.298 OA
ENDBRANCH   7   9
TORSDOF 1
ENDMDL
MODEL 2
REMARK VINA RESULT:      -1.0      0.763      1.004
REMARK  1 active torsions:
REMARK  status: ('A' for Active; 'I' for Inactive)
REMARK    1  A    between atoms: C5_5  and  C8_8 
ROOT
HETATM    1  C1  UNL     1     -35.242   5.152   4.240  1.00 20.00    -0.027 C 
HETATM    2  C2  UNL     1     -35.361   6.464   4.002  1.00 20.00    -0.029 C 
HETATM    3  C3  UNL     1     -33.141   4.544   2.957  1.00 20.00    -0.020 C 
HETATM    4  C4  UNL     1     -32.966   5.612   2.152  1.00 20.00    -0.076 C 
HETATM    5  C6  UNL     1     -33.938   4.415   4.226  1.00 20.00     0.054 C 
HETATM    6  C7  UNL     1     -34.179   7.333   3.720  1.00 20.00     0.043 C 
HETATM    7  C8  UNL     1     -33.495   7.020   2.382  1.00 20.00     0.086 C 
HETATM    8  C9  UNL     1     -32.214   5.413   0.852  1.00 20.00     0.044 C 
ENDROOT
BRANCH   7   9
HETATM    9  C5  UNL     1     -32.328   7.962   2.274  1.00 20.00     0.131 C 
HETATM   10  C10 UNL     1     -31.761   8.489   3.565  1.00 20.00     0.091 C 
HETATM   11  O11 UNL     1     -31.857   8.283   1.184  1.00 20.00    -0.298 OA
ENDBRANCH   7   9
TORSDOF 1
ENDMDL
MODEL 3
REMARK VINA RESULT:      -0.8      1.933      4.316
REMARK  1 active torsions:
REMARK  status: ('A' for Active; 'I' for Inactive)
REMARK    1  A    between atoms: C5_5  and  C8_8 
ROOT
HETATM    1  C1  UNL     1     -31.996   7.238   1.443  1.00 20.00    -0.027 C 
HETATM    2  C2  UNL     1     -32.118   5.916   1.278  1.00 20.00    -0.029 C 
HETATM    3  C3  UNL     1     -33.554   7.700   3.390  1.00 20.00    -0.020 C 
HETATM    4  C4  UNL     1     -34.290   6.572   3.455  1.00 20.00    -0.076 C 
HETATM    5  C6  UNL     1     -32.216   7.941   2.748  1.00 20.00     0.054 C 
HETATM    6  C7  UNL     1     -32.467   5.001   2.406  1.00 20.00     0.043 C 
HETATM    7  C8  UNL     1     -33.893   5.197   2.935  1.00 20.00     0.086 C 
HETATM    8  C9  UNL     1     -35.679   6.656   4.053  1.00 20.00     0.044 C 
ENDROOT
BRANCH   7   9
HETATM    9  C5  UNL     1     -34.062   4.223   4.068  1.00 20.00     0.131 C 
HETATM   10  C10 UNL     1     -32.954   3.226   4.274  1.00 20.00     0.091 C 
HETATM   11  O11 UNL     1     -35.056   4.242   4.792  1.00 20.00    -0.298 OA
ENDBRANCH   7   9
TORSDOF 1
ENDMDL
MODEL 4
REMARK VINA RESULT:       0.4      1.885      3.618
REMARK  1 active torsions:
REMARK  status: ('A' for Active; 'I' for Inactive)
REMARK    1  A    between atoms: C5_5  and  C8_8 
ROOT
HETATM    1  C1  UNL     1     -31.765   7.642   1.878  1.00 20.00    -0.027 C 
HETATM    2  C2  UNL     1     -32.519   8.203   2.831  1.00 20.00    -0.029 C 
HETATM    3  C3  UNL     1     -32.620   5.256   1.827  1.00 20.00    -0.020 C 
HETATM    4  C4  UNL     1     -33.316   5.165   2.980  1.00 20.00    -0.076 C 
HETATM    5  C6  UNL     1     -32.199   6.472   1.050  1.00 20.00     0.054 C 
HETATM    6  C7  UNL     1     -33.898   7.720   3.143  1.00 20.00     0.043 C 
HETATM    7  C8  UNL     1     -33.928   6.317   3.764  1.00 20.00     0.086 C 
HETATM    8  C9  UNL     1     -33.478   3.798   3.613  1.00 20.00     0.044 C 
ENDROOT
BRANCH   7   9
HETATM    9  C5  UNL     1     -35.378   5.986   3.989  1.00 20.00     0.131 C 
HETATM   10  C10 UNL     1     -36.383   6.757   3.178  1.00 20.00     0.091 C 
HETATM   11  O11 UNL     1     -35.724   5.124   4.795  1.00 20.00    -0.298 OA
ENDBRANCH   7   9
TORSDOF 1
ENDMDL
MODEL 5
REMARK VINA RESULT:       0.4      1.361      2.719
REMARK  1 active torsions:
REMARK  status: ('A' for Active; 'I' for Inactive)
REMARK    1  A    between atoms: C5_5  and  C8_8 
ROOT
HETATM    1  C1  UNL     1     -34.084   5.424   3.194  1.00 20.00    -0.027 C 
HETATM    2  C2  UNL     1     -33.349   5.308   2.082  1.00 20.00    -0.029 C 
HETATM    3  C3  UNL     1     -33.581   7.793   3.945  1.00 20.00    -0.020 C 
HETATM    4  C4  UNL     1     -32.485   8.107   3.224  1.00 20.00    -0.076 C 
HETATM    5  C6  UNL     1     -34.614   6.726   3.713  1.00 20.00     0.054 C 
HETATM    6  C7  UNL     1     -33.006   6.484   1.227  1.00 20.00     0.043 C 
HETATM    7  C8  UNL     1     -32.054   7.478   1.906  1.00 20.00     0.086 C 
HETATM    8  C9  UNL     1     -31.539   9.153   3.776  1.00 20.00     0.044 C 
ENDROOT
BRANCH   7   9
HETATM    9  C5  UNL     1     -31.838   8.596   0.924  1.00 20.00     0.131 C 
HETATM   10  C10 UNL     1     -32.889   9.672   0.881  1.00 20.00     0.091 C 
HETATM   11  O11 UNL     1     -30.849   8.630   0.194  1.00 20.00    -0.298 OA
ENDBRANCH   7   9
TORSDOF 1
ENDMDL
MODEL 6
REMARK VINA RESULT:       0.8      1.331      2.765
REMARK  1 active torsions:
REMARK  status: ('A' for Active; 'I' for Inactive)
REMARK    1  A    between atoms: C5_5  and  C8_8 
ROOT
HETATM    1  C1  UNL     1     -35.078   5.172   4.831  1.00 20.00    -0.027 C 
HETATM    2  C2  UNL     1     -34.252   4.228   4.364  1.00 20.00    -0.029 C 
HETATM    3  C3  UNL     1     -34.491   7.180   3.399  1.00 20.00    -0.020 C 
HETATM    4  C4  UNL     1     -33.314   6.818   2.848  1.00 20.00    -0.076 C 
HETATM    5  C6  UNL     1     -35.566   6.332   4.017  1.00 20.00     0.054 C 
HETATM    6  C7  UNL     1     -33.753   4.232   2.956  1.00 20.00     0.043 C 
HETATM    7  C8  UNL     1     -32.805   5.398   2.646  1.00 20.00     0.086 C 
HETATM    8  C9  UNL     1     -32.355   7.911   2.422  1.00 20.00     0.044 C 
ENDROOT
BRANCH   7   9
HETATM    9  C5  UNL     1     -32.423   5.259   1.198  1.00 20.00     0.131 C 
HETATM   10  C10 UNL     1     -33.544   5.301   0.195  1.00 20.00     0.091 C 
HETATM   11  O11 UNL     1     -31.251   5.122   0.850  1.00 20.00    -0.298 OA
ENDBRANCH   7   9
TORSDOF 1
ENDMDL
MODEL 7
REMARK VINA RESULT:       1.0      1.394      2.673
REMARK  1 active torsions:
REMARK  status: ('A' for Active; 'I' for Inactive)
REMARK    1  A    between atoms: C5_5  and  C8_8 
ROOT
HETATM    1  C1  UNL     1     -34.531   4.071   4.800  1.00 20.00    -0.027 C 
HETATM    2  C2  UNL     1     -33.440   3.861   4.054  1.00 20.00    -0.029 C 
HETATM    3  C3  UNL     1     -35.131   6.471   4.241  1.00 20.00    -0.020 C 
HETATM    4  C4  UNL     1     -34.009   6.926   3.646  1.00 20.00    -0.076 C 
HETATM    5  C6  UNL     1     -35.603   5.059   4.454  1.00 20.00     0.054 C 
HETATM    6  C7  UNL     1     -33.201   4.587   2.770  1.00 20.00     0.043 C 
HETATM    7  C8  UNL     1     -32.942   6.088   2.956  1.00 20.00     0.086 C 
HETATM    8  C9  UNL     1     -33.724   8.413   3.698  1.00 20.00     0.044 C 
ENDROOT
BRANCH   7   9
HETATM    9  C5  UNL     1     -32.747   6.657   1.577  1.00 20.00     0.131 C 
HETATM   10  C10 UNL     1     -31.800   7.819   1.452  1.00 20.00     0.091 C 
HETATM   11  O11 UNL     1     -33.332   6.193   0.600  1.00 20.00    -0.298 OA
ENDBRANCH   7   9
TORSDOF 1
ENDMDL
MODEL 8
REMARK VINA RESULT:       1.0      1.450      2.885
REMARK  1 active torsions:
REMARK  status: ('A' for Active; 'I' for Inactive)
REMARK    1  A    between atoms: C5_5  and  C8_8 
ROOT
HETATM    1  C1  UNL     1     -35.013   5.186   4.835  1.00 20.00    -0.027 C 
HETATM    2  C2  UNL     1     -34.242   4.227   4.308  1.00 20.00    -0.029 C 
HETATM    3  C3  UNL     1     -34.432   7.206   3.418  1.00 20.00    -0.020 C 
HETATM    4  C4  UNL     1     -33.296   6.819   2.801  1.00 20.00    -0.076 C 
HETATM    5  C6  UNL     1     -35.503   6.378   4.072  1.00 20.00     0.054 C 
HETATM    6  C7  UNL     1     -33.813   4.246   2.878  1.00 20.00     0.043 C 
HETATM    7  C8  UNL     1     -32.844   5.388   2.545  1.00 20.00     0.086 C 
HETATM    8  C9  UNL     1     -32.325   7.890   2.351  1.00 20.00     0.044 C 
ENDROOT
BRANCH   7   9
HETATM    9  C5  UNL     1     -32.539   5.270   1.077  1.00 20.00     0.131 C 
HETATM   10  C10 UNL     1     -31.206   4.678   0.708  1.00 20.00     0.091 C 
HETATM   11  O11 UNL     1     -33.342   5.637   0.220  1.00 20.00    -0.298 OA
ENDBRANCH   7   9
TORSDOF 1
ENDMDL
