MODEL 1
REMARK VINA RESULT:      -1.3      0.000      0.000
REMARK  1 active torsions:
REMARK  status: ('A' for Active; 'I' for Inactive)
REMARK    1  A    between atoms: C1_1  and  C3_3 
ROOT
HETATM    1  C2  UNL     1     -32.818   8.085   3.305  1.00 20.00     0.080 C 
HETATM    2  C3  UNL     1     -33.077   6.562   3.257  1.00 20.00     0.310 C 
HETATM    3  C4  UNL     1     -32.135   7.878   1.934  1.00 20.00     0.222 C 
HETATM    4  C5  UNL     1     -32.426   8.921   0.873  1.00 20.00     0.043 C 
HETATM    5  C6  UNL     1     -32.190   5.557   1.235  1.00 20.00     0.311 C 
HETATM    6  N7  UNL     1     -32.977   6.661   1.774  1.00 20.00     0.101 N 
ENDROOT
BRANCH   2   7
HETATM    7  C1  UNL     1     -34.453   6.036   3.672  1.00 20.00     0.252 C 
HETATM    8  O8  UNL     1     -35.455   6.746   3.631  1.00 20.00    -0.277 OA
HETATM    9 CL9  UNL     1     -34.393   4.377   4.183  1.00 20.00    -0.042 Cl
ENDBRANCH   2   7
TORSDOF 1
ENDMDL
MODEL 2
REMARK VINA RESULT:      -0.5      2.395      3.586
REMARK  1 active torsions:
REMARK  status: ('A' for Active; 'I' for Inactive)
REMARK    1  A    between atoms: C1_1  and  C3_3 
ROOT
HETATM    1  C2  UNL     1     -34.877   5.401   4.373  1.00 20.00     0.080 C 
HETATM    2  C3  UNL     1     -34.243   6.331   3.313  1.00 20.00     0.310 C 
HETATM    3  C4  UNL     1     -34.143   4.266   3.624  1.00 20.00     0.222 C 
HETATM    4  C5  UNL     1     -33.469   3.217   4.485  1.00 20.00     0.043 C 
HETATM    5  C6  UNL     1     -32.886   5.098   1.724  1.00 20.00     0.311 C 
HETATM    6  N7  UNL     1     -33.185   5.297   3.139  1.00 20.00     0.101 N 
ENDROOT
BRANCH   2   7
HETATM    7  C1  UNL     1     -33.632   7.658   3.769  1.00 20.00     0.252 C 
HETATM    8  O8  UNL     1     -33.947   8.182   4.834  1.00 20.00    -0.277 OA
HETATM    9 CL9  UNL     1     -32.489   8.281   2.620  1.00 20.00    -0.042 Cl
ENDBRANCH   2   7
TORSDOF 1
ENDMDL
MODEL 3
REMARK VINA RESULT:      -0.2      2.672      3.623
REMARK  1 active torsions:
REMARK  status: ('A' for Active; 'I' for Inactive)
REMARK    1  A    between atoms: C1_1  and  C3_3 
ROOT
HETATM    1  C2  UNL     1     -34.173   6.923   3.686  1.00 20.00     0.080 C 
HETATM    2  C3  UNL     1     -33.470   7.279   2.356  1.00 20.00     0.310 C 
HETATM    3  C4  UNL     1     -34.174   5.475   3.145  1.00 20.00     0.222 C 
HETATM    4  C5  UNL     1     -33.822   4.386   4.139  1.00 20.00     0.043 C 
HETATM    5  C6  UNL     1     -33.156   5.328   0.949  1.00 20.00     0.311 C 
HETATM    6  N7  UNL     1     -33.012   5.863   2.299  1.00 20.00     0.101 N 
ENDROOT
BRANCH   2   7
HETATM    7  C1  UNL     1     -32.274   8.233   2.388  1.00 20.00     0.252 C 
HETATM    8  O8  UNL     1     -31.629   8.426   3.415  1.00 20.00    -0.277 OA
HETATM    9 CL9  UNL     1     -31.979   8.964   0.840  1.00 20.00    -0.042 Cl
ENDBRANCH   2   7
TORSDOF 1
ENDMDL
MODEL 4
REMARK VINA RESULT:      -0.1      1.576      2.282
REMARK  1 active torsions:
REMARK  status: ('A' for Active; 'I' for Inactive)
REMARK    1  A    between atoms: C1_1  and  C3_3 
ROOT
HETATM    1  C2  UNL     1     -33.382   5.775   1.817  1.00 20.00     0.080 C 
HETATM    2  C3  UNL     1     -34.324   5.916   3.034  1.00 20.00     0.310 C 
HETATM    3  C4  UNL     1     -32.964   7.228   2.139  1.00 20.00     0.222 C 
HETATM    4  C5  UNL     1     -31.483   7.538   2.048  1.00 20.00     0.043 C 
HETATM    5  C6  UNL     1     -34.153   8.107   4.060  1.00 20.00     0.311 C 
HETATM    6  N7  UNL     1     -33.401   6.971   3.539  1.00 20.00     0.101 N 
ENDROOT
BRANCH   2   7
HETATM    7  C1  UNL     1     -34.417   4.758   4.031  1.00 20.00     0.252 C 
HETATM    8  O8  UNL     1     -35.380   4.629   4.782  1.00 20.00    -0.277 OA
HETATM    9 CL9  UNL     1     -33.035   3.709   3.947  1.00 20.00    -0.042 Cl
ENDBRANCH   2   7
TORSDOF 1
ENDMDL
MODEL 5
REMARK VINA RESULT:      -0.1      1.400      2.410
REMARK  1 active torsions:
REMARK  status: ('A' for Active; 'I' for Inactive)
REMARK    1  A    between atoms: C1_1  and  C3_3 
ROOT
HETATM    1  C2  UNL     1     -33.696   5.420   1.851  1.00 20.00     0.080 C 
HETATM    2  C3  UNL     1     -33.780   6.869   2.383  1.00 20.00     0.310 C 
HETATM    3  C4  UNL     1     -32.383   5.885   1.179  1.00 20.00     0.222 C 
HETATM    4  C5  UNL     1     -31.216   4.920   1.244  1.00 20.00     0.043 C 
HETATM    5  C6  UNL     1     -31.906   8.217   1.638  1.00 20.00     0.311 C 
HETATM    6  N7  UNL     1     -32.301   6.941   2.225  1.00 20.00     0.101 N 
ENDROOT
BRANCH   2   7
HETATM    7  C1  UNL     1     -34.179   7.095   3.843  1.00 20.00     0.252 C 
HETATM    8  O8  UNL     1     -33.633   7.950   4.536  1.00 20.00    -0.277 OA
HETATM    9 CL9  UNL     1     -35.449   6.023   4.348  1.00 20.00    -0.042 Cl
ENDBRANCH   2   7
TORSDOF 1
ENDMDL
MODEL 6
REMARK VINA RESULT:       0.2      2.906      4.002
REMARK  1 active torsions:
REMARK  status: ('A' for Active; 'I' for Inactive)
REMARK    1  A    between atoms: C1_1  and  C3_3 
ROOT
HETATM    1  C2  UNL     1     -33.162   6.418   1.907  1.00 20.00     0.080 C 
HETATM    2  C3  UNL     1     -32.299   7.661   2.221  1.00 20.00     0.310 C 
HETATM    3  C4  UNL     1     -33.637   6.540   3.373  1.00 20.00     0.222 C 
HETATM    4  C5  UNL     1     -35.117   6.330   3.622  1.00 20.00     0.043 C 
HETATM    5  C6  UNL     1     -32.588   8.407   4.512  1.00 20.00     0.311 C 
HETATM    6  N7  UNL     1     -33.277   7.983   3.298  1.00 20.00     0.101 N 
ENDROOT
BRANCH   2   7
HETATM    7  C1  UNL     1     -32.235   8.792   1.193  1.00 20.00     0.252 C 
HETATM    8  O8  UNL     1     -32.960   9.781   1.275  1.00 20.00    -0.277 OA
HETATM    9 CL9  UNL     1     -31.052   8.489  -0.042  1.00 20.00    -0.042 Cl
ENDBRANCH   2   7
TORSDOF 1
ENDMDL
MODEL 7
REMARK VINA RESULT:       0.3      3.057      4.100
REMARK  1 active torsions:
REMARK  status: ('A' for Active; 'I' for Inactive)
REMARK    1  A    between atoms: C1_1  and  C3_3 
ROOT
HETATM    1  C2  UNL     1     -33.103   6.416   1.858  1.00 20.00     0.080 C 
HETATM    2  C3  UNL     1     -32.162   7.611   2.134  1.00 20.00     0.310 C 
HETATM    3  C4  UNL     1     -33.590   6.634   3.309  1.00 20.00     0.222 C 
HETATM    4  C5  UNL     1     -35.084   6.534   3.540  1.00 20.00     0.043 C 
HETATM    5  C6  UNL     1     -32.433   8.473   4.386  1.00 20.00     0.311 C 
HETATM    6  N7  UNL     1     -33.132   8.045   3.178  1.00 20.00     0.101 N 
ENDROOT
BRANCH   2   7
HETATM    7  C1  UNL     1     -32.007   8.689   1.060  1.00 20.00     0.252 C 
HETATM    8  O8  UNL     1     -31.183   8.584   0.155  1.00 20.00    -0.277 OA
HETATM    9 CL9  UNL     1     -33.107  10.012   1.295  1.00 20.00    -0.042 Cl
ENDBRANCH   2   7
TORSDOF 1
ENDMDL
MODEL 8
REMARK VINA RESULT:       0.5      3.228      4.138
REMARK  1 active torsions:
REMARK  status: ('A' for Active; 'I' for Inactive)
REMARK    1  A    between atoms: C1_1  and  C3_3 
ROOT
HETATM    1  C2  UNL     1     -31.297   7.474   0.949  1.00 20.00     0.080 C 
HETATM    2  C3  UNL     1     -31.969   8.666   1.669  1.00 20.00     0.310 C 
HETATM    3  C4  UNL     1     -32.120   6.595   1.918  1.00 20.00     0.222 C 
HETATM    4  C5  UNL     1     -32.770   5.362   1.321  1.00 20.00     0.043 C 
HETATM    5  C6  UNL     1     -33.474   7.929   3.424  1.00 20.00     0.311 C 
HETATM    6  N7  UNL     1     -33.072   7.733   2.034  1.00 20.00     0.101 N 
ENDROOT
BRANCH   2   7
HETATM    7  C1  UNL     1     -32.501   9.829   0.829  1.00 20.00     0.252 C 
HETATM    8  O8  UNL     1     -32.760  10.921   1.329  1.00 20.00    -0.277 OA
HETATM    9 CL9  UNL     1     -32.675   9.402  -0.845  1.00 20.00    -0.042 Cl
ENDBRANCH   2   7
TORSDOF 1
ENDMDL
MODEL 9
REMARK VINA RESULT:       0.5      2.314      3.190
REMARK  1 active torsions:
REMARK  status: ('A' for Active; 'I' for Inactive)
REMARK    1  A    between atoms: C1_1  and  C3_3 
ROOT
HETATM    1  C2  UNL     1     -32.756   8.079   2.608  1.00 20.00     0.080 C 
HETATM    2  C3  UNL     1     -33.526   6.840   2.096  1.00 20.00     0.310 C 
HETATM    3  C4  UNL     1     -33.655   7.955   3.860  1.00 20.00     0.222 C 
HETATM    4  C5  UNL     1     -32.976   8.159   5.199  1.00 20.00     0.043 C 
HETATM    5  C6  UNL     1     -35.201   6.095   3.685  1.00 20.00     0.311 C 
HETATM    6  N7  UNL     1     -33.813   6.514   3.521  1.00 20.00     0.101 N 
ENDROOT
BRANCH   2   7
HETATM    7  C1  UNL     1     -32.740   5.708   1.430  1.00 20.00     0.252 C 
HETATM    8  O8  UNL     1     -31.582   5.451   1.750  1.00 20.00    -0.277 OA
HETATM    9 CL9  UNL     1     -33.676   4.884   0.221  1.00 20.00    -0.042 Cl
ENDBRANCH   2   7
TORSDOF 1
ENDMDL
