MODEL 1
REMARK VINA RESULT:      -2.3      0.000      0.000
REMARK  3 active torsions:
REMARK  status: ('A' for Active; 'I' for Inactive)
REMARK    1  A    between atoms: C3_3  and  C8_8 
REMARK    2  A    between atoms: C7_7  and  C8_8 
REMARK    3  A    between atoms: C8_8  and  C9_9 
ROOT
HETATM    1  C1  UNL     1     -33.001   2.890   5.155  1.00 20.00     0.012 C 
HETATM    2  C2  UNL     1     -33.434   3.577   4.271  1.00 20.00    -0.117 C 
HETATM    3  C7  UNL     1     -33.967   4.419   3.186  1.00 20.00     0.105 C 
ENDROOT
BRANCH   3   4
HETATM    4  C8  UNL     1     -33.334   5.823   3.196  1.00 20.00     0.069 C 
BRANCH   4   5
HETATM    5  C3  UNL     1     -32.693   6.149   1.841  1.00 20.00     0.128 C 
HETATM    6  C4  UNL     1     -32.069   7.514   1.696  1.00 20.00     0.091 C 
HETATM    7  O10 UNL     1     -32.693   5.353   0.902  1.00 20.00    -0.298 OA
ENDBRANCH   4   5
BRANCH   4   8
HETATM    8  C9  UNL     1     -34.315   6.961   3.588  1.00 20.00    -0.011 C 
HETATM    9  C5  UNL     1     -35.710   6.463   3.977  1.00 20.00     0.010 C 
HETATM   10  C6  UNL     1     -33.742   7.827   4.715  1.00 20.00     0.010 C 
ENDBRANCH   4   8
ENDBRANCH   3   4
TORSDOF 3
ENDMDL
MODEL 2
REMARK VINA RESULT:      -2.3      2.000      4.083
REMARK  3 active torsions:
REMARK  status: ('A' for Active; 'I' for Inactive)
REMARK    1  A    between atoms: C3_3  and  C8_8 
REMARK    2  A    between atoms: C7_7  and  C8_8 
REMARK    3  A    between atoms: C8_8  and  C9_9 
ROOT
HETATM    1  C1  UNL     1     -32.468   9.865  -0.046  1.00 20.00     0.012 C 
HETATM    2  C2  UNL     1     -32.286   9.132   0.887  1.00 20.00    -0.117 C 
HETATM    3  C7  UNL     1     -32.060   8.234   2.033  1.00 20.00     0.105 C 
ENDROOT
BRANCH   3   4
HETATM    4  C8  UNL     1     -33.159   7.159   2.135  1.00 20.00     0.069 C 
BRANCH   4   5
HETATM    5  C3  UNL     1     -32.710   5.848   1.476  1.00 20.00     0.128 C 
HETATM    6  C4  UNL     1     -33.641   5.249   0.453  1.00 20.00     0.091 C 
HETATM    7  O10 UNL     1     -31.651   5.291   1.768  1.00 20.00    -0.298 OA
ENDBRANCH   4   5
BRANCH   4   8
HETATM    8  C9  UNL     1     -33.636   6.870   3.583  1.00 20.00    -0.011 C 
HETATM    9  C5  UNL     1     -33.498   8.069   4.526  1.00 20.00     0.010 C 
HETATM   10  C6  UNL     1     -35.081   6.360   3.603  1.00 20.00     0.010 C 
ENDBRANCH   4   8
ENDBRANCH   3   4
TORSDOF 3
ENDMDL
MODEL 3
REMARK VINA RESULT:      -1.9      1.933      3.882
REMARK  3 active torsions:
REMARK  status: ('A' for Active; 'I' for Inactive)
REMARK    1  A    between atoms: C3_3  and  C8_8 
REMARK    2  A    between atoms: C7_7  and  C8_8 
REMARK    3  A    between atoms: C8_8  and  C9_9 
ROOT
HETATM    1  C1  UNL     1     -32.418   9.885   0.116  1.00 20.00     0.012 C 
HETATM    2  C2  UNL     1     -32.267   9.068   0.983  1.00 20.00    -0.117 C 
HETATM    3  C7  UNL     1     -32.077   8.068   2.047  1.00 20.00     0.105 C 
ENDROOT
BRANCH   3   4
HETATM    4  C8  UNL     1     -33.344   7.217   2.256  1.00 20.00     0.069 C 
BRANCH   4   5
HETATM    5  C3  UNL     1     -33.011   5.720   2.243  1.00 20.00     0.128 C 
HETATM    6  C4  UNL     1     -32.169   5.221   1.095  1.00 20.00     0.091 C 
HETATM    7  O10 UNL     1     -33.415   4.945   3.111  1.00 20.00    -0.298 OA
ENDBRANCH   4   5
BRANCH   4   8
HETATM    8  C9  UNL     1     -34.135   7.557   3.548  1.00 20.00    -0.011 C 
HETATM    9  C5  UNL     1     -35.123   6.465   3.967  1.00 20.00     0.010 C 
HETATM   10  C6  UNL     1     -33.191   7.876   4.712  1.00 20.00     0.010 C 
ENDBRANCH   4   8
ENDBRANCH   3   4
TORSDOF 3
ENDMDL
MODEL 4
REMARK VINA RESULT:      -1.4      1.002      1.579
REMARK  3 active torsions:
REMARK  status: ('A' for Active; 'I' for Inactive)
REMARK    1  A    between atoms: C3_3  and  C8_8 
REMARK    2  A    between atoms: C7_7  and  C8_8 
REMARK    3  A    between atoms: C8_8  and  C9_9 
ROOT
HETATM    1  C1  UNL     1     -33.239   2.877   4.762  1.00 20.00     0.012 C 
HETATM    2  C2  UNL     1     -33.703   3.829   4.197  1.00 20.00    -0.117 C 
HETATM    3  C7  UNL     1     -34.276   4.997   3.505  1.00 20.00     0.105 C 
ENDROOT
BRANCH   3   4
HETATM    4  C8  UNL     1     -33.178   5.873   2.874  1.00 20.00     0.069 C 
BRANCH   4   5
HETATM    5  C3  UNL     1     -32.907   5.457   1.422  1.00 20.00     0.128 C 
HETATM    6  C4  UNL     1     -31.555   4.855   1.131  1.00 20.00     0.091 C 
HETATM    7  O10 UNL     1     -33.734   5.612   0.524  1.00 20.00    -0.298 OA
ENDBRANCH   4   5
BRANCH   4   8
HETATM    8  C9  UNL     1     -33.471   7.397   2.925  1.00 20.00    -0.011 C 
HETATM    9  C5  UNL     1     -33.903   7.893   4.308  1.00 20.00     0.010 C 
HETATM   10  C6  UNL     1     -32.271   8.213   2.434  1.00 20.00     0.010 C 
ENDBRANCH   4   8
ENDBRANCH   3   4
TORSDOF 3
ENDMDL
MODEL 5
REMARK VINA RESULT:      -1.2      2.330      2.675
REMARK  3 active torsions:
REMARK  status: ('A' for Active; 'I' for Inactive)
REMARK    1  A    between atoms: C3_3  and  C8_8 
REMARK    2  A    between atoms: C7_7  and  C8_8 
REMARK    3  A    between atoms: C8_8  and  C9_9 
ROOT
HETATM    1  C1  UNL     1     -31.283   4.545   0.629  1.00 20.00     0.012 C 
HETATM    2  C2  UNL     1     -32.199   5.204   1.038  1.00 20.00    -0.117 C 
HETATM    3  C7  UNL     1     -33.325   6.011   1.539  1.00 20.00     0.105 C 
ENDROOT
BRANCH   3   4
HETATM    4  C8  UNL     1     -32.895   6.919   2.706  1.00 20.00     0.069 C 
BRANCH   4   5
HETATM    5  C3  UNL     1     -32.067   8.109   2.203  1.00 20.00     0.128 C 
HETATM    6  C4  UNL     1     -32.590   8.834   0.988  1.00 20.00     0.091 C 
HETATM    7  O10 UNL     1     -31.017   8.458   2.742  1.00 20.00    -0.298 OA
ENDBRANCH   4   5
BRANCH   4   8
HETATM    8  C9  UNL     1     -34.071   7.442   3.574  1.00 20.00    -0.011 C 
HETATM    9  C5  UNL     1     -35.135   6.381   3.870  1.00 20.00     0.010 C 
HETATM   10  C6  UNL     1     -33.568   8.051   4.887  1.00 20.00     0.010 C 
ENDBRANCH   4   8
ENDBRANCH   3   4
TORSDOF 3
ENDMDL
MODEL 6
REMARK VINA RESULT:      -1.2      1.520      3.700
REMARK  3 active torsions:
REMARK  status: ('A' for Active; 'I' for Inactive)
REMARK    1  A    between atoms: C3_3  and  C8_8 
REMARK    2  A    between atoms: C7_7  and  C8_8 
REMARK    3  A    between atoms: C8_8  and  C9_9 
ROOT
HETATM    1  C1  UNL     1     -31.755   7.981   1.374  1.00 20.00     0.012 C 
HETATM    2  C2  UNL     1     -32.346   6.970   1.640  1.00 20.00    -0.117 C 
HETATM    3  C7  UNL     1     -33.070   5.729   1.963  1.00 20.00     0.105 C 
ENDROOT
BRANCH   3   4
HETATM    4  C8  UNL     1     -33.507   5.697   3.439  1.00 20.00     0.069 C 
BRANCH   4   5
HETATM    5  C3  UNL     1     -34.397   6.900   3.777  1.00 20.00     0.128 C 
HETATM    6  C4  UNL     1     -33.792   7.967   4.654  1.00 20.00     0.091 C 
HETATM    7  O10 UNL     1     -35.556   6.999   3.373  1.00 20.00    -0.298 OA
ENDBRANCH   4   5
BRANCH   4   8
HETATM    8  C9  UNL     1     -34.228   4.389   3.863  1.00 20.00    -0.011 C 
HETATM    9  C5  UNL     1     -33.284   3.323   4.426  1.00 20.00     0.010 C 
HETATM   10  C6  UNL     1     -35.349   4.671   4.868  1.00 20.00     0.010 C 
ENDBRANCH   4   8
ENDBRANCH   3   4
TORSDOF 3
ENDMDL
MODEL 7
REMARK VINA RESULT:      -1.0      2.124      3.183
REMARK  3 active torsions:
REMARK  status: ('A' for Active; 'I' for Inactive)
REMARK    1  A    between atoms: C3_3  and  C8_8 
REMARK    2  A    between atoms: C7_7  and  C8_8 
REMARK    3  A    between atoms: C8_8  and  C9_9 
ROOT
HETATM    1  C1  UNL     1     -35.427   5.450   4.303  1.00 20.00     0.012 C 
HETATM    2  C2  UNL     1     -34.682   6.335   3.984  1.00 20.00    -0.117 C 
HETATM    3  C7  UNL     1     -33.769   7.424   3.595  1.00 20.00     0.105 C 
ENDROOT
BRANCH   3   4
HETATM    4  C8  UNL     1     -33.327   7.293   2.125  1.00 20.00     0.069 C 
BRANCH   4   5
HETATM    5  C3  UNL     1     -32.111   8.181   1.834  1.00 20.00     0.128 C 
HETATM    6  C4  UNL     1     -32.102   8.909   0.513  1.00 20.00     0.091 C 
HETATM    7  O10 UNL     1     -31.171   8.295   2.622  1.00 20.00    -0.298 OA
ENDBRANCH   4   5
BRANCH   4   8
HETATM    8  C9  UNL     1     -33.020   5.838   1.679  1.00 20.00    -0.011 C 
HETATM    9  C5  UNL     1     -33.677   5.453   0.350  1.00 20.00     0.010 C 
HETATM   10  C6  UNL     1     -31.511   5.585   1.603  1.00 20.00     0.010 C 
ENDBRANCH   4   8
ENDBRANCH   3   4
TORSDOF 3
ENDMDL
MODEL 8
REMARK VINA RESULT:      -0.5      1.814      2.917
REMARK  3 active torsions:
REMARK  status: ('A' for Active; 'I' for Inactive)
REMARK    1  A    between atoms: C3_3  and  C8_8 
REMARK    2  A    between atoms: C7_7  and  C8_8 
REMARK    3  A    between atoms: C8_8  and  C9_9 
ROOT
HETATM    1  C1  UNL     1     -35.316   5.428   4.485  1.00 20.00     0.012 C 
HETATM    2  C2  UNL     1     -34.782   6.257   3.800  1.00 20.00    -0.117 C 
HETATM    3  C7  UNL     1     -34.130   7.277   2.960  1.00 20.00     0.105 C 
ENDROOT
BRANCH   3   4
HETATM    4  C8  UNL     1     -32.734   6.819   2.497  1.00 20.00     0.069 C 
BRANCH   4   5
HETATM    5  C3  UNL     1     -32.838   5.822   1.336  1.00 20.00     0.128 C 
HETATM    6  C4  UNL     1     -31.650   4.921   1.107  1.00 20.00     0.091 C 
HETATM    7  O10 UNL     1     -33.828   5.756   0.608  1.00 20.00    -0.298 OA
ENDBRANCH   4   5
BRANCH   4   8
HETATM    8  C9  UNL     1     -31.784   7.979   2.095  1.00 20.00    -0.011 C 
HETATM    9  C5  UNL     1     -32.320   8.843   0.950  1.00 20.00     0.010 C 
HETATM   10  C6  UNL     1     -31.445   8.866   3.297  1.00 20.00     0.010 C 
ENDBRANCH   4   8
ENDBRANCH   3   4
TORSDOF 3
ENDMDL
MODEL 9
REMARK VINA RESULT:      -0.2      2.444      3.937
REMARK  3 active torsions:
REMARK  status: ('A' for Active; 'I' for Inactive)
REMARK    1  A    between atoms: C3_3  and  C8_8 
REMARK    2  A    between atoms: C7_7  and  C8_8 
REMARK    3  A    between atoms: C8_8  and  C9_9 
ROOT
HETATM    1  C1  UNL     1     -33.833   4.680  -0.256  1.00 20.00     0.012 C 
HETATM    2  C2  UNL     1     -33.326   5.185   0.708  1.00 20.00    -0.117 C 
HETATM    3  C7  UNL     1     -32.703   5.803   1.891  1.00 20.00     0.105 C 
ENDROOT
BRANCH   3   4
HETATM    4  C8  UNL     1     -33.300   7.193   2.183  1.00 20.00     0.069 C 
BRANCH   4   5
HETATM    5  C3  UNL     1     -33.897   7.250   3.596  1.00 20.00     0.128 C 
HETATM    6  C4  UNL     1     -35.095   6.373   3.862  1.00 20.00     0.091 C 
HETATM    7  O10 UNL     1     -33.442   7.981   4.476  1.00 20.00    -0.298 OA
ENDBRANCH   4   5
BRANCH   4   8
HETATM    8  C9  UNL     1     -32.302   8.367   1.999  1.00 20.00    -0.011 C 
HETATM    9  C5  UNL     1     -30.838   7.923   1.924  1.00 20.00     0.010 C 
HETATM   10  C6  UNL     1     -32.651   9.208   0.767  1.00 20.00     0.010 C 
ENDBRANCH   4   8
ENDBRANCH   3   4
TORSDOF 3
ENDMDL
