MODEL 1
REMARK VINA RESULT:      -1.1      0.000      0.000
REMARK  2 active torsions:
REMARK  status: ('A' for Active; 'I' for Inactive)
REMARK    1  A    between atoms: C1_1  and  C8_8 
REMARK    2  A    between atoms: C2_2  and  C9_9 
ROOT
HETATM    1  C3  UNL     1     -33.504   5.224   3.374  1.00 20.00     0.082 C 
HETATM    2  C6  UNL     1     -34.388   7.204   4.673  1.00 20.00     0.040 A 
HETATM    3  C7  UNL     1     -35.392   6.888   3.605  1.00 20.00     0.040 A 
HETATM    4  C9  UNL     1     -33.930   6.594   3.370  1.00 20.00     0.112 A 
HETATM    5  N10 UNL     1     -33.160   4.116   3.378  1.00 20.00    -0.195 NA
ENDROOT
BRANCH   4   6
HETATM    6  C2  UNL     1     -33.211   7.424   2.446  1.00 20.00    -0.081 C 
HETATM    7  C1  UNL     1     -32.611   8.120   1.674  1.00 20.00    -0.100 C 
BRANCH   7   8
HETATM    8  C8  UNL     1     -31.879   8.967   0.733  1.00 20.00     0.065 A 
HETATM    9  C4  UNL     1     -32.407  10.336   0.473  1.00 20.00     0.018 A 
HETATM   10  C5  UNL     1     -32.525   9.272  -0.577  1.00 20.00     0.018 A 
ENDBRANCH   7   8
ENDBRANCH   4   6
TORSDOF 2
ENDMDL
MODEL 2
REMARK VINA RESULT:      -0.9      1.537      2.364
REMARK  2 active torsions:
REMARK  status: ('A' for Active; 'I' for Inactive)
REMARK    1  A    between atoms: C1_1  and  C8_8 
REMARK    2  A    between atoms: C2_2  and  C9_9 
ROOT
HETATM    1  C3  UNL     1     -33.778   6.097   3.028  1.00 20.00     0.082 C 
HETATM    2  C6  UNL     1     -32.967   4.939   0.933  1.00 20.00     0.040 A 
HETATM    3  C7  UNL     1     -31.807   5.008   1.881  1.00 20.00     0.040 A 
HETATM    4  C9  UNL     1     -32.869   6.079   1.918  1.00 20.00     0.112 A 
HETATM    5  N10 UNL     1     -34.512   6.111   3.926  1.00 20.00    -0.195 NA
ENDROOT
BRANCH   4   6
HETATM    6  C2  UNL     1     -32.537   7.382   1.417  1.00 20.00    -0.081 C 
HETATM    7  C1  UNL     1     -32.260   8.472   0.997  1.00 20.00    -0.100 C 
BRANCH   7   8
HETATM    8  C8  UNL     1     -31.922   9.800   0.486  1.00 20.00     0.065 A 
HETATM    9  C4  UNL     1     -32.872  10.915   0.762  1.00 20.00     0.018 A 
HETATM   10  C5  UNL     1     -32.754  10.352  -0.623  1.00 20.00     0.018 A 
ENDBRANCH   7   8
ENDBRANCH   4   6
TORSDOF 2
ENDMDL
MODEL 3
REMARK VINA RESULT:      -0.5      1.665      2.013
REMARK  2 active torsions:
REMARK  status: ('A' for Active; 'I' for Inactive)
REMARK    1  A    between atoms: C1_1  and  C8_8 
REMARK    2  A    between atoms: C2_2  and  C9_9 
ROOT
HETATM    1  C3  UNL     1     -33.373   7.850   4.886  1.00 20.00     0.082 C 
HETATM    2  C6  UNL     1     -35.084   6.701   3.421  1.00 20.00     0.040 A 
HETATM    3  C7  UNL     1     -33.902   5.784   3.529  1.00 20.00     0.040 A 
HETATM    4  C9  UNL     1     -33.702   7.278   3.611  1.00 20.00     0.112 A 
HETATM    5  N10 UNL     1     -33.108   8.312   5.916  1.00 20.00    -0.195 NA
ENDROOT
BRANCH   4   6
HETATM    6  C2  UNL     1     -33.084   7.941   2.499  1.00 20.00    -0.081 C 
HETATM    7  C1  UNL     1     -32.568   8.499   1.569  1.00 20.00    -0.100 C 
BRANCH   7   8
HETATM    8  C8  UNL     1     -31.940   9.176   0.436  1.00 20.00     0.065 A 
HETATM    9  C4  UNL     1     -32.243  10.622   0.233  1.00 20.00     0.018 A 
HETATM   10  C5  UNL     1     -32.814   9.594  -0.698  1.00 20.00     0.018 A 
ENDBRANCH   7   8
ENDBRANCH   4   6
TORSDOF 2
ENDMDL
MODEL 4
REMARK VINA RESULT:       0.3      2.277      5.073
REMARK  2 active torsions:
REMARK  status: ('A' for Active; 'I' for Inactive)
REMARK    1  A    between atoms: C1_1  and  C8_8 
REMARK    2  A    between atoms: C2_2  and  C9_9 
ROOT
HETATM    1  C3  UNL     1     -32.689   7.569   2.348  1.00 20.00     0.082 C 
HETATM    2  C6  UNL     1     -34.919   8.040   3.442  1.00 20.00     0.040 A 
HETATM    3  C7  UNL     1     -33.859   8.256   4.480  1.00 20.00     0.040 A 
HETATM    4  C9  UNL     1     -33.635   7.249   3.379  1.00 20.00     0.112 A 
HETATM    5  N10 UNL     1     -31.925   7.828   1.515  1.00 20.00    -0.195 NA
ENDROOT
BRANCH   4   6
HETATM    6  C2  UNL     1     -33.678   5.855   3.715  1.00 20.00    -0.081 C 
HETATM    7  C1  UNL     1     -33.717   4.688   3.998  1.00 20.00    -0.100 C 
BRANCH   7   8
HETATM    8  C8  UNL     1     -33.763   3.268   4.342  1.00 20.00     0.065 A 
HETATM    9  C4  UNL     1     -33.023   2.821   5.557  1.00 20.00     0.018 A 
HETATM   10  C5  UNL     1     -32.509   2.474   4.192  1.00 20.00     0.018 A 
ENDBRANCH   7   8
ENDBRANCH   4   6
TORSDOF 2
ENDMDL
MODEL 5
REMARK VINA RESULT:       0.4      2.493      4.988
REMARK  2 active torsions:
REMARK  status: ('A' for Active; 'I' for Inactive)
REMARK    1  A    between atoms: C1_1  and  C8_8 
REMARK    2  A    between atoms: C2_2  and  C9_9 
ROOT
HETATM    1  C3  UNL     1     -32.512   9.435   0.905  1.00 20.00     0.082 C 
HETATM    2  C6  UNL     1     -30.616   8.160   1.986  1.00 20.00     0.040 A 
HETATM    3  C7  UNL     1     -31.179   7.288   0.904  1.00 20.00     0.040 A 
HETATM    4  C9  UNL     1     -32.077   8.269   1.618  1.00 20.00     0.112 A 
HETATM    5  N10 UNL     1     -32.864  10.377   0.328  1.00 20.00    -0.195 NA
ENDROOT
BRANCH   4   6
HETATM    6  C2  UNL     1     -33.049   7.752   2.538  1.00 20.00    -0.081 C 
HETATM    7  C1  UNL     1     -33.862   7.318   3.308  1.00 20.00    -0.100 C 
BRANCH   7   8
HETATM    8  C8  UNL     1     -34.852   6.791   4.246  1.00 20.00     0.065 A 
HETATM    9  C4  UNL     1     -34.988   5.310   4.355  1.00 20.00     0.018 A 
HETATM   10  C5  UNL     1     -36.057   6.118   3.681  1.00 20.00     0.018 A 
ENDBRANCH   7   8
ENDBRANCH   4   6
TORSDOF 2
ENDMDL
MODEL 6
REMARK VINA RESULT:       0.6      2.699      5.582
REMARK  2 active torsions:
REMARK  status: ('A' for Active; 'I' for Inactive)
REMARK    1  A    between atoms: C1_1  and  C8_8 
REMARK    2  A    between atoms: C2_2  and  C9_9 
ROOT
HETATM    1  C3  UNL     1     -32.440   7.202   1.947  1.00 20.00     0.082 C 
HETATM    2  C6  UNL     1     -32.040   5.217   0.434  1.00 20.00     0.040 A 
HETATM    3  C7  UNL     1     -33.476   5.617   0.273  1.00 20.00     0.040 A 
HETATM    4  C9  UNL     1     -32.775   5.853   1.589  1.00 20.00     0.112 A 
HETATM    5  N10 UNL     1     -32.169   8.292   2.235  1.00 20.00    -0.195 NA
ENDROOT
BRANCH   4   6
HETATM    6  C2  UNL     1     -33.132   5.027   2.706  1.00 20.00    -0.081 C 
HETATM    7  C1  UNL     1     -33.429   4.334   3.640  1.00 20.00    -0.100 C 
BRANCH   7   8
HETATM    8  C8  UNL     1     -33.791   3.490   4.778  1.00 20.00     0.065 A 
HETATM    9  C4  UNL     1     -32.709   3.094   5.725  1.00 20.00     0.018 A 
HETATM   10  C5  UNL     1     -33.298   2.083   4.787  1.00 20.00     0.018 A 
ENDBRANCH   7   8
ENDBRANCH   4   6
TORSDOF 2
ENDMDL
MODEL 7
REMARK VINA RESULT:       0.8      1.170      1.496
REMARK  2 active torsions:
REMARK  status: ('A' for Active; 'I' for Inactive)
REMARK    1  A    between atoms: C1_1  and  C8_8 
REMARK    2  A    between atoms: C2_2  and  C9_9 
ROOT
HETATM    1  C3  UNL     1     -34.000   4.219   4.051  1.00 20.00     0.082 C 
HETATM    2  C6  UNL     1     -35.276   6.070   5.207  1.00 20.00     0.040 A 
HETATM    3  C7  UNL     1     -35.957   5.810   3.897  1.00 20.00     0.040 A 
HETATM    4  C9  UNL     1     -34.472   5.574   4.029  1.00 20.00     0.112 A 
HETATM    5  N10 UNL     1     -33.619   3.124   4.069  1.00 20.00    -0.195 NA
ENDROOT
BRANCH   4   6
HETATM    6  C2  UNL     1     -33.579   6.490   3.382  1.00 20.00    -0.081 C 
HETATM    7  C1  UNL     1     -32.831   7.259   2.842  1.00 20.00    -0.100 C 
BRANCH   7   8
HETATM    8  C8  UNL     1     -31.920   8.195   2.184  1.00 20.00     0.065 A 
HETATM    9  C4  UNL     1     -32.474   9.065   1.107  1.00 20.00     0.018 A 
HETATM   10  C5  UNL     1     -31.556   7.930   0.762  1.00 20.00     0.018 A 
ENDBRANCH   7   8
ENDBRANCH   4   6
TORSDOF 2
ENDMDL
MODEL 8
REMARK VINA RESULT:       1.1      2.853      3.501
REMARK  2 active torsions:
REMARK  status: ('A' for Active; 'I' for Inactive)
REMARK    1  A    between atoms: C1_1  and  C8_8 
REMARK    2  A    between atoms: C2_2  and  C9_9 
ROOT
HETATM    1  C3  UNL     1     -33.870   7.668   4.592  1.00 20.00     0.082 C 
HETATM    2  C6  UNL     1     -35.901   6.641   3.493  1.00 20.00     0.040 A 
HETATM    3  C7  UNL     1     -35.299   5.595   4.381  1.00 20.00     0.040 A 
HETATM    4  C9  UNL     1     -34.413   6.641   3.750  1.00 20.00     0.112 A 
HETATM    5  N10 UNL     1     -33.430   8.498   5.272  1.00 20.00    -0.195 NA
ENDROOT
BRANCH   4   6
HETATM    6  C2  UNL     1     -33.540   6.238   2.686  1.00 20.00    -0.081 C 
HETATM    7  C1  UNL     1     -32.810   5.901   1.793  1.00 20.00    -0.100 C 
BRANCH   7   8
HETATM    8  C8  UNL     1     -31.922   5.491   0.707  1.00 20.00     0.065 A 
HETATM    9  C4  UNL     1     -32.239   4.224  -0.013  1.00 20.00     0.018 A 
HETATM   10  C5  UNL     1     -31.069   4.286   0.922  1.00 20.00     0.018 A 
ENDBRANCH   7   8
ENDBRANCH   4   6
TORSDOF 2
ENDMDL
MODEL 9
REMARK VINA RESULT:       1.2      2.237      4.947
REMARK  2 active torsions:
REMARK  status: ('A' for Active; 'I' for Inactive)
REMARK    1  A    between atoms: C1_1  and  C8_8 
REMARK    2  A    between atoms: C2_2  and  C9_9 
ROOT
HETATM    1  C3  UNL     1     -31.170   8.883  -0.214  1.00 20.00     0.082 C 
HETATM    2  C6  UNL     1     -33.323  10.206  -0.229  1.00 20.00     0.040 A 
HETATM    3  C7  UNL     1     -32.366  10.925   0.673  1.00 20.00     0.040 A 
HETATM    4  C9  UNL     1     -32.274   9.426   0.525  1.00 20.00     0.112 A 
HETATM    5  N10 UNL     1     -30.277   8.445  -0.810  1.00 20.00    -0.195 NA
ENDROOT
BRANCH   4   6
HETATM    6  C2  UNL     1     -32.696   8.608   1.625  1.00 20.00    -0.081 C 
HETATM    7  C1  UNL     1     -33.050   7.921   2.545  1.00 20.00    -0.100 C 
BRANCH   7   8
HETATM    8  C8  UNL     1     -33.482   7.086   3.665  1.00 20.00     0.065 A 
HETATM    9  C4  UNL     1     -34.044   5.741   3.355  1.00 20.00     0.018 A 
HETATM   10  C5  UNL     1     -34.944   6.842   3.829  1.00 20.00     0.018 A 
ENDBRANCH   7   8
ENDBRANCH   4   6
TORSDOF 2
ENDMDL
