MODEL 1
REMARK VINA RESULT:      -0.3      0.000      0.000
REMARK  0 active torsions:
REMARK  status: ('A' for Active; 'I' for Inactive)
ROOT
HETATM    1  C1  UNL     1     -32.081   7.639   1.609  1.00 20.00    -0.039 C 
HETATM    2  C2  UNL     1     -32.478   6.244   1.792  1.00 20.00     0.034 C 
HETATM    3  C3  UNL     1     -34.117   5.248   3.446  1.00 20.00     0.224 C 
HETATM    4  C4  UNL     1     -31.312   8.154   0.642  1.00 20.00     0.021 C 
HETATM    5  C5  UNL     1     -31.901   5.160   1.263  1.00 20.00     0.044 C 
HETATM    6  C6  UNL     1     -32.769   8.455   2.692  1.00 20.00     0.065 C 
HETATM    7  C7  UNL     1     -34.973   5.978   4.468  1.00 20.00     0.105 C 
HETATM    8  C8  UNL     1     -34.395   7.404   4.472  1.00 20.00     0.035 C 
HETATM    9  C9  UNL     1     -33.954   7.572   3.035  1.00 20.00     0.098 C 
HETATM   10  N10 UNL     1     -33.511   6.242   2.691  1.00 20.00    -0.313 N 
HETATM   11  O11 UNL     1     -34.011   4.034   3.365  1.00 20.00    -0.273 OA
ENDROOT
TORSDOF 0
ENDMDL
MODEL 2
REMARK VINA RESULT:       0.0      1.833      4.212
REMARK  0 active torsions:
REMARK  status: ('A' for Active; 'I' for Inactive)
ROOT
HETATM    1  C1  UNL     1     -34.488   5.690   3.836  1.00 20.00    -0.039 C 
HETATM    2  C2  UNL     1     -33.949   7.036   3.649  1.00 20.00     0.034 C 
HETATM    3  C3  UNL     1     -32.207   7.851   2.001  1.00 20.00     0.224 C 
HETATM    4  C4  UNL     1     -35.501   5.312   4.625  1.00 20.00     0.021 C 
HETATM    5  C5  UNL     1     -34.107   8.092   4.455  1.00 20.00     0.044 C 
HETATM    6  C6  UNL     1     -33.732   4.762   2.897  1.00 20.00     0.065 C 
HETATM    7  C7  UNL     1     -31.498   7.052   0.920  1.00 20.00     0.105 C 
HETATM    8  C8  UNL     1     -31.854   5.593   1.255  1.00 20.00     0.035 C 
HETATM    9  C9  UNL     1     -33.243   5.731   1.837  1.00 20.00     0.098 C 
HETATM   10  N10 UNL     1     -33.165   6.996   2.528  1.00 20.00    -0.313 N 
HETATM   11  O11 UNL     1     -31.935   9.001   2.311  1.00 20.00    -0.273 OA
ENDROOT
TORSDOF 0
ENDMDL
MODEL 3
REMARK VINA RESULT:       1.3      1.315      3.464
REMARK  0 active torsions:
REMARK  status: ('A' for Active; 'I' for Inactive)
ROOT
HETATM    1  C1  UNL     1     -34.740   6.090   3.983  1.00 20.00    -0.039 C 
HETATM    2  C2  UNL     1     -33.771   5.334   3.191  1.00 20.00     0.034 C 
HETATM    3  C3  UNL     1     -31.971   6.182   1.625  1.00 20.00     0.224 C 
HETATM    4  C4  UNL     1     -35.593   5.622   4.902  1.00 20.00     0.021 C 
HETATM    5  C5  UNL     1     -33.764   4.017   2.959  1.00 20.00     0.044 C 
HETATM    6  C6  UNL     1     -34.563   7.560   3.638  1.00 20.00     0.065 C 
HETATM    7  C7  UNL     1     -31.603   7.625   1.319  1.00 20.00     0.105 C 
HETATM    8  C8  UNL     1     -32.758   8.432   1.936  1.00 20.00     0.035 C 
HETATM    9  C9  UNL     1     -33.132   7.587   3.132  1.00 20.00     0.098 C 
HETATM   10  N10 UNL     1     -32.908   6.246   2.646  1.00 20.00    -0.313 N 
HETATM   11  O11 UNL     1     -31.515   5.208   1.045  1.00 20.00    -0.273 OA
ENDROOT
TORSDOF 0
ENDMDL
MODEL 4
REMARK VINA RESULT:       1.7      1.605      2.667
REMARK  0 active torsions:
REMARK  status: ('A' for Active; 'I' for Inactive)
ROOT
HETATM    1  C1  UNL     1     -32.385   5.421   1.439  1.00 20.00    -0.039 C 
HETATM    2  C2  UNL     1     -32.575   6.736   2.048  1.00 20.00     0.034 C 
HETATM    3  C3  UNL     1     -34.164   7.434   3.893  1.00 20.00     0.224 C 
HETATM    4  C4  UNL     1     -31.448   5.052   0.558  1.00 20.00     0.021 C 
HETATM    5  C5  UNL     1     -32.096   7.908   1.616  1.00 20.00     0.044 C 
HETATM    6  C6  UNL     1     -33.417   4.484   2.047  1.00 20.00     0.065 C 
HETATM    7  C7  UNL     1     -35.128   6.559   4.677  1.00 20.00     0.105 C 
HETATM    8  C8  UNL     1     -35.133   5.234   3.894  1.00 20.00     0.035 C 
HETATM    9  C9  UNL     1     -33.717   5.172   3.366  1.00 20.00     0.098 C 
HETATM   10  N10 UNL     1     -33.421   6.562   3.111  1.00 20.00    -0.313 N 
HETATM   11  O11 UNL     1     -34.112   8.652   3.966  1.00 20.00    -0.273 OA
ENDROOT
TORSDOF 0
ENDMDL
MODEL 5
REMARK VINA RESULT:       2.1      1.839      3.394
REMARK  0 active torsions:
REMARK  status: ('A' for Active; 'I' for Inactive)
ROOT
HETATM    1  C1  UNL     1     -33.818   5.247   3.342  1.00 20.00    -0.039 C 
HETATM    2  C2  UNL     1     -32.846   5.691   2.345  1.00 20.00     0.034 C 
HETATM    3  C3  UNL     1     -32.241   8.046   1.634  1.00 20.00     0.224 C 
HETATM    4  C4  UNL     1     -34.024   4.003   3.792  1.00 20.00     0.021 C 
HETATM    5  C5  UNL     1     -32.213   4.940   1.438  1.00 20.00     0.044 C 
HETATM    6  C6  UNL     1     -34.535   6.483   3.864  1.00 20.00     0.065 C 
HETATM    7  C7  UNL     1     -32.777   9.356   2.188  1.00 20.00     0.105 C 
HETATM    8  C8  UNL     1     -33.973   8.921   3.052  1.00 20.00     0.035 C 
HETATM    9  C9  UNL     1     -33.521   7.573   3.566  1.00 20.00     0.098 C 
HETATM   10  N10 UNL     1     -32.766   7.054   2.450  1.00 20.00    -0.313 N 
HETATM   11  O11 UNL     1     -31.515   7.947   0.657  1.00 20.00    -0.273 OA
ENDROOT
TORSDOF 0
ENDMDL
MODEL 6
REMARK VINA RESULT:       2.2      1.248      2.134
REMARK  0 active torsions:
REMARK  status: ('A' for Active; 'I' for Inactive)
ROOT
HETATM    1  C1  UNL     1     -32.120   5.486   1.463  1.00 20.00    -0.039 C 
HETATM    2  C2  UNL     1     -33.249   5.174   2.339  1.00 20.00     0.034 C 
HETATM    3  C3  UNL     1     -34.510   6.688   3.930  1.00 20.00     0.224 C 
HETATM    4  C4  UNL     1     -31.557   4.701   0.537  1.00 20.00     0.021 C 
HETATM    5  C5  UNL     1     -33.726   3.963   2.646  1.00 20.00     0.044 C 
HETATM    6  C6  UNL     1     -31.721   6.929   1.731  1.00 20.00     0.065 C 
HETATM    7  C7  UNL     1     -34.301   8.174   4.168  1.00 20.00     0.105 C 
HETATM    8  C8  UNL     1     -32.970   8.472   3.457  1.00 20.00     0.035 C 
HETATM    9  C9  UNL     1     -33.007   7.504   2.296  1.00 20.00     0.098 C 
HETATM   10  N10 UNL     1     -33.679   6.361   2.868  1.00 20.00    -0.313 N 
HETATM   11  O11 UNL     1     -35.256   5.975   4.583  1.00 20.00    -0.273 OA
ENDROOT
TORSDOF 0
ENDMDL
MODEL 7
REMARK VINA RESULT:       2.4      1.284      2.502
REMARK  0 active torsions:
REMARK  status: ('A' for Active; 'I' for Inactive)
ROOT
HETATM    1  C1  UNL     1     -32.422   7.403   1.805  1.00 20.00    -0.039 C 
HETATM    2  C2  UNL     1     -33.467   7.518   2.821  1.00 20.00     0.034 C 
HETATM    3  C3  UNL     1     -34.647   5.691   4.120  1.00 20.00     0.224 C 
HETATM    4  C4  UNL     1     -31.724   8.390   1.230  1.00 20.00     0.021 C 
HETATM    5  C5  UNL     1     -34.178   8.606   3.135  1.00 20.00     0.044 C 
HETATM    6  C6  UNL     1     -32.193   5.921   1.551  1.00 20.00     0.065 C 
HETATM    7  C7  UNL     1     -34.398   4.193   4.061  1.00 20.00     0.105 C 
HETATM    8  C8  UNL     1     -33.490   4.024   2.830  1.00 20.00     0.035 C 
HETATM    9  C9  UNL     1     -32.691   5.308   2.847  1.00 20.00     0.098 C 
HETATM   10  N10 UNL     1     -33.652   6.265   3.341  1.00 20.00    -0.313 N 
HETATM   11  O11 UNL     1     -35.563   6.222   4.729  1.00 20.00    -0.273 OA
ENDROOT
TORSDOF 0
ENDMDL
