MODEL 1
REMARK VINA RESULT:      -1.0      0.000      0.000
REMARK  0 active torsions:
REMARK  status: ('A' for Active; 'I' for Inactive)
ROOT
HETATM    1  C1  UNL     1     -32.848   6.213   1.943  1.00 20.00     0.036 C 
HETATM    2  C2  UNL     1     -33.727   7.534   4.166  1.00 20.00     0.297 C 
HETATM    3  C3  UNL     1     -32.774   7.737   1.907  1.00 20.00     0.263 C 
HETATM    4  C4  UNL     1     -34.593   6.505   3.434  1.00 20.00     0.132 C 
HETATM    5  C5  UNL     1     -31.926   5.382   1.091  1.00 20.00     0.067 C 
HETATM    6  C6  UNL     1     -31.552   8.300   1.190  1.00 20.00     0.049 C 
HETATM    7  C7  UNL     1     -35.404   5.670   4.420  1.00 20.00     0.036 C 
HETATM    8  N8  UNL     1     -33.728   5.598   2.667  1.00 20.00    -0.290 NA
HETATM    9  N9  UNL     1     -32.784   8.229   3.288  1.00 20.00     0.095 N 
HETATM   10  H23 UNL     1     -33.001   9.239   3.287  1.00 20.00     0.316 HD
ENDROOT
TORSDOF 0
ENDMDL
MODEL 2
REMARK VINA RESULT:      -0.5      0.501      3.911
REMARK  0 active torsions:
REMARK  status: ('A' for Active; 'I' for Inactive)
ROOT
HETATM    1  C1  UNL     1     -33.513   7.588   3.747  1.00 20.00     0.036 C 
HETATM    2  C2  UNL     1     -32.521   6.102   1.682  1.00 20.00     0.297 C 
HETATM    3  C3  UNL     1     -34.404   6.465   3.222  1.00 20.00     0.263 C 
HETATM    4  C4  UNL     1     -32.606   7.629   1.619  1.00 20.00     0.132 C 
HETATM    5  C5  UNL     1     -33.661   8.082   5.162  1.00 20.00     0.067 C 
HETATM    6  C6  UNL     1     -35.209   5.736   4.292  1.00 20.00     0.049 C 
HETATM    7  C7  UNL     1     -31.392   8.218   0.907  1.00 20.00     0.036 C 
HETATM    8  N8  UNL     1     -32.644   8.171   2.984  1.00 20.00    -0.290 NA
HETATM    9  N9  UNL     1     -33.556   5.496   2.521  1.00 20.00     0.095 N 
HETATM   10  H23 UNL     1     -34.150   4.882   1.941  1.00 20.00     0.316 HD
ENDROOT
TORSDOF 0
ENDMDL
MODEL 3
REMARK VINA RESULT:      -0.4      0.748      3.154
REMARK  0 active torsions:
REMARK  status: ('A' for Active; 'I' for Inactive)
ROOT
HETATM    1  C1  UNL     1     -34.005   6.366   3.327  1.00 20.00     0.036 C 
HETATM    2  C2  UNL     1     -32.156   7.315   1.556  1.00 20.00     0.297 C 
HETATM    3  C3  UNL     1     -33.041   7.429   3.848  1.00 20.00     0.263 C 
HETATM    4  C4  UNL     1     -32.324   5.819   1.835  1.00 20.00     0.132 C 
HETATM    5  C5  UNL     1     -35.357   6.182   3.964  1.00 20.00     0.067 C 
HETATM    6  C6  UNL     1     -33.656   8.424   4.826  1.00 20.00     0.049 C 
HETATM    7  C7  UNL     1     -32.151   5.001   0.560  1.00 20.00     0.036 C 
HETATM    8  N8  UNL     1     -33.672   5.570   2.361  1.00 20.00    -0.290 NA
HETATM    9  N9  UNL     1     -32.502   8.162   2.699  1.00 20.00     0.095 N 
HETATM   10  H23 UNL     1     -31.668   8.693   2.995  1.00 20.00     0.316 HD
ENDROOT
TORSDOF 0
ENDMDL
MODEL 4
REMARK VINA RESULT:       0.6      0.683      2.464
REMARK  0 active torsions:
REMARK  status: ('A' for Active; 'I' for Inactive)
ROOT
HETATM    1  C1  UNL     1     -32.356   7.495   1.924  1.00 20.00     0.036 C 
HETATM    2  C2  UNL     1     -34.287   6.423   3.531  1.00 20.00     0.297 C 
HETATM    3  C3  UNL     1     -32.458   5.972   1.948  1.00 20.00     0.263 C 
HETATM    4  C4  UNL     1     -33.248   7.416   4.057  1.00 20.00     0.132 C 
HETATM    5  C5  UNL     1     -31.773   8.203   0.730  1.00 20.00     0.067 C 
HETATM    6  C6  UNL     1     -32.200   5.294   0.607  1.00 20.00     0.049 C 
HETATM    7  C7  UNL     1     -33.868   8.372   5.071  1.00 20.00     0.036 C 
HETATM    8  N8  UNL     1     -32.723   8.211   2.939  1.00 20.00    -0.290 NA
HETATM    9  N9  UNL     1     -33.800   5.610   2.415  1.00 20.00     0.095 N 
HETATM   10  H23 UNL     1     -33.806   4.615   2.690  1.00 20.00     0.316 HD
ENDROOT
TORSDOF 0
ENDMDL
MODEL 5
REMARK VINA RESULT:       1.1      1.468      3.133
REMARK  0 active torsions:
REMARK  status: ('A' for Active; 'I' for Inactive)
ROOT
HETATM    1  C1  UNL     1     -32.901   5.719   1.762  1.00 20.00     0.036 C 
HETATM    2  C2  UNL     1     -33.620   8.031   3.025  1.00 20.00     0.297 C 
HETATM    3  C3  UNL     1     -33.261   5.607   3.242  1.00 20.00     0.263 C 
HETATM    4  C4  UNL     1     -32.307   7.901   2.249  1.00 20.00     0.132 C 
HETATM    5  C5  UNL     1     -33.041   4.529   0.850  1.00 20.00     0.067 C 
HETATM    6  C6  UNL     1     -34.009   4.334   3.622  1.00 20.00     0.049 C 
HETATM    7  C7  UNL     1     -31.982   9.190   1.500  1.00 20.00     0.036 C 
HETATM    8  N8  UNL     1     -32.428   6.817   1.265  1.00 20.00    -0.290 NA
HETATM    9  N9  UNL     1     -34.081   6.768   3.603  1.00 20.00     0.095 N 
HETATM   10  H23 UNL     1     -34.112   6.854   4.631  1.00 20.00     0.316 HD
ENDROOT
TORSDOF 0
ENDMDL
MODEL 6
REMARK VINA RESULT:       1.2      1.550      2.571
REMARK  0 active torsions:
REMARK  status: ('A' for Active; 'I' for Inactive)
ROOT
HETATM    1  C1  UNL     1     -33.646   7.214   3.315  1.00 20.00     0.036 C 
HETATM    2  C2  UNL     1     -33.151   4.887   1.972  1.00 20.00     0.297 C 
HETATM    3  C3  UNL     1     -32.474   7.224   2.336  1.00 20.00     0.263 C 
HETATM    4  C4  UNL     1     -33.247   4.942   3.499  1.00 20.00     0.132 C 
HETATM    5  C5  UNL     1     -34.357   8.493   3.668  1.00 20.00     0.067 C 
HETATM    6  C6  UNL     1     -32.292   8.531   1.572  1.00 20.00     0.049 C 
HETATM    7  C7  UNL     1     -33.944   3.702   4.050  1.00 20.00     0.036 C 
HETATM    8  N8  UNL     1     -34.028   6.122   3.896  1.00 20.00    -0.290 NA
HETATM    9  N9  UNL     1     -32.669   6.134   1.375  1.00 20.00     0.095 N 
HETATM   10  H23 UNL     1     -31.781   5.955   0.880  1.00 20.00     0.316 HD
ENDROOT
TORSDOF 0
ENDMDL
MODEL 7
REMARK VINA RESULT:       1.2      1.494      3.218
REMARK  0 active torsions:
REMARK  status: ('A' for Active; 'I' for Inactive)
ROOT
HETATM    1  C1  UNL     1     -32.541   7.515   2.552  1.00 20.00     0.036 C 
HETATM    2  C2  UNL     1     -33.381   4.918   2.666  1.00 20.00     0.297 C 
HETATM    3  C3  UNL     1     -33.869   7.255   3.259  1.00 20.00     0.263 C 
HETATM    4  C4  UNL     1     -33.007   5.596   1.345  1.00 20.00     0.132 C 
HETATM    5  C5  UNL     1     -31.718   8.728   2.894  1.00 20.00     0.067 C 
HETATM    6  C6  UNL     1     -34.124   8.133   4.480  1.00 20.00     0.049 C 
HETATM    7  C7  UNL     1     -32.281   4.628   0.417  1.00 20.00     0.036 C 
HETATM    8  N8  UNL     1     -32.112   6.730   1.616  1.00 20.00    -0.290 NA
HETATM    9  N9  UNL     1     -33.903   5.848   3.669  1.00 20.00     0.095 N 
HETATM   10  H23 UNL     1     -34.873   5.586   3.904  1.00 20.00     0.316 HD
ENDROOT
TORSDOF 0
ENDMDL
MODEL 8
REMARK VINA RESULT:       1.3      1.512      2.387
REMARK  0 active torsions:
REMARK  status: ('A' for Active; 'I' for Inactive)
ROOT
HETATM    1  C1  UNL     1     -33.531   5.324   3.024  1.00 20.00     0.036 C 
HETATM    2  C2  UNL     1     -32.493   7.845   2.860  1.00 20.00     0.297 C 
HETATM    3  C3  UNL     1     -33.132   5.811   1.633  1.00 20.00     0.263 C 
HETATM    4  C4  UNL     1     -33.840   7.560   3.529  1.00 20.00     0.132 C 
HETATM    5  C5  UNL     1     -33.568   3.852   3.336  1.00 20.00     0.067 C 
HETATM    6  C6  UNL     1     -32.529   4.740   0.731  1.00 20.00     0.049 C 
HETATM    7  C7  UNL     1     -34.035   8.435   4.763  1.00 20.00     0.036 C 
HETATM    8  N8  UNL     1     -33.887   6.154   3.952  1.00 20.00    -0.290 NA
HETATM    9  N9  UNL     1     -32.166   6.903   1.789  1.00 20.00     0.095 N 
HETATM   10  H23 UNL     1     -32.086   7.415   0.896  1.00 20.00     0.316 HD
ENDROOT
TORSDOF 0
ENDMDL
