MODEL 1
REMARK VINA RESULT:      -2.2      0.000      0.000
REMARK  2 active torsions:
REMARK  status: ('A' for Active; 'I' for Inactive)
REMARK    1  A    between atoms: C1_1  and  C5_5 
REMARK    2  A    between atoms: C5_5  and  C6_6 
ROOT
HETATM    1  C2  UNL     1     -31.644   8.607   1.149  1.00 20.00     0.003 C 
HETATM    2  C3  UNL     1     -33.162   8.395   1.284  1.00 20.00     0.029 C 
HETATM    3  C4  UNL     1     -31.479   7.950   2.530  1.00 20.00     0.029 C 
HETATM    4  C5  UNL     1     -32.876   7.280   2.338  1.00 20.00     0.149 C 
ENDROOT
BRANCH   4   5
HETATM    5  C1  UNL     1     -33.798   7.298   3.589  1.00 20.00     0.316 C 
HETATM    6  O7  UNL     1     -34.878   6.733   3.674  1.00 20.00    -0.259 OA
HETATM    7  F8  UNL     1     -33.359   7.950   4.675  1.00 20.00    -0.163 F 
ENDBRANCH   4   5
BRANCH   4   8
HETATM    8  C6  UNL     1     -32.801   5.875   1.735  1.00 20.00     0.404 C 
HETATM    9  F9  UNL     1     -31.549   5.618   1.332  1.00 20.00    -0.170 F 
HETATM   10  F10 UNL     1     -33.160   4.965   2.653  1.00 20.00    -0.170 F 
HETATM   11  F11 UNL     1     -33.626   5.785   0.683  1.00 20.00    -0.170 F 
ENDBRANCH   4   8
TORSDOF 2
ENDMDL
MODEL 2
REMARK VINA RESULT:      -1.7      1.710      2.792
REMARK  2 active torsions:
REMARK  status: ('A' for Active; 'I' for Inactive)
REMARK    1  A    between atoms: C1_1  and  C5_5 
REMARK    2  A    between atoms: C5_5  and  C6_6 
ROOT
HETATM    1  C2  UNL     1     -32.323   5.155   0.649  1.00 20.00     0.003 C 
HETATM    2  C3  UNL     1     -32.010   5.311   2.147  1.00 20.00     0.029 C 
HETATM    3  C4  UNL     1     -33.555   6.051   0.864  1.00 20.00     0.029 C 
HETATM    4  C5  UNL     1     -32.882   6.606   2.158  1.00 20.00     0.149 C 
ENDROOT
BRANCH   4   5
HETATM    5  C1  UNL     1     -33.826   6.760   3.383  1.00 20.00     0.316 C 
HETATM    6  O7  UNL     1     -34.039   7.806   3.978  1.00 20.00    -0.259 OA
HETATM    7  F8  UNL     1     -34.489   5.671   3.797  1.00 20.00    -0.163 F 
ENDBRANCH   4   5
BRANCH   4   8
HETATM    8  C6  UNL     1     -32.075   7.886   1.926  1.00 20.00     0.404 C 
HETATM    9  F9  UNL     1     -32.867   8.838   1.415  1.00 20.00    -0.170 F 
HETATM   10  F10 UNL     1     -31.563   8.318   3.087  1.00 20.00    -0.170 F 
HETATM   11  F11 UNL     1     -31.073   7.644   1.068  1.00 20.00    -0.170 F 
ENDBRANCH   4   8
TORSDOF 2
ENDMDL
MODEL 3
REMARK VINA RESULT:      -1.5      1.656      2.825
REMARK  2 active torsions:
REMARK  status: ('A' for Active; 'I' for Inactive)
REMARK    1  A    between atoms: C1_1  and  C5_5 
REMARK    2  A    between atoms: C5_5  and  C6_6 
ROOT
HETATM    1  C2  UNL     1     -34.814   6.624   3.932  1.00 20.00     0.003 C 
HETATM    2  C3  UNL     1     -33.295   6.787   4.117  1.00 20.00     0.029 C 
HETATM    3  C4  UNL     1     -34.686   7.394   2.607  1.00 20.00     0.029 C 
HETATM    4  C5  UNL     1     -33.170   7.022   2.578  1.00 20.00     0.149 C 
ENDROOT
BRANCH   4   5
HETATM    5  C1  UNL     1     -32.213   8.172   2.159  1.00 20.00     0.316 C 
HETATM    6  O7  UNL     1     -32.221   8.731   1.073  1.00 20.00    -0.259 OA
HETATM    7  F8  UNL     1     -31.336   8.615   3.072  1.00 20.00    -0.163 F 
ENDBRANCH   4   5
BRANCH   4   8
HETATM    8  C6  UNL     1     -32.869   5.745   1.789  1.00 20.00     0.404 C 
HETATM    9  F9  UNL     1     -33.148   4.670   2.538  1.00 20.00    -0.170 F 
HETATM   10  F10 UNL     1     -33.619   5.710   0.678  1.00 20.00    -0.170 F 
HETATM   11  F11 UNL     1     -31.574   5.716   1.445  1.00 20.00    -0.170 F 
ENDBRANCH   4   8
TORSDOF 2
ENDMDL
MODEL 4
REMARK VINA RESULT:      -1.5      1.655      2.821
REMARK  2 active torsions:
REMARK  status: ('A' for Active; 'I' for Inactive)
REMARK    1  A    between atoms: C1_1  and  C5_5 
REMARK    2  A    between atoms: C5_5  and  C6_6 
ROOT
HETATM    1  C2  UNL     1     -34.824   6.617   3.926  1.00 20.00     0.003 C 
HETATM    2  C3  UNL     1     -33.306   6.783   4.116  1.00 20.00     0.029 C 
HETATM    3  C4  UNL     1     -34.692   7.385   2.599  1.00 20.00     0.029 C 
HETATM    4  C5  UNL     1     -33.175   7.015   2.578  1.00 20.00     0.149 C 
ENDROOT
BRANCH   4   5
HETATM    5  C1  UNL     1     -32.218   8.166   2.161  1.00 20.00     0.316 C 
HETATM    6  O7  UNL     1     -32.222   8.723   1.073  1.00 20.00    -0.259 OA
HETATM    7  F8  UNL     1     -31.347   8.613   3.076  1.00 20.00    -0.163 F 
ENDBRANCH   4   5
BRANCH   4   8
HETATM    8  C6  UNL     1     -32.870   5.738   1.792  1.00 20.00     0.404 C 
HETATM    9  F9  UNL     1     -33.611   5.701   0.677  1.00 20.00    -0.170 F 
HETATM   10  F10 UNL     1     -31.572   5.710   1.456  1.00 20.00    -0.170 F 
HETATM   11  F11 UNL     1     -33.152   4.663   2.541  1.00 20.00    -0.170 F 
ENDBRANCH   4   8
TORSDOF 2
ENDMDL
MODEL 5
REMARK VINA RESULT:      -1.4      1.986      2.840
REMARK  2 active torsions:
REMARK  status: ('A' for Active; 'I' for Inactive)
REMARK    1  A    between atoms: C1_1  and  C5_5 
REMARK    2  A    between atoms: C5_5  and  C6_6 
ROOT
HETATM    1  C2  UNL     1     -32.958   4.880   0.828  1.00 20.00     0.003 C 
HETATM    2  C3  UNL     1     -33.549   6.286   0.628  1.00 20.00     0.029 C 
HETATM    3  C4  UNL     1     -31.923   5.503   1.780  1.00 20.00     0.029 C 
HETATM    4  C5  UNL     1     -32.886   6.717   1.975  1.00 20.00     0.149 C 
ENDROOT
BRANCH   4   5
HETATM    5  C1  UNL     1     -32.204   8.113   1.961  1.00 20.00     0.316 C 
HETATM    6  O7  UNL     1     -32.375   8.969   1.106  1.00 20.00    -0.259 OA
HETATM    7  F8  UNL     1     -31.396   8.420   2.985  1.00 20.00    -0.163 F 
ENDBRANCH   4   5
BRANCH   4   8
HETATM    8  C6  UNL     1     -33.812   6.572   3.185  1.00 20.00     0.404 C 
HETATM    9  F9  UNL     1     -33.710   5.336   3.692  1.00 20.00    -0.170 F 
HETATM   10  F10 UNL     1     -33.471   7.462   4.128  1.00 20.00    -0.170 F 
HETATM   11  F11 UNL     1     -35.082   6.790   2.815  1.00 20.00    -0.170 F 
ENDBRANCH   4   8
TORSDOF 2
ENDMDL
MODEL 6
REMARK VINA RESULT:      -1.4      1.985      2.914
REMARK  2 active torsions:
REMARK  status: ('A' for Active; 'I' for Inactive)
REMARK    1  A    between atoms: C1_1  and  C5_5 
REMARK    2  A    between atoms: C5_5  and  C6_6 
ROOT
HETATM    1  C2  UNL     1     -32.956   4.877   0.826  1.00 20.00     0.003 C 
HETATM    2  C3  UNL     1     -33.548   6.284   0.627  1.00 20.00     0.029 C 
HETATM    3  C4  UNL     1     -31.922   5.501   1.779  1.00 20.00     0.029 C 
HETATM    4  C5  UNL     1     -32.885   6.714   1.974  1.00 20.00     0.149 C 
ENDROOT
BRANCH   4   5
HETATM    5  C1  UNL     1     -32.204   8.111   1.961  1.00 20.00     0.316 C 
HETATM    6  O7  UNL     1     -32.375   8.967   1.106  1.00 20.00    -0.259 OA
HETATM    7  F8  UNL     1     -31.398   8.419   2.987  1.00 20.00    -0.163 F 
ENDBRANCH   4   5
BRANCH   4   8
HETATM    8  C6  UNL     1     -33.812   6.569   3.183  1.00 20.00     0.404 C 
HETATM    9  F9  UNL     1     -33.473   7.457   4.127  1.00 20.00    -0.170 F 
HETATM   10  F10 UNL     1     -35.082   6.787   2.813  1.00 20.00    -0.170 F 
HETATM   11  F11 UNL     1     -33.710   5.332   3.690  1.00 20.00    -0.170 F 
ENDBRANCH   4   8
TORSDOF 2
ENDMDL
MODEL 7
REMARK VINA RESULT:      -1.1      1.773      3.917
REMARK  2 active torsions:
REMARK  status: ('A' for Active; 'I' for Inactive)
REMARK    1  A    between atoms: C1_1  and  C5_5 
REMARK    2  A    between atoms: C5_5  and  C6_6 
ROOT
HETATM    1  C2  UNL     1     -35.460   5.403   4.369  1.00 20.00     0.003 C 
HETATM    2  C3  UNL     1     -35.476   6.281   3.105  1.00 20.00     0.029 C 
HETATM    3  C4  UNL     1     -33.932   5.298   4.216  1.00 20.00     0.029 C 
HETATM    4  C5  UNL     1     -33.966   6.595   3.347  1.00 20.00     0.149 C 
ENDROOT
BRANCH   4   5
HETATM    5  C1  UNL     1     -33.071   6.566   2.077  1.00 20.00     0.316 C 
HETATM    6  O7  UNL     1     -32.345   7.477   1.709  1.00 20.00    -0.259 OA
HETATM    7  F8  UNL     1     -33.062   5.440   1.349  1.00 20.00    -0.163 F 
ENDBRANCH   4   5
BRANCH   4   8
HETATM    8  C6  UNL     1     -33.730   7.875   4.153  1.00 20.00     0.404 C 
HETATM    9  F9  UNL     1     -32.421   8.028   4.393  1.00 20.00    -0.170 F 
HETATM   10  F10 UNL     1     -34.176   8.935   3.464  1.00 20.00    -0.170 F 
HETATM   11  F11 UNL     1     -34.384   7.806   5.321  1.00 20.00    -0.170 F 
ENDBRANCH   4   8
TORSDOF 2
ENDMDL
MODEL 8
REMARK VINA RESULT:      -1.0      2.292      3.114
REMARK  2 active torsions:
REMARK  status: ('A' for Active; 'I' for Inactive)
REMARK    1  A    between atoms: C1_1  and  C5_5 
REMARK    2  A    between atoms: C5_5  and  C6_6 
ROOT
HETATM    1  C2  UNL     1     -32.481   5.675   1.493  1.00 20.00     0.003 C 
HETATM    2  C3  UNL     1     -32.731   5.256   2.952  1.00 20.00     0.029 C 
HETATM    3  C4  UNL     1     -33.908   6.249   1.465  1.00 20.00     0.029 C 
HETATM    4  C5  UNL     1     -33.872   6.319   3.024  1.00 20.00     0.149 C 
ENDROOT
BRANCH   4   5
HETATM    5  C1  UNL     1     -35.170   5.852   3.739  1.00 20.00     0.316 C 
HETATM    6  O7  UNL     1     -35.247   4.899   4.501  1.00 20.00    -0.259 OA
HETATM    7  F8  UNL     1     -36.283   6.570   3.539  1.00 20.00    -0.163 F 
ENDBRANCH   4   5
BRANCH   4   8
HETATM    8  C6  UNL     1     -33.409   7.675   3.563  1.00 20.00     0.404 C 
HETATM    9  F9  UNL     1     -32.288   8.056   2.936  1.00 20.00    -0.170 F 
HETATM   10  F10 UNL     1     -34.361   8.597   3.356  1.00 20.00    -0.170 F 
HETATM   11  F11 UNL     1     -33.165   7.585   4.878  1.00 20.00    -0.170 F 
ENDBRANCH   4   8
TORSDOF 2
ENDMDL
MODEL 9
REMARK VINA RESULT:      -1.0      2.294      3.107
REMARK  2 active torsions:
REMARK  status: ('A' for Active; 'I' for Inactive)
REMARK    1  A    between atoms: C1_1  and  C5_5 
REMARK    2  A    between atoms: C5_5  and  C6_6 
ROOT
HETATM    1  C2  UNL     1     -32.480   5.672   1.476  1.00 20.00     0.003 C 
HETATM    2  C3  UNL     1     -32.698   5.268   2.944  1.00 20.00     0.029 C 
HETATM    3  C4  UNL     1     -33.923   6.207   1.461  1.00 20.00     0.029 C 
HETATM    4  C5  UNL     1     -33.866   6.300   3.018  1.00 20.00     0.149 C 
ENDROOT
BRANCH   4   5
HETATM    5  C1  UNL     1     -35.141   5.807   3.758  1.00 20.00     0.316 C 
HETATM    6  O7  UNL     1     -35.187   4.848   4.513  1.00 20.00    -0.259 OA
HETATM    7  F8  UNL     1     -36.269   6.511   3.589  1.00 20.00    -0.163 F 
ENDBRANCH   4   5
BRANCH   4   8
HETATM    8  C6  UNL     1     -33.433   7.676   3.531  1.00 20.00     0.404 C 
HETATM    9  F9  UNL     1     -34.401   8.574   3.300  1.00 20.00    -0.170 F 
HETATM   10  F10 UNL     1     -33.197   7.616   4.849  1.00 20.00    -0.170 F 
HETATM   11  F11 UNL     1     -32.315   8.066   2.903  1.00 20.00    -0.170 F 
ENDBRANCH   4   8
TORSDOF 2
ENDMDL
