MODEL 1
REMARK VINA RESULT:      -0.4      0.000      0.000
REMARK  3 active torsions:
REMARK  status: ('A' for Active; 'I' for Inactive)
REMARK    1  A    between atoms: C1_1  and  C2_2 
REMARK    2  A    between atoms: C4_4  and  C8_8 
REMARK    3  A    between atoms: C8_8  and  N9_9 
ROOT
HETATM    1  C1  UNL     1     -33.788   6.748   3.071  1.00 20.00    -0.015 C 
HETATM    2  C3  UNL     1     -34.530   6.093   3.750  1.00 20.00    -0.097 C 
HETATM    3  C5  UNL     1     -35.434   5.295   4.577  1.00 20.00     0.113 C 
ENDROOT
BRANCH   1   4
HETATM    4  C2  UNL     1     -32.941   7.499   2.295  1.00 20.00    -0.013 C 
HETATM    5  C4  UNL     1     -32.199   8.155   1.616  1.00 20.00    -0.062 C 
BRANCH   5   6
HETATM    6  C8  UNL     1     -31.298   8.956   0.783  1.00 20.00     0.365 C 
BRANCH   6   7
HETATM    7  N9  UNL     1     -32.009  10.074   0.174  1.00 20.00     0.090 N 
HETATM    8  C6  UNL     1     -32.822  10.773   1.172  1.00 20.00     0.310 C 
HETATM    9  C7  UNL     1     -32.851   9.611  -0.930  1.00 20.00     0.310 C 
ENDBRANCH   6   7
ENDBRANCH   5   6
ENDBRANCH   1   4
TORSDOF 3
ENDMDL
MODEL 2
REMARK VINA RESULT:      -0.2      2.529      5.450
REMARK  3 active torsions:
REMARK  status: ('A' for Active; 'I' for Inactive)
REMARK    1  A    between atoms: C1_1  and  C2_2 
REMARK    2  A    between atoms: C4_4  and  C8_8 
REMARK    3  A    between atoms: C8_8  and  N9_9 
ROOT
HETATM    1  C1  UNL     1     -32.450   8.584   0.969  1.00 20.00    -0.015 C 
HETATM    2  C3  UNL     1     -32.338   9.668   0.466  1.00 20.00    -0.097 C 
HETATM    3  C5  UNL     1     -32.201  10.988  -0.148  1.00 20.00     0.113 C 
ENDROOT
BRANCH   1   4
HETATM    4  C2  UNL     1     -32.580   7.345   1.544  1.00 20.00    -0.013 C 
HETATM    5  C4  UNL     1     -32.694   6.260   2.047  1.00 20.00    -0.062 C 
BRANCH   5   6
HETATM    6  C8  UNL     1     -32.840   4.937   2.660  1.00 20.00     0.365 C 
BRANCH   6   7
HETATM    7  N9  UNL     1     -34.095   4.838   3.394  1.00 20.00     0.090 N 
HETATM    8  C6  UNL     1     -34.496   6.149   3.909  1.00 20.00     0.310 C 
HETATM    9  C7  UNL     1     -33.976   3.878   4.493  1.00 20.00     0.310 C 
ENDBRANCH   6   7
ENDBRANCH   5   6
ENDBRANCH   1   4
TORSDOF 3
ENDMDL
MODEL 3
REMARK VINA RESULT:       0.6      3.430      6.392
REMARK  3 active torsions:
REMARK  status: ('A' for Active; 'I' for Inactive)
REMARK    1  A    between atoms: C1_1  and  C2_2 
REMARK    2  A    between atoms: C4_4  and  C8_8 
REMARK    3  A    between atoms: C8_8  and  N9_9 
ROOT
HETATM    1  C1  UNL     1     -32.820   7.189   2.110  1.00 20.00    -0.015 C 
HETATM    2  C3  UNL     1     -32.434   8.129   1.469  1.00 20.00    -0.097 C 
HETATM    3  C5  UNL     1     -31.964   9.273   0.689  1.00 20.00     0.113 C 
ENDROOT
BRANCH   1   4
HETATM    4  C2  UNL     1     -33.262   6.117   2.843  1.00 20.00    -0.013 C 
HETATM    5  C4  UNL     1     -33.648   5.178   3.484  1.00 20.00    -0.062 C 
BRANCH   5   6
HETATM    6  C8  UNL     1     -34.113   4.031   4.268  1.00 20.00     0.365 C 
BRANCH   6   7
HETATM    7  N9  UNL     1     -33.001   3.159   4.625  1.00 20.00     0.090 N 
HETATM    8  C6  UNL     1     -33.367   1.753   4.435  1.00 20.00     0.310 C 
HETATM    9  C7  UNL     1     -32.588   3.391   6.011  1.00 20.00     0.310 C 
ENDBRANCH   6   7
ENDBRANCH   5   6
ENDBRANCH   1   4
TORSDOF 3
ENDMDL
MODEL 4
REMARK VINA RESULT:       0.8      1.951      2.631
REMARK  3 active torsions:
REMARK  status: ('A' for Active; 'I' for Inactive)
REMARK    1  A    between atoms: C1_1  and  C2_2 
REMARK    2  A    between atoms: C4_4  and  C8_8 
REMARK    3  A    between atoms: C8_8  and  N9_9 
ROOT
HETATM    1  C1  UNL     1     -33.490   4.580   3.789  1.00 20.00    -0.015 C 
HETATM    2  C3  UNL     1     -33.475   3.458   4.216  1.00 20.00    -0.097 C 
HETATM    3  C5  UNL     1     -33.455   2.091   4.735  1.00 20.00     0.113 C 
ENDROOT
BRANCH   1   4
HETATM    4  C2  UNL     1     -33.507   5.862   3.301  1.00 20.00    -0.013 C 
HETATM    5  C4  UNL     1     -33.522   6.985   2.874  1.00 20.00    -0.062 C 
BRANCH   5   6
HETATM    6  C8  UNL     1     -33.536   8.356   2.359  1.00 20.00     0.365 C 
BRANCH   6   7
HETATM    7  N9  UNL     1     -32.264   8.690   1.731  1.00 20.00     0.090 N 
HETATM    8  C6  UNL     1     -32.476   9.534   0.553  1.00 20.00     0.310 C 
HETATM    9  C7  UNL     1     -31.538   7.474   1.358  1.00 20.00     0.310 C 
ENDBRANCH   6   7
ENDBRANCH   5   6
ENDBRANCH   1   4
TORSDOF 3
ENDMDL
MODEL 5
REMARK VINA RESULT:       0.9      1.793      2.381
REMARK  3 active torsions:
REMARK  status: ('A' for Active; 'I' for Inactive)
REMARK    1  A    between atoms: C1_1  and  C2_2 
REMARK    2  A    between atoms: C4_4  and  C8_8 
REMARK    3  A    between atoms: C8_8  and  N9_9 
ROOT
HETATM    1  C1  UNL     1     -33.466   4.837   3.687  1.00 20.00    -0.015 C 
HETATM    2  C3  UNL     1     -33.485   3.722   4.132  1.00 20.00    -0.097 C 
HETATM    3  C5  UNL     1     -33.510   2.364   4.673  1.00 20.00     0.113 C 
ENDROOT
BRANCH   1   4
HETATM    4  C2  UNL     1     -33.444   6.111   3.178  1.00 20.00    -0.013 C 
HETATM    5  C4  UNL     1     -33.425   7.227   2.733  1.00 20.00    -0.062 C 
BRANCH   5   6
HETATM    6  C8  UNL     1     -33.396   8.586   2.187  1.00 20.00     0.365 C 
BRANCH   6   7
HETATM    7  N9  UNL     1     -32.536   8.658   1.012  1.00 20.00     0.090 N 
HETATM    8  C6  UNL     1     -31.183   8.198   1.334  1.00 20.00     0.310 C 
HETATM    9  C7  UNL     1     -32.494  10.024   0.486  1.00 20.00     0.310 C 
ENDBRANCH   6   7
ENDBRANCH   5   6
ENDBRANCH   1   4
TORSDOF 3
ENDMDL
MODEL 6
REMARK VINA RESULT:       1.3      3.516      5.000
REMARK  3 active torsions:
REMARK  status: ('A' for Active; 'I' for Inactive)
REMARK    1  A    between atoms: C1_1  and  C2_2 
REMARK    2  A    between atoms: C4_4  and  C8_8 
REMARK    3  A    between atoms: C8_8  and  N9_9 
ROOT
HETATM    1  C1  UNL     1     -31.650   4.786   0.530  1.00 20.00    -0.015 C 
HETATM    2  C3  UNL     1     -31.095   3.951  -0.130  1.00 20.00    -0.097 C 
HETATM    3  C5  UNL     1     -30.418   2.935  -0.934  1.00 20.00     0.113 C 
ENDROOT
BRANCH   1   4
HETATM    4  C2  UNL     1     -32.284   5.740   1.285  1.00 20.00    -0.013 C 
HETATM    5  C4  UNL     1     -32.838   6.576   1.947  1.00 20.00    -0.062 C 
BRANCH   5   6
HETATM    6  C8  UNL     1     -33.509   7.598   2.754  1.00 20.00     0.365 C 
BRANCH   6   7
HETATM    7  N9  UNL     1     -33.912   7.059   4.047  1.00 20.00     0.090 N 
HETATM    8  C6  UNL     1     -35.239   6.445   3.958  1.00 20.00     0.310 C 
HETATM    9  C7  UNL     1     -33.908   8.110   5.067  1.00 20.00     0.310 C 
ENDBRANCH   6   7
ENDBRANCH   5   6
ENDBRANCH   1   4
TORSDOF 3
ENDMDL
MODEL 7
REMARK VINA RESULT:       1.3      2.571      5.369
REMARK  3 active torsions:
REMARK  status: ('A' for Active; 'I' for Inactive)
REMARK    1  A    between atoms: C1_1  and  C2_2 
REMARK    2  A    between atoms: C4_4  and  C8_8 
REMARK    3  A    between atoms: C8_8  and  N9_9 
ROOT
HETATM    1  C1  UNL     1     -32.238   8.327   1.478  1.00 20.00    -0.015 C 
HETATM    2  C3  UNL     1     -31.618   8.689   0.516  1.00 20.00    -0.097 C 
HETATM    3  C5  UNL     1     -30.863   9.128  -0.656  1.00 20.00     0.113 C 
ENDROOT
BRANCH   1   4
HETATM    4  C2  UNL     1     -32.947   7.913   2.577  1.00 20.00    -0.013 C 
HETATM    5  C4  UNL     1     -33.569   7.551   3.539  1.00 20.00    -0.062 C 
BRANCH   5   6
HETATM    6  C8  UNL     1     -34.324   7.103   4.712  1.00 20.00     0.365 C 
BRANCH   6   7
HETATM    7  N9  UNL     1     -35.238   6.022   4.362  1.00 20.00     0.090 N 
HETATM    8  C6  UNL     1     -34.496   4.799   4.052  1.00 20.00     0.310 C 
HETATM    9  C7  UNL     1     -36.079   6.406   3.226  1.00 20.00     0.310 C 
ENDBRANCH   6   7
ENDBRANCH   5   6
ENDBRANCH   1   4
TORSDOF 3
ENDMDL
MODEL 8
REMARK VINA RESULT:       1.4      2.365      3.508
REMARK  3 active torsions:
REMARK  status: ('A' for Active; 'I' for Inactive)
REMARK    1  A    between atoms: C1_1  and  C2_2 
REMARK    2  A    between atoms: C4_4  and  C8_8 
REMARK    3  A    between atoms: C8_8  and  N9_9 
ROOT
HETATM    1  C1  UNL     1     -33.577   4.017   4.067  1.00 20.00    -0.015 C 
HETATM    2  C3  UNL     1     -33.471   2.865   4.389  1.00 20.00    -0.097 C 
HETATM    3  C5  UNL     1     -33.342   1.462   4.780  1.00 20.00     0.113 C 
ENDROOT
BRANCH   1   4
HETATM    4  C2  UNL     1     -33.698   5.333   3.699  1.00 20.00    -0.013 C 
HETATM    5  C4  UNL     1     -33.803   6.485   3.376  1.00 20.00    -0.062 C 
BRANCH   5   6
HETATM    6  C8  UNL     1     -33.927   7.890   2.978  1.00 20.00     0.365 C 
BRANCH   6   7
HETATM    7  N9  UNL     1     -32.662   8.399   2.463  1.00 20.00     0.090 N 
HETATM    8  C6  UNL     1     -32.045   7.426   1.560  1.00 20.00     0.310 C 
HETATM    9  C7  UNL     1     -31.750   8.720   3.563  1.00 20.00     0.310 C 
ENDBRANCH   6   7
ENDBRANCH   5   6
ENDBRANCH   1   4
TORSDOF 3
ENDMDL
MODEL 9
REMARK VINA RESULT:       1.9      3.292      4.709
REMARK  3 active torsions:
REMARK  status: ('A' for Active; 'I' for Inactive)
REMARK    1  A    between atoms: C1_1  and  C2_2 
REMARK    2  A    between atoms: C4_4  and  C8_8 
REMARK    3  A    between atoms: C8_8  and  N9_9 
ROOT
HETATM    1  C1  UNL     1     -31.940   4.643   0.825  1.00 20.00    -0.015 C 
HETATM    2  C3  UNL     1     -31.259   4.017   0.060  1.00 20.00    -0.097 C 
HETATM    3  C5  UNL     1     -30.428   3.256  -0.872  1.00 20.00     0.113 C 
ENDROOT
BRANCH   1   4
HETATM    4  C2  UNL     1     -32.718   5.357   1.700  1.00 20.00    -0.013 C 
HETATM    5  C4  UNL     1     -33.400   5.983   2.467  1.00 20.00    -0.062 C 
BRANCH   5   6
HETATM    6  C8  UNL     1     -34.234   6.740   3.403  1.00 20.00     0.365 C 
BRANCH   6   7
HETATM    7  N9  UNL     1     -33.643   8.041   3.694  1.00 20.00     0.090 N 
HETATM    8  C6  UNL     1     -32.495   8.292   2.819  1.00 20.00     0.310 C 
HETATM    9  C7  UNL     1     -33.235   8.119   5.098  1.00 20.00     0.310 C 
ENDBRANCH   6   7
ENDBRANCH   5   6
ENDBRANCH   1   4
TORSDOF 3
ENDMDL
