MODEL 1
REMARK VINA RESULT:       0.3      0.000      0.000
REMARK  1 active torsions:
REMARK  status: ('A' for Active; 'I' for Inactive)
REMARK    1  A    between atoms: C4_4  and  C7_7 
ROOT
HETATM    1  C1  UNL     1     -32.924   6.480   1.205  1.00 20.00     0.047 C 
HETATM    2  C2  UNL     1     -33.844   5.865   1.958  1.00 20.00    -0.006 C 
HETATM    3  C3  UNL     1     -32.104   7.575   1.769  1.00 20.00     0.149 C 
HETATM    4  C5  UNL     1     -32.257   7.911   3.235  1.00 20.00     0.088 C 
HETATM    5  C6  UNL     1     -33.689   7.665   3.728  1.00 20.00     0.007 C 
HETATM    6  C7  UNL     1     -34.187   6.234   3.383  1.00 20.00     0.031 C 
HETATM    7  C8  UNL     1     -33.794   8.021   5.216  1.00 20.00     0.012 C 
HETATM    8  C9  UNL     1     -35.706   6.117   3.590  1.00 20.00     0.027 C 
HETATM    9  O10 UNL     1     -31.277   8.145   1.059  1.00 20.00    -0.293 OA
ENDROOT
BRANCH   6  10
HETATM   10  C4  UNL     1     -33.509   5.176   4.215  1.00 20.00     0.244 C 
HETATM   11  O11 UNL     1     -33.811   3.988   4.174  1.00 20.00    -0.306 OA
ENDBRANCH   6  10
TORSDOF 1
ENDMDL
MODEL 2
REMARK VINA RESULT:       0.6      1.368      4.021
REMARK  1 active torsions:
REMARK  status: ('A' for Active; 'I' for Inactive)
REMARK    1  A    between atoms: C4_4  and  C7_7 
ROOT
HETATM    1  C1  UNL     1     -34.706   7.237   3.933  1.00 20.00     0.047 C 
HETATM    2  C2  UNL     1     -33.920   8.070   3.240  1.00 20.00    -0.006 C 
HETATM    3  C3  UNL     1     -34.522   5.773   3.828  1.00 20.00     0.149 C 
HETATM    4  C5  UNL     1     -33.366   5.247   3.008  1.00 20.00     0.088 C 
HETATM    5  C6  UNL     1     -33.044   6.167   1.823  1.00 20.00     0.007 C 
HETATM    6  C7  UNL     1     -32.844   7.642   2.269  1.00 20.00     0.031 C 
HETATM    7  C8  UNL     1     -31.870   5.591   1.023  1.00 20.00     0.012 C 
HETATM    8  C9  UNL     1     -32.845   8.586   1.055  1.00 20.00     0.027 C 
HETATM    9  O10 UNL     1     -35.266   5.019   4.454  1.00 20.00    -0.293 OA
ENDROOT
BRANCH   6  10
HETATM   10  C4  UNL     1     -31.557   7.842   3.027  1.00 20.00     0.244 C 
HETATM   11  O11 UNL     1     -31.333   8.820   3.733  1.00 20.00    -0.306 OA
ENDBRANCH   6  10
TORSDOF 1
ENDMDL
MODEL 3
REMARK VINA RESULT:       1.1      2.007      3.534
REMARK  1 active torsions:
REMARK  status: ('A' for Active; 'I' for Inactive)
REMARK    1  A    between atoms: C4_4  and  C7_7 
ROOT
HETATM    1  C1  UNL     1     -34.096   5.930   3.685  1.00 20.00     0.047 C 
HETATM    2  C2  UNL     1     -33.624   5.318   2.592  1.00 20.00    -0.006 C 
HETATM    3  C3  UNL     1     -33.881   7.381   3.881  1.00 20.00     0.149 C 
HETATM    4  C5  UNL     1     -33.211   8.169   2.778  1.00 20.00     0.088 C 
HETATM    5  C6  UNL     1     -32.189   7.318   2.012  1.00 20.00     0.007 C 
HETATM    6  C7  UNL     1     -32.802   5.981   1.511  1.00 20.00     0.031 C 
HETATM    7  C8  UNL     1     -31.537   8.159   0.908  1.00 20.00     0.012 C 
HETATM    8  C9  UNL     1     -31.702   5.016   1.040  1.00 20.00     0.027 C 
HETATM    9  O10 UNL     1     -34.302   7.927   4.900  1.00 20.00    -0.293 OA
ENDROOT
BRANCH   6  10
HETATM   10  C4  UNL     1     -33.775   6.186   0.378  1.00 20.00     0.244 C 
HETATM   11  O11 UNL     1     -34.204   5.272  -0.318  1.00 20.00    -0.306 OA
ENDBRANCH   6  10
TORSDOF 1
ENDMDL
MODEL 4
REMARK VINA RESULT:       1.5      1.202      3.840
REMARK  1 active torsions:
REMARK  status: ('A' for Active; 'I' for Inactive)
REMARK    1  A    between atoms: C4_4  and  C7_7 
ROOT
HETATM    1  C1  UNL     1     -34.080   5.798   2.307  1.00 20.00     0.047 C 
HETATM    2  C2  UNL     1     -33.103   6.379   1.601  1.00 20.00    -0.006 C 
HETATM    3  C3  UNL     1     -34.503   6.365   3.607  1.00 20.00     0.149 C 
HETATM    4  C5  UNL     1     -33.883   7.666   4.065  1.00 20.00     0.088 C 
HETATM    5  C6  UNL     1     -32.434   7.806   3.579  1.00 20.00     0.007 C 
HETATM    6  C7  UNL     1     -32.309   7.586   2.046  1.00 20.00     0.031 C 
HETATM    7  C8  UNL     1     -31.850   9.137   4.069  1.00 20.00     0.012 C 
HETATM    8  C9  UNL     1     -30.838   7.411   1.636  1.00 20.00     0.027 C 
HETATM    9  O10 UNL     1     -35.388   5.809   4.255  1.00 20.00    -0.293 OA
ENDROOT
BRANCH   6  10
HETATM   10  C4  UNL     1     -32.892   8.728   1.254  1.00 20.00     0.244 C 
HETATM   11  O11 UNL     1     -32.239   9.413   0.474  1.00 20.00    -0.306 OA
ENDBRANCH   6  10
TORSDOF 1
ENDMDL
MODEL 5
REMARK VINA RESULT:       1.6      1.853      3.837
REMARK  1 active torsions:
REMARK  status: ('A' for Active; 'I' for Inactive)
REMARK    1  A    between atoms: C4_4  and  C7_7 
ROOT
HETATM    1  C1  UNL     1     -34.796   4.349   4.890  1.00 20.00     0.047 C 
HETATM    2  C2  UNL     1     -35.156   5.592   4.550  1.00 20.00    -0.006 C 
HETATM    3  C3  UNL     1     -33.640   3.699   4.233  1.00 20.00     0.149 C 
HETATM    4  C5  UNL     1     -32.818   4.505   3.253  1.00 20.00     0.088 C 
HETATM    5  C6  UNL     1     -33.675   5.531   2.501  1.00 20.00     0.007 C 
HETATM    6  C7  UNL     1     -34.503   6.422   3.470  1.00 20.00     0.031 C 
HETATM    7  C8  UNL     1     -32.800   6.321   1.521  1.00 20.00     0.012 C 
HETATM    8  C9  UNL     1     -35.580   7.209   2.706  1.00 20.00     0.027 C 
HETATM    9  O10 UNL     1     -33.334   2.548   4.539  1.00 20.00    -0.293 OA
ENDROOT
BRANCH   6  10
HETATM   10  C4  UNL     1     -33.640   7.402   4.224  1.00 20.00     0.244 C 
HETATM   11  O11 UNL     1     -34.063   8.122   5.122  1.00 20.00    -0.306 OA
ENDBRANCH   6  10
TORSDOF 1
ENDMDL
MODEL 6
REMARK VINA RESULT:       1.9      1.648      2.654
REMARK  1 active torsions:
REMARK  status: ('A' for Active; 'I' for Inactive)
REMARK    1  A    between atoms: C4_4  and  C7_7 
ROOT
HETATM    1  C1  UNL     1     -32.242   7.209   1.672  1.00 20.00     0.047 C 
HETATM    2  C2  UNL     1     -32.979   7.794   2.624  1.00 20.00    -0.006 C 
HETATM    3  C3  UNL     1     -32.319   5.747   1.459  1.00 20.00     0.149 C 
HETATM    4  C5  UNL     1     -33.319   4.950   2.266  1.00 20.00     0.088 C 
HETATM    5  C6  UNL     1     -33.536   5.555   3.659  1.00 20.00     0.007 C 
HETATM    6  C7  UNL     1     -33.886   7.068   3.591  1.00 20.00     0.031 C 
HETATM    7  C8  UNL     1     -34.555   4.713   4.437  1.00 20.00     0.012 C 
HETATM    8  C9  UNL     1     -33.781   7.719   4.979  1.00 20.00     0.027 C 
HETATM    9  O10 UNL     1     -31.620   5.220   0.595  1.00 20.00    -0.293 OA
ENDROOT
BRANCH   6  10
HETATM   10  C4  UNL     1     -35.274   7.311   3.053  1.00 20.00     0.244 C 
HETATM   11  O11 UNL     1     -36.239   6.608   3.333  1.00 20.00    -0.306 OA
ENDBRANCH   6  10
TORSDOF 1
ENDMDL
MODEL 7
REMARK VINA RESULT:       2.1      1.738      3.634
REMARK  1 active torsions:
REMARK  status: ('A' for Active; 'I' for Inactive)
REMARK    1  A    between atoms: C4_4  and  C7_7 
ROOT
HETATM    1  C1  UNL     1     -31.511   6.357   0.971  1.00 20.00     0.047 C 
HETATM    2  C2  UNL     1     -31.331   7.557   1.536  1.00 20.00    -0.006 C 
HETATM    3  C3  UNL     1     -32.731   5.569   1.257  1.00 20.00     0.149 C 
HETATM    4  C5  UNL     1     -33.808   6.192   2.116  1.00 20.00     0.088 C 
HETATM    5  C6  UNL     1     -33.220   7.142   3.167  1.00 20.00     0.007 C 
HETATM    6  C7  UNL     1     -32.269   8.196   2.533  1.00 20.00     0.031 C 
HETATM    7  C8  UNL     1     -34.348   7.746   4.011  1.00 20.00     0.012 C 
HETATM    8  C9  UNL     1     -31.451   8.918   3.616  1.00 20.00     0.027 C 
HETATM    9  O10 UNL     1     -32.873   4.459   0.748  1.00 20.00    -0.293 OA
ENDROOT
BRANCH   6  10
HETATM   10  C4  UNL     1     -33.016   9.231   1.731  1.00 20.00     0.244 C 
HETATM   11  O11 UNL     1     -32.574   9.740   0.707  1.00 20.00    -0.306 OA
ENDBRANCH   6  10
TORSDOF 1
ENDMDL
MODEL 8
REMARK VINA RESULT:       2.4      1.631      2.831
REMARK  1 active torsions:
REMARK  status: ('A' for Active; 'I' for Inactive)
REMARK    1  A    between atoms: C4_4  and  C7_7 
ROOT
HETATM    1  C1  UNL     1     -32.965   8.249   4.531  1.00 20.00     0.047 C 
HETATM    2  C2  UNL     1     -33.946   7.340   4.588  1.00 20.00    -0.006 C 
HETATM    3  C3  UNL     1     -32.123   8.366   3.320  1.00 20.00     0.149 C 
HETATM    4  C5  UNL     1     -32.461   7.511   2.119  1.00 20.00     0.088 C 
HETATM    5  C6  UNL     1     -33.062   6.162   2.533  1.00 20.00     0.007 C 
HETATM    6  C7  UNL     1     -34.260   6.331   3.508  1.00 20.00     0.031 C 
HETATM    7  C8  UNL     1     -33.385   5.333   1.284  1.00 20.00     0.012 C 
HETATM    8  C9  UNL     1     -34.635   4.988   4.155  1.00 20.00     0.027 C 
HETATM    9  O10 UNL     1     -31.211   9.191   3.289  1.00 20.00    -0.293 OA
ENDROOT
BRANCH   6  10
HETATM   10  C4  UNL     1     -35.482   6.888   2.822  1.00 20.00     0.244 C 
HETATM   11  O11 UNL     1     -36.629   6.609   3.155  1.00 20.00    -0.306 OA
ENDBRANCH   6  10
TORSDOF 1
ENDMDL
MODEL 9
REMARK VINA RESULT:       2.5      1.313      2.746
REMARK  1 active torsions:
REMARK  status: ('A' for Active; 'I' for Inactive)
REMARK    1  A    between atoms: C4_4  and  C7_7 
ROOT
HETATM    1  C1  UNL     1     -32.405   8.301   3.173  1.00 20.00     0.047 C 
HETATM    2  C2  UNL     1     -33.068   7.289   3.746  1.00 20.00    -0.006 C 
HETATM    3  C3  UNL     1     -32.167   8.308   1.712  1.00 20.00     0.149 C 
HETATM    4  C5  UNL     1     -32.776   7.206   0.875  1.00 20.00     0.088 C 
HETATM    5  C6  UNL     1     -32.866   5.886   1.652  1.00 20.00     0.007 C 
HETATM    6  C7  UNL     1     -33.575   6.063   3.023  1.00 20.00     0.031 C 
HETATM    7  C8  UNL     1     -33.487   4.802   0.763  1.00 20.00     0.012 C 
HETATM    8  C9  UNL     1     -33.370   4.825   3.911  1.00 20.00     0.027 C 
HETATM    9  O10 UNL     1     -31.538   9.233   1.202  1.00 20.00    -0.293 OA
ENDROOT
BRANCH   6  10
HETATM   10  C4  UNL     1     -35.056   6.304   2.875  1.00 20.00     0.244 C 
HETATM   11  O11 UNL     1     -35.828   6.372   3.826  1.00 20.00    -0.306 OA
ENDBRANCH   6  10
TORSDOF 1
ENDMDL
