MODEL 1
REMARK VINA RESULT:      -1.7      0.000      0.000
REMARK  0 active torsions:
REMARK  status: ('A' for Active; 'I' for Inactive)
ROOT
HETATM    1  C1  UNL     1     -34.878   6.531   4.257  1.00 20.00     0.020 A 
HETATM    2  C2  UNL     1     -34.434   5.576   3.296  1.00 20.00     0.038 A 
HETATM    3  C3  UNL     1     -34.123   7.683   4.106  1.00 20.00     0.093 A 
HETATM    4  C4  UNL     1     -33.432   6.196   2.608  1.00 20.00     0.073 A 
HETATM    5  C5  UNL     1     -32.283   8.236   2.463  1.00 20.00     0.085 A 
HETATM    6  C6  UNL     1     -31.619   7.469   1.556  1.00 20.00     0.065 A 
HETATM    7  C7  UNL     1     -32.203   8.676   1.085  1.00 20.00     0.061 A 
HETATM    8  N8  UNL     1     -33.271   7.473   3.056  1.00 20.00    -0.337 N 
HETATM    9  S9  UNL     1     -32.267   5.846   1.379  1.00 20.00    -0.097 SA
ENDROOT
TORSDOF 0
ENDMDL
MODEL 2
REMARK VINA RESULT:      -1.0      1.378      2.142
REMARK  0 active torsions:
REMARK  status: ('A' for Active; 'I' for Inactive)
ROOT
HETATM    1  C1  UNL     1     -34.759   6.969   4.458  1.00 20.00     0.020 A 
HETATM    2  C2  UNL     1     -33.798   7.971   4.136  1.00 20.00     0.038 A 
HETATM    3  C3  UNL     1     -34.641   5.941   3.535  1.00 20.00     0.093 A 
HETATM    4  C4  UNL     1     -33.142   7.501   3.035  1.00 20.00     0.073 A 
HETATM    5  C5  UNL     1     -33.050   5.656   1.591  1.00 20.00     0.085 A 
HETATM    6  C6  UNL     1     -32.150   6.506   1.026  1.00 20.00     0.065 A 
HETATM    7  C7  UNL     1     -31.680   5.221   1.411  1.00 20.00     0.061 A 
HETATM    8  N8  UNL     1     -33.609   6.267   2.698  1.00 20.00    -0.337 N 
HETATM    9  S9  UNL     1     -31.937   8.012   1.904  1.00 20.00    -0.097 SA
ENDROOT
TORSDOF 0
ENDMDL
MODEL 3
REMARK VINA RESULT:      -0.8      1.594      3.619
REMARK  0 active torsions:
REMARK  status: ('A' for Active; 'I' for Inactive)
ROOT
HETATM    1  C1  UNL     1     -31.859   6.802   1.055  1.00 20.00     0.020 A 
HETATM    2  C2  UNL     1     -31.997   7.947   1.892  1.00 20.00     0.038 A 
HETATM    3  C3  UNL     1     -32.703   5.811   1.531  1.00 20.00     0.093 A 
HETATM    4  C4  UNL     1     -32.919   7.596   2.836  1.00 20.00     0.073 A 
HETATM    5  C5  UNL     1     -34.318   5.826   3.476  1.00 20.00     0.085 A 
HETATM    6  C6  UNL     1     -34.532   6.733   4.468  1.00 20.00     0.065 A 
HETATM    7  C7  UNL     1     -35.663   6.306   3.721  1.00 20.00     0.061 A 
HETATM    8  N8  UNL     1     -33.380   6.336   2.598  1.00 20.00    -0.337 N 
HETATM    9  S9  UNL     1     -33.643   8.235   4.270  1.00 20.00    -0.097 SA
ENDROOT
TORSDOF 0
ENDMDL
MODEL 4
REMARK VINA RESULT:      -0.4      1.375      3.070
REMARK  0 active torsions:
REMARK  status: ('A' for Active; 'I' for Inactive)
ROOT
HETATM    1  C1  UNL     1     -31.804   6.609   1.004  1.00 20.00     0.020 A 
HETATM    2  C2  UNL     1     -32.657   5.592   1.523  1.00 20.00     0.038 A 
HETATM    3  C3  UNL     1     -32.014   7.767   1.736  1.00 20.00     0.093 A 
HETATM    4  C4  UNL     1     -33.342   6.182   2.546  1.00 20.00     0.073 A 
HETATM    5  C5  UNL     1     -33.537   8.211   3.705  1.00 20.00     0.085 A 
HETATM    6  C6  UNL     1     -34.507   7.455   4.286  1.00 20.00     0.065 A 
HETATM    7  C7  UNL     1     -33.497   7.984   5.135  1.00 20.00     0.061 A 
HETATM    8  N8  UNL     1     -32.929   7.470   2.709  1.00 20.00    -0.337 N 
HETATM    9  S9  UNL     1     -34.610   5.816   3.664  1.00 20.00    -0.097 SA
ENDROOT
TORSDOF 0
ENDMDL
