MODEL 1
REMARK VINA RESULT:      -2.5      0.000      0.000
REMARK  5 active torsions:
REMARK  status: ('A' for Active; 'I' for Inactive)
REMARK    1  A    between atoms: C1_1  and  C7_7 
REMARK    2  A    between atoms: C2_2  and  C9_9 
REMARK    3  A    between atoms: C4_4  and  C8_8 
REMARK    4  A    between atoms: C8_8  and  C9_9 
REMARK    5  A    between atoms: C9_9  and  O10_10 
ROOT
HETATM    1  C9  UNL     1     -33.020   6.677   3.015  1.00 20.00     0.200 C 
ENDROOT
BRANCH   1   2
HETATM    2  C2  UNL     1     -32.601   7.719   2.064  1.00 20.00    -0.074 C 
HETATM    3  C1  UNL     1     -32.257   8.567   1.287  1.00 20.00    -0.099 C 
BRANCH   3   4
HETATM    4  C7  UNL     1     -31.846   9.586   0.356  1.00 20.00     0.065 A 
HETATM    5  C5  UNL     1     -32.560  10.907   0.375  1.00 20.00     0.018 A 
HETATM    6  C6  UNL     1     -32.777   9.954  -0.763  1.00 20.00     0.018 A 
ENDBRANCH   3   4
ENDBRANCH   1   2
BRANCH   1   7
HETATM    7  C8  UNL     1     -34.170   7.179   3.895  1.00 20.00     0.071 C 
BRANCH   7   8
HETATM    8  C4  UNL     1     -35.322   6.212   3.910  1.00 20.00    -0.033 C 
HETATM    9  C3  UNL     1     -35.348   5.089   4.636  1.00 20.00     0.007 C 
ENDBRANCH   7   8
ENDBRANCH   1   7
BRANCH   1  10
HETATM   10  O10 UNL     1     -33.464   5.530   2.293  1.00 20.00    -0.383 OA
HETATM   11  H22 UNL     1     -33.231   5.682   1.364  1.00 20.00     0.211 HD
ENDBRANCH   1  10
TORSDOF 5
ENDMDL
MODEL 2
REMARK VINA RESULT:      -2.5      0.943      1.358
REMARK  5 active torsions:
REMARK  status: ('A' for Active; 'I' for Inactive)
REMARK    1  A    between atoms: C1_1  and  C7_7 
REMARK    2  A    between atoms: C2_2  and  C9_9 
REMARK    3  A    between atoms: C4_4  and  C8_8 
REMARK    4  A    between atoms: C8_8  and  C9_9 
REMARK    5  A    between atoms: C9_9  and  O10_10 
ROOT
HETATM    1  C9  UNL     1     -32.805   6.125   2.504  1.00 20.00     0.200 C 
ENDROOT
BRANCH   1   2
HETATM    2  C2  UNL     1     -32.474   7.370   1.795  1.00 20.00    -0.074 C 
HETATM    3  C1  UNL     1     -32.206   8.386   1.214  1.00 20.00    -0.099 C 
BRANCH   3   4
HETATM    4  C7  UNL     1     -31.884   9.605   0.518  1.00 20.00     0.065 A 
HETATM    5  C5  UNL     1     -32.822  10.771   0.639  1.00 20.00     0.018 A 
HETATM    6  C6  UNL     1     -32.734  10.011  -0.651  1.00 20.00     0.018 A 
ENDBRANCH   3   4
ENDBRANCH   1   2
BRANCH   1   7
HETATM    7  C8  UNL     1     -34.128   6.271   3.264  1.00 20.00     0.071 C 
BRANCH   7   8
HETATM    8  C4  UNL     1     -34.231   7.604   3.953  1.00 20.00    -0.033 C 
HETATM    9  C3  UNL     1     -33.467   7.974   4.987  1.00 20.00     0.007 C 
ENDBRANCH   7   8
ENDBRANCH   1   7
BRANCH   1  10
HETATM   10  O10 UNL     1     -32.936   5.063   1.560  1.00 20.00    -0.383 OA
HETATM   11  H22 UNL     1     -33.682   5.296   0.987  1.00 20.00     0.211 HD
ENDBRANCH   1  10
TORSDOF 5
ENDMDL
MODEL 3
REMARK VINA RESULT:      -2.3      1.603      1.817
REMARK  5 active torsions:
REMARK  status: ('A' for Active; 'I' for Inactive)
REMARK    1  A    between atoms: C1_1  and  C7_7 
REMARK    2  A    between atoms: C2_2  and  C9_9 
REMARK    3  A    between atoms: C4_4  and  C8_8 
REMARK    4  A    between atoms: C8_8  and  C9_9 
REMARK    5  A    between atoms: C9_9  and  O10_10 
ROOT
HETATM    1  C9  UNL     1     -34.048   6.185   3.020  1.00 20.00     0.200 C 
ENDROOT
BRANCH   1   2
HETATM    2  C2  UNL     1     -33.293   7.208   2.280  1.00 20.00    -0.074 C 
HETATM    3  C1  UNL     1     -32.678   8.043   1.674  1.00 20.00    -0.099 C 
BRANCH   3   4
HETATM    4  C7  UNL     1     -31.941   9.044   0.948  1.00 20.00     0.065 A 
HETATM    5  C5  UNL     1     -32.562  10.399   0.761  1.00 20.00     0.018 A 
HETATM    6  C6  UNL     1     -32.439   9.464  -0.405  1.00 20.00     0.018 A 
ENDBRANCH   3   4
ENDBRANCH   1   2
BRANCH   1   7
HETATM    7  C8  UNL     1     -33.163   4.969   3.317  1.00 20.00     0.071 C 
BRANCH   7   8
HETATM    8  C4  UNL     1     -33.874   3.958   4.173  1.00 20.00    -0.033 C 
HETATM    9  C3  UNL     1     -33.263   2.953   4.810  1.00 20.00     0.007 C 
ENDBRANCH   7   8
ENDBRANCH   1   7
BRANCH   1  10
HETATM   10  O10 UNL     1     -34.499   6.733   4.257  1.00 20.00    -0.383 OA
HETATM   11  H22 UNL     1     -35.133   7.432   4.033  1.00 20.00     0.211 HD
ENDBRANCH   1  10
TORSDOF 5
ENDMDL
MODEL 4
REMARK VINA RESULT:      -1.6      2.024      5.839
REMARK  5 active torsions:
REMARK  status: ('A' for Active; 'I' for Inactive)
REMARK    1  A    between atoms: C1_1  and  C7_7 
REMARK    2  A    between atoms: C2_2  and  C9_9 
REMARK    3  A    between atoms: C4_4  and  C8_8 
REMARK    4  A    between atoms: C8_8  and  C9_9 
REMARK    5  A    between atoms: C9_9  and  O10_10 
ROOT
HETATM    1  C9  UNL     1     -32.889   6.363   1.617  1.00 20.00     0.200 C 
ENDROOT
BRANCH   1   2
HETATM    2  C2  UNL     1     -33.247   5.400   2.669  1.00 20.00    -0.074 C 
HETATM    3  C1  UNL     1     -33.538   4.611   3.527  1.00 20.00    -0.099 C 
BRANCH   3   4
HETATM    4  C7  UNL     1     -33.888   3.667   4.556  1.00 20.00     0.065 A 
HETATM    5  C5  UNL     1     -32.820   3.220   5.513  1.00 20.00     0.018 A 
HETATM    6  C6  UNL     1     -33.335   2.273   4.470  1.00 20.00     0.018 A 
ENDBRANCH   3   4
ENDBRANCH   1   2
BRANCH   1   7
HETATM    7  C8  UNL     1     -32.613   7.745   2.220  1.00 20.00     0.071 C 
BRANCH   7   8
HETATM    8  C4  UNL     1     -31.838   8.621   1.274  1.00 20.00    -0.033 C 
HETATM    9  C3  UNL     1     -32.389   9.567   0.506  1.00 20.00     0.007 C 
ENDBRANCH   7   8
ENDBRANCH   1   7
BRANCH   1  10
HETATM   10  O10 UNL     1     -31.712   5.914   0.946  1.00 20.00    -0.383 OA
HETATM   11  H22 UNL     1     -31.386   6.667   0.429  1.00 20.00     0.211 HD
ENDBRANCH   1  10
TORSDOF 5
ENDMDL
MODEL 5
REMARK VINA RESULT:      -1.6      1.759      2.323
REMARK  5 active torsions:
REMARK  status: ('A' for Active; 'I' for Inactive)
REMARK    1  A    between atoms: C1_1  and  C7_7 
REMARK    2  A    between atoms: C2_2  and  C9_9 
REMARK    3  A    between atoms: C4_4  and  C8_8 
REMARK    4  A    between atoms: C8_8  and  C9_9 
REMARK    5  A    between atoms: C9_9  and  O10_10 
ROOT
HETATM    1  C9  UNL     1     -34.603   5.770   3.331  1.00 20.00     0.200 C 
ENDROOT
BRANCH   1   2
HETATM    2  C2  UNL     1     -33.622   6.711   2.769  1.00 20.00    -0.074 C 
HETATM    3  C1  UNL     1     -32.820   7.480   2.313  1.00 20.00    -0.099 C 
BRANCH   3   4
HETATM    4  C7  UNL     1     -31.859   8.402   1.765  1.00 20.00     0.065 A 
HETATM    5  C5  UNL     1     -32.348   9.496   0.860  1.00 20.00     0.018 A 
HETATM    6  C6  UNL     1     -31.570   8.347   0.293  1.00 20.00     0.018 A 
ENDBRANCH   3   4
ENDBRANCH   1   2
BRANCH   1   7
HETATM    7  C8  UNL     1     -33.990   4.980   4.493  1.00 20.00     0.071 C 
BRANCH   7   8
HETATM    8  C4  UNL     1     -33.719   3.551   4.112  1.00 20.00    -0.033 C 
HETATM    9  C3  UNL     1     -32.994   2.702   4.851  1.00 20.00     0.007 C 
ENDBRANCH   7   8
ENDBRANCH   1   7
BRANCH   1  10
HETATM   10  O10 UNL     1     -35.730   6.497   3.819  1.00 20.00    -0.383 OA
HETATM   11  H22 UNL     1     -36.259   5.870   4.335  1.00 20.00     0.211 HD
ENDBRANCH   1  10
TORSDOF 5
ENDMDL
MODEL 6
REMARK VINA RESULT:      -1.4      1.525      1.667
REMARK  5 active torsions:
REMARK  status: ('A' for Active; 'I' for Inactive)
REMARK    1  A    between atoms: C1_1  and  C7_7 
REMARK    2  A    between atoms: C2_2  and  C9_9 
REMARK    3  A    between atoms: C4_4  and  C8_8 
REMARK    4  A    between atoms: C8_8  and  C9_9 
REMARK    5  A    between atoms: C9_9  and  O10_10 
ROOT
HETATM    1  C9  UNL     1     -34.166   7.700   4.057  1.00 20.00     0.200 C 
ENDROOT
BRANCH   1   2
HETATM    2  C2  UNL     1     -33.380   8.135   2.893  1.00 20.00    -0.074 C 
HETATM    3  C1  UNL     1     -32.740   8.490   1.941  1.00 20.00    -0.099 C 
BRANCH   3   4
HETATM    4  C7  UNL     1     -31.972   8.916   0.800  1.00 20.00     0.065 A 
HETATM    5  C5  UNL     1     -32.172  10.310   0.279  1.00 20.00     0.018 A 
HETATM    6  C6  UNL     1     -32.684   9.137  -0.504  1.00 20.00     0.018 A 
ENDBRANCH   3   4
ENDBRANCH   1   2
BRANCH   1   7
HETATM    7  C8  UNL     1     -34.838   6.350   3.782  1.00 20.00     0.071 C 
BRANCH   7   8
HETATM    8  C4  UNL     1     -33.826   5.254   3.587  1.00 20.00    -0.033 C 
HETATM    9  C3  UNL     1     -33.925   4.037   4.133  1.00 20.00     0.007 C 
ENDBRANCH   7   8
ENDBRANCH   1   7
BRANCH   1  10
HETATM   10  O10 UNL     1     -33.304   7.559   5.185  1.00 20.00    -0.383 OA
HETATM   11  H22 UNL     1     -32.990   8.450   5.404  1.00 20.00     0.211 HD
ENDBRANCH   1  10
TORSDOF 5
ENDMDL
MODEL 7
REMARK VINA RESULT:      -1.2      1.500      5.185
REMARK  5 active torsions:
REMARK  status: ('A' for Active; 'I' for Inactive)
REMARK    1  A    between atoms: C1_1  and  C7_7 
REMARK    2  A    between atoms: C2_2  and  C9_9 
REMARK    3  A    between atoms: C4_4  and  C8_8 
REMARK    4  A    between atoms: C8_8  and  C9_9 
REMARK    5  A    between atoms: C9_9  and  O10_10 
ROOT
HETATM    1  C9  UNL     1     -31.605   7.747   1.866  1.00 20.00     0.200 C 
ENDROOT
BRANCH   1   2
HETATM    2  C2  UNL     1     -32.775   7.416   2.694  1.00 20.00    -0.074 C 
HETATM    3  C1  UNL     1     -33.732   7.147   3.367  1.00 20.00    -0.099 C 
BRANCH   3   4
HETATM    4  C7  UNL     1     -34.879   6.823   4.176  1.00 20.00     0.065 A 
HETATM    5  C5  UNL     1     -35.229   5.377   4.380  1.00 20.00     0.018 A 
HETATM    6  C6  UNL     1     -36.089   6.240   3.505  1.00 20.00     0.018 A 
ENDBRANCH   3   4
ENDBRANCH   1   2
BRANCH   1   7
HETATM    7  C8  UNL     1     -32.043   8.352   0.528  1.00 20.00     0.071 C 
BRANCH   7   8
HETATM    8  C4  UNL     1     -32.401   9.806   0.664  1.00 20.00    -0.033 C 
HETATM    9  C3  UNL     1     -32.875  10.558  -0.335  1.00 20.00     0.007 C 
ENDBRANCH   7   8
ENDBRANCH   1   7
BRANCH   1  10
HETATM   10  O10 UNL     1     -30.794   8.699   2.553  1.00 20.00    -0.383 OA
HETATM   11  H22 UNL     1     -30.632   8.335   3.437  1.00 20.00     0.211 HD
ENDBRANCH   1  10
TORSDOF 5
ENDMDL
MODEL 8
REMARK VINA RESULT:      -1.1      2.414      5.443
REMARK  5 active torsions:
REMARK  status: ('A' for Active; 'I' for Inactive)
REMARK    1  A    between atoms: C1_1  and  C7_7 
REMARK    2  A    between atoms: C2_2  and  C9_9 
REMARK    3  A    between atoms: C4_4  and  C8_8 
REMARK    4  A    between atoms: C8_8  and  C9_9 
REMARK    5  A    between atoms: C9_9  and  O10_10 
ROOT
HETATM    1  C9  UNL     1     -33.028   6.372   1.835  1.00 20.00     0.200 C 
ENDROOT
BRANCH   1   2
HETATM    2  C2  UNL     1     -33.335   5.326   2.823  1.00 20.00    -0.074 C 
HETATM    3  C1  UNL     1     -33.584   4.474   3.631  1.00 20.00    -0.099 C 
BRANCH   3   4
HETATM    4  C7  UNL     1     -33.884   3.451   4.599  1.00 20.00     0.065 A 
HETATM    5  C5  UNL     1     -32.815   3.050   5.575  1.00 20.00     0.018 A 
HETATM    6  C6  UNL     1     -33.208   2.117   4.468  1.00 20.00     0.018 A 
ENDBRANCH   3   4
ENDBRANCH   1   2
BRANCH   1   7
HETATM    7  C8  UNL     1     -32.917   7.741   2.515  1.00 20.00     0.071 C 
BRANCH   7   8
HETATM    8  C4  UNL     1     -33.824   7.845   3.710  1.00 20.00    -0.033 C 
HETATM    9  C3  UNL     1     -33.409   8.164   4.941  1.00 20.00     0.007 C 
ENDBRANCH   7   8
ENDBRANCH   1   7
BRANCH   1  10
HETATM   10  O10 UNL     1     -31.784   6.075   1.202  1.00 20.00    -0.383 OA
HETATM   11  H22 UNL     1     -31.660   5.116   1.276  1.00 20.00     0.211 HD
ENDBRANCH   1  10
TORSDOF 5
ENDMDL
MODEL 9
REMARK VINA RESULT:      -1.0      2.223      5.725
REMARK  5 active torsions:
REMARK  status: ('A' for Active; 'I' for Inactive)
REMARK    1  A    between atoms: C1_1  and  C7_7 
REMARK    2  A    between atoms: C2_2  and  C9_9 
REMARK    3  A    between atoms: C4_4  and  C8_8 
REMARK    4  A    between atoms: C8_8  and  C9_9 
REMARK    5  A    between atoms: C9_9  and  O10_10 
ROOT
HETATM    1  C9  UNL     1     -35.072   6.881   4.021  1.00 20.00     0.200 C 
ENDROOT
BRANCH   1   2
HETATM    2  C2  UNL     1     -34.579   5.505   4.190  1.00 20.00    -0.074 C 
HETATM    3  C1  UNL     1     -34.175   4.383   4.332  1.00 20.00    -0.099 C 
BRANCH   3   4
HETATM    4  C7  UNL     1     -33.692   3.037   4.500  1.00 20.00     0.065 A 
HETATM    5  C5  UNL     1     -32.772   2.743   5.649  1.00 20.00     0.018 A 
HETATM    6  C6  UNL     1     -32.238   2.759   4.248  1.00 20.00     0.018 A 
ENDBRANCH   3   4
ENDBRANCH   1   2
BRANCH   1   7
HETATM    7  C8  UNL     1     -33.930   7.819   3.617  1.00 20.00     0.071 C 
BRANCH   7   8
HETATM    8  C4  UNL     1     -33.108   7.247   2.495  1.00 20.00    -0.033 C 
HETATM    9  C3  UNL     1     -32.115   7.902   1.883  1.00 20.00     0.007 C 
ENDBRANCH   7   8
ENDBRANCH   1   7
BRANCH   1  10
HETATM   10  O10 UNL     1     -36.065   6.904   2.996  1.00 20.00    -0.383 OA
HETATM   11  H22 UNL     1     -36.845   7.335   3.378  1.00 20.00     0.211 HD
ENDBRANCH   1  10
TORSDOF 5
ENDMDL
