MODEL 1
REMARK VINA RESULT:       0.0      0.000      0.000
REMARK  1 active torsions:
REMARK  status: ('A' for Active; 'I' for Inactive)
REMARK    1  A    between atoms: C3_3  and  C7_7 
ROOT
HETATM    1  C1  UNL     1     -34.011   7.664   4.285  1.00 20.00    -0.029 C 
HETATM    2  C2  UNL     1     -32.883   8.032   3.665  1.00 20.00    -0.026 C 
HETATM    3  C4  UNL     1     -34.893   6.547   3.807  1.00 20.00     0.039 C 
HETATM    4  C5  UNL     1     -33.453   6.505   1.725  1.00 20.00     0.020 C 
HETATM    5  C6  UNL     1     -32.384   7.389   2.398  1.00 20.00     0.004 C 
HETATM    6  C7  UNL     1     -34.243   5.666   2.733  1.00 20.00     0.059 C 
HETATM    7  C9  UNL     1     -31.884   8.447   1.412  1.00 20.00     0.014 C 
ENDROOT
BRANCH   6   8
HETATM    8  C3  UNL     1     -33.365   4.613   3.352  1.00 20.00     0.127 C 
HETATM    9  C8  UNL     1     -33.931   3.866   4.529  1.00 20.00     0.091 C 
HETATM   10  O10 UNL     1     -32.239   4.376   2.918  1.00 20.00    -0.298 OA
ENDBRANCH   6   8
TORSDOF 1
ENDMDL
MODEL 2
REMARK VINA RESULT:       0.1      2.486      4.184
REMARK  1 active torsions:
REMARK  status: ('A' for Active; 'I' for Inactive)
REMARK    1  A    between atoms: C3_3  and  C7_7 
ROOT
HETATM    1  C1  UNL     1     -33.401   7.643   3.521  1.00 20.00    -0.029 C 
HETATM    2  C2  UNL     1     -33.707   6.659   2.665  1.00 20.00    -0.026 C 
HETATM    3  C4  UNL     1     -32.254   8.589   3.320  1.00 20.00     0.039 C 
HETATM    4  C5  UNL     1     -31.556   7.094   1.399  1.00 20.00     0.020 C 
HETATM    5  C6  UNL     1     -32.916   6.368   1.418  1.00 20.00     0.004 C 
HETATM    6  C7  UNL     1     -31.650   8.534   1.910  1.00 20.00     0.059 C 
HETATM    7  C9  UNL     1     -32.707   4.862   1.246  1.00 20.00     0.014 C 
ENDROOT
BRANCH   6   8
HETATM    8  C3  UNL     1     -32.432   9.389   0.951  1.00 20.00     0.127 C 
HETATM    9  C8  UNL     1     -32.193   9.152  -0.516  1.00 20.00     0.091 C 
HETATM   10  O10 UNL     1     -33.227  10.240   1.346  1.00 20.00    -0.298 OA
ENDBRANCH   6   8
TORSDOF 1
ENDMDL
MODEL 3
REMARK VINA RESULT:       0.2      2.365      4.152
REMARK  1 active torsions:
REMARK  status: ('A' for Active; 'I' for Inactive)
REMARK    1  A    between atoms: C3_3  and  C7_7 
ROOT
HETATM    1  C1  UNL     1     -33.437   7.626   3.323  1.00 20.00    -0.029 C 
HETATM    2  C2  UNL     1     -33.676   6.589   2.509  1.00 20.00    -0.026 C 
HETATM    3  C4  UNL     1     -32.305   8.590   3.127  1.00 20.00     0.039 C 
HETATM    4  C5  UNL     1     -31.474   7.013   1.328  1.00 20.00     0.020 C 
HETATM    5  C6  UNL     1     -32.815   6.252   1.320  1.00 20.00     0.004 C 
HETATM    6  C7  UNL     1     -31.629   8.475   1.753  1.00 20.00     0.059 C 
HETATM    7  C9  UNL     1     -32.561   4.745   1.242  1.00 20.00     0.014 C 
ENDROOT
BRANCH   6   8
HETATM    8  C3  UNL     1     -32.382   9.255   0.711  1.00 20.00     0.127 C 
HETATM    9  C8  UNL     1     -32.837  10.637   1.096  1.00 20.00     0.091 C 
HETATM   10  O10 UNL     1     -32.615   8.786  -0.402  1.00 20.00    -0.298 OA
ENDBRANCH   6   8
TORSDOF 1
ENDMDL
MODEL 4
REMARK VINA RESULT:       0.5      1.028      1.151
REMARK  1 active torsions:
REMARK  status: ('A' for Active; 'I' for Inactive)
REMARK    1  A    between atoms: C3_3  and  C7_7 
ROOT
HETATM    1  C1  UNL     1     -34.250   7.655   4.393  1.00 20.00    -0.029 C 
HETATM    2  C2  UNL     1     -33.047   7.857   3.838  1.00 20.00    -0.026 C 
HETATM    3  C4  UNL     1     -35.206   6.593   3.934  1.00 20.00     0.039 C 
HETATM    4  C5  UNL     1     -33.630   6.231   1.984  1.00 20.00     0.020 C 
HETATM    5  C6  UNL     1     -32.527   7.062   2.670  1.00 20.00     0.004 C 
HETATM    6  C7  UNL     1     -34.574   5.563   2.988  1.00 20.00     0.059 C 
HETATM    7  C9  UNL     1     -31.851   7.977   1.648  1.00 20.00     0.014 C 
ENDROOT
BRANCH   6   8
HETATM    8  C3  UNL     1     -33.857   4.487   3.757  1.00 20.00     0.127 C 
HETATM    9  C8  UNL     1     -32.534   4.029   3.206  1.00 20.00     0.091 C 
HETATM   10  O10 UNL     1     -34.328   4.007   4.786  1.00 20.00    -0.298 OA
ENDBRANCH   6   8
TORSDOF 1
ENDMDL
MODEL 5
REMARK VINA RESULT:       0.9      2.206      4.151
REMARK  1 active torsions:
REMARK  status: ('A' for Active; 'I' for Inactive)
REMARK    1  A    between atoms: C3_3  and  C7_7 
ROOT
HETATM    1  C1  UNL     1     -32.293   8.603   4.125  1.00 20.00    -0.029 C 
HETATM    2  C2  UNL     1     -33.457   7.950   4.014  1.00 20.00    -0.026 C 
HETATM    3  C4  UNL     1     -31.242   8.612   3.054  1.00 20.00     0.039 C 
HETATM    4  C5  UNL     1     -32.631   6.844   1.889  1.00 20.00     0.020 C 
HETATM    5  C6  UNL     1     -33.833   7.122   2.813  1.00 20.00     0.004 C 
HETATM    6  C7  UNL     1     -31.733   8.071   1.705  1.00 20.00     0.059 C 
HETATM    7  C9  UNL     1     -34.478   5.803   3.242  1.00 20.00     0.014 C 
ENDROOT
BRANCH   6   8
HETATM    8  C3  UNL     1     -32.445   9.137   0.918  1.00 20.00     0.127 C 
HETATM    9  C8  UNL     1     -32.540   8.931  -0.570  1.00 20.00     0.091 C 
HETATM   10  O10 UNL     1     -32.926  10.128   1.464  1.00 20.00    -0.298 OA
ENDBRANCH   6   8
TORSDOF 1
ENDMDL
MODEL 6
REMARK VINA RESULT:       0.9      1.637      3.663
REMARK  1 active torsions:
REMARK  status: ('A' for Active; 'I' for Inactive)
REMARK    1  A    between atoms: C3_3  and  C7_7 
ROOT
HETATM    1  C1  UNL     1     -32.632   5.542   1.384  1.00 20.00    -0.029 C 
HETATM    2  C2  UNL     1     -32.534   4.702   2.423  1.00 20.00    -0.026 C 
HETATM    3  C4  UNL     1     -33.473   6.785   1.400  1.00 20.00     0.039 C 
HETATM    4  C5  UNL     1     -34.398   5.948   3.604  1.00 20.00     0.020 C 
HETATM    5  C6  UNL     1     -33.282   4.891   3.716  1.00 20.00     0.004 C 
HETATM    6  C7  UNL     1     -33.966   7.177   2.799  1.00 20.00     0.059 C 
HETATM    7  C9  UNL     1     -33.866   3.564   4.205  1.00 20.00     0.014 C 
ENDROOT
BRANCH   6   8
HETATM    8  C3  UNL     1     -32.920   7.959   3.544  1.00 20.00     0.127 C 
HETATM    9  C8  UNL     1     -33.189   8.234   4.999  1.00 20.00     0.091 C 
HETATM   10  O10 UNL     1     -31.896   8.355   2.992  1.00 20.00    -0.298 OA
ENDBRANCH   6   8
TORSDOF 1
ENDMDL
MODEL 7
REMARK VINA RESULT:       1.0      1.958      2.850
REMARK  1 active torsions:
REMARK  status: ('A' for Active; 'I' for Inactive)
REMARK    1  A    between atoms: C3_3  and  C7_7 
ROOT
HETATM    1  C1  UNL     1     -33.049   5.723   1.244  1.00 20.00    -0.029 C 
HETATM    2  C2  UNL     1     -32.996   6.916   0.637  1.00 20.00    -0.026 C 
HETATM    3  C4  UNL     1     -32.855   5.536   2.721  1.00 20.00     0.039 C 
HETATM    4  C5  UNL     1     -32.160   7.971   2.784  1.00 20.00     0.020 C 
HETATM    5  C6  UNL     1     -32.704   8.204   1.360  1.00 20.00     0.004 C 
HETATM    6  C7  UNL     1     -32.896   6.847   3.518  1.00 20.00     0.059 C 
HETATM    7  C9  UNL     1     -31.724   9.066   0.561  1.00 20.00     0.014 C 
ENDROOT
BRANCH   6   8
HETATM    8  C3  UNL     1     -34.311   7.251   3.827  1.00 20.00     0.127 C 
HETATM    9  C8  UNL     1     -35.319   6.142   3.956  1.00 20.00     0.091 C 
HETATM   10  O10 UNL     1     -34.629   8.431   3.967  1.00 20.00    -0.298 OA
ENDBRANCH   6   8
TORSDOF 1
ENDMDL
MODEL 8
REMARK VINA RESULT:       1.1      1.858      2.872
REMARK  1 active torsions:
REMARK  status: ('A' for Active; 'I' for Inactive)
REMARK    1  A    between atoms: C3_3  and  C7_7 
ROOT
HETATM    1  C1  UNL     1     -31.609   8.120   1.870  1.00 20.00    -0.029 C 
HETATM    2  C2  UNL     1     -31.318   6.819   1.738  1.00 20.00    -0.026 C 
HETATM    3  C4  UNL     1     -33.006   8.645   2.024  1.00 20.00     0.039 C 
HETATM    4  C5  UNL     1     -33.785   6.294   1.497  1.00 20.00     0.020 C 
HETATM    5  C6  UNL     1     -32.362   5.735   1.697  1.00 20.00     0.004 C 
HETATM    6  C7  UNL     1     -34.044   7.556   2.325  1.00 20.00     0.059 C 
HETATM    7  C9  UNL     1     -32.043   4.714   0.603  1.00 20.00     0.014 C 
ENDROOT
BRANCH   6   8
HETATM    8  C3  UNL     1     -34.079   7.230   3.793  1.00 20.00     0.127 C 
HETATM    9  C8  UNL     1     -35.013   6.130   4.220  1.00 20.00     0.091 C 
HETATM   10  O10 UNL     1     -33.379   7.834   4.604  1.00 20.00    -0.298 OA
ENDBRANCH   6   8
TORSDOF 1
ENDMDL
MODEL 9
REMARK VINA RESULT:       1.2      1.122      3.532
REMARK  1 active torsions:
REMARK  status: ('A' for Active; 'I' for Inactive)
REMARK    1  A    between atoms: C3_3  and  C7_7 
ROOT
HETATM    1  C1  UNL     1     -35.343   6.664   3.974  1.00 20.00    -0.029 C 
HETATM    2  C2  UNL     1     -35.207   5.341   3.815  1.00 20.00    -0.026 C 
HETATM    3  C4  UNL     1     -34.189   7.624   3.953  1.00 20.00     0.039 C 
HETATM    4  C5  UNL     1     -32.689   5.583   3.960  1.00 20.00     0.020 C 
HETATM    5  C6  UNL     1     -33.877   4.659   3.629  1.00 20.00     0.004 C 
HETATM    6  C7  UNL     1     -32.884   7.007   3.431  1.00 20.00     0.059 C 
HETATM    7  C9  UNL     1     -33.798   3.383   4.470  1.00 20.00     0.014 C 
ENDROOT
BRANCH   6   8
HETATM    8  C3  UNL     1     -32.837   7.026   1.928  1.00 20.00     0.127 C 
HETATM    9  C8  UNL     1     -32.402   8.312   1.280  1.00 20.00     0.091 C 
HETATM   10  O10 UNL     1     -33.140   6.038   1.261  1.00 20.00    -0.298 OA
ENDBRANCH   6   8
TORSDOF 1
ENDMDL
