MODEL 1
REMARK VINA RESULT:      -1.2      0.000      0.000
REMARK  2 active torsions:
REMARK  status: ('A' for Active; 'I' for Inactive)
REMARK    1  A    between atoms: C1_1  and  C5_5 
REMARK    2  A    between atoms: C6_6  and  C9_9 
ROOT
HETATM    1  C2  UNL     1     -32.963   6.976   0.616  1.00 20.00     0.012 C 
HETATM    2  C3  UNL     1     -32.955   5.966   1.756  1.00 20.00     0.006 C 
HETATM    3  C4  UNL     1     -31.743   7.872   2.547  1.00 20.00     0.016 C 
HETATM    4  C5  UNL     1     -32.008   8.087   1.052  1.00 20.00     0.047 C 
HETATM    5  C6  UNL     1     -32.744   6.809   3.011  1.00 20.00    -0.010 C 
ENDROOT
BRANCH   5   6
HETATM    6  C9  UNL     1     -34.045   7.422   3.524  1.00 20.00    -0.019 C 
HETATM    7  C7  UNL     1     -35.089   6.337   3.794  1.00 20.00     0.010 C 
HETATM    8  C8  UNL     1     -33.796   8.244   4.791  1.00 20.00     0.010 C 
ENDBRANCH   5   6
BRANCH   4   9
HETATM    9  C1  UNL     1     -32.596   9.442   0.810  1.00 20.00     0.235 C 
HETATM   10  O10 UNL     1     -32.695   9.948  -0.304  1.00 20.00    -0.306 OA
ENDBRANCH   4   9
TORSDOF 2
ENDMDL
MODEL 2
REMARK VINA RESULT:       0.4      3.144      4.388
REMARK  2 active torsions:
REMARK  status: ('A' for Active; 'I' for Inactive)
REMARK    1  A    between atoms: C1_1  and  C5_5 
REMARK    2  A    between atoms: C6_6  and  C9_9 
ROOT
HETATM    1  C2  UNL     1     -33.158   4.725   2.456  1.00 20.00     0.012 C 
HETATM    2  C3  UNL     1     -33.581   6.083   1.909  1.00 20.00     0.006 C 
HETATM    3  C4  UNL     1     -34.880   5.729   3.887  1.00 20.00     0.016 C 
HETATM    4  C5  UNL     1     -34.144   4.419   3.584  1.00 20.00     0.047 C 
HETATM    5  C6  UNL     1     -34.135   6.826   3.121  1.00 20.00    -0.010 C 
ENDROOT
BRANCH   5   6
HETATM    6  C9  UNL     1     -33.034   7.473   3.959  1.00 20.00    -0.019 C 
HETATM    7  C7  UNL     1     -32.133   8.352   3.089  1.00 20.00     0.010 C 
HETATM    8  C8  UNL     1     -33.632   8.297   5.101  1.00 20.00     0.010 C 
ENDBRANCH   5   6
BRANCH   4   9
HETATM    9  C1  UNL     1     -33.440   3.914   4.805  1.00 20.00     0.235 C 
HETATM   10  O10 UNL     1     -33.039   2.761   4.927  1.00 20.00    -0.306 OA
ENDBRANCH   4   9
TORSDOF 2
ENDMDL
MODEL 3
REMARK VINA RESULT:       0.5      2.164      4.050
REMARK  2 active torsions:
REMARK  status: ('A' for Active; 'I' for Inactive)
REMARK    1  A    between atoms: C1_1  and  C5_5 
REMARK    2  A    between atoms: C6_6  and  C9_9 
ROOT
HETATM    1  C2  UNL     1     -32.642   8.183   3.794  1.00 20.00     0.012 C 
HETATM    2  C3  UNL     1     -31.475   8.629   2.922  1.00 20.00     0.006 C 
HETATM    3  C4  UNL     1     -32.499   6.795   1.775  1.00 20.00     0.016 C 
HETATM    4  C5  UNL     1     -33.145   6.885   3.163  1.00 20.00     0.047 C 
HETATM    5  C6  UNL     1     -31.846   8.157   1.519  1.00 20.00    -0.010 C 
ENDROOT
BRANCH   5   6
HETATM    6  C9  UNL     1     -32.788   9.127   0.808  1.00 20.00    -0.019 C 
HETATM    7  C7  UNL     1     -32.622  10.546   1.357  1.00 20.00     0.010 C 
HETATM    8  C8  UNL     1     -32.546   9.112  -0.702  1.00 20.00     0.010 C 
ENDBRANCH   5   6
BRANCH   4   9
HETATM    9  C1  UNL     1     -34.638   6.872   3.053  1.00 20.00     0.235 C 
HETATM   10  O10 UNL     1     -35.378   6.435   3.928  1.00 20.00    -0.306 OA
ENDBRANCH   4   9
TORSDOF 2
ENDMDL
MODEL 4
REMARK VINA RESULT:       0.5      2.092      3.796
REMARK  2 active torsions:
REMARK  status: ('A' for Active; 'I' for Inactive)
REMARK    1  A    between atoms: C1_1  and  C5_5 
REMARK    2  A    between atoms: C6_6  and  C9_9 
ROOT
HETATM    1  C2  UNL     1     -33.667   6.839   2.710  1.00 20.00     0.012 C 
HETATM    2  C3  UNL     1     -32.927   8.106   3.120  1.00 20.00     0.006 C 
HETATM    3  C4  UNL     1     -31.497   6.973   1.572  1.00 20.00     0.016 C 
HETATM    4  C5  UNL     1     -32.657   6.025   1.899  1.00 20.00     0.047 C 
HETATM    5  C6  UNL     1     -31.966   8.376   1.966  1.00 20.00    -0.010 C 
ENDROOT
BRANCH   5   6
HETATM    6  C9  UNL     1     -32.640   9.109   0.808  1.00 20.00    -0.019 C 
HETATM    7  C7  UNL     1     -32.822  10.593   1.135  1.00 20.00     0.010 C 
HETATM    8  C8  UNL     1     -31.834   8.947  -0.482  1.00 20.00     0.010 C 
ENDBRANCH   5   6
BRANCH   4   9
HETATM    9  C1  UNL     1     -33.269   5.487   0.644  1.00 20.00     0.235 C 
HETATM   10  O10 UNL     1     -32.915   4.438   0.114  1.00 20.00    -0.306 OA
ENDBRANCH   4   9
TORSDOF 2
ENDMDL
MODEL 5
REMARK VINA RESULT:       0.8      1.792      3.081
REMARK  2 active torsions:
REMARK  status: ('A' for Active; 'I' for Inactive)
REMARK    1  A    between atoms: C1_1  and  C5_5 
REMARK    2  A    between atoms: C6_6  and  C9_9 
ROOT
HETATM    1  C2  UNL     1     -33.735   7.861   4.283  1.00 20.00     0.012 C 
HETATM    2  C3  UNL     1     -34.752   6.733   4.401  1.00 20.00     0.006 C 
HETATM    3  C4  UNL     1     -34.017   6.727   2.124  1.00 20.00     0.016 C 
HETATM    4  C5  UNL     1     -33.442   7.985   2.787  1.00 20.00     0.047 C 
HETATM    5  C6  UNL     1     -34.398   5.779   3.265  1.00 20.00    -0.010 C 
ENDROOT
BRANCH   5   6
HETATM    6  C9  UNL     1     -33.259   4.831   3.636  1.00 20.00    -0.019 C 
HETATM    7  C7  UNL     1     -33.800   3.572   4.318  1.00 20.00     0.010 C 
HETATM    8  C8  UNL     1     -32.441   4.453   2.399  1.00 20.00     0.010 C 
ENDBRANCH   5   6
BRANCH   4   9
HETATM    9  C1  UNL     1     -31.972   8.095   2.524  1.00 20.00     0.235 C 
HETATM   10  O10 UNL     1     -31.442   7.725   1.481  1.00 20.00    -0.306 OA
ENDBRANCH   4   9
TORSDOF 2
ENDMDL
MODEL 6
REMARK VINA RESULT:       0.9      2.113      3.012
REMARK  2 active torsions:
REMARK  status: ('A' for Active; 'I' for Inactive)
REMARK    1  A    between atoms: C1_1  and  C5_5 
REMARK    2  A    between atoms: C6_6  and  C9_9 
ROOT
HETATM    1  C2  UNL     1     -31.420   7.548   1.879  1.00 20.00     0.012 C 
HETATM    2  C3  UNL     1     -32.501   8.533   2.304  1.00 20.00     0.006 C 
HETATM    3  C4  UNL     1     -33.644   6.684   1.302  1.00 20.00     0.016 C 
HETATM    4  C5  UNL     1     -32.144   6.485   1.052  1.00 20.00     0.047 C 
HETATM    5  C6  UNL     1     -33.755   7.678   2.462  1.00 20.00    -0.010 C 
ENDROOT
BRANCH   5   6
HETATM    6  C9  UNL     1     -33.815   6.981   3.820  1.00 20.00    -0.019 C 
HETATM    7  C7  UNL     1     -33.605   7.984   4.956  1.00 20.00     0.010 C 
HETATM    8  C8  UNL     1     -35.148   6.251   3.998  1.00 20.00     0.010 C 
ENDBRANCH   5   6
BRANCH   4   9
HETATM    9  C1  UNL     1     -31.722   5.103   1.445  1.00 20.00     0.235 C 
HETATM   10  O10 UNL     1     -31.284   4.277   0.651  1.00 20.00    -0.306 OA
ENDBRANCH   4   9
TORSDOF 2
ENDMDL
MODEL 7
REMARK VINA RESULT:       1.0      2.805      4.476
REMARK  2 active torsions:
REMARK  status: ('A' for Active; 'I' for Inactive)
REMARK    1  A    between atoms: C1_1  and  C5_5 
REMARK    2  A    between atoms: C6_6  and  C9_9 
ROOT
HETATM    1  C2  UNL     1     -35.471   6.476   3.605  1.00 20.00     0.012 C 
HETATM    2  C3  UNL     1     -34.859   7.861   3.445  1.00 20.00     0.006 C 
HETATM    3  C4  UNL     1     -33.118   6.460   4.301  1.00 20.00     0.016 C 
HETATM    4  C5  UNL     1     -34.421   5.653   4.353  1.00 20.00     0.047 C 
HETATM    5  C6  UNL     1     -33.361   7.602   3.310  1.00 20.00    -0.010 C 
ENDROOT
BRANCH   5   6
HETATM    6  C9  UNL     1     -32.962   7.228   1.884  1.00 20.00    -0.019 C 
HETATM    7  C7  UNL     1     -32.167   8.358   1.226  1.00 20.00     0.010 C 
HETATM    8  C8  UNL     1     -32.149   5.932   1.869  1.00 20.00     0.010 C 
ENDBRANCH   5   6
BRANCH   4   9
HETATM    9  C1  UNL     1     -34.233   4.306   3.727  1.00 20.00     0.235 C 
HETATM   10  O10 UNL     1     -33.836   3.323   4.344  1.00 20.00    -0.306 OA
ENDBRANCH   4   9
TORSDOF 2
ENDMDL
MODEL 8
REMARK VINA RESULT:       1.3      2.096      3.790
REMARK  2 active torsions:
REMARK  status: ('A' for Active; 'I' for Inactive)
REMARK    1  A    between atoms: C1_1  and  C5_5 
REMARK    2  A    between atoms: C6_6  and  C9_9 
ROOT
HETATM    1  C2  UNL     1     -34.119   5.547   4.398  1.00 20.00     0.012 C 
HETATM    2  C3  UNL     1     -34.016   4.824   3.060  1.00 20.00     0.006 C 
HETATM    3  C4  UNL     1     -34.580   7.092   2.548  1.00 20.00     0.016 C 
HETATM    4  C5  UNL     1     -34.690   6.926   4.069  1.00 20.00     0.047 C 
HETATM    5  C6  UNL     1     -33.716   5.929   2.052  1.00 20.00    -0.010 C 
ENDROOT
BRANCH   5   6
HETATM    6  C9  UNL     1     -32.231   6.287   2.006  1.00 20.00    -0.019 C 
HETATM    7  C7  UNL     1     -31.473   5.346   1.068  1.00 20.00     0.010 C 
HETATM    8  C8  UNL     1     -32.035   7.741   1.571  1.00 20.00     0.010 C 
ENDBRANCH   5   6
BRANCH   4   9
HETATM    9  C1  UNL     1     -33.938   8.013   4.774  1.00 20.00     0.235 C 
HETATM   10  O10 UNL     1     -32.721   8.000   4.933  1.00 20.00    -0.306 OA
ENDBRANCH   4   9
TORSDOF 2
ENDMDL
MODEL 9
REMARK VINA RESULT:       1.4      2.183      4.153
REMARK  2 active torsions:
REMARK  status: ('A' for Active; 'I' for Inactive)
REMARK    1  A    between atoms: C1_1  and  C5_5 
REMARK    2  A    between atoms: C6_6  and  C9_9 
ROOT
HETATM    1  C2  UNL     1     -34.675   7.805   4.061  1.00 20.00     0.012 C 
HETATM    2  C3  UNL     1     -33.161   7.642   4.101  1.00 20.00     0.006 C 
HETATM    3  C4  UNL     1     -34.051   5.462   3.677  1.00 20.00     0.016 C 
HETATM    4  C5  UNL     1     -35.233   6.382   4.009  1.00 20.00     0.047 C 
HETATM    5  C6  UNL     1     -32.890   6.381   3.286  1.00 20.00    -0.010 C 
ENDROOT
BRANCH   5   6
HETATM    6  C9  UNL     1     -32.850   6.658   1.784  1.00 20.00    -0.019 C 
HETATM    7  C7  UNL     1     -31.940   7.849   1.475  1.00 20.00     0.010 C 
HETATM    8  C8  UNL     1     -32.382   5.421   1.015  1.00 20.00     0.010 C 
ENDBRANCH   5   6
BRANCH   4   9
HETATM    9  C1  UNL     1     -36.309   6.253   2.976  1.00 20.00     0.235 C 
HETATM   10  O10 UNL     1     -37.209   7.075   2.829  1.00 20.00    -0.306 OA
ENDBRANCH   4   9
TORSDOF 2
ENDMDL
