MODEL 1
REMARK VINA RESULT:      -0.9      0.000      0.000
REMARK  0 active torsions:
REMARK  status: ('A' for Active; 'I' for Inactive)
ROOT
HETATM    1  C1  UNL     1     -34.721   7.150   4.154  1.00 20.00     0.031 A 
HETATM    2  C2  UNL     1     -33.069   8.120   2.624  1.00 20.00    -0.014 A 
HETATM    3  C3  UNL     1     -32.356   5.485   1.791  1.00 20.00    -0.013 A 
HETATM    4  C4  UNL     1     -35.294   6.026   4.619  1.00 20.00     0.117 A 
HETATM    5  C5  UNL     1     -34.061   4.599   3.330  1.00 20.00     0.128 A 
HETATM    6  C6  UNL     1     -33.682   7.043   3.148  1.00 20.00    -0.027 A 
HETATM    7  C7  UNL     1     -33.309   5.717   2.699  1.00 20.00    -0.012 A 
HETATM    8  C8  UNL     1     -31.998   8.026   1.573  1.00 20.00     0.032 A 
HETATM    9  C9  UNL     1     -31.580   6.602   1.154  1.00 20.00     0.032 A 
HETATM   10  N10 UNL     1     -34.991   4.737   4.227  1.00 20.00    -0.272 NA
ENDROOT
TORSDOF 0
ENDMDL
MODEL 2
REMARK VINA RESULT:      -0.6      1.762      4.082
REMARK  0 active torsions:
REMARK  status: ('A' for Active; 'I' for Inactive)
ROOT
HETATM    1  C1  UNL     1     -32.182   5.763   1.594  1.00 20.00     0.031 A 
HETATM    2  C2  UNL     1     -33.854   4.802   3.108  1.00 20.00    -0.014 A 
HETATM    3  C3  UNL     1     -34.467   7.431   4.033  1.00 20.00    -0.013 A 
HETATM    4  C4  UNL     1     -31.596   6.883   1.139  1.00 20.00     0.117 A 
HETATM    5  C5  UNL     1     -32.792   8.313   2.459  1.00 20.00     0.128 A 
HETATM    6  C6  UNL     1     -33.212   5.873   2.611  1.00 20.00    -0.027 A 
HETATM    7  C7  UNL     1     -33.550   7.198   3.089  1.00 20.00    -0.012 A 
HETATM    8  C8  UNL     1     -34.931   4.901   4.154  1.00 20.00     0.032 A 
HETATM    9  C9  UNL     1     -35.232   6.316   4.687  1.00 20.00     0.032 A 
HETATM   10  N10 UNL     1     -31.878   8.173   1.546  1.00 20.00    -0.272 NA
ENDROOT
TORSDOF 0
ENDMDL
MODEL 3
REMARK VINA RESULT:      -0.6      1.672      3.495
REMARK  0 active torsions:
REMARK  status: ('A' for Active; 'I' for Inactive)
ROOT
HETATM    1  C1  UNL     1     -32.826   8.317   2.500  1.00 20.00     0.031 A 
HETATM    2  C2  UNL     1     -34.500   7.411   4.045  1.00 20.00    -0.014 A 
HETATM    3  C3  UNL     1     -33.841   4.782   3.153  1.00 20.00    -0.013 A 
HETATM    4  C4  UNL     1     -31.885   8.041   1.579  1.00 20.00     0.117 A 
HETATM    5  C5  UNL     1     -32.158   5.774   1.655  1.00 20.00     0.128 A 
HETATM    6  C6  UNL     1     -33.555   7.220   3.109  1.00 20.00    -0.027 A 
HETATM    7  C7  UNL     1     -33.230   5.874   2.681  1.00 20.00    -0.012 A 
HETATM    8  C8  UNL     1     -35.257   6.284   4.692  1.00 20.00     0.032 A 
HETATM    9  C9  UNL     1     -34.933   4.866   4.180  1.00 20.00     0.032 A 
HETATM   10  N10 UNL     1     -31.524   6.784   1.137  1.00 20.00    -0.272 NA
ENDROOT
TORSDOF 0
ENDMDL
MODEL 4
REMARK VINA RESULT:      -0.4      0.638      2.109
REMARK  0 active torsions:
REMARK  status: ('A' for Active; 'I' for Inactive)
ROOT
HETATM    1  C1  UNL     1     -34.091   4.699   3.296  1.00 20.00     0.031 A 
HETATM    2  C2  UNL     1     -32.383   5.514   1.738  1.00 20.00    -0.014 A 
HETATM    3  C3  UNL     1     -32.946   8.182   2.582  1.00 20.00    -0.013 A 
HETATM    4  C4  UNL     1     -35.000   5.023   4.233  1.00 20.00     0.117 A 
HETATM    5  C5  UNL     1     -34.619   7.273   4.144  1.00 20.00     0.128 A 
HETATM    6  C6  UNL     1     -33.319   5.757   2.672  1.00 20.00    -0.027 A 
HETATM    7  C7  UNL     1     -33.578   7.119   3.092  1.00 20.00    -0.012 A 
HETATM    8  C8  UNL     1     -31.568   6.599   1.090  1.00 20.00     0.032 A 
HETATM    9  C9  UNL     1     -31.901   8.044   1.512  1.00 20.00     0.032 A 
HETATM   10  N10 UNL     1     -35.287   6.297   4.682  1.00 20.00    -0.272 NA
ENDROOT
TORSDOF 0
ENDMDL
