MODEL 1
REMARK VINA RESULT:      -0.8      0.000      0.000
REMARK  1 active torsions:
REMARK  status: ('A' for Active; 'I' for Inactive)
REMARK    1  A    between atoms: C1_1  and  C2_2 
ROOT
HETATM    1  C2  UNL     1     -32.833   8.101   1.235  1.00 20.00     0.084 A 
HETATM    2  C3  UNL     1     -32.079   6.875   1.696  1.00 20.00     0.018 A 
HETATM    3  C4  UNL     1     -32.663   7.832   2.721  1.00 20.00     0.048 A 
HETATM    4  C6  UNL     1     -32.642   5.516   1.457  1.00 20.00     0.012 C 
HETATM    5  C7  UNL     1     -33.872   7.457   3.527  1.00 20.00     0.034 C 
HETATM    6 CL9  UNL     1     -31.472   8.793   3.636  1.00 20.00    -0.118 Cl
ENDROOT
BRANCH   1   7
HETATM    7  C1  UNL     1     -32.098   9.185   0.571  1.00 20.00     0.129 C 
HETATM    8  C5  UNL     1     -32.783  10.523   0.502  1.00 20.00     0.091 C 
HETATM    9  O8  UNL     1     -30.977   9.009   0.096  1.00 20.00    -0.298 OA
ENDBRANCH   1   7
TORSDOF 1
ENDMDL
MODEL 2
REMARK VINA RESULT:      -0.7      2.391      3.176
REMARK  1 active torsions:
REMARK  status: ('A' for Active; 'I' for Inactive)
REMARK    1  A    between atoms: C1_1  and  C2_2 
ROOT
HETATM    1  C2  UNL     1     -33.670   5.654   2.437  1.00 20.00     0.084 A 
HETATM    2  C3  UNL     1     -33.374   5.072   3.799  1.00 20.00     0.018 A 
HETATM    3  C4  UNL     1     -34.198   6.343   3.684  1.00 20.00     0.048 A 
HETATM    4  C6  UNL     1     -33.969   3.765   4.200  1.00 20.00     0.012 C 
HETATM    5  C7  UNL     1     -35.677   6.330   3.941  1.00 20.00     0.034 C 
HETATM    6 CL9  UNL     1     -33.393   7.830   4.248  1.00 20.00    -0.118 Cl
ENDROOT
BRANCH   1   7
HETATM    7  C1  UNL     1     -32.572   6.238   1.654  1.00 20.00     0.129 C 
HETATM    8  C5  UNL     1     -31.662   5.274   0.943  1.00 20.00     0.091 C 
HETATM    9  O8  UNL     1     -32.407   7.455   1.583  1.00 20.00    -0.298 OA
ENDBRANCH   1   7
TORSDOF 1
ENDMDL
MODEL 3
REMARK VINA RESULT:      -0.7      3.656      4.999
REMARK  1 active torsions:
REMARK  status: ('A' for Active; 'I' for Inactive)
REMARK    1  A    between atoms: C1_1  and  C2_2 
ROOT
HETATM    1  C2  UNL     1     -33.252   5.213   3.656  1.00 20.00     0.084 A 
HETATM    2  C3  UNL     1     -33.565   5.537   2.214  1.00 20.00     0.018 A 
HETATM    3  C4  UNL     1     -33.936   6.524   3.307  1.00 20.00     0.048 A 
HETATM    4  C6  UNL     1     -32.460   5.791   1.247  1.00 20.00     0.012 C 
HETATM    5  C7  UNL     1     -33.172   7.803   3.485  1.00 20.00     0.034 C 
HETATM    6 CL9  UNL     1     -35.682   6.692   3.626  1.00 20.00    -0.118 Cl
ENDROOT
BRANCH   1   7
HETATM    7  C1  UNL     1     -33.986   4.127   4.320  1.00 20.00     0.129 C 
HETATM    8  C5  UNL     1     -33.226   2.853   4.573  1.00 20.00     0.091 C 
HETATM    9  O8  UNL     1     -35.163   4.254   4.654  1.00 20.00    -0.298 OA
ENDBRANCH   1   7
TORSDOF 1
ENDMDL
MODEL 4
REMARK VINA RESULT:      -0.5      2.930      3.968
REMARK  1 active torsions:
REMARK  status: ('A' for Active; 'I' for Inactive)
REMARK    1  A    between atoms: C1_1  and  C2_2 
ROOT
HETATM    1  C2  UNL     1     -33.869   7.006   2.490  1.00 20.00     0.084 A 
HETATM    2  C3  UNL     1     -32.370   7.138   2.359  1.00 20.00     0.018 A 
HETATM    3  C4  UNL     1     -33.047   5.830   1.992  1.00 20.00     0.048 A 
HETATM    4  C6  UNL     1     -31.785   8.052   1.337  1.00 20.00     0.012 C 
HETATM    5  C7  UNL     1     -33.189   5.409   0.558  1.00 20.00     0.034 C 
HETATM    6 CL9  UNL     1     -32.736   4.469   3.102  1.00 20.00    -0.118 Cl
ENDROOT
BRANCH   1   7
HETATM    7  C1  UNL     1     -34.472   6.997   3.830  1.00 20.00     0.129 C 
HETATM    8  C5  UNL     1     -33.845   7.900   4.859  1.00 20.00     0.091 C 
HETATM    9  O8  UNL     1     -35.441   6.289   4.097  1.00 20.00    -0.298 OA
ENDBRANCH   1   7
TORSDOF 1
ENDMDL
MODEL 5
REMARK VINA RESULT:      -0.2      2.472      3.488
REMARK  1 active torsions:
REMARK  status: ('A' for Active; 'I' for Inactive)
REMARK    1  A    between atoms: C1_1  and  C2_2 
ROOT
HETATM    1  C2  UNL     1     -32.877   6.893   3.073  1.00 20.00     0.084 A 
HETATM    2  C3  UNL     1     -33.124   6.485   1.640  1.00 20.00     0.018 A 
HETATM    3  C4  UNL     1     -32.395   7.783   1.940  1.00 20.00     0.048 A 
HETATM    4  C6  UNL     1     -32.435   5.293   1.071  1.00 20.00     0.012 C 
HETATM    5  C7  UNL     1     -30.918   7.912   1.704  1.00 20.00     0.034 C 
HETATM    6 CL9  UNL     1     -33.304   9.274   1.575  1.00 20.00    -0.118 Cl
ENDROOT
BRANCH   1   7
HETATM    7  C1  UNL     1     -34.017   7.284   3.913  1.00 20.00     0.129 C 
HETATM    8  C5  UNL     1     -35.273   6.468   3.769  1.00 20.00     0.091 C 
HETATM    9  O8  UNL     1     -33.948   8.229   4.696  1.00 20.00    -0.298 OA
ENDBRANCH   1   7
TORSDOF 1
ENDMDL
MODEL 6
REMARK VINA RESULT:       0.3      1.880      3.396
REMARK  1 active torsions:
REMARK  status: ('A' for Active; 'I' for Inactive)
REMARK    1  A    between atoms: C1_1  and  C2_2 
ROOT
HETATM    1  C2  UNL     1     -31.899   7.215   1.513  1.00 20.00     0.084 A 
HETATM    2  C3  UNL     1     -32.782   8.404   1.218  1.00 20.00     0.018 A 
HETATM    3  C4  UNL     1     -32.480   8.028   2.657  1.00 20.00     0.048 A 
HETATM    4  C6  UNL     1     -32.210   9.620   0.571  1.00 20.00     0.012 C 
HETATM    5  C7  UNL     1     -31.551   8.857   3.495  1.00 20.00     0.034 C 
HETATM    6 CL9  UNL     1     -33.852   7.355   3.576  1.00 20.00    -0.118 Cl
ENDROOT
BRANCH   1   7
HETATM    7  C1  UNL     1     -32.394   5.865   1.213  1.00 20.00     0.129 C 
HETATM    8  C5  UNL     1     -31.422   4.731   1.403  1.00 20.00     0.091 C 
HETATM    9  O8  UNL     1     -33.545   5.670   0.827  1.00 20.00    -0.298 OA
ENDBRANCH   1   7
TORSDOF 1
ENDMDL
MODEL 7
REMARK VINA RESULT:       0.5      2.098      2.810
REMARK  1 active torsions:
REMARK  status: ('A' for Active; 'I' for Inactive)
REMARK    1  A    between atoms: C1_1  and  C2_2 
ROOT
HETATM    1  C2  UNL     1     -32.702   7.096   2.853  1.00 20.00     0.084 A 
HETATM    2  C3  UNL     1     -34.207   6.973   2.809  1.00 20.00     0.018 A 
HETATM    3  C4  UNL     1     -33.342   5.773   2.467  1.00 20.00     0.048 A 
HETATM    4  C6  UNL     1     -35.003   7.055   4.067  1.00 20.00     0.012 C 
HETATM    5  C7  UNL     1     -33.222   4.613   3.411  1.00 20.00     0.034 C 
HETATM    6 CL9  UNL     1     -33.346   5.291   0.750  1.00 20.00    -0.118 Cl
ENDROOT
BRANCH   1   7
HETATM    7  C1  UNL     1     -32.023   7.931   1.854  1.00 20.00     0.129 C 
HETATM    8  C5  UNL     1     -32.754   9.163   1.392  1.00 20.00     0.091 C 
HETATM    9  O8  UNL     1     -30.911   7.639   1.417  1.00 20.00    -0.298 OA
ENDBRANCH   1   7
TORSDOF 1
ENDMDL
MODEL 8
REMARK VINA RESULT:       0.5      2.538      3.538
REMARK  1 active torsions:
REMARK  status: ('A' for Active; 'I' for Inactive)
REMARK    1  A    between atoms: C1_1  and  C2_2 
ROOT
HETATM    1  C2  UNL     1     -33.336   6.488   3.290  1.00 20.00     0.084 A 
HETATM    2  C3  UNL     1     -33.911   7.693   3.998  1.00 20.00     0.018 A 
HETATM    3  C4  UNL     1     -34.808   6.514   3.665  1.00 20.00     0.048 A 
HETATM    4  C6  UNL     1     -33.493   8.013   5.392  1.00 20.00     0.012 C 
HETATM    5  C7  UNL     1     -35.294   5.585   4.739  1.00 20.00     0.034 C 
HETATM    6 CL9  UNL     1     -36.014   6.807   2.384  1.00 20.00    -0.118 Cl
ENDROOT
BRANCH   1   7
HETATM    7  C1  UNL     1     -32.906   6.617   1.892  1.00 20.00     0.129 C 
HETATM    8  C5  UNL     1     -32.216   7.900   1.512  1.00 20.00     0.091 C 
HETATM    9  O8  UNL     1     -33.100   5.722   1.072  1.00 20.00    -0.298 OA
ENDBRANCH   1   7
TORSDOF 1
ENDMDL
MODEL 9
REMARK VINA RESULT:       0.5      1.785      2.404
REMARK  1 active torsions:
REMARK  status: ('A' for Active; 'I' for Inactive)
REMARK    1  A    between atoms: C1_1  and  C2_2 
ROOT
HETATM    1  C2  UNL     1     -32.157   7.788   1.962  1.00 20.00     0.084 A 
HETATM    2  C3  UNL     1     -33.552   7.649   2.524  1.00 20.00     0.018 A 
HETATM    3  C4  UNL     1     -32.948   6.515   1.715  1.00 20.00     0.048 A 
HETATM    4  C6  UNL     1     -33.762   7.559   3.997  1.00 20.00     0.012 C 
HETATM    5  C7  UNL     1     -32.496   5.247   2.379  1.00 20.00     0.034 C 
HETATM    6 CL9  UNL     1     -33.670   6.253   0.106  1.00 20.00    -0.118 Cl
ENDROOT
BRANCH   1   7
HETATM    7  C1  UNL     1     -31.913   8.753   0.881  1.00 20.00     0.129 C 
HETATM    8  C5  UNL     1     -32.783   9.981   0.863  1.00 20.00     0.091 C 
HETATM    9  O8  UNL     1     -31.041   8.567   0.035  1.00 20.00    -0.298 OA
ENDBRANCH   1   7
TORSDOF 1
ENDMDL
