MODEL 1
REMARK VINA RESULT:      -2.0      0.000      0.000
REMARK  3 active torsions:
REMARK  status: ('A' for Active; 'I' for Inactive)
REMARK    1  A    between atoms: C1_1  and  C7_7 
REMARK    2  A    between atoms: C1_1  and  O10_10 
REMARK    3  A    between atoms: C6_6  and  C7_7 
ROOT
HETATM    1  C4  UNL     1     -34.201   7.332   4.337  1.00 20.00     0.021 A 
HETATM    2  C5  UNL     1     -35.136   7.103   3.189  1.00 20.00     0.021 A 
HETATM    3  C7  UNL     1     -34.056   6.085   3.490  1.00 20.00     0.051 A 
ENDROOT
BRANCH   3   4
HETATM    4  C1  UNL     1     -34.502   4.810   4.109  1.00 20.00     0.267 C 
HETATM    5  O9  UNL     1     -35.509   4.697   4.795  1.00 20.00    -0.264 OA
BRANCH   4   6
HETATM    6  O10 UNL     1     -33.623   3.818   3.793  1.00 20.00    -0.326 OA
HETATM    7  C8  UNL     1     -33.203   2.996   4.886  1.00 20.00     0.213 C 
ENDBRANCH   4   6
ENDBRANCH   3   4
BRANCH   3   8
HETATM    8  C6  UNL     1     -32.852   5.931   2.540  1.00 20.00     0.004 A 
HETATM    9  C2  UNL     1     -32.994   5.929   1.043  1.00 20.00     0.006 A 
HETATM   10  C3  UNL     1     -32.305   7.074   1.732  1.00 20.00     0.006 A 
ENDBRANCH   3   8
TORSDOF 3
ENDMDL
MODEL 2
REMARK VINA RESULT:      -2.0      2.912      4.643
REMARK  3 active torsions:
REMARK  status: ('A' for Active; 'I' for Inactive)
REMARK    1  A    between atoms: C1_1  and  C7_7 
REMARK    2  A    between atoms: C1_1  and  O10_10 
REMARK    3  A    between atoms: C6_6  and  C7_7 
ROOT
HETATM    1  C4  UNL     1     -32.413   5.398   1.951  1.00 20.00     0.021 A 
HETATM    2  C5  UNL     1     -33.197   5.837   0.751  1.00 20.00     0.021 A 
HETATM    3  C7  UNL     1     -33.008   6.790   1.914  1.00 20.00     0.051 A 
ENDROOT
BRANCH   3   4
HETATM    4  C1  UNL     1     -32.053   7.910   1.703  1.00 20.00     0.267 C 
HETATM    5  O9  UNL     1     -30.839   7.805   1.810  1.00 20.00    -0.264 OA
BRANCH   4   6
HETATM    6  O10 UNL     1     -32.742   9.041   1.382  1.00 20.00    -0.326 OA
HETATM    7  C8  UNL     1     -32.351   9.673   0.159  1.00 20.00     0.213 C 
ENDBRANCH   4   6
ENDBRANCH   3   4
BRANCH   3   8
HETATM    8  C6  UNL     1     -34.199   7.147   2.824  1.00 20.00     0.004 A 
HETATM    9  C2  UNL     1     -34.669   6.250   3.935  1.00 20.00     0.006 A 
HETATM   10  C3  UNL     1     -34.028   7.571   4.255  1.00 20.00     0.006 A 
ENDBRANCH   3   8
TORSDOF 3
ENDMDL
MODEL 3
REMARK VINA RESULT:      -1.5      2.006      3.209
REMARK  3 active torsions:
REMARK  status: ('A' for Active; 'I' for Inactive)
REMARK    1  A    between atoms: C1_1  and  C7_7 
REMARK    2  A    between atoms: C1_1  and  O10_10 
REMARK    3  A    between atoms: C6_6  and  C7_7 
ROOT
HETATM    1  C4  UNL     1     -33.119   6.089   0.901  1.00 20.00     0.021 A 
HETATM    2  C5  UNL     1     -31.903   5.688   1.679  1.00 20.00     0.021 A 
HETATM    3  C7  UNL     1     -32.589   7.004   1.985  1.00 20.00     0.051 A 
ENDROOT
BRANCH   3   4
HETATM    4  C1  UNL     1     -33.378   7.061   3.244  1.00 20.00     0.267 C 
HETATM    5  O9  UNL     1     -33.258   7.939   4.089  1.00 20.00    -0.264 OA
BRANCH   4   6
HETATM    6  O10 UNL     1     -34.232   6.000   3.295  1.00 20.00    -0.326 OA
HETATM    7  C8  UNL     1     -35.392   6.183   4.113  1.00 20.00     0.213 C 
ENDBRANCH   4   6
ENDBRANCH   3   4
BRANCH   3   8
HETATM    8  C6  UNL     1     -31.912   8.336   1.611  1.00 20.00     0.004 A 
HETATM    9  C2  UNL     1     -31.501   8.670   0.204  1.00 20.00     0.006 A 
HETATM   10  C3  UNL     1     -32.624   9.425   0.858  1.00 20.00     0.006 A 
ENDBRANCH   3   8
TORSDOF 3
ENDMDL
MODEL 4
REMARK VINA RESULT:      -1.1      1.960      2.773
REMARK  3 active torsions:
REMARK  status: ('A' for Active; 'I' for Inactive)
REMARK    1  A    between atoms: C1_1  and  C7_7 
REMARK    2  A    between atoms: C1_1  and  O10_10 
REMARK    3  A    between atoms: C6_6  and  C7_7 
ROOT
HETATM    1  C4  UNL     1     -31.598   8.024   2.389  1.00 20.00     0.021 A 
HETATM    2  C5  UNL     1     -32.729   8.337   1.457  1.00 20.00     0.021 A 
HETATM    3  C7  UNL     1     -32.859   7.186   2.434  1.00 20.00     0.051 A 
ENDROOT
BRANCH   3   4
HETATM    4  C1  UNL     1     -33.756   7.405   3.598  1.00 20.00     0.267 C 
HETATM    5  O9  UNL     1     -33.442   8.041   4.596  1.00 20.00    -0.264 OA
BRANCH   4   6
HETATM    6  O10 UNL     1     -34.953   6.792   3.373  1.00 20.00    -0.326 OA
HETATM    7  C8  UNL     1     -35.320   5.790   4.325  1.00 20.00     0.213 C 
ENDBRANCH   4   6
ENDBRANCH   3   4
BRANCH   3   8
HETATM    8  C6  UNL     1     -32.840   5.732   1.923  1.00 20.00     0.004 A 
HETATM    9  C2  UNL     1     -33.213   5.362   0.514  1.00 20.00     0.006 A 
HETATM   10  C3  UNL     1     -31.790   5.218   0.979  1.00 20.00     0.006 A 
ENDBRANCH   3   8
TORSDOF 3
ENDMDL
MODEL 5
REMARK VINA RESULT:      -1.1      2.248      4.021
REMARK  3 active torsions:
REMARK  status: ('A' for Active; 'I' for Inactive)
REMARK    1  A    between atoms: C1_1  and  C7_7 
REMARK    2  A    between atoms: C1_1  and  O10_10 
REMARK    3  A    between atoms: C6_6  and  C7_7 
ROOT
HETATM    1  C4  UNL     1     -34.199   8.374   3.888  1.00 20.00     0.021 A 
HETATM    2  C5  UNL     1     -33.145   7.639   4.660  1.00 20.00     0.021 A 
HETATM    3  C7  UNL     1     -33.629   7.083   3.337  1.00 20.00     0.051 A 
ENDROOT
BRANCH   3   4
HETATM    4  C1  UNL     1     -32.698   7.212   2.185  1.00 20.00     0.267 C 
HETATM    5  O9  UNL     1     -32.354   6.276   1.475  1.00 20.00    -0.264 OA
BRANCH   4   6
HETATM    6  O10 UNL     1     -32.304   8.510   2.061  1.00 20.00    -0.326 OA
HETATM    7  C8  UNL     1     -32.355   9.044   0.734  1.00 20.00     0.213 C 
ENDBRANCH   4   6
ENDBRANCH   3   4
BRANCH   3   8
HETATM    8  C6  UNL     1     -34.494   5.808   3.302  1.00 20.00     0.004 A 
HETATM    9  C2  UNL     1     -34.145   4.571   4.082  1.00 20.00     0.006 A 
HETATM   10  C3  UNL     1     -35.355   5.381   4.457  1.00 20.00     0.006 A 
ENDBRANCH   3   8
TORSDOF 3
ENDMDL
MODEL 6
REMARK VINA RESULT:      -1.0      2.066      3.492
REMARK  3 active torsions:
REMARK  status: ('A' for Active; 'I' for Inactive)
REMARK    1  A    between atoms: C1_1  and  C7_7 
REMARK    2  A    between atoms: C1_1  and  O10_10 
REMARK    3  A    between atoms: C6_6  and  C7_7 
ROOT
HETATM    1  C4  UNL     1     -34.293   8.360   3.921  1.00 20.00     0.021 A 
HETATM    2  C5  UNL     1     -33.230   7.649   4.702  1.00 20.00     0.021 A 
HETATM    3  C7  UNL     1     -33.724   7.058   3.397  1.00 20.00     0.051 A 
ENDROOT
BRANCH   3   4
HETATM    4  C1  UNL     1     -32.805   7.159   2.234  1.00 20.00     0.267 C 
HETATM    5  O9  UNL     1     -32.035   8.093   2.048  1.00 20.00    -0.264 OA
BRANCH   4   6
HETATM    6  O10 UNL     1     -32.962   6.069   1.432  1.00 20.00    -0.326 OA
HETATM    7  C8  UNL     1     -31.768   5.329   1.158  1.00 20.00     0.213 C 
ENDBRANCH   4   6
ENDBRANCH   3   4
BRANCH   3   8
HETATM    8  C6  UNL     1     -34.584   5.779   3.404  1.00 20.00     0.004 A 
HETATM    9  C2  UNL     1     -34.217   4.558   4.201  1.00 20.00     0.006 A 
HETATM   10  C3  UNL     1     -35.422   5.371   4.584  1.00 20.00     0.006 A 
ENDBRANCH   3   8
TORSDOF 3
ENDMDL
MODEL 7
REMARK VINA RESULT:      -0.8      3.054      4.126
REMARK  3 active torsions:
REMARK  status: ('A' for Active; 'I' for Inactive)
REMARK    1  A    between atoms: C1_1  and  C7_7 
REMARK    2  A    between atoms: C1_1  and  O10_10 
REMARK    3  A    between atoms: C6_6  and  C7_7 
ROOT
HETATM    1  C4  UNL     1     -34.531   7.629   3.192  1.00 20.00     0.021 A 
HETATM    2  C5  UNL     1     -33.470   7.364   4.217  1.00 20.00     0.021 A 
HETATM    3  C7  UNL     1     -33.161   7.158   2.748  1.00 20.00     0.051 A 
ENDROOT
BRANCH   3   4
HETATM    4  C1  UNL     1     -32.289   8.177   2.107  1.00 20.00     0.267 C 
HETATM    5  O9  UNL     1     -31.133   8.398   2.442  1.00 20.00    -0.264 OA
BRANCH   4   6
HETATM    6  O10 UNL     1     -32.977   8.804   1.112  1.00 20.00    -0.326 OA
HETATM    7  C8  UNL     1     -32.228   9.760   0.354  1.00 20.00     0.213 C 
ENDBRANCH   4   6
ENDBRANCH   3   4
BRANCH   3   8
HETATM    8  C6  UNL     1     -32.976   5.735   2.188  1.00 20.00     0.004 A 
HETATM    9  C2  UNL     1     -33.315   5.372   0.769  1.00 20.00     0.006 A 
HETATM   10  C3  UNL     1     -31.882   5.380   1.221  1.00 20.00     0.006 A 
ENDBRANCH   3   8
TORSDOF 3
ENDMDL
MODEL 8
REMARK VINA RESULT:      -0.7      1.039      1.686
REMARK  3 active torsions:
REMARK  status: ('A' for Active; 'I' for Inactive)
REMARK    1  A    between atoms: C1_1  and  C7_7 
REMARK    2  A    between atoms: C1_1  and  O10_10 
REMARK    3  A    between atoms: C6_6  and  C7_7 
ROOT
HETATM    1  C4  UNL     1     -34.201   7.153   4.516  1.00 20.00     0.021 A 
HETATM    2  C5  UNL     1     -35.339   6.887   3.578  1.00 20.00     0.021 A 
HETATM    3  C7  UNL     1     -33.922   6.564   3.149  1.00 20.00     0.051 A 
ENDROOT
BRANCH   3   4
HETATM    4  C1  UNL     1     -33.554   5.124   3.113  1.00 20.00     0.267 C 
HETATM    5  O9  UNL     1     -32.881   4.611   2.229  1.00 20.00    -0.264 OA
BRANCH   4   6
HETATM    6  O10 UNL     1     -34.079   4.493   4.200  1.00 20.00    -0.326 OA
HETATM    7  C8  UNL     1     -33.464   3.247   4.544  1.00 20.00     0.213 C 
ENDBRANCH   4   6
ENDBRANCH   3   4
BRANCH   3   8
HETATM    8  C6  UNL     1     -33.229   7.414   2.066  1.00 20.00     0.004 A 
HETATM    9  C2  UNL     1     -32.080   8.334   2.371  1.00 20.00     0.006 A 
HETATM   10  C3  UNL     1     -31.855   7.098   1.545  1.00 20.00     0.006 A 
ENDBRANCH   3   8
TORSDOF 3
ENDMDL
MODEL 9
REMARK VINA RESULT:      -0.5      2.423      3.789
REMARK  3 active torsions:
REMARK  status: ('A' for Active; 'I' for Inactive)
REMARK    1  A    between atoms: C1_1  and  C7_7 
REMARK    2  A    between atoms: C1_1  and  O10_10 
REMARK    3  A    between atoms: C6_6  and  C7_7 
ROOT
HETATM    1  C4  UNL     1     -30.856   7.761   1.685  1.00 20.00     0.021 A 
HETATM    2  C5  UNL     1     -31.287   8.613   2.840  1.00 20.00     0.021 A 
HETATM    3  C7  UNL     1     -32.323   8.086   1.868  1.00 20.00     0.051 A 
ENDROOT
BRANCH   3   4
HETATM    4  C1  UNL     1     -33.188   6.980   2.359  1.00 20.00     0.267 C 
HETATM    5  O9  UNL     1     -33.240   5.872   1.843  1.00 20.00    -0.264 OA
BRANCH   4   6
HETATM    6  O10 UNL     1     -33.892   7.401   3.447  1.00 20.00    -0.326 OA
HETATM    7  C8  UNL     1     -34.927   6.517   3.889  1.00 20.00     0.213 C 
ENDBRANCH   4   6
ENDBRANCH   3   4
BRANCH   3   8
HETATM    8  C6  UNL     1     -33.031   9.047   0.894  1.00 20.00     0.004 A 
HETATM    9  C2  UNL     1     -32.678  10.505   0.793  1.00 20.00     0.006 A 
HETATM   10  C3  UNL     1     -32.369   9.576  -0.347  1.00 20.00     0.006 A 
ENDBRANCH   3   8
TORSDOF 3
ENDMDL
