MODEL 1
REMARK VINA RESULT:      -2.1      0.000      0.000
REMARK  4 active torsions:
REMARK  status: ('A' for Active; 'I' for Inactive)
REMARK    1  A    between atoms: C1_1  and  C7_7 
REMARK    2  A    between atoms: C6_6  and  O10_10 
REMARK    3  A    between atoms: C7_7  and  C8_8 
REMARK    4  A    between atoms: C7_7  and  O10_10 
ROOT
HETATM    1  C7  UNL     1     -33.279   5.911   3.219  1.00 20.00     0.193 C 
ENDROOT
BRANCH   1   2
HETATM    2  C1  UNL     1     -32.623   6.150   1.862  1.00 20.00     0.152 C 
HETATM    3  C2  UNL     1     -32.021   7.510   1.617  1.00 20.00     0.093 C 
HETATM    4  O9  UNL     1     -32.580   5.277   0.994  1.00 20.00    -0.296 OA
ENDBRANCH   1   2
BRANCH   1   5
HETATM    5  C8  UNL     1     -34.326   6.985   3.569  1.00 20.00     0.014 C 
HETATM    6  C4  UNL     1     -35.684   6.380   3.943  1.00 20.00     0.012 C 
HETATM    7  C5  UNL     1     -33.829   7.866   4.720  1.00 20.00     0.012 C 
ENDBRANCH   1   5
BRANCH   1   8
HETATM    8  O10 UNL     1     -33.882   4.626   3.217  1.00 20.00    -0.378 OA
BRANCH   8   9
HETATM    9  C6  UNL     1     -33.939   4.074   4.526  1.00 20.00     0.164 C 
HETATM   10  C3  UNL     1     -33.117   2.803   4.561  1.00 20.00     0.033 C 
ENDBRANCH   8   9
ENDBRANCH   1   8
TORSDOF 4
ENDMDL
MODEL 2
REMARK VINA RESULT:      -2.0      1.980      3.850
REMARK  4 active torsions:
REMARK  status: ('A' for Active; 'I' for Inactive)
REMARK    1  A    between atoms: C1_1  and  C7_7 
REMARK    2  A    between atoms: C6_6  and  O10_10 
REMARK    3  A    between atoms: C7_7  and  C8_8 
REMARK    4  A    between atoms: C7_7  and  O10_10 
ROOT
HETATM    1  C7  UNL     1     -33.214   7.182   2.184  1.00 20.00     0.193 C 
ENDROOT
BRANCH   1   2
HETATM    2  C1  UNL     1     -32.696   5.932   1.479  1.00 20.00     0.152 C 
HETATM    3  C2  UNL     1     -33.598   5.295   0.453  1.00 20.00     0.093 C 
HETATM    4  O9  UNL     1     -31.588   5.454   1.727  1.00 20.00    -0.296 OA
ENDBRANCH   1   2
BRANCH   1   5
HETATM    5  C8  UNL     1     -33.649   6.907   3.636  1.00 20.00     0.014 C 
HETATM    6  C4  UNL     1     -33.519   8.145   4.531  1.00 20.00     0.012 C 
HETATM    7  C5  UNL     1     -35.093   6.399   3.679  1.00 20.00     0.012 C 
ENDBRANCH   1   5
BRANCH   1   8
HETATM    8  O10 UNL     1     -32.201   8.177   2.159  1.00 20.00    -0.378 OA
BRANCH   8   9
HETATM    9  C6  UNL     1     -31.906   8.589   0.831  1.00 20.00     0.164 C 
HETATM   10  C3  UNL     1     -32.581   9.917   0.566  1.00 20.00     0.033 C 
ENDBRANCH   8   9
ENDBRANCH   1   8
TORSDOF 4
ENDMDL
MODEL 3
REMARK VINA RESULT:      -1.6      1.134      2.906
REMARK  4 active torsions:
REMARK  status: ('A' for Active; 'I' for Inactive)
REMARK    1  A    between atoms: C1_1  and  C7_7 
REMARK    2  A    between atoms: C6_6  and  O10_10 
REMARK    3  A    between atoms: C7_7  and  C8_8 
REMARK    4  A    between atoms: C7_7  and  O10_10 
ROOT
HETATM    1  C7  UNL     1     -33.925   5.665   2.728  1.00 20.00     0.193 C 
ENDROOT
BRANCH   1   2
HETATM    2  C1  UNL     1     -34.703   6.659   3.586  1.00 20.00     0.152 C 
HETATM    3  C2  UNL     1     -33.902   7.637   4.406  1.00 20.00     0.093 C 
HETATM    4  O9  UNL     1     -35.935   6.673   3.614  1.00 20.00    -0.296 OA
ENDBRANCH   1   2
BRANCH   1   5
HETATM    5  C8  UNL     1     -33.030   6.357   1.683  1.00 20.00     0.014 C 
HETATM    6  C4  UNL     1     -32.304   7.581   2.252  1.00 20.00     0.012 C 
HETATM    7  C5  UNL     1     -32.000   5.372   1.120  1.00 20.00     0.012 C 
ENDBRANCH   1   5
BRANCH   1   8
HETATM    8  O10 UNL     1     -33.137   4.844   3.578  1.00 20.00    -0.378 OA
BRANCH   8   9
HETATM    9  C6  UNL     1     -33.935   3.899   4.278  1.00 20.00     0.164 C 
HETATM   10  C3  UNL     1     -33.040   2.806   4.822  1.00 20.00     0.033 C 
ENDBRANCH   8   9
ENDBRANCH   1   8
TORSDOF 4
ENDMDL
MODEL 4
REMARK VINA RESULT:      -1.5      0.492      1.209
REMARK  4 active torsions:
REMARK  status: ('A' for Active; 'I' for Inactive)
REMARK    1  A    between atoms: C1_1  and  C7_7 
REMARK    2  A    between atoms: C6_6  and  O10_10 
REMARK    3  A    between atoms: C7_7  and  C8_8 
REMARK    4  A    between atoms: C7_7  and  O10_10 
ROOT
HETATM    1  C7  UNL     1     -33.293   5.810   3.318  1.00 20.00     0.193 C 
ENDROOT
BRANCH   1   2
HETATM    2  C1  UNL     1     -32.965   6.328   1.921  1.00 20.00     0.152 C 
HETATM    3  C2  UNL     1     -32.189   7.616   1.827  1.00 20.00     0.093 C 
HETATM    4  O9  UNL     1     -33.312   5.727   0.903  1.00 20.00    -0.296 OA
ENDBRANCH   1   2
BRANCH   1   5
HETATM    5  C8  UNL     1     -34.368   6.655   4.027  1.00 20.00     0.014 C 
HETATM    6  C4  UNL     1     -33.858   8.049   4.411  1.00 20.00     0.012 C 
HETATM    7  C5  UNL     1     -35.611   6.795   3.143  1.00 20.00     0.012 C 
ENDBRANCH   1   5
BRANCH   1   8
HETATM    8  O10 UNL     1     -33.722   4.460   3.218  1.00 20.00    -0.378 OA
BRANCH   8   9
HETATM    9  C6  UNL     1     -34.016   3.910   4.495  1.00 20.00     0.164 C 
HETATM   10  C3  UNL     1     -33.029   2.801   4.793  1.00 20.00     0.033 C 
ENDBRANCH   8   9
ENDBRANCH   1   8
TORSDOF 4
ENDMDL
MODEL 5
REMARK VINA RESULT:      -1.3      2.319      4.656
REMARK  4 active torsions:
REMARK  status: ('A' for Active; 'I' for Inactive)
REMARK    1  A    between atoms: C1_1  and  C7_7 
REMARK    2  A    between atoms: C6_6  and  O10_10 
REMARK    3  A    between atoms: C7_7  and  C8_8 
REMARK    4  A    between atoms: C7_7  and  O10_10 
ROOT
HETATM    1  C7  UNL     1     -32.784   7.169   2.424  1.00 20.00     0.193 C 
ENDROOT
BRANCH   1   2
HETATM    2  C1  UNL     1     -33.647   7.302   3.674  1.00 20.00     0.152 C 
HETATM    3  C2  UNL     1     -34.886   6.448   3.751  1.00 20.00     0.093 C 
HETATM    4  O9  UNL     1     -33.355   8.071   4.592  1.00 20.00    -0.296 OA
ENDBRANCH   1   2
BRANCH   1   5
HETATM    5  C8  UNL     1     -32.933   5.796   1.743  1.00 20.00     0.014 C 
HETATM    6  C4  UNL     1     -33.728   5.873   0.435  1.00 20.00     0.012 C 
HETATM    7  C5  UNL     1     -31.557   5.181   1.466  1.00 20.00     0.012 C 
ENDBRANCH   1   5
BRANCH   1   8
HETATM    8  O10 UNL     1     -33.131   8.203   1.514  1.00 20.00    -0.378 OA
BRANCH   8   9
HETATM    9  C6  UNL     1     -31.986   8.932   1.091  1.00 20.00     0.164 C 
HETATM   10  C3  UNL     1     -32.407   9.948   0.050  1.00 20.00     0.033 C 
ENDBRANCH   8   9
ENDBRANCH   1   8
TORSDOF 4
ENDMDL
MODEL 6
REMARK VINA RESULT:      -1.0      1.842      2.551
REMARK  4 active torsions:
REMARK  status: ('A' for Active; 'I' for Inactive)
REMARK    1  A    between atoms: C1_1  and  C7_7 
REMARK    2  A    between atoms: C6_6  and  O10_10 
REMARK    3  A    between atoms: C7_7  and  C8_8 
REMARK    4  A    between atoms: C7_7  and  O10_10 
ROOT
HETATM    1  C7  UNL     1     -32.919   7.037   2.720  1.00 20.00     0.193 C 
ENDROOT
BRANCH   1   2
HETATM    2  C1  UNL     1     -32.049   8.206   2.269  1.00 20.00     0.152 C 
HETATM    3  C2  UNL     1     -32.398   8.860   0.957  1.00 20.00     0.093 C 
HETATM    4  O9  UNL     1     -31.098   8.610   2.939  1.00 20.00    -0.296 OA
ENDBRANCH   1   2
BRANCH   1   5
HETATM    5  C8  UNL     1     -34.106   7.484   3.594  1.00 20.00     0.014 C 
HETATM    6  C4  UNL     1     -35.087   6.341   3.879  1.00 20.00     0.012 C 
HETATM    7  C5  UNL     1     -33.609   8.068   4.919  1.00 20.00     0.012 C 
ENDBRANCH   1   5
BRANCH   1   8
HETATM    8  O10 UNL     1     -33.391   6.347   1.572  1.00 20.00    -0.378 OA
BRANCH   8   9
HETATM    9  C6  UNL     1     -32.891   5.017   1.520  1.00 20.00     0.164 C 
HETATM   10  C3  UNL     1     -31.558   5.020   0.802  1.00 20.00     0.033 C 
ENDBRANCH   8   9
ENDBRANCH   1   8
TORSDOF 4
ENDMDL
MODEL 7
REMARK VINA RESULT:      -1.0      1.991      3.469
REMARK  4 active torsions:
REMARK  status: ('A' for Active; 'I' for Inactive)
REMARK    1  A    between atoms: C1_1  and  C7_7 
REMARK    2  A    between atoms: C6_6  and  O10_10 
REMARK    3  A    between atoms: C7_7  and  C8_8 
REMARK    4  A    between atoms: C7_7  and  O10_10 
ROOT
HETATM    1  C7  UNL     1     -33.047   7.040   1.790  1.00 20.00     0.193 C 
ENDROOT
BRANCH   1   2
HETATM    2  C1  UNL     1     -32.110   8.244   1.771  1.00 20.00     0.152 C 
HETATM    3  C2  UNL     1     -32.303   9.251   0.667  1.00 20.00     0.093 C 
HETATM    4  O9  UNL     1     -31.229   8.400   2.618  1.00 20.00    -0.296 OA
ENDBRANCH   1   2
BRANCH   1   5
HETATM    5  C8  UNL     1     -32.552   5.889   0.894  1.00 20.00     0.014 C 
HETATM    6  C4  UNL     1     -31.582   4.953   1.623  1.00 20.00     0.012 C 
HETATM    7  C5  UNL     1     -33.736   5.077   0.359  1.00 20.00     0.012 C 
ENDBRANCH   1   5
BRANCH   1   8
HETATM    8  O10 UNL     1     -33.186   6.588   3.129  1.00 20.00    -0.378 OA
BRANCH   8   9
HETATM    9  C6  UNL     1     -34.286   7.212   3.780  1.00 20.00     0.164 C 
HETATM   10  C3  UNL     1     -35.361   6.177   4.031  1.00 20.00     0.033 C 
ENDBRANCH   8   9
ENDBRANCH   1   8
TORSDOF 4
ENDMDL
MODEL 8
REMARK VINA RESULT:      -1.0      1.250      3.540
REMARK  4 active torsions:
REMARK  status: ('A' for Active; 'I' for Inactive)
REMARK    1  A    between atoms: C1_1  and  C7_7 
REMARK    2  A    between atoms: C6_6  and  O10_10 
REMARK    3  A    between atoms: C7_7  and  C8_8 
REMARK    4  A    between atoms: C7_7  and  O10_10 
ROOT
HETATM    1  C7  UNL     1     -33.554   5.772   3.389  1.00 20.00     0.193 C 
ENDROOT
BRANCH   1   2
HETATM    2  C1  UNL     1     -34.340   7.009   3.812  1.00 20.00     0.152 C 
HETATM    3  C2  UNL     1     -33.643   7.996   4.712  1.00 20.00     0.093 C 
HETATM    4  O9  UNL     1     -35.497   7.207   3.439  1.00 20.00    -0.296 OA
ENDBRANCH   1   2
BRANCH   1   5
HETATM    5  C8  UNL     1     -34.250   4.459   3.795  1.00 20.00     0.014 C 
HETATM    6  C4  UNL     1     -33.269   3.428   4.364  1.00 20.00     0.012 C 
HETATM    7  C5  UNL     1     -35.353   4.730   4.822  1.00 20.00     0.012 C 
ENDBRANCH   1   5
BRANCH   1   8
HETATM    8  O10 UNL     1     -33.363   5.808   1.983  1.00 20.00    -0.378 OA
BRANCH   8   9
HETATM    9  C6  UNL     1     -32.025   6.149   1.645  1.00 20.00     0.164 C 
HETATM   10  C3  UNL     1     -31.918   7.653   1.516  1.00 20.00     0.033 C 
ENDBRANCH   8   9
ENDBRANCH   1   8
TORSDOF 4
ENDMDL
MODEL 9
REMARK VINA RESULT:      -0.8      1.782      4.432
REMARK  4 active torsions:
REMARK  status: ('A' for Active; 'I' for Inactive)
REMARK    1  A    between atoms: C1_1  and  C7_7 
REMARK    2  A    between atoms: C6_6  and  O10_10 
REMARK    3  A    between atoms: C7_7  and  C8_8 
REMARK    4  A    between atoms: C7_7  and  O10_10 
ROOT
HETATM    1  C7  UNL     1     -32.619   6.509   2.474  1.00 20.00     0.193 C 
ENDROOT
BRANCH   1   2
HETATM    2  C1  UNL     1     -33.785   5.935   3.273  1.00 20.00     0.152 C 
HETATM    3  C2  UNL     1     -34.870   6.892   3.695  1.00 20.00     0.093 C 
HETATM    4  O9  UNL     1     -33.851   4.740   3.567  1.00 20.00    -0.296 OA
ENDBRANCH   1   2
BRANCH   1   5
HETATM    5  C8  UNL     1     -32.453   5.834   1.100  1.00 20.00     0.014 C 
HETATM    6  C4  UNL     1     -31.480   4.650   1.142  1.00 20.00     0.012 C 
HETATM    7  C5  UNL     1     -33.808   5.358   0.566  1.00 20.00     0.012 C 
ENDBRANCH   1   5
BRANCH   1   8
HETATM    8  O10 UNL     1     -32.819   7.905   2.310  1.00 20.00    -0.378 OA
BRANCH   8   9
HETATM    9  C6  UNL     1     -31.842   8.475   1.448  1.00 20.00     0.164 C 
HETATM   10  C3  UNL     1     -32.504   9.522   0.578  1.00 20.00     0.033 C 
ENDBRANCH   8   9
ENDBRANCH   1   8
TORSDOF 4
ENDMDL
