MODEL 1
REMARK VINA RESULT:      -0.8      0.000      0.000
REMARK  0 active torsions:
REMARK  status: ('A' for Active; 'I' for Inactive)
ROOT
HETATM    1  C1  UNL     1     -33.136   7.254   3.588  1.00 20.00     0.169 C 
HETATM    2  C2  UNL     1     -33.473   6.197   1.766  1.00 20.00     0.062 C 
HETATM    3  C3  UNL     1     -32.359   7.153   2.264  1.00 20.00     0.058 C 
HETATM    4  C4  UNL     1     -34.105   6.103   3.187  1.00 20.00     0.174 C 
HETATM    5  C5  UNL     1     -32.199   8.449   1.495  1.00 20.00     0.018 C 
HETATM    6  O6  UNL     1     -33.023   7.959   4.570  1.00 20.00    -0.294 OA
HETATM    7 CL7  UNL     1     -33.757   4.607   4.117  1.00 20.00    -0.093 Cl
HETATM    8 CL8  UNL     1     -35.824   6.597   3.315  1.00 20.00    -0.093 Cl
ENDROOT
TORSDOF 0
ENDMDL
MODEL 2
REMARK VINA RESULT:      -0.5      2.186      3.013
REMARK  0 active torsions:
REMARK  status: ('A' for Active; 'I' for Inactive)
ROOT
HETATM    1  C1  UNL     1     -32.813   7.483   2.094  1.00 20.00     0.169 C 
HETATM    2  C2  UNL     1     -33.819   5.853   3.035  1.00 20.00     0.062 C 
HETATM    3  C3  UNL     1     -33.831   7.390   3.244  1.00 20.00     0.058 C 
HETATM    4  C4  UNL     1     -32.998   5.983   1.717  1.00 20.00     0.174 C 
HETATM    5  C5  UNL     1     -33.346   7.884   4.592  1.00 20.00     0.018 C 
HETATM    6  O6  UNL     1     -32.137   8.388   1.650  1.00 20.00    -0.294 OA
HETATM    7 CL7  UNL     1     -33.918   5.807   0.185  1.00 20.00    -0.093 Cl
HETATM    8 CL8  UNL     1     -31.436   5.104   1.675  1.00 20.00    -0.093 Cl
ENDROOT
TORSDOF 0
ENDMDL
MODEL 3
REMARK VINA RESULT:      -0.3      1.602      2.430
REMARK  0 active torsions:
REMARK  status: ('A' for Active; 'I' for Inactive)
ROOT
HETATM    1  C1  UNL     1     -33.504   6.346   1.985  1.00 20.00     0.169 C 
HETATM    2  C2  UNL     1     -33.280   7.412   3.820  1.00 20.00     0.062 C 
HETATM    3  C3  UNL     1     -32.917   7.722   2.345  1.00 20.00     0.058 C 
HETATM    4  C4  UNL     1     -34.098   6.150   3.412  1.00 20.00     0.174 C 
HETATM    5  C5  UNL     1     -31.443   7.905   2.045  1.00 20.00     0.018 C 
HETATM    6  O6  UNL     1     -33.507   5.679   0.970  1.00 20.00    -0.294 OA
HETATM    7 CL7  UNL     1     -35.884   6.327   3.401  1.00 20.00    -0.093 Cl
HETATM    8 CL8  UNL     1     -33.574   4.603   4.151  1.00 20.00    -0.093 Cl
ENDROOT
TORSDOF 0
ENDMDL
MODEL 4
REMARK VINA RESULT:      -0.2      2.842      3.507
REMARK  0 active torsions:
REMARK  status: ('A' for Active; 'I' for Inactive)
ROOT
HETATM    1  C1  UNL     1     -33.009   6.592   2.151  1.00 20.00     0.169 C 
HETATM    2  C2  UNL     1     -33.241   8.227   3.502  1.00 20.00     0.062 C 
HETATM    3  C3  UNL     1     -33.639   6.730   3.548  1.00 20.00     0.058 C 
HETATM    4  C4  UNL     1     -32.385   8.017   2.217  1.00 20.00     0.174 C 
HETATM    5  C5  UNL     1     -35.124   6.436   3.630  1.00 20.00     0.018 C 
HETATM    6  O6  UNL     1     -32.998   5.702   1.325  1.00 20.00    -0.294 OA
HETATM    7 CL7  UNL     1     -30.607   7.937   2.448  1.00 20.00    -0.093 Cl
HETATM    8 CL8  UNL     1     -32.840   9.016   0.799  1.00 20.00    -0.093 Cl
ENDROOT
TORSDOF 0
ENDMDL
MODEL 5
REMARK VINA RESULT:      -0.1      2.543      3.386
REMARK  0 active torsions:
REMARK  status: ('A' for Active; 'I' for Inactive)
ROOT
HETATM    1  C1  UNL     1     -33.438   7.448   2.987  1.00 20.00     0.169 C 
HETATM    2  C2  UNL     1     -32.200   6.373   1.622  1.00 20.00     0.062 C 
HETATM    3  C3  UNL     1     -33.543   6.060   2.331  1.00 20.00     0.058 C 
HETATM    4  C4  UNL     1     -32.239   7.861   2.084  1.00 20.00     0.174 C 
HETATM    5  C5  UNL     1     -33.536   4.881   3.283  1.00 20.00     0.018 C 
HETATM    6  O6  UNL     1     -34.064   8.004   3.867  1.00 20.00    -0.294 OA
HETATM    7 CL7  UNL     1     -32.740   9.065   0.851  1.00 20.00    -0.093 Cl
HETATM    8 CL8  UNL     1     -30.834   8.421   3.047  1.00 20.00    -0.093 Cl
ENDROOT
TORSDOF 0
ENDMDL
MODEL 6
REMARK VINA RESULT:      -0.1      1.936      2.534
REMARK  0 active torsions:
REMARK  status: ('A' for Active; 'I' for Inactive)
ROOT
HETATM    1  C1  UNL     1     -33.598   5.372   3.194  1.00 20.00     0.169 C 
HETATM    2  C2  UNL     1     -33.416   7.171   2.062  1.00 20.00     0.062 C 
HETATM    3  C3  UNL     1     -33.117   5.679   1.765  1.00 20.00     0.058 C 
HETATM    4  C4  UNL     1     -34.137   6.819   3.398  1.00 20.00     0.174 C 
HETATM    5  C5  UNL     1     -31.671   5.334   1.470  1.00 20.00     0.018 C 
HETATM    6  O6  UNL     1     -33.572   4.376   3.887  1.00 20.00    -0.294 OA
HETATM    7 CL7  UNL     1     -35.932   6.854   3.368  1.00 20.00    -0.093 Cl
HETATM    8 CL8  UNL     1     -33.469   7.584   4.875  1.00 20.00    -0.093 Cl
ENDROOT
TORSDOF 0
ENDMDL
MODEL 7
REMARK VINA RESULT:       0.1      2.390      2.856
REMARK  0 active torsions:
REMARK  status: ('A' for Active; 'I' for Inactive)
ROOT
HETATM    1  C1  UNL     1     -33.471   5.538   2.951  1.00 20.00     0.169 C 
HETATM    2  C2  UNL     1     -32.836   7.320   1.963  1.00 20.00     0.062 C 
HETATM    3  C3  UNL     1     -33.199   6.974   3.431  1.00 20.00     0.058 C 
HETATM    4  C4  UNL     1     -32.862   5.819   1.545  1.00 20.00     0.174 C 
HETATM    5  C5  UNL     1     -34.389   7.708   4.014  1.00 20.00     0.018 C 
HETATM    6  O6  UNL     1     -33.963   4.561   3.478  1.00 20.00    -0.294 OA
HETATM    7 CL7  UNL     1     -31.267   5.017   1.356  1.00 20.00    -0.093 Cl
HETATM    8 CL8  UNL     1     -33.997   5.392   0.224  1.00 20.00    -0.093 Cl
ENDROOT
TORSDOF 0
ENDMDL
MODEL 8
REMARK VINA RESULT:       0.1      1.900      2.300
REMARK  0 active torsions:
REMARK  status: ('A' for Active; 'I' for Inactive)
ROOT
HETATM    1  C1  UNL     1     -31.819   8.122   2.059  1.00 20.00     0.169 C 
HETATM    2  C2  UNL     1     -33.152   7.572   0.486  1.00 20.00     0.062 C 
HETATM    3  C3  UNL     1     -32.071   8.672   0.644  1.00 20.00     0.058 C 
HETATM    4  C4  UNL     1     -32.710   6.870   1.805  1.00 20.00     0.174 C 
HETATM    5  C5  UNL     1     -32.560  10.104   0.574  1.00 20.00     0.018 C 
HETATM    6  O6  UNL     1     -31.165   8.515   3.003  1.00 20.00    -0.294 OA
HETATM    7 CL7  UNL     1     -31.713   5.389   1.623  1.00 20.00    -0.093 Cl
HETATM    8 CL8  UNL     1     -33.980   6.683   3.057  1.00 20.00    -0.093 Cl
ENDROOT
TORSDOF 0
ENDMDL
MODEL 9
REMARK VINA RESULT:       0.7      1.907      2.314
REMARK  0 active torsions:
REMARK  status: ('A' for Active; 'I' for Inactive)
ROOT
HETATM    1  C1  UNL     1     -32.736   7.529   2.258  1.00 20.00     0.169 C 
HETATM    2  C2  UNL     1     -33.637   5.851   3.221  1.00 20.00     0.062 C 
HETATM    3  C3  UNL     1     -32.520   6.009   2.157  1.00 20.00     0.058 C 
HETATM    4  C4  UNL     1     -33.663   7.384   3.501  1.00 20.00     0.174 C 
HETATM    5  C5  UNL     1     -32.799   5.394   0.801  1.00 20.00     0.018 C 
HETATM    6  O6  UNL     1     -32.327   8.474   1.615  1.00 20.00    -0.294 OA
HETATM    7 CL7  UNL     1     -32.834   7.935   4.996  1.00 20.00    -0.093 Cl
HETATM    8 CL8  UNL     1     -35.242   8.199   3.261  1.00 20.00    -0.093 Cl
ENDROOT
TORSDOF 0
ENDMDL
