MODEL 1
REMARK VINA RESULT:       0.4      0.000      0.000
REMARK  0 active torsions:
REMARK  status: ('A' for Active; 'I' for Inactive)
ROOT
HETATM    1  C1  UNL     1     -33.856   3.771   4.316  1.00 20.00     0.015 C 
HETATM    2  C2  UNL     1     -33.870   4.878   3.853  1.00 20.00    -0.073 C 
HETATM    3  C3  UNL     1     -32.976   7.181   4.066  1.00 20.00     0.225 C 
HETATM    4  C4  UNL     1     -32.910   7.750   1.846  1.00 20.00     0.442 C 
HETATM    5  C5  UNL     1     -33.886   6.238   3.283  1.00 20.00     0.240 C 
HETATM    6  C6  UNL     1     -35.343   6.743   3.300  1.00 20.00     0.066 C 
HETATM    7  C7  UNL     1     -32.230   5.461   1.611  1.00 20.00     0.315 C 
HETATM    8  N8  UNL     1     -33.360   6.350   1.902  1.00 20.00     0.130 N 
HETATM    9  O9  UNL     1     -32.633   8.240   3.163  1.00 20.00    -0.359 OA
ENDROOT
TORSDOF 0
ENDMDL
MODEL 2
REMARK VINA RESULT:       0.8      1.640      3.189
REMARK  0 active torsions:
REMARK  status: ('A' for Active; 'I' for Inactive)
ROOT
HETATM    1  C1  UNL     1     -32.083   8.475   1.535  1.00 20.00     0.015 C 
HETATM    2  C2  UNL     1     -32.724   7.922   2.385  1.00 20.00    -0.073 C 
HETATM    3  C3  UNL     1     -35.011   7.426   3.205  1.00 20.00     0.225 C 
HETATM    4  C4  UNL     1     -34.638   5.338   4.076  1.00 20.00     0.442 C 
HETATM    5  C5  UNL     1     -33.512   7.240   3.428  1.00 20.00     0.240 C 
HETATM    6  C6  UNL     1     -33.087   7.812   4.796  1.00 20.00     0.066 C 
HETATM    7  C7  UNL     1     -33.225   5.138   2.147  1.00 20.00     0.315 C 
HETATM    8  N8  UNL     1     -33.369   5.764   3.465  1.00 20.00     0.130 N 
HETATM    9  O9  UNL     1     -35.650   6.332   3.876  1.00 20.00    -0.359 OA
ENDROOT
TORSDOF 0
ENDMDL
MODEL 3
REMARK VINA RESULT:       0.9      1.907      3.396
REMARK  0 active torsions:
REMARK  status: ('A' for Active; 'I' for Inactive)
ROOT
HETATM    1  C1  UNL     1     -31.528   8.066   1.757  1.00 20.00     0.015 C 
HETATM    2  C2  UNL     1     -32.369   7.255   2.029  1.00 20.00    -0.073 C 
HETATM    3  C3  UNL     1     -32.816   5.088   3.148  1.00 20.00     0.225 C 
HETATM    4  C4  UNL     1     -34.941   5.502   3.904  1.00 20.00     0.442 C 
HETATM    5  C5  UNL     1     -33.403   6.259   2.364  1.00 20.00     0.240 C 
HETATM    6  C6  UNL     1     -34.040   5.772   1.046  1.00 20.00     0.066 C 
HETATM    7  C7  UNL     1     -34.030   7.689   4.289  1.00 20.00     0.315 C 
HETATM    8  N8  UNL     1     -34.480   6.744   3.262  1.00 20.00     0.130 N 
HETATM    9  O9  UNL     1     -33.908   4.509   3.874  1.00 20.00    -0.359 OA
ENDROOT
TORSDOF 0
ENDMDL
MODEL 4
REMARK VINA RESULT:       1.3      1.653      3.650
REMARK  0 active torsions:
REMARK  status: ('A' for Active; 'I' for Inactive)
ROOT
HETATM    1  C1  UNL     1     -32.405   9.575   0.033  1.00 20.00     0.015 C 
HETATM    2  C2  UNL     1     -32.449   8.824   0.968  1.00 20.00    -0.073 C 
HETATM    3  C3  UNL     1     -33.796   8.074   2.910  1.00 20.00     0.225 C 
HETATM    4  C4  UNL     1     -33.196   5.861   2.932  1.00 20.00     0.442 C 
HETATM    5  C5  UNL     1     -32.503   7.900   2.116  1.00 20.00     0.240 C 
HETATM    6  C6  UNL     1     -31.273   8.172   3.004  1.00 20.00     0.066 C 
HETATM    7  C7  UNL     1     -33.288   6.144   0.551  1.00 20.00     0.315 C 
HETATM    8  N8  UNL     1     -32.528   6.459   1.766  1.00 20.00     0.130 N 
HETATM    9  O9  UNL     1     -34.005   6.836   3.602  1.00 20.00    -0.359 OA
ENDROOT
TORSDOF 0
ENDMDL
MODEL 5
REMARK VINA RESULT:       2.0      1.785      2.776
REMARK  0 active torsions:
REMARK  status: ('A' for Active; 'I' for Inactive)
ROOT
HETATM    1  C1  UNL     1     -34.878   6.553   3.906  1.00 20.00     0.015 C 
HETATM    2  C2  UNL     1     -34.001   6.811   3.129  1.00 20.00    -0.073 C 
HETATM    3  C3  UNL     1     -33.368   8.176   1.158  1.00 20.00     0.225 C 
HETATM    4  C4  UNL     1     -31.150   8.499   1.638  1.00 20.00     0.442 C 
HETATM    5  C5  UNL     1     -32.922   7.129   2.175  1.00 20.00     0.240 C 
HETATM    6  C6  UNL     1     -32.510   5.821   1.470  1.00 20.00     0.066 C 
HETATM    7  C7  UNL     1     -31.991   8.670   3.879  1.00 20.00     0.315 C 
HETATM    8  N8  UNL     1     -31.714   7.749   2.772  1.00 20.00     0.130 N 
HETATM    9  O9  UNL     1     -32.170   8.798   0.677  1.00 20.00    -0.359 OA
ENDROOT
TORSDOF 0
ENDMDL
MODEL 6
REMARK VINA RESULT:       2.2      1.799      2.858
REMARK  0 active torsions:
REMARK  status: ('A' for Active; 'I' for Inactive)
ROOT
HETATM    1  C1  UNL     1     -34.597   7.681   4.129  1.00 20.00     0.015 C 
HETATM    2  C2  UNL     1     -34.032   6.876   3.441  1.00 20.00    -0.073 C 
HETATM    3  C3  UNL     1     -34.090   5.643   1.291  1.00 20.00     0.225 C 
HETATM    4  C4  UNL     1     -31.837   5.513   0.887  1.00 20.00     0.442 C 
HETATM    5  C5  UNL     1     -33.336   5.889   2.595  1.00 20.00     0.240 C 
HETATM    6  C6  UNL     1     -33.198   4.583   3.404  1.00 20.00     0.066 C 
HETATM    7  C7  UNL     1     -31.870   7.728   1.809  1.00 20.00     0.315 C 
HETATM    8  N8  UNL     1     -31.992   6.300   2.121  1.00 20.00     0.130 N 
HETATM    9  O9  UNL     1     -33.119   5.153   0.358  1.00 20.00    -0.359 OA
ENDROOT
TORSDOF 0
ENDMDL
MODEL 7
REMARK VINA RESULT:       2.8      1.490      2.512
REMARK  0 active torsions:
REMARK  status: ('A' for Active; 'I' for Inactive)
ROOT
HETATM    1  C1  UNL     1     -34.311   4.637   3.735  1.00 20.00     0.015 C 
HETATM    2  C2  UNL     1     -33.638   5.330   3.023  1.00 20.00    -0.073 C 
HETATM    3  C3  UNL     1     -33.619   6.722   0.971  1.00 20.00     0.225 C 
HETATM    4  C4  UNL     1     -32.099   8.310   1.625  1.00 20.00     0.442 C 
HETATM    5  C5  UNL     1     -32.811   6.182   2.149  1.00 20.00     0.240 C 
HETATM    6  C6  UNL     1     -31.617   5.340   1.655  1.00 20.00     0.066 C 
HETATM    7  C7  UNL     1     -33.214   8.045   3.734  1.00 20.00     0.315 C 
HETATM    8  N8  UNL     1     -32.291   7.419   2.781  1.00 20.00     0.130 N 
HETATM    9  O9  UNL     1     -32.943   7.910   0.539  1.00 20.00    -0.359 OA
ENDROOT
TORSDOF 0
ENDMDL
MODEL 8
REMARK VINA RESULT:       3.0      1.562      2.622
REMARK  0 active torsions:
REMARK  status: ('A' for Active; 'I' for Inactive)
ROOT
HETATM    1  C1  UNL     1     -31.155   4.495   0.658  1.00 20.00     0.015 C 
HETATM    2  C2  UNL     1     -32.028   5.191   1.100  1.00 20.00    -0.073 C 
HETATM    3  C3  UNL     1     -33.492   5.619   3.054  1.00 20.00     0.225 C 
HETATM    4  C4  UNL     1     -33.656   7.900   2.891  1.00 20.00     0.442 C 
HETATM    5  C5  UNL     1     -33.099   6.046   1.642  1.00 20.00     0.240 C 
HETATM    6  C6  UNL     1     -34.307   5.959   0.687  1.00 20.00     0.066 C 
HETATM    7  C7  UNL     1     -31.352   7.697   2.249  1.00 20.00     0.315 C 
HETATM    8  N8  UNL     1     -32.738   7.473   1.823  1.00 20.00     0.130 N 
HETATM    9  O9  UNL     1     -34.078   6.774   3.669  1.00 20.00    -0.359 OA
ENDROOT
TORSDOF 0
ENDMDL
MODEL 9
REMARK VINA RESULT:       3.0      1.605      3.059
REMARK  0 active torsions:
REMARK  status: ('A' for Active; 'I' for Inactive)
ROOT
HETATM    1  C1  UNL     1     -32.641   8.573   4.810  1.00 20.00     0.015 C 
HETATM    2  C2  UNL     1     -32.647   8.070   3.720  1.00 20.00    -0.073 C 
HETATM    3  C3  UNL     1     -31.407   6.603   2.152  1.00 20.00     0.225 C 
HETATM    4  C4  UNL     1     -33.187   5.616   1.096  1.00 20.00     0.442 C 
HETATM    5  C5  UNL     1     -32.655   7.453   2.382  1.00 20.00     0.240 C 
HETATM    6  C6  UNL     1     -32.748   8.583   1.337  1.00 20.00     0.066 C 
HETATM    7  C7  UNL     1     -34.120   5.679   3.306  1.00 20.00     0.315 C 
HETATM    8  N8  UNL     1     -33.754   6.487   2.138  1.00 20.00     0.130 N 
HETATM    9  O9  UNL     1     -31.755   5.653   1.137  1.00 20.00    -0.359 OA
ENDROOT
TORSDOF 0
ENDMDL
