MODEL 1
REMARK VINA RESULT:      -1.9      0.000      0.000
REMARK  1 active torsions:
REMARK  status: ('A' for Active; 'I' for Inactive)
REMARK    1  A    between atoms: C6_6  and  C9_9 
ROOT
HETATM    1  C1  UNL     1     -33.907   4.748   3.739  1.00 20.00     0.119 C 
HETATM    2  C2  UNL     1     -33.650   7.177   3.551  1.00 20.00     0.043 A 
HETATM    3  C3  UNL     1     -33.148   8.254   2.829  1.00 20.00     0.012 A 
HETATM    4  C4  UNL     1     -32.271   6.716   1.242  1.00 20.00     0.125 A 
HETATM    5  C5  UNL     1     -33.423   5.903   3.057  1.00 20.00     0.136 A 
HETATM    6  C6  UNL     1     -32.445   8.028   1.652  1.00 20.00    -0.036 A 
HETATM    7  N10 UNL     1     -34.300   3.808   4.294  1.00 20.00    -0.190 NA
HETATM    8  N11 UNL     1     -32.744   5.644   1.917  1.00 20.00    -0.249 NA
ENDROOT
BRANCH   6   9
HETATM    9  C9  UNL     1     -31.894   9.159   0.859  1.00 20.00     0.020 A 
HETATM   10  C7  UNL     1     -32.671  10.450   0.782  1.00 20.00     0.010 A 
HETATM   11  C8  UNL     1     -32.580   9.564  -0.422  1.00 20.00     0.010 A 
ENDBRANCH   6   9
TORSDOF 1
ENDMDL
MODEL 2
REMARK VINA RESULT:      -0.7      1.680      5.006
REMARK  1 active torsions:
REMARK  status: ('A' for Active; 'I' for Inactive)
REMARK    1  A    between atoms: C6_6  and  C9_9 
ROOT
HETATM    1  C1  UNL     1     -32.420   8.592   1.246  1.00 20.00     0.119 C 
HETATM    2  C2  UNL     1     -33.646   7.627   3.133  1.00 20.00     0.043 A 
HETATM    3  C3  UNL     1     -34.054   6.483   3.810  1.00 20.00     0.012 A 
HETATM    4  C4  UNL     1     -32.915   5.177   2.181  1.00 20.00     0.125 A 
HETATM    5  C5  UNL     1     -32.878   7.467   1.992  1.00 20.00     0.136 A 
HETATM    6  C6  UNL     1     -33.686   5.231   3.331  1.00 20.00    -0.036 A 
HETATM    7  N10 UNL     1     -32.048   9.507   0.637  1.00 20.00    -0.190 NA
HETATM    8  N11 UNL     1     -32.500   6.267   1.497  1.00 20.00    -0.249 NA
ENDROOT
BRANCH   6   9
HETATM    9  C9  UNL     1     -34.108   3.989   4.031  1.00 20.00     0.020 A 
HETATM   10  C7  UNL     1     -33.424   3.601   5.318  1.00 20.00     0.010 A 
HETATM   11  C8  UNL     1     -33.167   2.810   4.073  1.00 20.00     0.010 A 
ENDBRANCH   6   9
TORSDOF 1
ENDMDL
MODEL 3
REMARK VINA RESULT:      -0.6      1.826      5.219
REMARK  1 active torsions:
REMARK  status: ('A' for Active; 'I' for Inactive)
REMARK    1  A    between atoms: C6_6  and  C9_9 
ROOT
HETATM    1  C1  UNL     1     -32.404   8.565   1.222  1.00 20.00     0.119 C 
HETATM    2  C2  UNL     1     -32.439   6.126   1.439  1.00 20.00     0.043 A 
HETATM    3  C3  UNL     1     -32.857   5.015   2.163  1.00 20.00     0.012 A 
HETATM    4  C4  UNL     1     -33.908   6.485   3.710  1.00 20.00     0.125 A 
HETATM    5  C5  UNL     1     -32.793   7.379   1.910  1.00 20.00     0.136 A 
HETATM    6  C6  UNL     1     -33.606   5.189   3.322  1.00 20.00    -0.036 A 
HETATM    7  N10 UNL     1     -32.087   9.531   0.662  1.00 20.00    -0.190 NA
HETATM    8  N11 UNL     1     -33.520   7.588   3.031  1.00 20.00    -0.249 NA
ENDROOT
BRANCH   6   9
HETATM    9  C9  UNL     1     -34.065   4.022   4.120  1.00 20.00     0.020 A 
HETATM   10  C7  UNL     1     -33.267   3.596   5.327  1.00 20.00     0.010 A 
HETATM   11  C8  UNL     1     -33.259   2.747   4.093  1.00 20.00     0.010 A 
ENDBRANCH   6   9
TORSDOF 1
ENDMDL
MODEL 4
REMARK VINA RESULT:       1.0      1.955      5.053
REMARK  1 active torsions:
REMARK  status: ('A' for Active; 'I' for Inactive)
REMARK    1  A    between atoms: C6_6  and  C9_9 
ROOT
HETATM    1  C1  UNL     1     -32.270   9.186   0.594  1.00 20.00     0.119 C 
HETATM    2  C2  UNL     1     -32.522   6.817   1.165  1.00 20.00     0.043 A 
HETATM    3  C3  UNL     1     -32.897   5.868   2.109  1.00 20.00     0.012 A 
HETATM    4  C4  UNL     1     -33.438   7.641   3.600  1.00 20.00     0.125 A 
HETATM    5  C5  UNL     1     -32.633   8.154   1.509  1.00 20.00     0.136 A 
HETATM    6  C6  UNL     1     -33.365   6.280   3.353  1.00 20.00    -0.036 A 
HETATM    7  N10 UNL     1     -31.974  10.026  -0.150  1.00 20.00    -0.190 NA
HETATM    8  N11 UNL     1     -33.083   8.592   2.707  1.00 20.00    -0.249 NA
ENDROOT
BRANCH   6   9
HETATM    9  C9  UNL     1     -33.771   5.290   4.384  1.00 20.00     0.020 A 
HETATM   10  C7  UNL     1     -34.012   3.858   3.975  1.00 20.00     0.010 A 
HETATM   11  C8  UNL     1     -35.171   4.727   4.356  1.00 20.00     0.010 A 
ENDBRANCH   6   9
TORSDOF 1
ENDMDL
