MODEL 1
REMARK VINA RESULT:      -1.7      0.000      0.000
REMARK  1 active torsions:
REMARK  status: ('A' for Active; 'I' for Inactive)
REMARK    1  A    between atoms: C1_1  and  C6_6 
ROOT
HETATM    1  C2  UNL     1     -32.069   8.247   2.707  1.00 20.00     0.005 A 
HETATM    2  C3  UNL     1     -31.596   7.210   1.683  1.00 20.00     0.005 A 
HETATM    3  C4  UNL     1     -34.105   6.930   3.718  1.00 20.00     0.018 C 
HETATM    4  C5  UNL     1     -33.386   5.333   2.087  1.00 20.00     0.018 C 
HETATM    5  C6  UNL     1     -33.462   5.552   3.595  1.00 20.00     0.073 C 
HETATM    6  C7  UNL     1     -33.517   7.737   2.563  1.00 20.00    -0.010 A 
HETATM    7  C8  UNL     1     -33.044   6.708   1.516  1.00 20.00    -0.010 A 
ENDROOT
BRANCH   5   8
HETATM    8  C1  UNL     1     -34.283   4.505   4.274  1.00 20.00     0.223 C 
HETATM    9  O9  UNL     1     -35.459   4.698   4.570  1.00 20.00    -0.279 OA
HETATM   10 CL10 UNL     1     -33.378   3.050   4.565  1.00 20.00    -0.043 Cl
ENDBRANCH   5   8
TORSDOF 1
ENDMDL
MODEL 2
REMARK VINA RESULT:      -1.5      1.194      2.055
REMARK  1 active torsions:
REMARK  status: ('A' for Active; 'I' for Inactive)
REMARK    1  A    between atoms: C1_1  and  C6_6 
ROOT
HETATM    1  C2  UNL     1     -32.198   8.144   0.469  1.00 20.00     0.005 A 
HETATM    2  C3  UNL     1     -32.374   9.252   1.513  1.00 20.00     0.005 A 
HETATM    3  C4  UNL     1     -32.808   6.070   1.962  1.00 20.00     0.018 C 
HETATM    4  C5  UNL     1     -33.039   7.801   3.597  1.00 20.00     0.018 C 
HETATM    5  C6  UNL     1     -33.860   6.795   2.796  1.00 20.00     0.073 C 
HETATM    6  C7  UNL     1     -31.800   7.152   1.581  1.00 20.00    -0.010 A 
HETATM    7  C8  UNL     1     -31.956   8.273   2.628  1.00 20.00    -0.010 A 
ENDROOT
BRANCH   5   8
HETATM    8  C1  UNL     1     -34.604   5.849   3.679  1.00 20.00     0.223 C 
HETATM    9  O9  UNL     1     -35.658   6.166   4.222  1.00 20.00    -0.279 OA
HETATM   10 CL10 UNL     1     -33.802   4.313   3.815  1.00 20.00    -0.043 Cl
ENDBRANCH   5   8
TORSDOF 1
ENDMDL
MODEL 3
REMARK VINA RESULT:      -1.1      1.720      2.464
REMARK  1 active torsions:
REMARK  status: ('A' for Active; 'I' for Inactive)
REMARK    1  A    between atoms: C1_1  and  C6_6 
ROOT
HETATM    1  C2  UNL     1     -32.096   8.320   0.299  1.00 20.00     0.005 A 
HETATM    2  C3  UNL     1     -32.513   9.374   1.331  1.00 20.00     0.005 A 
HETATM    3  C4  UNL     1     -32.379   6.164   1.773  1.00 20.00     0.018 C 
HETATM    4  C5  UNL     1     -32.987   7.819   3.392  1.00 20.00     0.018 C 
HETATM    5  C6  UNL     1     -33.578   6.683   2.562  1.00 20.00     0.073 C 
HETATM    6  C7  UNL     1     -31.570   7.413   1.430  1.00 20.00    -0.010 A 
HETATM    7  C8  UNL     1     -31.970   8.483   2.466  1.00 20.00    -0.010 A 
ENDROOT
BRANCH   5   8
HETATM    8  C1  UNL     1     -34.173   5.614   3.417  1.00 20.00     0.223 C 
HETATM    9  O9  UNL     1     -33.651   4.507   3.523  1.00 20.00    -0.279 OA
HETATM   10 CL10 UNL     1     -35.633   6.138   4.200  1.00 20.00    -0.043 Cl
ENDBRANCH   5   8
TORSDOF 1
ENDMDL
MODEL 4
REMARK VINA RESULT:      -0.6      3.646      4.518
REMARK  1 active torsions:
REMARK  status: ('A' for Active; 'I' for Inactive)
REMARK    1  A    between atoms: C1_1  and  C6_6 
ROOT
HETATM    1  C2  UNL     1     -34.598   7.491   4.422  1.00 20.00     0.005 A 
HETATM    2  C3  UNL     1     -34.971   6.391   3.422  1.00 20.00     0.005 A 
HETATM    3  C4  UNL     1     -32.422   8.388   3.256  1.00 20.00     0.018 C 
HETATM    4  C5  UNL     1     -32.986   6.640   1.722  1.00 20.00     0.018 C 
HETATM    5  C6  UNL     1     -32.916   8.161   1.830  1.00 20.00     0.073 C 
HETATM    6  C7  UNL     1     -33.106   7.302   4.082  1.00 20.00    -0.010 A 
HETATM    7  C8  UNL     1     -33.480   6.179   3.092  1.00 20.00    -0.010 A 
ENDROOT
BRANCH   5   8
HETATM    8  C1  UNL     1     -31.980   8.752   0.828  1.00 20.00     0.223 C 
HETATM    9  O9  UNL     1     -30.932   8.194   0.517  1.00 20.00    -0.279 OA
HETATM   10 CL10 UNL     1     -32.564  10.263   0.199  1.00 20.00    -0.043 Cl
ENDBRANCH   5   8
TORSDOF 1
ENDMDL
MODEL 5
REMARK VINA RESULT:       0.1      1.527      1.958
REMARK  1 active torsions:
REMARK  status: ('A' for Active; 'I' for Inactive)
REMARK    1  A    between atoms: C1_1  and  C6_6 
ROOT
HETATM    1  C2  UNL     1     -34.339   7.767   4.110  1.00 20.00     0.005 A 
HETATM    2  C3  UNL     1     -33.202   7.624   3.092  1.00 20.00     0.005 A 
HETATM    3  C4  UNL     1     -34.929   5.227   4.429  1.00 20.00     0.018 C 
HETATM    4  C5  UNL     1     -33.183   5.014   2.807  1.00 20.00     0.018 C 
HETATM    5  C6  UNL     1     -33.497   4.724   4.272  1.00 20.00     0.073 C 
HETATM    6  C7  UNL     1     -34.997   6.483   3.564  1.00 20.00    -0.010 A 
HETATM    7  C8  UNL     1     -33.864   6.352   2.525  1.00 20.00    -0.010 A 
ENDROOT
BRANCH   5   8
HETATM    8  C1  UNL     1     -33.393   3.269   4.590  1.00 20.00     0.223 C 
HETATM    9  O9  UNL     1     -33.853   2.410   3.843  1.00 20.00    -0.279 OA
HETATM   10 CL10 UNL     1     -32.565   2.985   6.092  1.00 20.00    -0.043 Cl
ENDBRANCH   5   8
TORSDOF 1
ENDMDL
MODEL 6
REMARK VINA RESULT:       0.1      2.958      4.198
REMARK  1 active torsions:
REMARK  status: ('A' for Active; 'I' for Inactive)
REMARK    1  A    between atoms: C1_1  and  C6_6 
ROOT
HETATM    1  C2  UNL     1     -34.075   4.262   3.794  1.00 20.00     0.005 A 
HETATM    2  C3  UNL     1     -34.872   5.151   4.755  1.00 20.00     0.005 A 
HETATM    3  C4  UNL     1     -33.026   6.134   2.277  1.00 20.00     0.018 C 
HETATM    4  C5  UNL     1     -34.309   7.511   3.755  1.00 20.00     0.018 C 
HETATM    5  C6  UNL     1     -32.868   7.158   3.397  1.00 20.00     0.073 C 
HETATM    6  C7  UNL     1     -34.248   5.309   2.675  1.00 20.00    -0.010 A 
HETATM    7  C8  UNL     1     -35.070   6.192   3.636  1.00 20.00    -0.010 A 
ENDROOT
BRANCH   5   8
HETATM    8  C1  UNL     1     -32.095   8.351   2.941  1.00 20.00     0.223 C 
HETATM    9  O9  UNL     1     -31.456   9.045   3.727  1.00 20.00    -0.279 OA
HETATM   10 CL10 UNL     1     -32.223   8.596   1.225  1.00 20.00    -0.043 Cl
ENDBRANCH   5   8
TORSDOF 1
ENDMDL
MODEL 7
REMARK VINA RESULT:       0.7      2.775      3.824
REMARK  1 active torsions:
REMARK  status: ('A' for Active; 'I' for Inactive)
REMARK    1  A    between atoms: C1_1  and  C6_6 
ROOT
HETATM    1  C2  UNL     1     -35.832   6.849   3.843  1.00 20.00     0.005 A 
HETATM    2  C3  UNL     1     -35.664   5.336   4.020  1.00 20.00     0.005 A 
HETATM    3  C4  UNL     1     -33.437   7.425   2.928  1.00 20.00     0.018 C 
HETATM    4  C5  UNL     1     -33.169   5.069   3.248  1.00 20.00     0.018 C 
HETATM    5  C6  UNL     1     -33.262   6.124   2.150  1.00 20.00     0.073 C 
HETATM    6  C7  UNL     1     -34.327   7.052   4.112  1.00 20.00    -0.010 A 
HETATM    7  C8  UNL     1     -34.163   5.532   4.312  1.00 20.00    -0.010 A 
ENDROOT
BRANCH   5   8
HETATM    8  C1  UNL     1     -32.035   6.158   1.300  1.00 20.00     0.223 C 
HETATM    9  O9  UNL     1     -31.573   5.140   0.793  1.00 20.00    -0.279 OA
HETATM   10 CL10 UNL     1     -31.393   7.766   1.141  1.00 20.00    -0.043 Cl
ENDBRANCH   5   8
TORSDOF 1
ENDMDL
MODEL 8
REMARK VINA RESULT:       0.7      4.156      5.030
REMARK  1 active torsions:
REMARK  status: ('A' for Active; 'I' for Inactive)
REMARK    1  A    between atoms: C1_1  and  C6_6 
ROOT
HETATM    1  C2  UNL     1     -33.595   6.493   2.837  1.00 20.00     0.005 A 
HETATM    2  C3  UNL     1     -32.787   5.788   1.742  1.00 20.00     0.005 A 
HETATM    3  C4  UNL     1     -32.928   8.978   2.308  1.00 20.00     0.018 C 
HETATM    4  C5  UNL     1     -31.635   7.868   0.628  1.00 20.00     0.018 C 
HETATM    5  C6  UNL     1     -32.841   8.787   0.796  1.00 20.00     0.073 C 
HETATM    6  C7  UNL     1     -32.545   7.621   2.893  1.00 20.00    -0.010 A 
HETATM    7  C8  UNL     1     -31.721   6.900   1.807  1.00 20.00    -0.010 A 
ENDROOT
BRANCH   5   8
HETATM    8  C1  UNL     1     -32.655  10.090   0.091  1.00 20.00     0.223 C 
HETATM    9  O9  UNL     1     -32.735  10.180  -1.130  1.00 20.00    -0.279 OA
HETATM   10 CL10 UNL     1     -32.329  11.391   1.196  1.00 20.00    -0.043 Cl
ENDBRANCH   5   8
TORSDOF 1
ENDMDL
MODEL 9
REMARK VINA RESULT:       0.8      2.894      4.170
REMARK  1 active torsions:
REMARK  status: ('A' for Active; 'I' for Inactive)
REMARK    1  A    between atoms: C1_1  and  C6_6 
ROOT
HETATM    1  C2  UNL     1     -33.865   4.056   3.805  1.00 20.00     0.005 A 
HETATM    2  C3  UNL     1     -34.637   4.963   4.769  1.00 20.00     0.005 A 
HETATM    3  C4  UNL     1     -33.035   5.876   2.102  1.00 20.00     0.018 C 
HETATM    4  C5  UNL     1     -34.279   7.280   3.588  1.00 20.00     0.018 C 
HETATM    5  C6  UNL     1     -32.851   6.977   3.143  1.00 20.00     0.073 C 
HETATM    6  C7  UNL     1     -34.177   5.019   2.641  1.00 20.00    -0.010 A 
HETATM    7  C8  UNL     1     -34.973   5.920   3.607  1.00 20.00    -0.010 A 
ENDROOT
BRANCH   5   8
HETATM    8  C1  UNL     1     -32.180   8.175   2.557  1.00 20.00     0.223 C 
HETATM    9  O9  UNL     1     -32.203   8.402   1.351  1.00 20.00    -0.279 OA
HETATM   10 CL10 UNL     1     -31.404   9.149   3.770  1.00 20.00    -0.043 Cl
ENDBRANCH   5   8
TORSDOF 1
ENDMDL
