MODEL 1
REMARK VINA RESULT:       0.0      0.000      0.000
REMARK  1 active torsions:
REMARK  status: ('A' for Active; 'I' for Inactive)
REMARK    1  A    between atoms: C8_8  and  O11_11 
ROOT
HETATM    1  C1  UNL     1     -34.925   4.846   4.581  1.00 20.00     0.005 C 
HETATM    2  C2  UNL     1     -35.318   6.127   4.465  1.00 20.00     0.005 C 
HETATM    3  C3  UNL     1     -33.890   4.253   3.736  1.00 20.00    -0.063 C 
HETATM    4  C4  UNL     1     -33.409   3.026   3.984  1.00 20.00     0.019 C 
HETATM    5  C5  UNL     1     -31.767   6.225   1.229  1.00 20.00     0.001 C 
HETATM    6  C6  UNL     1     -32.070   4.900   1.945  1.00 20.00     0.010 C 
HETATM    7  C7  UNL     1     -32.745   7.263   1.796  1.00 20.00     0.008 C 
HETATM    8  C8  UNL     1     -34.697   7.104   3.497  1.00 20.00     0.145 C 
HETATM    9  C9  UNL     1     -33.444   5.117   2.580  1.00 20.00     0.024 C 
HETATM   10  C10 UNL     1     -33.343   6.581   3.021  1.00 20.00     0.026 C 
ENDROOT
BRANCH   8  11
HETATM   11  O11 UNL     1     -34.516   8.351   4.160  1.00 20.00    -0.391 OA
HETATM   12  H25 UNL     1     -34.762   8.211   5.088  1.00 20.00     0.210 HD
ENDBRANCH   8  11
TORSDOF 1
ENDMDL
MODEL 2
REMARK VINA RESULT:       0.6      1.298      2.316
REMARK  1 active torsions:
REMARK  status: ('A' for Active; 'I' for Inactive)
REMARK    1  A    between atoms: C8_8  and  O11_11 
ROOT
HETATM    1  C1  UNL     1     -33.562   5.134   2.885  1.00 20.00     0.005 C 
HETATM    2  C2  UNL     1     -34.186   5.995   3.708  1.00 20.00     0.005 C 
HETATM    3  C3  UNL     1     -32.741   5.567   1.755  1.00 20.00    -0.063 C 
HETATM    4  C4  UNL     1     -32.004   4.692   1.056  1.00 20.00     0.019 C 
HETATM    5  C5  UNL     1     -31.840   9.219   1.026  1.00 20.00     0.001 C 
HETATM    6  C6  UNL     1     -31.681   7.729   0.687  1.00 20.00     0.010 C 
HETATM    7  C7  UNL     1     -32.767   9.295   2.247  1.00 20.00     0.008 C 
HETATM    8  C8  UNL     1     -34.062   7.495   3.593  1.00 20.00     0.145 C 
HETATM    9  C9  UNL     1     -32.818   7.044   1.446  1.00 20.00     0.024 C 
HETATM   10  C10 UNL     1     -32.844   7.856   2.745  1.00 20.00     0.026 C 
ENDROOT
BRANCH   8  11
HETATM   11  O11 UNL     1     -33.909   8.041   4.899  1.00 20.00    -0.391 OA
HETATM   12  H25 UNL     1     -32.958   8.037   5.092  1.00 20.00     0.210 HD
ENDBRANCH   8  11
TORSDOF 1
ENDMDL
MODEL 3
REMARK VINA RESULT:       0.8      1.590      2.154
REMARK  1 active torsions:
REMARK  status: ('A' for Active; 'I' for Inactive)
REMARK    1  A    between atoms: C8_8  and  O11_11 
ROOT
HETATM    1  C1  UNL     1     -34.373   7.402   4.657  1.00 20.00     0.005 C 
HETATM    2  C2  UNL     1     -33.545   8.435   4.422  1.00 20.00     0.005 C 
HETATM    3  C3  UNL     1     -34.464   6.239   3.777  1.00 20.00    -0.063 C 
HETATM    4  C4  UNL     1     -35.177   5.158   4.124  1.00 20.00     0.019 C 
HETATM    5  C5  UNL     1     -32.156   5.623   0.781  1.00 20.00     0.001 C 
HETATM    6  C6  UNL     1     -33.283   5.129   1.700  1.00 20.00     0.010 C 
HETATM    7  C7  UNL     1     -31.716   6.990   1.322  1.00 20.00     0.008 C 
HETATM    8  C8  UNL     1     -32.581   8.481   3.261  1.00 20.00     0.145 C 
HETATM    9  C9  UNL     1     -33.721   6.376   2.468  1.00 20.00     0.024 C 
HETATM   10  C10 UNL     1     -32.378   7.078   2.693  1.00 20.00     0.026 C 
ENDROOT
BRANCH   8  11
HETATM   11  O11 UNL     1     -31.334   8.990   3.723  1.00 20.00    -0.391 OA
HETATM   12  H25 UNL     1     -30.784   9.133   2.936  1.00 20.00     0.210 HD
ENDBRANCH   8  11
TORSDOF 1
ENDMDL
MODEL 4
REMARK VINA RESULT:       1.0      0.890      3.159
REMARK  1 active torsions:
REMARK  status: ('A' for Active; 'I' for Inactive)
REMARK    1  A    between atoms: C8_8  and  O11_11 
ROOT
HETATM    1  C1  UNL     1     -32.040   7.161   1.505  1.00 20.00     0.005 C 
HETATM    2  C2  UNL     1     -32.506   8.199   2.222  1.00 20.00     0.005 C 
HETATM    3  C3  UNL     1     -32.391   5.773   1.796  1.00 20.00    -0.063 C 
HETATM    4  C4  UNL     1     -32.042   4.779   0.967  1.00 20.00     0.019 C 
HETATM    5  C5  UNL     1     -34.983   4.712   4.412  1.00 20.00     0.001 C 
HETATM    6  C6  UNL     1     -34.012   4.326   3.285  1.00 20.00     0.010 C 
HETATM    7  C7  UNL     1     -34.919   6.240   4.540  1.00 20.00     0.008 C 
HETATM    8  C8  UNL     1     -33.484   8.052   3.362  1.00 20.00     0.145 C 
HETATM    9  C9  UNL     1     -33.142   5.568   3.091  1.00 20.00     0.024 C 
HETATM   10  C10 UNL     1     -34.168   6.687   3.292  1.00 20.00     0.026 C 
ENDROOT
BRANCH   8  11
HETATM   11  O11 UNL     1     -34.464   9.078   3.259  1.00 20.00    -0.391 OA
HETATM   12  H25 UNL     1     -33.982   9.919   3.204  1.00 20.00     0.210 HD
ENDBRANCH   8  11
TORSDOF 1
ENDMDL
MODEL 5
REMARK VINA RESULT:       1.1      1.912      3.976
REMARK  1 active torsions:
REMARK  status: ('A' for Active; 'I' for Inactive)
REMARK    1  A    between atoms: C8_8  and  O11_11 
ROOT
HETATM    1  C1  UNL     1     -32.731   8.098   2.494  1.00 20.00     0.005 C 
HETATM    2  C2  UNL     1     -32.273   7.265   1.542  1.00 20.00     0.005 C 
HETATM    3  C3  UNL     1     -33.608   7.661   3.578  1.00 20.00    -0.063 C 
HETATM    4  C4  UNL     1     -33.913   8.477   4.597  1.00 20.00     0.019 C 
HETATM    5  C5  UNL     1     -34.559   4.008   4.236  1.00 20.00     0.001 C 
HETATM    6  C6  UNL     1     -34.610   5.481   4.667  1.00 20.00     0.010 C 
HETATM    7  C7  UNL     1     -33.703   3.953   2.964  1.00 20.00     0.008 C 
HETATM    8  C8  UNL     1     -32.565   5.784   1.522  1.00 20.00     0.145 C 
HETATM    9  C9  UNL     1     -34.140   6.254   3.435  1.00 20.00     0.024 C 
HETATM   10  C10 UNL     1     -33.045   5.326   2.898  1.00 20.00     0.026 C 
ENDROOT
BRANCH   8  11
HETATM   11  O11 UNL     1     -31.370   5.089   1.182  1.00 20.00    -0.391 OA
HETATM   12  H25 UNL     1     -31.208   5.258   0.240  1.00 20.00     0.210 HD
ENDBRANCH   8  11
TORSDOF 1
ENDMDL
MODEL 6
REMARK VINA RESULT:       1.2      1.543      3.466
REMARK  1 active torsions:
REMARK  status: ('A' for Active; 'I' for Inactive)
REMARK    1  A    between atoms: C8_8  and  O11_11 
ROOT
HETATM    1  C1  UNL     1     -31.630   6.656   0.805  1.00 20.00     0.005 C 
HETATM    2  C2  UNL     1     -31.514   7.912   1.270  1.00 20.00     0.005 C 
HETATM    3  C3  UNL     1     -32.502   5.658   1.420  1.00 20.00    -0.063 C 
HETATM    4  C4  UNL     1     -32.718   4.469   0.839  1.00 20.00     0.019 C 
HETATM    5  C5  UNL     1     -34.952   6.407   4.270  1.00 20.00     0.001 C 
HETATM    6  C6  UNL     1     -34.388   5.413   3.243  1.00 20.00     0.010 C 
HETATM    7  C7  UNL     1     -34.225   7.738   4.037  1.00 20.00     0.008 C 
HETATM    8  C8  UNL     1     -32.310   8.446   2.435  1.00 20.00     0.145 C 
HETATM    9  C9  UNL     1     -33.102   6.071   2.744  1.00 20.00     0.024 C 
HETATM   10  C10 UNL     1     -33.516   7.545   2.701  1.00 20.00     0.026 C 
ENDROOT
BRANCH   8  11
HETATM   11  O11 UNL     1     -32.761   9.758   2.118  1.00 20.00    -0.391 OA
HETATM   12  H25 UNL     1     -33.606   9.881   2.579  1.00 20.00     0.210 HD
ENDBRANCH   8  11
TORSDOF 1
ENDMDL
MODEL 7
REMARK VINA RESULT:       1.2      2.074      3.394
REMARK  1 active torsions:
REMARK  status: ('A' for Active; 'I' for Inactive)
REMARK    1  A    between atoms: C8_8  and  O11_11 
ROOT
HETATM    1  C1  UNL     1     -34.010   5.720   3.560  1.00 20.00     0.005 C 
HETATM    2  C2  UNL     1     -33.414   4.908   2.670  1.00 20.00     0.005 C 
HETATM    3  C3  UNL     1     -33.778   7.163   3.600  1.00 20.00    -0.063 C 
HETATM    4  C4  UNL     1     -34.508   7.962   4.390  1.00 20.00     0.019 C 
HETATM    5  C5  UNL     1     -31.720   9.083   1.000  1.00 20.00     0.001 C 
HETATM    6  C6  UNL     1     -32.625   9.103   2.241  1.00 20.00     0.010 C 
HETATM    7  C7  UNL     1     -31.600   7.616   0.568  1.00 20.00     0.008 C 
HETATM    8  C8  UNL     1     -32.490   5.399   1.582  1.00 20.00     0.145 C 
HETATM    9  C9  UNL     1     -32.657   7.648   2.711  1.00 20.00     0.024 C 
HETATM   10  C10 UNL     1     -32.679   6.901   1.374  1.00 20.00     0.026 C 
ENDROOT
BRANCH   8  11
HETATM   11  O11 UNL     1     -32.799   4.712   0.375  1.00 20.00    -0.391 OA
HETATM   12  H25 UNL     1     -32.899   3.774   0.606  1.00 20.00     0.210 HD
ENDBRANCH   8  11
TORSDOF 1
ENDMDL
MODEL 8
REMARK VINA RESULT:       1.2      1.455      3.220
REMARK  1 active torsions:
REMARK  status: ('A' for Active; 'I' for Inactive)
REMARK    1  A    between atoms: C8_8  and  O11_11 
ROOT
HETATM    1  C1  UNL     1     -33.402   8.668   3.265  1.00 20.00     0.005 C 
HETATM    2  C2  UNL     1     -34.107   7.863   4.078  1.00 20.00     0.005 C 
HETATM    3  C3  UNL     1     -32.568   8.165   2.175  1.00 20.00    -0.063 C 
HETATM    4  C4  UNL     1     -32.009   8.997   1.285  1.00 20.00     0.019 C 
HETATM    5  C5  UNL     1     -32.428   4.490   1.096  1.00 20.00     0.001 C 
HETATM    6  C6  UNL     1     -32.010   5.950   0.862  1.00 20.00     0.010 C 
HETATM    7  C7  UNL     1     -33.367   4.493   2.310  1.00 20.00     0.008 C 
HETATM    8  C8  UNL     1     -34.164   6.363   3.921  1.00 20.00     0.145 C 
HETATM    9  C9  UNL     1     -32.383   6.665   2.161  1.00 20.00     0.024 C 
HETATM   10  C10 UNL     1     -33.697   5.966   2.522  1.00 20.00     0.026 C 
ENDROOT
BRANCH   8  11
HETATM   11  O11 UNL     1     -35.507   5.934   4.112  1.00 20.00    -0.391 OA
HETATM   12  H25 UNL     1     -36.059   6.732   4.094  1.00 20.00     0.210 HD
ENDBRANCH   8  11
TORSDOF 1
ENDMDL
MODEL 9
REMARK VINA RESULT:       1.3      2.098      4.316
REMARK  1 active torsions:
REMARK  status: ('A' for Active; 'I' for Inactive)
REMARK    1  A    between atoms: C8_8  and  O11_11 
ROOT
HETATM    1  C1  UNL     1     -31.452   7.876   1.815  1.00 20.00     0.005 C 
HETATM    2  C2  UNL     1     -31.818   6.857   1.017  1.00 20.00     0.005 C 
HETATM    3  C3  UNL     1     -32.198   8.256   3.013  1.00 20.00    -0.063 C 
HETATM    4  C4  UNL     1     -31.718   9.167   3.871  1.00 20.00     0.019 C 
HETATM    5  C5  UNL     1     -35.161   6.274   4.419  1.00 20.00     0.001 C 
HETATM    6  C6  UNL     1     -34.167   7.437   4.559  1.00 20.00     0.010 C 
HETATM    7  C7  UNL     1     -34.783   5.527   3.133  1.00 20.00     0.008 C 
HETATM    8  C8  UNL     1     -32.999   5.961   1.300  1.00 20.00     0.145 C 
HETATM    9  C9  UNL     1     -33.530   7.562   3.175  1.00 20.00     0.024 C 
HETATM   10  C10 UNL     1     -33.415   6.091   2.764  1.00 20.00     0.026 C 
ENDROOT
BRANCH   8  11
HETATM   11  O11 UNL     1     -32.625   4.614   1.032  1.00 20.00    -0.391 OA
HETATM   12  H25 UNL     1     -32.318   4.238   1.872  1.00 20.00     0.210 HD
ENDBRANCH   8  11
TORSDOF 1
ENDMDL
