MODEL 1
REMARK VINA RESULT:      -0.6      0.000      0.000
REMARK  0 active torsions:
REMARK  status: ('A' for Active; 'I' for Inactive)
ROOT
HETATM    1  C1  UNL     1     -35.109   5.502   4.232  1.00 20.00     0.003 A 
HETATM    2  C2  UNL     1     -34.882   6.819   4.371  1.00 20.00     0.013 A 
HETATM    3  C3  UNL     1     -34.206   4.952   3.233  1.00 20.00     0.030 A 
HETATM    4  C4  UNL     1     -33.186   8.303   3.271  1.00 20.00    -0.011 C 
HETATM    5  C5  UNL     1     -33.811   7.136   3.459  1.00 20.00    -0.013 A 
HETATM    6  C6  UNL     1     -33.421   5.929   2.744  1.00 20.00     0.039 A 
HETATM    7  C7  UNL     1     -32.044   8.405   2.298  1.00 20.00     0.048 C 
HETATM    8  C8  UNL     1     -31.995   7.276   1.251  1.00 20.00     0.126 C 
HETATM    9  C9  UNL     1     -32.016   4.798   1.038  1.00 20.00     0.149 C 
HETATM   10  N10 UNL     1     -32.427   5.976   1.791  1.00 20.00    -0.384 N 
ENDROOT
TORSDOF 0
ENDMDL
MODEL 2
REMARK VINA RESULT:       0.0      0.926      2.501
REMARK  0 active torsions:
REMARK  status: ('A' for Active; 'I' for Inactive)
ROOT
HETATM    1  C1  UNL     1     -34.936   6.673   4.454  1.00 20.00     0.003 A 
HETATM    2  C2  UNL     1     -34.598   5.507   3.879  1.00 20.00     0.013 A 
HETATM    3  C3  UNL     1     -34.201   7.760   3.828  1.00 20.00     0.030 A 
HETATM    4  C4  UNL     1     -33.046   5.025   1.968  1.00 20.00    -0.011 C 
HETATM    5  C5  UNL     1     -33.636   5.833   2.855  1.00 20.00    -0.013 A 
HETATM    6  C6  UNL     1     -33.399   7.270   2.865  1.00 20.00     0.039 A 
HETATM    7  C7  UNL     1     -32.104   5.586   0.938  1.00 20.00     0.048 C 
HETATM    8  C8  UNL     1     -31.528   6.971   1.288  1.00 20.00     0.126 C 
HETATM    9  C9  UNL     1     -32.212   9.261   1.976  1.00 20.00     0.149 C 
HETATM   10  N10 UNL     1     -32.494   7.832   1.990  1.00 20.00    -0.384 N 
ENDROOT
TORSDOF 0
ENDMDL
MODEL 3
REMARK VINA RESULT:       0.1      1.301      3.976
REMARK  0 active torsions:
REMARK  status: ('A' for Active; 'I' for Inactive)
ROOT
HETATM    1  C1  UNL     1     -31.655   7.635   1.217  1.00 20.00     0.003 A 
HETATM    2  C2  UNL     1     -32.064   6.364   1.069  1.00 20.00     0.013 A 
HETATM    3  C3  UNL     1     -32.279   8.217   2.395  1.00 20.00     0.030 A 
HETATM    4  C4  UNL     1     -33.583   4.967   2.495  1.00 20.00    -0.011 C 
HETATM    5  C5  UNL     1     -32.962   6.105   2.168  1.00 20.00    -0.013 A 
HETATM    6  C6  UNL     1     -33.084   7.309   2.977  1.00 20.00     0.039 A 
HETATM    7  C7  UNL     1     -34.440   4.897   3.728  1.00 20.00     0.048 C 
HETATM    8  C8  UNL     1     -34.917   6.265   4.253  1.00 20.00     0.126 C 
HETATM    9  C9  UNL     1     -34.077   8.512   4.909  1.00 20.00     0.149 C 
HETATM   10  N10 UNL     1     -33.909   7.325   4.080  1.00 20.00    -0.384 N 
ENDROOT
TORSDOF 0
ENDMDL
MODEL 4
REMARK VINA RESULT:       0.4      1.314      3.242
REMARK  0 active torsions:
REMARK  status: ('A' for Active; 'I' for Inactive)
ROOT
HETATM    1  C1  UNL     1     -31.870   6.818   1.509  1.00 20.00     0.003 A 
HETATM    2  C2  UNL     1     -32.795   7.668   1.983  1.00 20.00     0.013 A 
HETATM    3  C3  UNL     1     -32.114   5.484   2.033  1.00 20.00     0.030 A 
HETATM    4  C4  UNL     1     -34.770   7.257   3.474  1.00 20.00    -0.011 C 
HETATM    5  C5  UNL     1     -33.664   6.881   2.823  1.00 20.00    -0.013 A 
HETATM    6  C6  UNL     1     -33.189   5.504   2.841  1.00 20.00     0.039 A 
HETATM    7  C7  UNL     1     -35.568   6.252   4.258  1.00 20.00     0.048 C 
HETATM    8  C8  UNL     1     -34.792   4.977   4.639  1.00 20.00     0.126 C 
HETATM    9  C9  UNL     1     -33.392   3.169   3.661  1.00 20.00     0.149 C 
HETATM   10  N10 UNL     1     -33.841   4.554   3.597  1.00 20.00    -0.384 N 
ENDROOT
TORSDOF 0
ENDMDL
MODEL 5
REMARK VINA RESULT:       0.7      0.751      3.062
REMARK  0 active torsions:
REMARK  status: ('A' for Active; 'I' for Inactive)
ROOT
HETATM    1  C1  UNL     1     -31.633   8.892   1.585  1.00 20.00     0.003 A 
HETATM    2  C2  UNL     1     -32.411   9.056   2.668  1.00 20.00     0.013 A 
HETATM    3  C3  UNL     1     -31.765   7.532   1.088  1.00 20.00     0.030 A 
HETATM    4  C4  UNL     1     -33.986   7.464   3.797  1.00 20.00    -0.011 C 
HETATM    5  C5  UNL     1     -33.068   7.791   2.881  1.00 20.00    -0.013 A 
HETATM    6  C6  UNL     1     -32.620   6.845   1.868  1.00 20.00     0.039 A 
HETATM    7  C7  UNL     1     -34.591   6.087   3.809  1.00 20.00     0.048 C 
HETATM    8  C8  UNL     1     -33.763   5.020   3.068  1.00 20.00     0.126 C 
HETATM    9  C9  UNL     1     -32.655   4.564   0.889  1.00 20.00     0.149 C 
HETATM   10  N10 UNL     1     -33.089   5.549   1.870  1.00 20.00    -0.384 N 
ENDROOT
TORSDOF 0
ENDMDL
MODEL 6
REMARK VINA RESULT:       0.9      1.112      3.052
REMARK  0 active torsions:
REMARK  status: ('A' for Active; 'I' for Inactive)
ROOT
HETATM    1  C1  UNL     1     -32.384   4.737   0.918  1.00 20.00     0.003 A 
HETATM    2  C2  UNL     1     -31.676   5.878   0.894  1.00 20.00     0.013 A 
HETATM    3  C3  UNL     1     -33.460   4.846   1.891  1.00 20.00     0.030 A 
HETATM    4  C4  UNL     1     -31.999   8.020   2.158  1.00 20.00    -0.011 C 
HETATM    5  C5  UNL     1     -32.299   6.752   1.857  1.00 20.00    -0.013 A 
HETATM    6  C6  UNL     1     -33.416   6.055   2.479  1.00 20.00     0.039 A 
HETATM    7  C7  UNL     1     -32.821   8.776   3.166  1.00 20.00     0.048 C 
HETATM    8  C8  UNL     1     -33.642   7.885   4.117  1.00 20.00     0.126 C 
HETATM    9  C9  UNL     1     -35.278   6.011   4.122  1.00 20.00     0.149 C 
HETATM   10  N10 UNL     1     -34.163   6.674   3.459  1.00 20.00    -0.384 N 
ENDROOT
TORSDOF 0
ENDMDL
MODEL 7
REMARK VINA RESULT:       1.7      1.259      3.479
REMARK  0 active torsions:
REMARK  status: ('A' for Active; 'I' for Inactive)
ROOT
HETATM    1  C1  UNL     1     -32.084   5.581   0.734  1.00 20.00     0.003 A 
HETATM    2  C2  UNL     1     -33.200   5.061   1.271  1.00 20.00     0.013 A 
HETATM    3  C3  UNL     1     -31.687   6.766   1.479  1.00 20.00     0.030 A 
HETATM    4  C4  UNL     1     -34.527   5.776   3.275  1.00 20.00    -0.011 C 
HETATM    5  C5  UNL     1     -33.536   5.909   2.387  1.00 20.00    -0.013 A 
HETATM    6  C6  UNL     1     -32.562   6.988   2.476  1.00 20.00     0.039 A 
HETATM    7  C7  UNL     1     -34.668   6.754   4.409  1.00 20.00     0.048 C 
HETATM    8  C8  UNL     1     -33.950   8.098   4.185  1.00 20.00     0.126 C 
HETATM    9  C9  UNL     1     -31.741   9.060   3.570  1.00 20.00     0.149 C 
HETATM   10  N10 UNL     1     -32.680   7.953   3.454  1.00 20.00    -0.384 N 
ENDROOT
TORSDOF 0
ENDMDL
MODEL 8
REMARK VINA RESULT:       1.8      1.127      2.449
REMARK  0 active torsions:
REMARK  status: ('A' for Active; 'I' for Inactive)
ROOT
HETATM    1  C1  UNL     1     -34.246   8.348   4.198  1.00 20.00     0.003 A 
HETATM    2  C2  UNL     1     -33.472   8.639   3.139  1.00 20.00     0.013 A 
HETATM    3  C3  UNL     1     -34.341   6.905   4.353  1.00 20.00     0.030 A 
HETATM    4  C4  UNL     1     -32.216   7.131   1.578  1.00 20.00    -0.011 C 
HETATM    5  C5  UNL     1     -33.047   7.373   2.597  1.00 20.00    -0.013 A 
HETATM    6  C6  UNL     1     -33.632   6.297   3.386  1.00 20.00     0.039 A 
HETATM    7  C7  UNL     1     -31.857   5.719   1.207  1.00 20.00     0.048 C 
HETATM    8  C8  UNL     1     -32.843   4.654   1.725  1.00 20.00     0.126 C 
HETATM    9  C9  UNL     1     -33.972   3.872   3.799  1.00 20.00     0.149 C 
HETATM   10  N10 UNL     1     -33.394   4.981   3.051  1.00 20.00    -0.384 N 
ENDROOT
TORSDOF 0
ENDMDL
MODEL 9
REMARK VINA RESULT:       2.2      0.869      2.850
REMARK  0 active torsions:
REMARK  status: ('A' for Active; 'I' for Inactive)
ROOT
HETATM    1  C1  UNL     1     -33.358   8.722   3.088  1.00 20.00     0.003 A 
HETATM    2  C2  UNL     1     -34.146   8.162   4.020  1.00 20.00     0.013 A 
HETATM    3  C3  UNL     1     -32.772   7.685   2.253  1.00 20.00     0.030 A 
HETATM    4  C4  UNL     1     -34.740   5.757   4.417  1.00 20.00    -0.011 C 
HETATM    5  C5  UNL     1     -34.084   6.739   3.790  1.00 20.00    -0.013 A 
HETATM    6  C6  UNL     1     -33.190   6.477   2.671  1.00 20.00     0.039 A 
HETATM    7  C7  UNL     1     -34.571   4.329   3.978  1.00 20.00     0.048 C 
HETATM    8  C8  UNL     1     -33.296   4.062   3.156  1.00 20.00     0.126 C 
HETATM    9  C9  UNL     1     -32.042   4.870   1.166  1.00 20.00     0.149 C 
HETATM   10  N10 UNL     1     -32.943   5.182   2.268  1.00 20.00    -0.384 N 
ENDROOT
TORSDOF 0
ENDMDL
