MODEL 1
REMARK VINA RESULT:      -1.9      0.000      0.000
REMARK  1 active torsions:
REMARK  status: ('A' for Active; 'I' for Inactive)
REMARK    1  A    between atoms: C8_8  and  C10_10 
ROOT
HETATM    1  C1  UNL     1     -34.763   6.929   3.394  1.00 20.00     0.028 A 
HETATM    2  C2  UNL     1     -35.375   6.133   4.352  1.00 20.00     0.120 A 
HETATM    3  C3  UNL     1     -33.388   5.006   2.903  1.00 20.00     0.029 A 
HETATM    4  C4  UNL     1     -33.751   6.335   2.670  1.00 20.00    -0.034 A 
HETATM    5  C5  UNL     1     -34.050   4.293   3.874  1.00 20.00     0.220 A 
HETATM    6  C6  UNL     1     -32.310   4.630   2.011  1.00 20.00     0.013 A 
HETATM    7  C7  UNL     1     -32.024   5.698   1.250  1.00 20.00    -0.016 A 
HETATM    8  C8  UNL     1     -32.896   6.898   1.567  1.00 20.00     0.042 A 
HETATM    9  N11 UNL     1     -35.047   4.837   4.611  1.00 20.00    -0.232 NA
HETATM   10  F12 UNL     1     -33.715   3.017   4.111  1.00 20.00    -0.183 F 
ENDROOT
BRANCH   8  11
HETATM   11  C10 UNL     1     -32.077   8.105   2.004  1.00 20.00     0.009 C 
HETATM   12  C9  UNL     1     -32.059   9.174   0.957  1.00 20.00     0.006 C 
ENDBRANCH   8  11
TORSDOF 1
ENDMDL
MODEL 2
REMARK VINA RESULT:      -1.1      2.576      4.531
REMARK  1 active torsions:
REMARK  status: ('A' for Active; 'I' for Inactive)
REMARK    1  A    between atoms: C8_8  and  C10_10 
ROOT
HETATM    1  C1  UNL     1     -32.801   5.062   1.861  1.00 20.00     0.028 A 
HETATM    2  C2  UNL     1     -31.855   5.773   1.136  1.00 20.00     0.120 A 
HETATM    3  C3  UNL     1     -33.359   7.170   2.898  1.00 20.00     0.029 A 
HETATM    4  C4  UNL     1     -33.554   5.794   2.756  1.00 20.00    -0.034 A 
HETATM    5  C5  UNL     1     -32.398   7.792   2.136  1.00 20.00     0.220 A 
HETATM    6  C6  UNL     1     -34.275   7.694   3.891  1.00 20.00     0.013 A 
HETATM    7  C7  UNL     1     -35.013   6.666   4.341  1.00 20.00    -0.016 A 
HETATM    8  C8  UNL     1     -34.653   5.349   3.681  1.00 20.00     0.042 A 
HETATM    9  N11 UNL     1     -31.634   7.112   1.249  1.00 20.00    -0.232 NA
HETATM   10  F12 UNL     1     -32.198   9.112   2.260  1.00 20.00    -0.183 F 
ENDROOT
BRANCH   8  11
HETATM   11  C10 UNL     1     -34.197   4.304   4.691  1.00 20.00     0.009 C 
HETATM   12  C9  UNL     1     -33.464   3.178   4.034  1.00 20.00     0.006 C 
ENDBRANCH   8  11
TORSDOF 1
ENDMDL
MODEL 3
REMARK VINA RESULT:       0.1      1.959      3.067
REMARK  1 active torsions:
REMARK  status: ('A' for Active; 'I' for Inactive)
REMARK    1  A    between atoms: C8_8  and  C10_10 
ROOT
HETATM    1  C1  UNL     1     -33.828   4.625   3.328  1.00 20.00     0.028 A 
HETATM    2  C2  UNL     1     -34.841   5.022   4.188  1.00 20.00     0.120 A 
HETATM    3  C3  UNL     1     -33.452   6.979   2.941  1.00 20.00     0.029 A 
HETATM    4  C4  UNL     1     -33.135   5.640   2.700  1.00 20.00    -0.034 A 
HETATM    5  C5  UNL     1     -34.473   7.278   3.811  1.00 20.00     0.220 A 
HETATM    6  C6  UNL     1     -32.577   7.835   2.165  1.00 20.00     0.013 A 
HETATM    7  C7  UNL     1     -31.745   7.041   1.472  1.00 20.00    -0.016 A 
HETATM    8  C8  UNL     1     -31.991   5.566   1.726  1.00 20.00     0.042 A 
HETATM    9  N11 UNL     1     -35.182   6.315   4.446  1.00 20.00    -0.232 NA
HETATM   10  F12 UNL     1     -34.791   8.558   4.054  1.00 20.00    -0.183 F 
ENDROOT
BRANCH   8  11
HETATM   11  C10 UNL     1     -32.340   4.813   0.449  1.00 20.00     0.009 C 
HETATM   12  C9  UNL     1     -31.208   3.955  -0.019  1.00 20.00     0.006 C 
ENDBRANCH   8  11
TORSDOF 1
ENDMDL
MODEL 4
REMARK VINA RESULT:       0.4      1.473      2.724
REMARK  1 active torsions:
REMARK  status: ('A' for Active; 'I' for Inactive)
REMARK    1  A    between atoms: C8_8  and  C10_10 
ROOT
HETATM    1  C1  UNL     1     -32.295   5.651   1.416  1.00 20.00     0.028 A 
HETATM    2  C2  UNL     1     -33.083   4.612   1.888  1.00 20.00     0.120 A 
HETATM    3  C3  UNL     1     -33.407   7.029   3.058  1.00 20.00     0.029 A 
HETATM    4  C4  UNL     1     -32.479   6.876   2.025  1.00 20.00    -0.034 A 
HETATM    5  C5  UNL     1     -34.145   5.942   3.460  1.00 20.00     0.220 A 
HETATM    6  C6  UNL     1     -33.399   8.402   3.522  1.00 20.00     0.013 A 
HETATM    7  C7  UNL     1     -32.488   9.069   2.795  1.00 20.00    -0.016 A 
HETATM    8  C8  UNL     1     -31.796   8.192   1.769  1.00 20.00     0.042 A 
HETATM    9  N11 UNL     1     -34.000   4.724   2.889  1.00 20.00    -0.232 NA
HETATM   10  F12 UNL     1     -35.040   6.071   4.450  1.00 20.00    -0.183 F 
ENDROOT
BRANCH   8  11
HETATM   11  C10 UNL     1     -31.995   8.701   0.348  1.00 20.00     0.009 C 
HETATM   12  C9  UNL     1     -32.533  10.097   0.327  1.00 20.00     0.006 C 
ENDBRANCH   8  11
TORSDOF 1
ENDMDL
