MODEL 1
REMARK VINA RESULT:      -1.2      0.000      0.000
REMARK  1 active torsions:
REMARK  status: ('A' for Active; 'I' for Inactive)
REMARK    1  A    between atoms: C3_3  and  C4_4 
ROOT
HETATM    1  C1  UNL     1     -32.907   5.809   1.719  1.00 20.00     0.012 A 
HETATM    2  C2  UNL     1     -31.778   6.454   1.433  1.00 20.00     0.003 A 
HETATM    3  C4  UNL     1     -33.887   6.752   2.302  1.00 20.00     0.231 A 
HETATM    4  C5  UNL     1     -31.907   7.888   1.812  1.00 20.00     0.141 A 
HETATM    5  C6  UNL     1     -31.712   8.833   0.639  1.00 20.00     0.044 C 
HETATM    6  O8  UNL     1     -33.255   8.038   2.312  1.00 20.00    -0.364 OA
ENDROOT
BRANCH   3   7
HETATM    7  C3  UNL     1     -34.163   6.367   3.719  1.00 20.00     0.251 C 
HETATM    8  O7  UNL     1     -34.475   5.221   4.027  1.00 20.00    -0.277 OA
HETATM    9 CL9  UNL     1     -33.988   7.710   4.808  1.00 20.00    -0.041 Cl
ENDBRANCH   3   7
TORSDOF 1
ENDMDL
MODEL 2
REMARK VINA RESULT:      -0.9      1.966      3.667
REMARK  1 active torsions:
REMARK  status: ('A' for Active; 'I' for Inactive)
REMARK    1  A    between atoms: C3_3  and  C4_4 
ROOT
HETATM    1  C1  UNL     1     -31.884   6.533   1.480  1.00 20.00     0.012 A 
HETATM    2  C2  UNL     1     -33.048   5.964   1.788  1.00 20.00     0.003 A 
HETATM    3  C4  UNL     1     -31.866   7.929   1.970  1.00 20.00     0.231 A 
HETATM    4  C5  UNL     1     -33.913   6.941   2.504  1.00 20.00     0.141 A 
HETATM    5  C6  UNL     1     -34.319   6.471   3.890  1.00 20.00     0.044 C 
HETATM    6  O8  UNL     1     -33.119   8.142   2.633  1.00 20.00    -0.364 OA
ENDROOT
BRANCH   3   7
HETATM    7  C3  UNL     1     -31.801   8.863   0.806  1.00 20.00     0.251 C 
HETATM    8  O7  UNL     1     -31.044   8.663  -0.139  1.00 20.00    -0.277 OA
HETATM    9 CL9  UNL     1     -32.894  10.202   0.978  1.00 20.00    -0.041 Cl
ENDBRANCH   3   7
TORSDOF 1
ENDMDL
MODEL 3
REMARK VINA RESULT:      -0.7      2.318      3.784
REMARK  1 active torsions:
REMARK  status: ('A' for Active; 'I' for Inactive)
REMARK    1  A    between atoms: C3_3  and  C4_4 
ROOT
HETATM    1  C1  UNL     1     -31.931   6.602   1.414  1.00 20.00     0.012 A 
HETATM    2  C2  UNL     1     -33.034   5.923   1.720  1.00 20.00     0.003 A 
HETATM    3  C4  UNL     1     -31.985   7.946   2.031  1.00 20.00     0.231 A 
HETATM    4  C5  UNL     1     -33.927   6.765   2.562  1.00 20.00     0.141 A 
HETATM    5  C6  UNL     1     -34.228   6.144   3.915  1.00 20.00     0.044 C 
HETATM    6  O8  UNL     1     -33.214   8.005   2.766  1.00 20.00    -0.364 OA
ENDROOT
BRANCH   3   7
HETATM    7  C3  UNL     1     -32.044   8.983   0.958  1.00 20.00     0.251 C 
HETATM    8  O7  UNL     1     -32.807   9.943   1.029  1.00 20.00    -0.277 OA
HETATM    9 CL9  UNL     1     -30.934   8.650  -0.337  1.00 20.00    -0.041 Cl
ENDBRANCH   3   7
TORSDOF 1
ENDMDL
MODEL 4
REMARK VINA RESULT:      -0.6      2.100      3.902
REMARK  1 active torsions:
REMARK  status: ('A' for Active; 'I' for Inactive)
REMARK    1  A    between atoms: C3_3  and  C4_4 
ROOT
HETATM    1  C1  UNL     1     -33.588   8.052   3.183  1.00 20.00     0.012 A 
HETATM    2  C2  UNL     1     -33.976   7.448   4.304  1.00 20.00     0.003 A 
HETATM    3  C4  UNL     1     -33.493   7.061   2.089  1.00 20.00     0.231 A 
HETATM    4  C5  UNL     1     -34.163   5.993   4.053  1.00 20.00     0.141 A 
HETATM    5  C6  UNL     1     -35.575   5.515   4.347  1.00 20.00     0.044 C 
HETATM    6  O8  UNL     1     -33.891   5.803   2.646  1.00 20.00    -0.364 OA
ENDROOT
BRANCH   3   7
HETATM    7  C3  UNL     1     -32.069   6.938   1.653  1.00 20.00     0.251 C 
HETATM    8  O7  UNL     1     -31.311   7.904   1.647  1.00 20.00    -0.277 OA
HETATM    9 CL9  UNL     1     -31.666   5.315   1.182  1.00 20.00    -0.041 Cl
ENDBRANCH   3   7
TORSDOF 1
ENDMDL
MODEL 5
REMARK VINA RESULT:      -0.6      1.591      2.383
REMARK  1 active torsions:
REMARK  status: ('A' for Active; 'I' for Inactive)
REMARK    1  A    between atoms: C3_3  and  C4_4 
ROOT
HETATM    1  C1  UNL     1     -32.322   7.867   2.655  1.00 20.00     0.012 A 
HETATM    2  C2  UNL     1     -32.313   7.433   1.397  1.00 20.00     0.003 A 
HETATM    3  C4  UNL     1     -32.924   6.840   3.534  1.00 20.00     0.231 A 
HETATM    4  C5  UNL     1     -32.920   6.076   1.328  1.00 20.00     0.141 A 
HETATM    5  C6  UNL     1     -31.972   5.028   0.770  1.00 20.00     0.044 C 
HETATM    6  O8  UNL     1     -33.250   5.727   2.691  1.00 20.00    -0.364 OA
ENDROOT
BRANCH   3   7
HETATM    7  C3  UNL     1     -34.198   7.364   4.111  1.00 20.00     0.251 C 
HETATM    8  O7  UNL     1     -34.245   8.441   4.699  1.00 20.00    -0.277 OA
HETATM    9 CL9  UNL     1     -35.533   6.286   3.840  1.00 20.00    -0.041 Cl
ENDBRANCH   3   7
TORSDOF 1
ENDMDL
MODEL 6
REMARK VINA RESULT:      -0.5      2.292      3.952
REMARK  1 active torsions:
REMARK  status: ('A' for Active; 'I' for Inactive)
REMARK    1  A    between atoms: C3_3  and  C4_4 
ROOT
HETATM    1  C1  UNL     1     -35.292   5.826   3.908  1.00 20.00     0.012 A 
HETATM    2  C2  UNL     1     -35.054   4.811   4.737  1.00 20.00     0.003 A 
HETATM    3  C4  UNL     1     -34.101   6.073   3.067  1.00 20.00     0.231 A 
HETATM    4  C5  UNL     1     -33.673   4.300   4.524  1.00 20.00     0.141 A 
HETATM    5  C6  UNL     1     -33.635   2.835   4.127  1.00 20.00     0.044 C 
HETATM    6  O8  UNL     1     -33.128   5.090   3.443  1.00 20.00    -0.364 OA
ENDROOT
BRANCH   3   7
HETATM    7  C3  UNL     1     -33.538   7.419   3.386  1.00 20.00     0.251 C 
HETATM    8  O7  UNL     1     -33.891   8.046   4.381  1.00 20.00    -0.277 OA
HETATM    9 CL9  UNL     1     -32.372   7.938   2.207  1.00 20.00    -0.041 Cl
ENDBRANCH   3   7
TORSDOF 1
ENDMDL
MODEL 7
REMARK VINA RESULT:      -0.0      1.963      2.570
REMARK  1 active torsions:
REMARK  status: ('A' for Active; 'I' for Inactive)
REMARK    1  A    between atoms: C3_3  and  C4_4 
ROOT
HETATM    1  C1  UNL     1     -34.241   7.151   4.095  1.00 20.00     0.012 A 
HETATM    2  C2  UNL     1     -34.120   7.714   2.894  1.00 20.00     0.003 A 
HETATM    3  C4  UNL     1     -33.500   5.870   4.122  1.00 20.00     0.231 A 
HETATM    4  C5  UNL     1     -33.293   6.847   2.012  1.00 20.00     0.141 A 
HETATM    5  C6  UNL     1     -32.048   7.543   1.492  1.00 20.00     0.044 C 
HETATM    6  O8  UNL     1     -32.893   5.726   2.832  1.00 20.00    -0.364 OA
ENDROOT
BRANCH   3   7
HETATM    7  C3  UNL     1     -34.465   4.743   4.302  1.00 20.00     0.251 C 
HETATM    8  O7  UNL     1     -35.669   4.940   4.433  1.00 20.00    -0.277 OA
HETATM    9 CL9  UNL     1     -33.673   3.197   4.296  1.00 20.00    -0.041 Cl
ENDBRANCH   3   7
TORSDOF 1
ENDMDL
MODEL 8
REMARK VINA RESULT:       0.1      2.226      3.344
REMARK  1 active torsions:
REMARK  status: ('A' for Active; 'I' for Inactive)
REMARK    1  A    between atoms: C3_3  and  C4_4 
ROOT
HETATM    1  C1  UNL     1     -34.263   5.688   3.260  1.00 20.00     0.012 A 
HETATM    2  C2  UNL     1     -34.940   6.650   3.883  1.00 20.00     0.003 A 
HETATM    3  C4  UNL     1     -32.899   6.164   2.941  1.00 20.00     0.231 A 
HETATM    4  C5  UNL     1     -34.084   7.859   4.023  1.00 20.00     0.141 A 
HETATM    5  C6  UNL     1     -33.880   8.279   5.469  1.00 20.00     0.044 C 
HETATM    6  O8  UNL     1     -32.804   7.497   3.459  1.00 20.00    -0.364 OA
ENDROOT
BRANCH   3   7
HETATM    7  C3  UNL     1     -32.732   6.236   1.458  1.00 20.00     0.251 C 
HETATM    8  O7  UNL     1     -33.099   5.324   0.723  1.00 20.00    -0.277 OA
HETATM    9 CL9  UNL     1     -31.985   7.722   0.955  1.00 20.00    -0.041 Cl
ENDBRANCH   3   7
TORSDOF 1
ENDMDL
MODEL 9
REMARK VINA RESULT:       0.3      2.603      3.404
REMARK  1 active torsions:
REMARK  status: ('A' for Active; 'I' for Inactive)
REMARK    1  A    between atoms: C3_3  and  C4_4 
ROOT
HETATM    1  C1  UNL     1     -32.240   7.667   1.553  1.00 20.00     0.012 A 
HETATM    2  C2  UNL     1     -32.223   8.075   2.820  1.00 20.00     0.003 A 
HETATM    3  C4  UNL     1     -33.151   6.509   1.414  1.00 20.00     0.231 A 
HETATM    4  C5  UNL     1     -33.118   7.214   3.639  1.00 20.00     0.141 A 
HETATM    5  C6  UNL     1     -34.229   7.991   4.324  1.00 20.00     0.044 C 
HETATM    6  O8  UNL     1     -33.709   6.275   2.713  1.00 20.00    -0.364 OA
ENDROOT
BRANCH   3   7
HETATM    7  C3  UNL     1     -32.362   5.300   1.030  1.00 20.00     0.251 C 
HETATM    8  O7  UNL     1     -31.239   5.093   1.481  1.00 20.00    -0.277 OA
HETATM    9 CL9  UNL     1     -33.222   4.284  -0.086  1.00 20.00    -0.041 Cl
ENDBRANCH   3   7
TORSDOF 1
ENDMDL
