MODEL 1
REMARK VINA RESULT:      -0.7      0.000      0.000
REMARK  3 active torsions:
REMARK  status: ('A' for Active; 'I' for Inactive)
REMARK    1  A    between atoms: C3_3  and  C7_7 
REMARK    2  A    between atoms: C5_5  and  C8_8 
REMARK    3  A    between atoms: C6_6  and  C9_9 
ROOT
HETATM    1  C7  UNL     1     -31.935   8.904   1.284  1.00 20.00     0.097 A 
HETATM    2  C8  UNL     1     -32.908   7.989   2.002  1.00 20.00     0.013 A 
HETATM    3  C9  UNL     1     -31.979   7.425   0.951  1.00 20.00     0.013 A 
ENDROOT
BRANCH   1   4
HETATM    4  C3  UNL     1     -32.497   9.812   0.299  1.00 20.00     0.177 C 
HETATM    5  O10 UNL     1     -32.773   9.293  -0.817  1.00 20.00    -0.648 OA
HETATM    6  O11 UNL     1     -32.632  11.004   0.695  1.00 20.00    -0.648 OA
ENDBRANCH   1   4
BRANCH   2   7
HETATM    7  C5  UNL     1     -32.584   7.156   3.253  1.00 20.00     0.014 C 
HETATM    8  C1  UNL     1     -33.220   7.829   4.461  1.00 20.00    -0.025 C 
HETATM    9  C2  UNL     1     -34.553   7.691   4.328  1.00 20.00    -0.025 C 
HETATM   10  C6  UNL     1     -34.792   6.929   3.032  1.00 20.00     0.014 C 
HETATM   11  C4  UNL     1     -33.581   5.985   3.156  1.00 20.00     0.017 C 
ENDBRANCH   2   7
TORSDOF 3
ENDMDL
MODEL 2
REMARK VINA RESULT:       0.1      0.544      1.078
REMARK  3 active torsions:
REMARK  status: ('A' for Active; 'I' for Inactive)
REMARK    1  A    between atoms: C3_3  and  C7_7 
REMARK    2  A    between atoms: C5_5  and  C8_8 
REMARK    3  A    between atoms: C6_6  and  C9_9 
ROOT
HETATM    1  C7  UNL     1     -32.023   9.199   1.419  1.00 20.00     0.097 A 
HETATM    2  C8  UNL     1     -32.839   8.072   2.022  1.00 20.00     0.013 A 
HETATM    3  C9  UNL     1     -31.486   7.780   1.414  1.00 20.00     0.013 A 
ENDROOT
BRANCH   1   4
HETATM    4  C3  UNL     1     -32.480   9.729   0.146  1.00 20.00     0.177 C 
HETATM    5  O10 UNL     1     -32.409  10.983   0.029  1.00 20.00    -0.648 OA
HETATM    6  O11 UNL     1     -32.889   8.859  -0.673  1.00 20.00    -0.648 OA
ENDBRANCH   1   4
BRANCH   2   7
HETATM    7  C5  UNL     1     -32.705   7.553   3.463  1.00 20.00     0.014 C 
HETATM    8  C1  UNL     1     -33.881   8.074   4.277  1.00 20.00    -0.025 C 
HETATM    9  C2  UNL     1     -34.982   7.449   3.818  1.00 20.00    -0.025 C 
HETATM   10  C6  UNL     1     -34.530   6.518   2.702  1.00 20.00     0.014 C 
HETATM   11  C4  UNL     1     -33.198   6.097   3.352  1.00 20.00     0.017 C 
ENDBRANCH   2   7
TORSDOF 3
ENDMDL
MODEL 3
REMARK VINA RESULT:       0.3      3.055      4.443
REMARK  3 active torsions:
REMARK  status: ('A' for Active; 'I' for Inactive)
REMARK    1  A    between atoms: C3_3  and  C7_7 
REMARK    2  A    between atoms: C5_5  and  C8_8 
REMARK    3  A    between atoms: C6_6  and  C9_9 
ROOT
HETATM    1  C7  UNL     1     -33.986   6.463   3.941  1.00 20.00     0.097 A 
HETATM    2  C8  UNL     1     -33.678   7.565   2.946  1.00 20.00     0.013 A 
HETATM    3  C9  UNL     1     -33.753   7.882   4.422  1.00 20.00     0.013 A 
ENDROOT
BRANCH   1   4
HETATM    4  C3  UNL     1     -35.355   5.977   3.976  1.00 20.00     0.177 C 
HETATM    5  O10 UNL     1     -35.538   4.934   4.662  1.00 20.00    -0.648 OA
HETATM    6  O11 UNL     1     -36.178   6.666   3.310  1.00 20.00    -0.648 OA
ENDBRANCH   1   4
BRANCH   2   7
HETATM    7  C5  UNL     1     -32.268   8.032   2.549  1.00 20.00     0.014 C 
HETATM    8  C1  UNL     1     -31.461   6.820   2.108  1.00 20.00    -0.025 C 
HETATM    9  C2  UNL     1     -31.992   6.398   0.945  1.00 20.00    -0.025 C 
HETATM   10  C6  UNL     1     -33.148   7.334   0.622  1.00 20.00     0.014 C 
HETATM   11  C4  UNL     1     -32.484   8.623   1.142  1.00 20.00     0.017 C 
ENDBRANCH   2   7
TORSDOF 3
ENDMDL
MODEL 4
REMARK VINA RESULT:       0.7      2.802      4.231
REMARK  3 active torsions:
REMARK  status: ('A' for Active; 'I' for Inactive)
REMARK    1  A    between atoms: C3_3  and  C7_7 
REMARK    2  A    between atoms: C5_5  and  C8_8 
REMARK    3  A    between atoms: C6_6  and  C9_9 
ROOT
HETATM    1  C7  UNL     1     -34.263   6.521   2.673  1.00 20.00     0.097 A 
HETATM    2  C8  UNL     1     -32.825   6.967   2.492  1.00 20.00     0.013 A 
HETATM    3  C9  UNL     1     -33.164   5.494   2.477  1.00 20.00     0.013 A 
ENDROOT
BRANCH   1   4
HETATM    4  C3  UNL     1     -34.820   6.636   4.010  1.00 20.00     0.177 C 
HETATM    5  O10 UNL     1     -35.646   5.736   4.327  1.00 20.00    -0.648 OA
HETATM    6  O11 UNL     1     -34.402   7.624   4.675  1.00 20.00    -0.648 OA
ENDBRANCH   1   4
BRANCH   2   7
HETATM    7  C5  UNL     1     -32.128   7.190   1.140  1.00 20.00     0.014 C 
HETATM    8  C1  UNL     1     -32.756   8.401   0.465  1.00 20.00    -0.025 C 
HETATM    9  C2  UNL     1     -32.397   9.480   1.186  1.00 20.00    -0.025 C 
HETATM   10  C6  UNL     1     -31.534   8.978   2.334  1.00 20.00     0.014 C 
HETATM   11  C4  UNL     1     -30.807   7.875   1.541  1.00 20.00     0.017 C 
ENDBRANCH   2   7
TORSDOF 3
ENDMDL
MODEL 5
REMARK VINA RESULT:       0.9      3.683      5.007
REMARK  3 active torsions:
REMARK  status: ('A' for Active; 'I' for Inactive)
REMARK    1  A    between atoms: C3_3  and  C7_7 
REMARK    2  A    between atoms: C5_5  and  C8_8 
REMARK    3  A    between atoms: C6_6  and  C9_9 
ROOT
HETATM    1  C7  UNL     1     -33.711   5.629   3.995  1.00 20.00     0.097 A 
HETATM    2  C8  UNL     1     -33.999   6.146   2.599  1.00 20.00     0.013 A 
HETATM    3  C9  UNL     1     -34.443   6.943   3.805  1.00 20.00     0.013 A 
ENDROOT
BRANCH   1   4
HETATM    4  C3  UNL     1     -34.503   4.499   4.451  1.00 20.00     0.177 C 
HETATM    5  O10 UNL     1     -33.908   3.386   4.440  1.00 20.00    -0.648 OA
HETATM    6  O11 UNL     1     -35.683   4.785   4.796  1.00 20.00    -0.648 OA
ENDBRANCH   1   4
BRANCH   2   7
HETATM    7  C5  UNL     1     -33.117   7.134   1.819  1.00 20.00     0.014 C 
HETATM    8  C1  UNL     1     -31.685   6.619   1.831  1.00 20.00    -0.025 C 
HETATM    9  C2  UNL     1     -31.662   5.509   1.071  1.00 20.00    -0.025 C 
HETATM   10  C6  UNL     1     -33.079   5.294   0.559  1.00 20.00     0.014 C 
HETATM   11  C4  UNL     1     -33.420   6.782   0.350  1.00 20.00     0.017 C 
ENDBRANCH   2   7
TORSDOF 3
ENDMDL
MODEL 6
REMARK VINA RESULT:       1.0      4.130      5.464
REMARK  3 active torsions:
REMARK  status: ('A' for Active; 'I' for Inactive)
REMARK    1  A    between atoms: C3_3  and  C7_7 
REMARK    2  A    between atoms: C5_5  and  C8_8 
REMARK    3  A    between atoms: C6_6  and  C9_9 
ROOT
HETATM    1  C7  UNL     1     -34.142   3.847   4.288  1.00 20.00     0.097 A 
HETATM    2  C8  UNL     1     -33.714   5.281   4.045  1.00 20.00     0.013 A 
HETATM    3  C9  UNL     1     -33.852   4.329   2.879  1.00 20.00     0.013 A 
ENDROOT
BRANCH   1   4
HETATM    4  C3  UNL     1     -33.159   2.964   4.892  1.00 20.00     0.177 C 
HETATM    5  O10 UNL     1     -32.385   3.511   5.726  1.00 20.00    -0.648 OA
HETATM    6  O11 UNL     1     -33.212   1.765   4.500  1.00 20.00    -0.648 OA
ENDBRANCH   1   4
BRANCH   2   7
HETATM    7  C5  UNL     1     -34.657   6.438   3.678  1.00 20.00     0.014 C 
HETATM    8  C1  UNL     1     -34.308   7.641   4.542  1.00 20.00    -0.025 C 
HETATM    9  C2  UNL     1     -33.101   8.078   4.136  1.00 20.00    -0.025 C 
HETATM   10  C6  UNL     1     -32.657   7.161   3.005  1.00 20.00     0.014 C 
HETATM   11  C4  UNL     1     -34.049   6.978   2.369  1.00 20.00     0.017 C 
ENDBRANCH   2   7
TORSDOF 3
ENDMDL
MODEL 7
REMARK VINA RESULT:       1.0      2.627      4.429
REMARK  3 active torsions:
REMARK  status: ('A' for Active; 'I' for Inactive)
REMARK    1  A    between atoms: C3_3  and  C7_7 
REMARK    2  A    between atoms: C5_5  and  C8_8 
REMARK    3  A    between atoms: C6_6  and  C9_9 
ROOT
HETATM    1  C7  UNL     1     -32.007   7.056   1.759  1.00 20.00     0.097 A 
HETATM    2  C8  UNL     1     -32.476   8.433   1.333  1.00 20.00     0.013 A 
HETATM    3  C9  UNL     1     -32.020   8.200   2.755  1.00 20.00     0.013 A 
ENDROOT
BRANCH   1   4
HETATM    4  C3  UNL     1     -33.030   6.037   1.920  1.00 20.00     0.177 C 
HETATM    5  O10 UNL     1     -33.770   6.172   2.933  1.00 20.00    -0.648 OA
HETATM    6  O11 UNL     1     -33.039   5.149   1.021  1.00 20.00    -0.648 OA
ENDBRANCH   1   4
BRANCH   2   7
HETATM    7  C5  UNL     1     -31.564   9.570   0.844  1.00 20.00     0.014 C 
HETATM    8  C1  UNL     1     -31.611   9.610  -0.676  1.00 20.00    -0.025 C 
HETATM    9  C2  UNL     1     -32.844  10.027  -1.019  1.00 20.00    -0.025 C 
HETATM   10  C6  UNL     1     -33.608  10.261   0.277  1.00 20.00     0.014 C 
HETATM   11  C4  UNL     1     -32.422  10.828   1.082  1.00 20.00     0.017 C 
ENDBRANCH   2   7
TORSDOF 3
ENDMDL
MODEL 8
REMARK VINA RESULT:       1.3      1.652      2.647
REMARK  3 active torsions:
REMARK  status: ('A' for Active; 'I' for Inactive)
REMARK    1  A    between atoms: C3_3  and  C7_7 
REMARK    2  A    between atoms: C5_5  and  C8_8 
REMARK    3  A    between atoms: C6_6  and  C9_9 
ROOT
HETATM    1  C7  UNL     1     -32.715   8.689   1.323  1.00 20.00     0.097 A 
HETATM    2  C8  UNL     1     -32.115   7.307   1.493  1.00 20.00     0.013 A 
HETATM    3  C9  UNL     1     -31.937   8.343   2.579  1.00 20.00     0.013 A 
ENDROOT
BRANCH   1   4
HETATM    4  C3  UNL     1     -32.064   9.573   0.373  1.00 20.00     0.177 C 
HETATM    5  O10 UNL     1     -31.143   9.045  -0.310  1.00 20.00    -0.648 OA
HETATM    6  O11 UNL     1     -32.508  10.755   0.359  1.00 20.00    -0.648 OA
ENDBRANCH   1   4
BRANCH   2   7
HETATM    7  C5  UNL     1     -32.785   6.132   2.224  1.00 20.00     0.014 C 
HETATM    8  C1  UNL     1     -33.830   5.520   1.302  1.00 20.00    -0.025 C 
HETATM    9  C2  UNL     1     -33.163   4.925   0.295  1.00 20.00    -0.025 C 
HETATM   10  C6  UNL     1     -31.680   5.146   0.555  1.00 20.00     0.014 C 
HETATM   11  C4  UNL     1     -31.745   5.002   2.088  1.00 20.00     0.017 C 
ENDBRANCH   2   7
TORSDOF 3
ENDMDL
MODEL 9
REMARK VINA RESULT:       1.3      2.686      3.302
REMARK  3 active torsions:
REMARK  status: ('A' for Active; 'I' for Inactive)
REMARK    1  A    between atoms: C3_3  and  C7_7 
REMARK    2  A    between atoms: C5_5  and  C8_8 
REMARK    3  A    between atoms: C6_6  and  C9_9 
ROOT
HETATM    1  C7  UNL     1     -32.987   6.281   1.221  1.00 20.00     0.097 A 
HETATM    2  C8  UNL     1     -33.049   6.698   2.677  1.00 20.00     0.013 A 
HETATM    3  C9  UNL     1     -32.215   7.496   1.700  1.00 20.00     0.013 A 
ENDROOT
BRANCH   1   4
HETATM    4  C3  UNL     1     -32.211   5.092   0.913  1.00 20.00     0.177 C 
HETATM    5  O10 UNL     1     -32.701   4.345   0.023  1.00 20.00    -0.648 OA
HETATM    6  O11 UNL     1     -31.146   4.967   1.581  1.00 20.00    -0.648 OA
ENDBRANCH   1   4
BRANCH   2   7
HETATM    7  C5  UNL     1     -34.015   7.742   3.261  1.00 20.00     0.014 C 
HETATM    8  C1  UNL     1     -35.439   7.237   3.081  1.00 20.00    -0.025 C 
HETATM    9  C2  UNL     1     -35.586   6.179   3.901  1.00 20.00    -0.025 C 
HETATM   10  C6  UNL     1     -34.257   5.988   4.619  1.00 20.00     0.014 C 
HETATM   11  C4  UNL     1     -33.925   7.485   4.778  1.00 20.00     0.017 C 
ENDBRANCH   2   7
TORSDOF 3
ENDMDL
