MODEL 1
REMARK VINA RESULT:      -2.4      0.000      0.000
REMARK  2 active torsions:
REMARK  status: ('A' for Active; 'I' for Inactive)
REMARK    1  A    between atoms: C4_4  and  O11_11 
REMARK    2  A    between atoms: C10_10  and  O11_11 
ROOT
HETATM    1  C1  UNL     1     -32.732  10.985   0.340  1.00 20.00     0.014 C 
HETATM    2  C2  UNL     1     -32.403   9.830   0.340  1.00 20.00    -0.091 C 
HETATM    3  C10 UNL     1     -32.003   8.423   0.337  1.00 20.00     0.268 C 
ENDROOT
BRANCH   3   4
HETATM    4  O11 UNL     1     -31.527   8.044   1.604  1.00 20.00    -0.344 OA
BRANCH   4   5
HETATM    5  C4  UNL     1     -32.520   7.514   2.407  1.00 20.00     0.047 C 
HETATM    6  C3  UNL     1     -32.922   8.130   3.531  1.00 20.00     0.006 C 
HETATM    7  C5  UNL     1     -34.032   7.620   4.400  1.00 20.00     0.029 C 
HETATM    8  C6  UNL     1     -34.873   6.539   3.722  1.00 20.00     0.004 C 
HETATM    9  C7  UNL     1     -33.985   5.531   2.998  1.00 20.00     0.011 C 
HETATM   10  C8  UNL     1     -33.122   6.214   1.919  1.00 20.00     0.038 C 
HETATM   11  C9  UNL     1     -32.058   5.227   1.426  1.00 20.00     0.017 C 
ENDBRANCH   4   5
ENDBRANCH   3   4
TORSDOF 2
ENDMDL
MODEL 2
REMARK VINA RESULT:      -1.4      2.060      5.026
REMARK  2 active torsions:
REMARK  status: ('A' for Active; 'I' for Inactive)
REMARK    1  A    between atoms: C4_4  and  O11_11 
REMARK    2  A    between atoms: C10_10  and  O11_11 
ROOT
HETATM    1  C1  UNL     1     -32.992   3.092   5.009  1.00 20.00     0.014 C 
HETATM    2  C2  UNL     1     -33.860   3.756   4.512  1.00 20.00    -0.091 C 
HETATM    3  C10 UNL     1     -34.918   4.563   3.904  1.00 20.00     0.268 C 
ENDROOT
BRANCH   3   4
HETATM    4  O11 UNL     1     -34.693   5.931   4.142  1.00 20.00    -0.344 OA
BRANCH   4   5
HETATM    5  C4  UNL     1     -33.745   6.467   3.291  1.00 20.00     0.047 C 
HETATM    6  C3  UNL     1     -33.220   5.754   2.280  1.00 20.00     0.006 C 
HETATM    7  C5  UNL     1     -32.232   6.313   1.300  1.00 20.00     0.029 C 
HETATM    8  C6  UNL     1     -32.135   7.838   1.355  1.00 20.00     0.004 C 
HETATM    9  C7  UNL     1     -32.099   8.331   2.797  1.00 20.00     0.011 C 
HETATM   10  C8  UNL     1     -33.362   7.903   3.571  1.00 20.00     0.038 C 
HETATM   11  C9  UNL     1     -33.150   8.170   5.066  1.00 20.00     0.017 C 
ENDBRANCH   4   5
ENDBRANCH   3   4
TORSDOF 2
ENDMDL
MODEL 3
REMARK VINA RESULT:      -1.2      0.788      2.257
REMARK  2 active torsions:
REMARK  status: ('A' for Active; 'I' for Inactive)
REMARK    1  A    between atoms: C4_4  and  O11_11 
REMARK    2  A    between atoms: C10_10  and  O11_11 
ROOT
HETATM    1  C1  UNL     1     -32.722  10.633   0.002  1.00 20.00     0.014 C 
HETATM    2  C2  UNL     1     -32.293   9.596   0.429  1.00 20.00    -0.091 C 
HETATM    3  C10 UNL     1     -31.770   8.332   0.946  1.00 20.00     0.268 C 
ENDROOT
BRANCH   3   4
HETATM    4  O11 UNL     1     -32.037   8.214   2.322  1.00 20.00    -0.344 OA
BRANCH   4   5
HETATM    5  C4  UNL     1     -32.803   7.102   2.620  1.00 20.00     0.047 C 
HETATM    6  C3  UNL     1     -32.721   5.974   1.894  1.00 20.00     0.006 C 
HETATM    7  C5  UNL     1     -33.490   4.728   2.214  1.00 20.00     0.029 C 
HETATM    8  C6  UNL     1     -34.107   4.751   3.613  1.00 20.00     0.004 C 
HETATM    9  C7  UNL     1     -34.747   6.104   3.906  1.00 20.00     0.011 C 
HETATM   10  C8  UNL     1     -33.714   7.246   3.819  1.00 20.00     0.038 C 
HETATM   11  C9  UNL     1     -34.448   8.591   3.836  1.00 20.00     0.017 C 
ENDBRANCH   4   5
ENDBRANCH   3   4
TORSDOF 2
ENDMDL
MODEL 4
REMARK VINA RESULT:      -0.9      2.146      4.685
REMARK  2 active torsions:
REMARK  status: ('A' for Active; 'I' for Inactive)
REMARK    1  A    between atoms: C4_4  and  O11_11 
REMARK    2  A    between atoms: C10_10  and  O11_11 
ROOT
HETATM    1  C1  UNL     1     -32.796   2.679   4.867  1.00 20.00     0.014 C 
HETATM    2  C2  UNL     1     -33.629   3.527   4.703  1.00 20.00    -0.091 C 
HETATM    3  C10 UNL     1     -34.645   4.561   4.506  1.00 20.00     0.268 C 
ENDROOT
BRANCH   3   4
HETATM    4  O11 UNL     1     -34.607   5.044   3.185  1.00 20.00    -0.344 OA
BRANCH   4   5
HETATM    5  C4  UNL     1     -33.831   6.182   3.060  1.00 20.00     0.047 C 
HETATM    6  C3  UNL     1     -34.045   7.269   3.820  1.00 20.00     0.006 C 
HETATM    7  C5  UNL     1     -33.194   8.502   3.756  1.00 20.00     0.029 C 
HETATM    8  C6  UNL     1     -31.883   8.284   3.001  1.00 20.00     0.004 C 
HETATM    9  C7  UNL     1     -32.115   7.484   1.723  1.00 20.00     0.011 C 
HETATM   10  C8  UNL     1     -32.729   6.103   2.026  1.00 20.00     0.038 C 
HETATM   11  C9  UNL     1     -33.202   5.464   0.716  1.00 20.00     0.017 C 
ENDBRANCH   4   5
ENDBRANCH   3   4
TORSDOF 2
ENDMDL
MODEL 5
REMARK VINA RESULT:       0.1      1.167      4.135
REMARK  2 active torsions:
REMARK  status: ('A' for Active; 'I' for Inactive)
REMARK    1  A    between atoms: C4_4  and  O11_11 
REMARK    2  A    between atoms: C10_10  and  O11_11 
ROOT
HETATM    1  C1  UNL     1     -35.359   5.736   4.081  1.00 20.00     0.014 C 
HETATM    2  C2  UNL     1     -34.735   6.760   4.087  1.00 20.00    -0.091 C 
HETATM    3  C10 UNL     1     -33.975   8.011   4.097  1.00 20.00     0.268 C 
ENDROOT
BRANCH   3   4
HETATM    4  O11 UNL     1     -32.674   7.801   3.606  1.00 20.00    -0.344 OA
BRANCH   4   5
HETATM    5  C4  UNL     1     -32.481   8.366   2.359  1.00 20.00     0.047 C 
HETATM    6  C3  UNL     1     -32.987   9.571   2.045  1.00 20.00     0.006 C 
HETATM    7  C5  UNL     1     -32.755  10.245   0.726  1.00 20.00     0.029 C 
HETATM    8  C6  UNL     1     -31.632   9.599  -0.086  1.00 20.00     0.004 C 
HETATM    9  C7  UNL     1     -31.736   8.078  -0.047  1.00 20.00     0.011 C 
HETATM   10  C8  UNL     1     -31.652   7.544   1.397  1.00 20.00     0.038 C 
HETATM   11  C9  UNL     1     -32.044   6.062   1.408  1.00 20.00     0.017 C 
ENDBRANCH   4   5
ENDBRANCH   3   4
TORSDOF 2
ENDMDL
MODEL 6
REMARK VINA RESULT:       0.5      1.748      2.556
REMARK  2 active torsions:
REMARK  status: ('A' for Active; 'I' for Inactive)
REMARK    1  A    between atoms: C4_4  and  O11_11 
REMARK    2  A    between atoms: C10_10  and  O11_11 
ROOT
HETATM    1  C1  UNL     1     -31.601   8.331   1.463  1.00 20.00     0.014 C 
HETATM    2  C2  UNL     1     -31.882   7.179   1.277  1.00 20.00    -0.091 C 
HETATM    3  C10 UNL     1     -32.225   5.775   1.048  1.00 20.00     0.268 C 
ENDROOT
BRANCH   3   4
HETATM    4  O11 UNL     1     -32.256   5.071   2.264  1.00 20.00    -0.344 OA
BRANCH   4   5
HETATM    5  C4  UNL     1     -33.330   5.431   3.057  1.00 20.00     0.047 C 
HETATM    6  C3  UNL     1     -33.673   6.717   3.239  1.00 20.00     0.006 C 
HETATM    7  C5  UNL     1     -34.861   7.149   4.044  1.00 20.00     0.029 C 
HETATM    8  C6  UNL     1     -35.822   6.001   4.353  1.00 20.00     0.004 C 
HETATM    9  C7  UNL     1     -35.060   4.751   4.782  1.00 20.00     0.011 C 
HETATM   10  C8  UNL     1     -34.088   4.280   3.682  1.00 20.00     0.038 C 
HETATM   11  C9  UNL     1     -33.154   3.211   4.260  1.00 20.00     0.017 C 
ENDBRANCH   4   5
ENDBRANCH   3   4
TORSDOF 2
ENDMDL
