MODEL 1
REMARK VINA RESULT:      -0.8      0.000      0.000
REMARK  1 active torsions:
REMARK  status: ('A' for Active; 'I' for Inactive)
REMARK    1  A    between atoms: C5_5  and  C10_10 
ROOT
HETATM    1  C1  UNL     1     -32.718   4.935   1.857  1.00 20.00     0.003 C 
HETATM    2  C2  UNL     1     -31.835   5.528   1.038  1.00 20.00    -0.025 C 
HETATM    3  C3  UNL     1     -34.369   5.313   3.693  1.00 20.00    -0.019 C 
HETATM    4  C4  UNL     1     -33.580   5.721   2.694  1.00 20.00    -0.057 C 
HETATM    5  C6  UNL     1     -31.648   7.022   0.962  1.00 20.00     0.039 C 
HETATM    6  C7  UNL     1     -35.042   6.475   4.352  1.00 20.00     0.028 C 
HETATM    7  C8  UNL     1     -34.225   7.668   3.843  1.00 20.00     0.014 C 
HETATM    8  C9  UNL     1     -33.646   7.211   2.499  1.00 20.00     0.029 C 
HETATM    9  C10 UNL     1     -32.265   7.778   2.157  1.00 20.00     0.059 C 
ENDROOT
BRANCH   9  10
HETATM   10  C5  UNL     1     -32.366   9.234   1.817  1.00 20.00     0.236 C 
HETATM   11  O11 UNL     1     -32.390   9.659   0.666  1.00 20.00    -0.306 OA
ENDBRANCH   9  10
TORSDOF 1
ENDMDL
MODEL 2
REMARK VINA RESULT:      -0.6      2.644      4.634
REMARK  1 active torsions:
REMARK  status: ('A' for Active; 'I' for Inactive)
REMARK    1  A    between atoms: C5_5  and  C10_10 
ROOT
HETATM    1  C1  UNL     1     -34.652   7.399   3.472  1.00 20.00     0.003 C 
HETATM    2  C2  UNL     1     -35.308   6.577   4.305  1.00 20.00    -0.025 C 
HETATM    3  C3  UNL     1     -32.719   7.595   1.902  1.00 20.00    -0.019 C 
HETATM    4  C4  UNL     1     -33.596   6.903   2.636  1.00 20.00    -0.057 C 
HETATM    5  C6  UNL     1     -34.972   5.115   4.462  1.00 20.00     0.039 C 
HETATM    6  C7  UNL     1     -31.736   6.682   1.240  1.00 20.00     0.028 C 
HETATM    7  C8  UNL     1     -31.925   5.370   2.011  1.00 20.00     0.014 C 
HETATM    8  C9  UNL     1     -33.365   5.420   2.535  1.00 20.00     0.029 C 
HETATM    9  C10 UNL     1     -33.590   4.739   3.887  1.00 20.00     0.059 C 
ENDROOT
BRANCH   9  10
HETATM   10  C5  UNL     1     -33.507   3.250   3.745  1.00 20.00     0.236 C 
HETATM   11  O11 UNL     1     -33.185   2.500   4.662  1.00 20.00    -0.306 OA
ENDBRANCH   9  10
TORSDOF 1
ENDMDL
MODEL 3
REMARK VINA RESULT:      -0.3      1.794      2.949
REMARK  1 active torsions:
REMARK  status: ('A' for Active; 'I' for Inactive)
REMARK    1  A    between atoms: C5_5  and  C10_10 
ROOT
HETATM    1  C1  UNL     1     -33.495   8.273   3.088  1.00 20.00     0.003 C 
HETATM    2  C2  UNL     1     -32.529   8.396   2.165  1.00 20.00    -0.025 C 
HETATM    3  C3  UNL     1     -34.998   6.661   4.264  1.00 20.00    -0.019 C 
HETATM    4  C4  UNL     1     -33.937   6.975   3.515  1.00 20.00    -0.057 C 
HETATM    5  C6  UNL     1     -31.875   7.219   1.486  1.00 20.00     0.039 C 
HETATM    6  C7  UNL     1     -35.133   5.178   4.407  1.00 20.00     0.028 C 
HETATM    7  C8  UNL     1     -34.213   4.650   3.300  1.00 20.00     0.014 C 
HETATM    8  C9  UNL     1     -33.170   5.753   3.088  1.00 20.00     0.029 C 
HETATM    9  C10 UNL     1     -32.663   5.902   1.651  1.00 20.00     0.059 C 
ENDROOT
BRANCH   9  10
HETATM   10  C5  UNL     1     -31.776   4.751   1.286  1.00 20.00     0.236 C 
HETATM   11  O11 UNL     1     -31.578   4.390   0.130  1.00 20.00    -0.306 OA
ENDBRANCH   9  10
TORSDOF 1
ENDMDL
MODEL 4
REMARK VINA RESULT:       0.0      2.274      4.049
REMARK  1 active torsions:
REMARK  status: ('A' for Active; 'I' for Inactive)
REMARK    1  A    between atoms: C5_5  and  C10_10 
ROOT
HETATM    1  C1  UNL     1     -32.023   8.153   2.445  1.00 20.00     0.003 C 
HETATM    2  C2  UNL     1     -32.745   8.662   3.455  1.00 20.00    -0.025 C 
HETATM    3  C3  UNL     1     -31.650   6.138   1.018  1.00 20.00    -0.019 C 
HETATM    4  C4  UNL     1     -32.356   6.877   1.879  1.00 20.00    -0.057 C 
HETATM    5  C6  UNL     1     -33.905   7.939   4.092  1.00 20.00     0.039 C 
HETATM    6  C7  UNL     1     -32.333   4.835   0.745  1.00 20.00     0.028 C 
HETATM    7  C8  UNL     1     -33.358   4.750   1.881  1.00 20.00     0.014 C 
HETATM    8  C9  UNL     1     -33.643   6.205   2.272  1.00 20.00     0.029 C 
HETATM    9  C10 UNL     1     -33.948   6.434   3.754  1.00 20.00     0.059 C 
ENDROOT
BRANCH   9  10
HETATM   10  C5  UNL     1     -35.301   5.892   4.101  1.00 20.00     0.236 C 
HETATM   11  O11 UNL     1     -35.478   4.787   4.605  1.00 20.00    -0.306 OA
ENDBRANCH   9  10
TORSDOF 1
ENDMDL
MODEL 5
REMARK VINA RESULT:       0.5      1.614      3.414
REMARK  1 active torsions:
REMARK  status: ('A' for Active; 'I' for Inactive)
REMARK    1  A    between atoms: C5_5  and  C10_10 
ROOT
HETATM    1  C1  UNL     1     -32.089   5.786   1.084  1.00 20.00     0.003 C 
HETATM    2  C2  UNL     1     -32.725   5.040   2.001  1.00 20.00    -0.025 C 
HETATM    3  C3  UNL     1     -31.677   8.113   0.277  1.00 20.00    -0.019 C 
HETATM    4  C4  UNL     1     -32.083   7.218   1.182  1.00 20.00    -0.057 C 
HETATM    5  C6  UNL     1     -33.503   5.627   3.151  1.00 20.00     0.039 C 
HETATM    6  C7  UNL     1     -31.917   9.509   0.759  1.00 20.00     0.028 C 
HETATM    7  C8  UNL     1     -32.891   9.298   1.924  1.00 20.00     0.014 C 
HETATM    8  C9  UNL     1     -32.609   7.877   2.428  1.00 20.00     0.029 C 
HETATM    9  C10 UNL     1     -33.825   7.125   2.972  1.00 20.00     0.059 C 
ENDROOT
BRANCH   9  10
HETATM   10  C5  UNL     1     -34.249   7.697   4.291  1.00 20.00     0.236 C 
HETATM   11  O11 UNL     1     -33.457   8.073   5.150  1.00 20.00    -0.306 OA
ENDBRANCH   9  10
TORSDOF 1
ENDMDL
MODEL 6
REMARK VINA RESULT:       0.9      1.683      3.387
REMARK  1 active torsions:
REMARK  status: ('A' for Active; 'I' for Inactive)
REMARK    1  A    between atoms: C5_5  and  C10_10 
ROOT
HETATM    1  C1  UNL     1     -33.521   4.616   2.532  1.00 20.00     0.003 C 
HETATM    2  C2  UNL     1     -34.345   4.633   3.591  1.00 20.00    -0.025 C 
HETATM    3  C3  UNL     1     -32.110   6.019   1.023  1.00 20.00    -0.019 C 
HETATM    4  C4  UNL     1     -32.809   5.799   2.140  1.00 20.00    -0.057 C 
HETATM    5  C6  UNL     1     -34.621   5.871   4.407  1.00 20.00     0.039 C 
HETATM    6  C7  UNL     1     -31.591   7.422   0.983  1.00 20.00     0.028 C 
HETATM    7  C8  UNL     1     -32.423   8.117   2.066  1.00 20.00     0.014 C 
HETATM    8  C9  UNL     1     -32.820   7.003   3.042  1.00 20.00     0.029 C 
HETATM    9  C10 UNL     1     -34.188   7.175   3.706  1.00 20.00     0.059 C 
ENDROOT
BRANCH   9  10
HETATM   10  C5  UNL     1     -34.146   8.283   4.714  1.00 20.00     0.236 C 
HETATM   11  O11 UNL     1     -33.194   8.480   5.462  1.00 20.00    -0.306 OA
ENDBRANCH   9  10
TORSDOF 1
ENDMDL
MODEL 7
REMARK VINA RESULT:       1.4      1.742      3.857
REMARK  1 active torsions:
REMARK  status: ('A' for Active; 'I' for Inactive)
REMARK    1  A    between atoms: C5_5  and  C10_10 
ROOT
HETATM    1  C1  UNL     1     -34.037   7.558   3.765  1.00 20.00     0.003 C 
HETATM    2  C2  UNL     1     -34.373   6.272   3.954  1.00 20.00    -0.025 C 
HETATM    3  C3  UNL     1     -32.613   9.120   2.435  1.00 20.00    -0.019 C 
HETATM    4  C4  UNL     1     -33.198   7.940   2.665  1.00 20.00    -0.057 C 
HETATM    5  C6  UNL     1     -33.875   5.149   3.080  1.00 20.00     0.039 C 
HETATM    6  C7  UNL     1     -31.759   9.064   1.207  1.00 20.00     0.028 C 
HETATM    7  C8  UNL     1     -31.617   7.556   0.967  1.00 20.00     0.014 C 
HETATM    8  C9  UNL     1     -32.867   6.932   1.599  1.00 20.00     0.029 C 
HETATM    9  C10 UNL     1     -32.665   5.542   2.207  1.00 20.00     0.059 C 
ENDROOT
BRANCH   9  10
HETATM   10  C5  UNL     1     -32.486   4.518   1.127  1.00 20.00     0.236 C 
HETATM   11  O11 UNL     1     -33.076   4.560   0.052  1.00 20.00    -0.306 OA
ENDBRANCH   9  10
TORSDOF 1
ENDMDL
MODEL 8
REMARK VINA RESULT:       1.5      1.538      3.190
REMARK  1 active torsions:
REMARK  status: ('A' for Active; 'I' for Inactive)
REMARK    1  A    between atoms: C5_5  and  C10_10 
ROOT
HETATM    1  C1  UNL     1     -35.339   5.765   4.413  1.00 20.00     0.003 C 
HETATM    2  C2  UNL     1     -35.290   6.915   3.723  1.00 20.00    -0.025 C 
HETATM    3  C3  UNL     1     -34.265   3.532   4.735  1.00 20.00    -0.019 C 
HETATM    4  C4  UNL     1     -34.291   4.791   4.286  1.00 20.00    -0.057 C 
HETATM    5  C6  UNL     1     -34.188   7.252   2.752  1.00 20.00     0.039 C 
HETATM    6  C7  UNL     1     -33.006   2.841   4.316  1.00 20.00     0.028 C 
HETATM    7  C8  UNL     1     -32.468   3.762   3.216  1.00 20.00     0.014 C 
HETATM    8  C9  UNL     1     -33.032   5.149   3.545  1.00 20.00     0.029 C 
HETATM    9  C10 UNL     1     -33.345   6.030   2.333  1.00 20.00     0.059 C 
ENDROOT
BRANCH   9  10
HETATM   10  C5  UNL     1     -32.077   6.505   1.690  1.00 20.00     0.236 C 
HETATM   11  O11 UNL     1     -31.743   7.685   1.645  1.00 20.00    -0.306 OA
ENDBRANCH   9  10
TORSDOF 1
ENDMDL
MODEL 9
REMARK VINA RESULT:       1.5      0.782      2.797
REMARK  1 active torsions:
REMARK  status: ('A' for Active; 'I' for Inactive)
REMARK    1  A    between atoms: C5_5  and  C10_10 
ROOT
HETATM    1  C1  UNL     1     -34.204   6.156   3.701  1.00 20.00     0.003 C 
HETATM    2  C2  UNL     1     -34.388   7.453   3.991  1.00 20.00    -0.025 C 
HETATM    3  C3  UNL     1     -33.130   4.552   2.116  1.00 20.00    -0.019 C 
HETATM    4  C4  UNL     1     -33.294   5.760   2.664  1.00 20.00    -0.057 C 
HETATM    5  C6  UNL     1     -33.710   8.574   3.244  1.00 20.00     0.039 C 
HETATM    6  C7  UNL     1     -32.123   4.598   1.010  1.00 20.00     0.028 C 
HETATM    7  C8  UNL     1     -32.006   6.100   0.727  1.00 20.00     0.014 C 
HETATM    8  C9  UNL     1     -32.385   6.786   2.044  1.00 20.00     0.029 C 
HETATM    9  C10 UNL     1     -33.100   8.131   1.897  1.00 20.00     0.059 C 
ENDROOT
BRANCH   9  10
HETATM   10  C5  UNL     1     -32.146   9.184   1.421  1.00 20.00     0.236 C 
HETATM   11  O11 UNL     1     -32.313   9.833   0.394  1.00 20.00    -0.306 OA
ENDBRANCH   9  10
TORSDOF 1
ENDMDL
