MODEL 1
REMARK VINA RESULT:      -1.3      0.000      0.000
REMARK  2 active torsions:
REMARK  status: ('A' for Active; 'I' for Inactive)
REMARK    1  A    between atoms: C1_1  and  C2_2 
REMARK    2  A    between atoms: N7_7  and  O8_8 
ROOT
HETATM    1  C2  UNL     1     -33.431   5.656   3.890  1.00 20.00     0.115 A 
HETATM    2  C3  UNL     1     -33.414   6.489   2.608  1.00 20.00     0.033 A 
HETATM    3  C4  UNL     1     -34.473   6.692   3.642  1.00 20.00     0.260 A 
HETATM    4  C5  UNL     1     -33.818   5.862   1.301  1.00 20.00     0.022 C 
HETATM    5  C6  UNL     1     -32.342   7.538   2.480  1.00 20.00     0.022 C 
HETATM    6  F9  UNL     1     -34.506   7.836   4.407  1.00 20.00    -0.205 F 
HETATM    7  F10 UNL     1     -35.781   6.331   3.399  1.00 20.00    -0.205 F 
ENDROOT
BRANCH   1   8
HETATM    8  C1  UNL     1     -33.791   4.235   3.855  1.00 20.00     0.130 C 
HETATM    9  N7  UNL     1     -33.208   3.385   4.632  1.00 20.00    -0.152 NA
BRANCH   9  10
HETATM   10  O8  UNL     1     -33.744   2.119   4.387  1.00 20.00    -0.267 OA
HETATM   11  H19 UNL     1     -33.059   1.721   3.825  1.00 20.00     0.247 HD
ENDBRANCH   9  10
ENDBRANCH   1   8
TORSDOF 2
ENDMDL
MODEL 2
REMARK VINA RESULT:      -0.4      4.000      4.626
REMARK  2 active torsions:
REMARK  status: ('A' for Active; 'I' for Inactive)
REMARK    1  A    between atoms: C1_1  and  C2_2 
REMARK    2  A    between atoms: N7_7  and  O8_8 
ROOT
HETATM    1  C2  UNL     1     -32.292   6.734   2.019  1.00 20.00     0.115 A 
HETATM    2  C3  UNL     1     -33.440   5.984   2.694  1.00 20.00     0.033 A 
HETATM    3  C4  UNL     1     -33.178   5.831   1.232  1.00 20.00     0.260 A 
HETATM    4  C5  UNL     1     -34.679   6.729   3.113  1.00 20.00     0.022 C 
HETATM    5  C6  UNL     1     -33.078   4.837   3.600  1.00 20.00     0.022 C 
HETATM    6  F9  UNL     1     -32.683   4.652   0.720  1.00 20.00    -0.205 F 
HETATM    7  F10 UNL     1     -34.052   6.342   0.297  1.00 20.00    -0.205 F 
ENDROOT
BRANCH   1   8
HETATM    8  C1  UNL     1     -32.362   8.185   1.816  1.00 20.00     0.130 C 
HETATM    9  N7  UNL     1     -32.118   8.704   0.660  1.00 20.00    -0.152 NA
BRANCH   9  10
HETATM   10  O8  UNL     1     -32.258  10.090   0.756  1.00 20.00    -0.267 OA
HETATM   11  H19 UNL     1     -33.210  10.179   0.934  1.00 20.00     0.247 HD
ENDBRANCH   9  10
ENDBRANCH   1   8
TORSDOF 2
ENDMDL
MODEL 3
REMARK VINA RESULT:      -0.4      4.481      5.101
REMARK  2 active torsions:
REMARK  status: ('A' for Active; 'I' for Inactive)
REMARK    1  A    between atoms: C1_1  and  C2_2 
REMARK    2  A    between atoms: N7_7  and  O8_8 
ROOT
HETATM    1  C2  UNL     1     -33.041   8.611   2.085  1.00 20.00     0.115 A 
HETATM    2  C3  UNL     1     -33.062   7.143   2.510  1.00 20.00     0.033 A 
HETATM    3  C4  UNL     1     -32.016   8.076   3.025  1.00 20.00     0.260 A 
HETATM    4  C5  UNL     1     -32.635   6.076   1.539  1.00 20.00     0.022 C 
HETATM    5  C6  UNL     1     -34.152   6.713   3.455  1.00 20.00     0.022 C 
HETATM    6  F9  UNL     1     -32.011   8.477   4.343  1.00 20.00    -0.205 F 
HETATM    7  F10 UNL     1     -30.700   7.952   2.636  1.00 20.00    -0.205 F 
ENDROOT
BRANCH   1   8
HETATM    8  C1  UNL     1     -32.654   8.992   0.722  1.00 20.00     0.130 C 
HETATM    9  N7  UNL     1     -32.643  10.229   0.358  1.00 20.00    -0.152 NA
BRANCH   9  10
HETATM   10  O8  UNL     1     -32.238  10.297  -0.977  1.00 20.00    -0.267 OA
HETATM   11  H19 UNL     1     -31.317   9.993  -0.917  1.00 20.00     0.247 HD
ENDBRANCH   9  10
ENDBRANCH   1   8
TORSDOF 2
ENDMDL
MODEL 4
REMARK VINA RESULT:      -0.3      3.535      4.109
REMARK  2 active torsions:
REMARK  status: ('A' for Active; 'I' for Inactive)
REMARK    1  A    between atoms: C1_1  and  C2_2 
REMARK    2  A    between atoms: N7_7  and  O8_8 
ROOT
HETATM    1  C2  UNL     1     -33.816   7.743   2.782  1.00 20.00     0.115 A 
HETATM    2  C3  UNL     1     -34.151   6.492   3.596  1.00 20.00     0.033 A 
HETATM    3  C4  UNL     1     -33.589   7.709   4.255  1.00 20.00     0.260 A 
HETATM    4  C5  UNL     1     -33.270   5.276   3.497  1.00 20.00     0.022 C 
HETATM    5  C6  UNL     1     -35.607   6.179   3.814  1.00 20.00     0.022 C 
HETATM    6  F9  UNL     1     -34.364   8.483   5.091  1.00 20.00    -0.205 F 
HETATM    7  F10 UNL     1     -32.311   7.711   4.771  1.00 20.00    -0.205 F 
ENDROOT
BRANCH   1   8
HETATM    8  C1  UNL     1     -32.670   7.757   1.867  1.00 20.00     0.130 C 
HETATM    9  N7  UNL     1     -32.329   8.838   1.251  1.00 20.00    -0.152 NA
BRANCH   9  10
HETATM   10  O8  UNL     1     -31.215   8.563   0.455  1.00 20.00    -0.267 OA
HETATM   11  H19 UNL     1     -31.211   9.326  -0.147  1.00 20.00     0.247 HD
ENDBRANCH   9  10
ENDBRANCH   1   8
TORSDOF 2
ENDMDL
MODEL 5
REMARK VINA RESULT:      -0.2      2.592      3.017
REMARK  2 active torsions:
REMARK  status: ('A' for Active; 'I' for Inactive)
REMARK    1  A    between atoms: C1_1  and  C2_2 
REMARK    2  A    between atoms: N7_7  and  O8_8 
ROOT
HETATM    1  C2  UNL     1     -32.782   6.246   2.721  1.00 20.00     0.115 A 
HETATM    2  C3  UNL     1     -32.595   5.902   1.243  1.00 20.00     0.033 A 
HETATM    3  C4  UNL     1     -32.248   7.257   1.766  1.00 20.00     0.260 A 
HETATM    4  C5  UNL     1     -33.795   5.782   0.344  1.00 20.00     0.022 C 
HETATM    5  C6  UNL     1     -31.466   4.972   0.888  1.00 20.00     0.022 C 
HETATM    6  F9  UNL     1     -30.935   7.668   1.856  1.00 20.00    -0.205 F 
HETATM    7  F10 UNL     1     -32.993   8.364   1.421  1.00 20.00    -0.205 F 
ENDROOT
BRANCH   1   8
HETATM    8  C1  UNL     1     -34.125   6.414   3.287  1.00 20.00     0.130 C 
HETATM    9  N7  UNL     1     -34.652   5.497   4.025  1.00 20.00    -0.152 NA
BRANCH   9  10
HETATM   10  O8  UNL     1     -35.921   5.920   4.422  1.00 20.00    -0.267 OA
HETATM   11  H19 UNL     1     -35.801   6.030   5.381  1.00 20.00     0.247 HD
ENDBRANCH   9  10
ENDBRANCH   1   8
TORSDOF 2
ENDMDL
MODEL 6
REMARK VINA RESULT:       0.3      2.346      2.680
REMARK  2 active torsions:
REMARK  status: ('A' for Active; 'I' for Inactive)
REMARK    1  A    between atoms: C1_1  and  C2_2 
REMARK    2  A    between atoms: N7_7  and  O8_8 
ROOT
HETATM    1  C2  UNL     1     -33.748   6.005   3.484  1.00 20.00     0.115 A 
HETATM    2  C3  UNL     1     -33.941   7.479   3.841  1.00 20.00     0.033 A 
HETATM    3  C4  UNL     1     -35.092   6.527   3.861  1.00 20.00     0.260 A 
HETATM    4  C5  UNL     1     -33.910   8.522   2.757  1.00 20.00     0.022 C 
HETATM    5  C6  UNL     1     -33.390   7.948   5.161  1.00 20.00     0.022 C 
HETATM    6  F9  UNL     1     -35.674   6.144   5.049  1.00 20.00    -0.205 F 
HETATM    7  F10 UNL     1     -36.101   6.614   2.926  1.00 20.00    -0.205 F 
ENDROOT
BRANCH   1   8
HETATM    8  C1  UNL     1     -33.485   5.597   2.100  1.00 20.00     0.130 C 
HETATM    9  N7  UNL     1     -32.279   5.405   1.685  1.00 20.00    -0.152 NA
BRANCH   9  10
HETATM   10  O8  UNL     1     -32.326   5.027   0.341  1.00 20.00    -0.267 OA
HETATM   11  H19 UNL     1     -31.791   5.723  -0.077  1.00 20.00     0.247 HD
ENDBRANCH   9  10
ENDBRANCH   1   8
TORSDOF 2
ENDMDL
MODEL 7
REMARK VINA RESULT:       0.5      1.732      2.508
REMARK  2 active torsions:
REMARK  status: ('A' for Active; 'I' for Inactive)
REMARK    1  A    between atoms: C1_1  and  C2_2 
REMARK    2  A    between atoms: N7_7  and  O8_8 
ROOT
HETATM    1  C2  UNL     1     -34.161   5.170   3.188  1.00 20.00     0.115 A 
HETATM    2  C3  UNL     1     -34.435   6.658   3.402  1.00 20.00     0.033 A 
HETATM    3  C4  UNL     1     -33.538   6.194   2.303  1.00 20.00     0.260 A 
HETATM    4  C5  UNL     1     -33.808   7.376   4.567  1.00 20.00     0.022 C 
HETATM    5  C6  UNL     1     -35.802   7.169   3.030  1.00 20.00     0.022 C 
HETATM    6  F9  UNL     1     -33.922   6.293   0.984  1.00 20.00    -0.205 F 
HETATM    7  F10 UNL     1     -32.180   6.430   2.347  1.00 20.00    -0.205 F 
ENDROOT
BRANCH   1   8
HETATM    8  C1  UNL     1     -33.328   4.418   4.134  1.00 20.00     0.130 C 
HETATM    9  N7  UNL     1     -33.672   3.237   4.524  1.00 20.00    -0.152 NA
BRANCH   9  10
HETATM   10  O8  UNL     1     -32.705   2.763   5.412  1.00 20.00    -0.267 OA
HETATM   11  H19 UNL     1     -33.255   2.359   6.104  1.00 20.00     0.247 HD
ENDBRANCH   9  10
ENDBRANCH   1   8
TORSDOF 2
ENDMDL
MODEL 8
REMARK VINA RESULT:       0.5      2.937      3.485
REMARK  2 active torsions:
REMARK  status: ('A' for Active; 'I' for Inactive)
REMARK    1  A    between atoms: C1_1  and  C2_2 
REMARK    2  A    between atoms: N7_7  and  O8_8 
ROOT
HETATM    1  C2  UNL     1     -33.513   6.748   1.982  1.00 20.00     0.115 A 
HETATM    2  C3  UNL     1     -32.266   7.623   1.862  1.00 20.00     0.033 A 
HETATM    3  C4  UNL     1     -32.214   6.164   1.545  1.00 20.00     0.260 A 
HETATM    4  C5  UNL     1     -31.561   8.097   3.104  1.00 20.00     0.022 C 
HETATM    5  C6  UNL     1     -32.213   8.597   0.716  1.00 20.00     0.022 C 
HETATM    6  F9  UNL     1     -32.054   5.727   0.248  1.00 20.00    -0.205 F 
HETATM    7  F10 UNL     1     -31.528   5.285   2.355  1.00 20.00    -0.205 F 
ENDROOT
BRANCH   1   8
HETATM    8  C1  UNL     1     -34.063   6.402   3.298  1.00 20.00     0.130 C 
HETATM    9  N7  UNL     1     -35.337   6.329   3.485  1.00 20.00    -0.152 NA
BRANCH   9  10
HETATM   10  O8  UNL     1     -35.573   5.985   4.817  1.00 20.00    -0.267 OA
HETATM   11  H19 UNL     1     -35.141   6.718   5.288  1.00 20.00     0.247 HD
ENDBRANCH   9  10
ENDBRANCH   1   8
TORSDOF 2
ENDMDL
MODEL 9
REMARK VINA RESULT:       0.6      2.978      3.825
REMARK  2 active torsions:
REMARK  status: ('A' for Active; 'I' for Inactive)
REMARK    1  A    between atoms: C1_1  and  C2_2 
REMARK    2  A    between atoms: N7_7  and  O8_8 
ROOT
HETATM    1  C2  UNL     1     -32.562   7.413   1.868  1.00 20.00     0.115 A 
HETATM    2  C3  UNL     1     -32.166   8.741   1.223  1.00 20.00     0.033 A 
HETATM    3  C4  UNL     1     -31.423   8.210   2.405  1.00 20.00     0.260 A 
HETATM    4  C5  UNL     1     -33.028   9.958   1.424  1.00 20.00     0.022 C 
HETATM    5  C6  UNL     1     -31.490   8.682  -0.120  1.00 20.00     0.022 C 
HETATM    6  F9  UNL     1     -30.133   7.743   2.280  1.00 20.00    -0.205 F 
HETATM    7  F10 UNL     1     -31.512   8.825   3.635  1.00 20.00    -0.205 F 
ENDROOT
BRANCH   1   8
HETATM    8  C1  UNL     1     -33.802   7.297   2.644  1.00 20.00     0.130 C 
HETATM    9  N7  UNL     1     -34.020   6.270   3.393  1.00 20.00    -0.152 NA
BRANCH   9  10
HETATM   10  O8  UNL     1     -35.264   6.424   4.008  1.00 20.00    -0.267 OA
HETATM   11  H19 UNL     1     -35.315   5.621   4.553  1.00 20.00     0.247 HD
ENDBRANCH   9  10
ENDBRANCH   1   8
TORSDOF 2
ENDMDL
