MODEL 1
REMARK VINA RESULT:       1.9      0.000      0.000
REMARK  0 active torsions:
REMARK  status: ('A' for Active; 'I' for Inactive)
ROOT
HETATM    1  C1  UNL     1     -35.174   5.125   4.125  1.00 20.00     0.053 A 
HETATM    2  C2  UNL     1     -33.889   4.868   3.827  1.00 20.00    -0.070 A 
HETATM    3  C3  UNL     1     -35.545   6.337   3.365  1.00 20.00     0.155 A 
HETATM    4  C4  UNL     1     -34.391   6.778   2.536  1.00 20.00     0.082 A 
HETATM    5  C5  UNL     1     -33.265   5.777   2.819  1.00 20.00    -0.002 A 
HETATM    6  C6  UNL     1     -33.082   7.268   3.130  1.00 20.00    -0.024 A 
HETATM    7  C7  UNL     1     -33.086   3.778   4.454  1.00 20.00     0.044 C 
HETATM    8  C8  UNL     1     -32.554   5.129   1.663  1.00 20.00     0.021 C 
HETATM    9  C9  UNL     1     -32.197   8.107   2.234  1.00 20.00     0.016 C 
HETATM   10  C10 UNL     1     -33.024   7.731   4.570  1.00 20.00     0.016 C 
HETATM   11  O11 UNL     1     -36.624   6.903   3.398  1.00 20.00    -0.293 OA
ENDROOT
TORSDOF 0
ENDMDL
MODEL 2
REMARK VINA RESULT:       2.0      1.719      3.026
REMARK  0 active torsions:
REMARK  status: ('A' for Active; 'I' for Inactive)
ROOT
HETATM    1  C1  UNL     1     -35.214   4.863   4.067  1.00 20.00     0.053 A 
HETATM    2  C2  UNL     1     -35.221   6.125   3.604  1.00 20.00    -0.070 A 
HETATM    3  C3  UNL     1     -33.803   4.424   4.062  1.00 20.00     0.155 A 
HETATM    4  C4  UNL     1     -32.936   5.541   3.599  1.00 20.00     0.082 A 
HETATM    5  C5  UNL     1     -33.881   6.712   3.308  1.00 20.00    -0.002 A 
HETATM    6  C6  UNL     1     -33.005   6.119   2.197  1.00 20.00    -0.024 A 
HETATM    7  C7  UNL     1     -36.461   6.919   3.359  1.00 20.00     0.044 C 
HETATM    8  C8  UNL     1     -33.580   8.062   3.901  1.00 20.00     0.021 C 
HETATM    9  C9  UNL     1     -31.796   6.893   1.716  1.00 20.00     0.016 C 
HETATM   10  C10 UNL     1     -33.648   5.330   1.077  1.00 20.00     0.016 C 
HETATM   11  O11 UNL     1     -33.393   3.322   4.382  1.00 20.00    -0.293 OA
ENDROOT
TORSDOF 0
ENDMDL
MODEL 3
REMARK VINA RESULT:       2.7      1.696      3.307
REMARK  0 active torsions:
REMARK  status: ('A' for Active; 'I' for Inactive)
ROOT
HETATM    1  C1  UNL     1     -32.476   7.123   1.818  1.00 20.00     0.053 A 
HETATM    2  C2  UNL     1     -33.064   5.915   1.766  1.00 20.00    -0.070 A 
HETATM    3  C3  UNL     1     -32.683   7.629   3.191  1.00 20.00     0.155 A 
HETATM    4  C4  UNL     1     -33.408   6.608   3.994  1.00 20.00     0.082 A 
HETATM    5  C5  UNL     1     -33.653   5.427   3.048  1.00 20.00    -0.002 A 
HETATM    6  C6  UNL     1     -34.830   6.171   3.691  1.00 20.00    -0.024 A 
HETATM    7  C7  UNL     1     -33.171   5.089   0.528  1.00 20.00     0.044 C 
HETATM    8  C8  UNL     1     -33.270   4.042   3.493  1.00 20.00     0.021 C 
HETATM    9  C9  UNL     1     -35.597   5.511   4.817  1.00 20.00     0.016 C 
HETATM   10  C10 UNL     1     -35.728   7.037   2.834  1.00 20.00     0.016 C 
HETATM   11  O11 UNL     1     -32.323   8.712   3.619  1.00 20.00    -0.293 OA
ENDROOT
TORSDOF 0
ENDMDL
MODEL 4
REMARK VINA RESULT:       2.7      2.318      3.584
REMARK  0 active torsions:
REMARK  status: ('A' for Active; 'I' for Inactive)
ROOT
HETATM    1  C1  UNL     1     -33.266   5.648   2.377  1.00 20.00     0.053 A 
HETATM    2  C2  UNL     1     -33.470   6.868   2.901  1.00 20.00    -0.070 A 
HETATM    3  C3  UNL     1     -32.074   5.758   1.511  1.00 20.00     0.155 A 
HETATM    4  C4  UNL     1     -31.533   7.142   1.584  1.00 20.00     0.082 A 
HETATM    5  C5  UNL     1     -32.454   7.903   2.543  1.00 20.00    -0.002 A 
HETATM    6  C6  UNL     1     -32.294   8.358   1.087  1.00 20.00    -0.024 A 
HETATM    7  C7  UNL     1     -34.632   7.225   3.766  1.00 20.00     0.044 C 
HETATM    8  C8  UNL     1     -31.847   8.685   3.676  1.00 20.00     0.021 C 
HETATM    9  C9  UNL     1     -31.480   9.598   0.785  1.00 20.00     0.016 C 
HETATM   10  C10 UNL     1     -33.446   8.194   0.119  1.00 20.00     0.016 C 
HETATM   11  O11 UNL     1     -31.593   4.866   0.834  1.00 20.00    -0.293 OA
ENDROOT
TORSDOF 0
ENDMDL
MODEL 5
REMARK VINA RESULT:       3.4      1.844      3.660
REMARK  0 active torsions:
REMARK  status: ('A' for Active; 'I' for Inactive)
ROOT
HETATM    1  C1  UNL     1     -32.113   6.808   1.668  1.00 20.00     0.053 A 
HETATM    2  C2  UNL     1     -32.571   7.337   2.815  1.00 20.00    -0.070 A 
HETATM    3  C3  UNL     1     -33.064   5.742   1.290  1.00 20.00     0.155 A 
HETATM    4  C4  UNL     1     -34.173   5.690   2.280  1.00 20.00     0.082 A 
HETATM    5  C5  UNL     1     -33.867   6.784   3.309  1.00 20.00    -0.002 A 
HETATM    6  C6  UNL     1     -33.968   5.314   3.737  1.00 20.00    -0.024 A 
HETATM    7  C7  UNL     1     -31.857   8.389   3.597  1.00 20.00     0.044 C 
HETATM    8  C8  UNL     1     -34.942   7.775   3.666  1.00 20.00     0.021 C 
HETATM    9  C9  UNL     1     -35.189   4.848   4.500  1.00 20.00     0.016 C 
HETATM   10  C10 UNL     1     -32.722   4.571   4.165  1.00 20.00     0.016 C 
HETATM   11  O11 UNL     1     -32.971   5.007   0.322  1.00 20.00    -0.293 OA
ENDROOT
TORSDOF 0
ENDMDL
MODEL 6
REMARK VINA RESULT:       3.4      1.578      2.341
REMARK  0 active torsions:
REMARK  status: ('A' for Active; 'I' for Inactive)
ROOT
HETATM    1  C1  UNL     1     -33.247   5.738   3.293  1.00 20.00     0.053 A 
HETATM    2  C2  UNL     1     -32.770   5.710   2.037  1.00 20.00    -0.070 A 
HETATM    3  C3  UNL     1     -33.816   7.087   3.495  1.00 20.00     0.155 A 
HETATM    4  C4  UNL     1     -33.690   7.873   2.239  1.00 20.00     0.082 A 
HETATM    5  C5  UNL     1     -33.004   6.944   1.230  1.00 20.00    -0.002 A 
HETATM    6  C6  UNL     1     -32.353   8.272   1.640  1.00 20.00    -0.024 A 
HETATM    7  C7  UNL     1     -32.025   4.559   1.449  1.00 20.00     0.044 C 
HETATM    8  C8  UNL     1     -33.615   6.764  -0.133  1.00 20.00     0.021 C 
HETATM    9  C9  UNL     1     -32.358   9.430   0.666  1.00 20.00     0.016 C 
HETATM   10  C10 UNL     1     -31.102   8.261   2.492  1.00 20.00     0.016 C 
HETATM   11  O11 UNL     1     -34.315   7.509   4.523  1.00 20.00    -0.293 OA
ENDROOT
TORSDOF 0
ENDMDL
MODEL 7
REMARK VINA RESULT:       3.6      1.669      3.525
REMARK  0 active torsions:
REMARK  status: ('A' for Active; 'I' for Inactive)
ROOT
HETATM    1  C1  UNL     1     -34.080   8.193   2.787  1.00 20.00     0.053 A 
HETATM    2  C2  UNL     1     -33.062   8.303   1.917  1.00 20.00    -0.070 A 
HETATM    3  C3  UNL     1     -34.066   6.798   3.274  1.00 20.00     0.155 A 
HETATM    4  C4  UNL     1     -32.921   6.070   2.663  1.00 20.00     0.082 A 
HETATM    5  C5  UNL     1     -32.214   7.084   1.758  1.00 20.00    -0.002 A 
HETATM    6  C6  UNL     1     -32.810   5.798   1.173  1.00 20.00    -0.024 A 
HETATM    7  C7  UNL     1     -32.772   9.529   1.117  1.00 20.00     0.044 C 
HETATM    8  C8  UNL     1     -30.725   7.266   1.884  1.00 20.00     0.021 C 
HETATM    9  C9  UNL     1     -31.884   4.678   0.750  1.00 20.00     0.016 C 
HETATM   10  C10 UNL     1     -34.038   5.874   0.291  1.00 20.00     0.016 C 
HETATM   11  O11 UNL     1     -34.859   6.301   4.054  1.00 20.00    -0.293 OA
ENDROOT
TORSDOF 0
ENDMDL
MODEL 8
REMARK VINA RESULT:       3.8      2.396      3.751
REMARK  0 active torsions:
REMARK  status: ('A' for Active; 'I' for Inactive)
ROOT
HETATM    1  C1  UNL     1     -32.188   8.838   2.720  1.00 20.00     0.053 A 
HETATM    2  C2  UNL     1     -32.843   7.882   3.402  1.00 20.00    -0.070 A 
HETATM    3  C3  UNL     1     -32.379   8.535   1.286  1.00 20.00     0.155 A 
HETATM    4  C4  UNL     1     -33.247   7.335   1.144  1.00 20.00     0.082 A 
HETATM    5  C5  UNL     1     -33.591   6.894   2.571  1.00 20.00    -0.002 A 
HETATM    6  C6  UNL     1     -32.838   5.953   1.622  1.00 20.00    -0.024 A 
HETATM    7  C7  UNL     1     -32.830   7.757   4.889  1.00 20.00     0.044 C 
HETATM    8  C8  UNL     1     -35.031   6.646   2.934  1.00 20.00     0.021 C 
HETATM    9  C9  UNL     1     -33.569   4.775   1.013  1.00 20.00     0.016 C 
HETATM   10  C10 UNL     1     -31.381   5.635   1.881  1.00 20.00     0.016 C 
HETATM   11  O11 UNL     1     -31.907   9.157   0.352  1.00 20.00    -0.293 OA
ENDROOT
TORSDOF 0
ENDMDL
MODEL 9
REMARK VINA RESULT:       4.2      2.133      3.421
REMARK  0 active torsions:
REMARK  status: ('A' for Active; 'I' for Inactive)
ROOT
HETATM    1  C1  UNL     1     -33.115   7.627   3.368  1.00 20.00     0.053 A 
HETATM    2  C2  UNL     1     -33.888   6.633   2.899  1.00 20.00    -0.070 A 
HETATM    3  C3  UNL     1     -32.001   7.780   2.409  1.00 20.00     0.155 A 
HETATM    4  C4  UNL     1     -32.180   6.824   1.283  1.00 20.00     0.082 A 
HETATM    5  C5  UNL     1     -33.470   6.054   1.587  1.00 20.00    -0.002 A 
HETATM    6  C6  UNL     1     -32.131   5.316   1.458  1.00 20.00    -0.024 A 
HETATM    7  C7  UNL     1     -35.078   6.088   3.615  1.00 20.00     0.044 C 
HETATM    8  C8  UNL     1     -34.526   5.944   0.521  1.00 20.00     0.021 C 
HETATM    9  C9  UNL     1     -31.856   4.492   0.219  1.00 20.00     0.016 C 
HETATM   10  C10 UNL     1     -31.487   4.712   2.688  1.00 20.00     0.016 C 
HETATM   11  O11 UNL     1     -31.071   8.561   2.507  1.00 20.00    -0.293 OA
ENDROOT
TORSDOF 0
ENDMDL
