MODEL 1
REMARK VINA RESULT:      -1.0      0.000      0.000
REMARK  3 active torsions:
REMARK  status: ('A' for Active; 'I' for Inactive)
REMARK    1  A    between atoms: C1_1  and  C2_2 
REMARK    2  A    between atoms: C1_1  and  O10_10 
REMARK    3  A    between atoms: C7_7  and  O10_10 
ROOT
HETATM    1  C1  UNL     1     -33.677   7.494   3.938  1.00 20.00     0.291 C 
HETATM    2  O8  UNL     1     -32.826   7.918   4.708  1.00 20.00    -0.262 OA
ENDROOT
BRANCH   1   3
HETATM    3  C2  UNL     1     -34.965   6.945   4.361  1.00 20.00     0.250 A 
HETATM    4  C3  UNL     1     -35.214   5.460   4.418  1.00 20.00     0.157 A 
HETATM    5  C4  UNL     1     -34.175   4.454   4.074  1.00 20.00     0.042 C 
HETATM    6  O9  UNL     1     -35.665   6.251   3.315  1.00 20.00    -0.365 OA
ENDBRANCH   1   3
BRANCH   1   7
HETATM    7  O10 UNL     1     -33.591   7.456   2.577  1.00 20.00    -0.315 OA
BRANCH   7   8
HETATM    8  C7  UNL     1     -32.291   7.167   2.053  1.00 20.00     0.123 C 
HETATM    9  C5  UNL     1     -32.348   5.867   1.264  1.00 20.00     0.040 C 
HETATM   10  C6  UNL     1     -31.827   8.331   1.192  1.00 20.00     0.040 C 
ENDBRANCH   7   8
ENDBRANCH   1   7
TORSDOF 3
ENDMDL
MODEL 2
REMARK VINA RESULT:      -0.8      1.543      4.314
REMARK  3 active torsions:
REMARK  status: ('A' for Active; 'I' for Inactive)
REMARK    1  A    between atoms: C1_1  and  C2_2 
REMARK    2  A    between atoms: C1_1  and  O10_10 
REMARK    3  A    between atoms: C7_7  and  O10_10 
ROOT
HETATM    1  C1  UNL     1     -32.603   6.337   1.851  1.00 20.00     0.291 C 
HETATM    2  O8  UNL     1     -31.766   5.770   1.163  1.00 20.00    -0.262 OA
ENDROOT
BRANCH   1   3
HETATM    3  C2  UNL     1     -32.428   7.673   2.419  1.00 20.00     0.250 A 
HETATM    4  C3  UNL     1     -32.234   8.887   1.548  1.00 20.00     0.157 A 
HETATM    5  C4  UNL     1     -32.231   8.823   0.063  1.00 20.00     0.042 C 
HETATM    6  O9  UNL     1     -31.128   8.235   2.176  1.00 20.00    -0.365 OA
ENDBRANCH   1   3
BRANCH   1   7
HETATM    7  O10 UNL     1     -33.825   5.846   2.207  1.00 20.00    -0.315 OA
BRANCH   7   8
HETATM    8  C7  UNL     1     -34.042   5.703   3.615  1.00 20.00     0.123 C 
HETATM    9  C5  UNL     1     -35.371   6.346   3.983  1.00 20.00     0.040 C 
HETATM   10  C6  UNL     1     -34.006   4.228   3.980  1.00 20.00     0.040 C 
ENDBRANCH   7   8
ENDBRANCH   1   7
TORSDOF 3
ENDMDL
MODEL 3
REMARK VINA RESULT:      -0.7      1.554      4.535
REMARK  3 active torsions:
REMARK  status: ('A' for Active; 'I' for Inactive)
REMARK    1  A    between atoms: C1_1  and  C2_2 
REMARK    2  A    between atoms: C1_1  and  O10_10 
REMARK    3  A    between atoms: C7_7  and  O10_10 
ROOT
HETATM    1  C1  UNL     1     -32.779   7.087   1.844  1.00 20.00     0.291 C 
HETATM    2  O8  UNL     1     -32.688   6.004   1.283  1.00 20.00    -0.262 OA
ENDROOT
BRANCH   1   3
HETATM    3  C2  UNL     1     -31.738   8.113   1.819  1.00 20.00     0.250 A 
HETATM    4  C3  UNL     1     -31.791   9.275   0.859  1.00 20.00     0.157 A 
HETATM    5  C4  UNL     1     -32.904   9.474  -0.105  1.00 20.00     0.042 C 
HETATM    6  O9  UNL     1     -30.975   8.129   0.601  1.00 20.00    -0.365 OA
ENDBRANCH   1   3
BRANCH   1   7
HETATM    7  O10 UNL     1     -33.839   7.531   2.579  1.00 20.00    -0.315 OA
BRANCH   7   8
HETATM    8  C7  UNL     1     -33.998   6.917   3.861  1.00 20.00     0.123 C 
HETATM    9  C5  UNL     1     -33.730   7.948   4.946  1.00 20.00     0.040 C 
HETATM   10  C6  UNL     1     -35.398   6.333   3.968  1.00 20.00     0.040 C 
ENDBRANCH   7   8
ENDBRANCH   1   7
TORSDOF 3
ENDMDL
MODEL 4
REMARK VINA RESULT:      -0.3      1.754      2.822
REMARK  3 active torsions:
REMARK  status: ('A' for Active; 'I' for Inactive)
REMARK    1  A    between atoms: C1_1  and  C2_2 
REMARK    2  A    between atoms: C1_1  and  O10_10 
REMARK    3  A    between atoms: C7_7  and  O10_10 
ROOT
HETATM    1  C1  UNL     1     -32.489   7.118   1.953  1.00 20.00     0.291 C 
HETATM    2  O8  UNL     1     -31.790   6.155   1.668  1.00 20.00    -0.262 OA
ENDROOT
BRANCH   1   3
HETATM    3  C2  UNL     1     -33.851   7.017   2.474  1.00 20.00     0.250 A 
HETATM    4  C3  UNL     1     -34.193   7.422   3.886  1.00 20.00     0.157 A 
HETATM    5  C4  UNL     1     -33.188   7.969   4.834  1.00 20.00     0.042 C 
HETATM    6  O9  UNL     1     -33.993   6.051   3.529  1.00 20.00    -0.365 OA
ENDBRANCH   1   3
BRANCH   1   7
HETATM    7  O10 UNL     1     -32.139   8.432   1.842  1.00 20.00    -0.315 OA
BRANCH   7   8
HETATM    8  C7  UNL     1     -32.364   9.021   0.558  1.00 20.00     0.123 C 
HETATM    9  C5  UNL     1     -32.777  10.474   0.740  1.00 20.00     0.040 C 
HETATM   10  C6  UNL     1     -31.103   8.892  -0.282  1.00 20.00     0.040 C 
ENDBRANCH   7   8
ENDBRANCH   1   7
TORSDOF 3
ENDMDL
MODEL 5
REMARK VINA RESULT:      -0.1      1.576      4.218
REMARK  3 active torsions:
REMARK  status: ('A' for Active; 'I' for Inactive)
REMARK    1  A    between atoms: C1_1  and  C2_2 
REMARK    2  A    between atoms: C1_1  and  O10_10 
REMARK    3  A    between atoms: C7_7  and  O10_10 
ROOT
HETATM    1  C1  UNL     1     -32.253   8.269   2.588  1.00 20.00     0.291 C 
HETATM    2  O8  UNL     1     -31.585   8.643   3.543  1.00 20.00    -0.262 OA
ENDROOT
BRANCH   1   3
HETATM    3  C2  UNL     1     -31.785   8.291   1.203  1.00 20.00     0.250 A 
HETATM    4  C3  UNL     1     -32.048   9.465   0.295  1.00 20.00     0.157 A 
HETATM    5  C4  UNL     1     -32.774  10.683   0.741  1.00 20.00     0.042 C 
HETATM    6  O9  UNL     1     -32.850   8.282   0.237  1.00 20.00    -0.365 OA
ENDBRANCH   1   3
BRANCH   1   7
HETATM    7  O10 UNL     1     -33.523   7.773   2.633  1.00 20.00    -0.315 OA
BRANCH   7   8
HETATM    8  C7  UNL     1     -33.676   6.538   3.339  1.00 20.00     0.123 C 
HETATM    9  C5  UNL     1     -35.075   6.472   3.933  1.00 20.00     0.040 C 
HETATM   10  C6  UNL     1     -33.408   5.381   2.389  1.00 20.00     0.040 C 
ENDBRANCH   7   8
ENDBRANCH   1   7
TORSDOF 3
ENDMDL
MODEL 6
REMARK VINA RESULT:      -0.0      1.270      2.145
REMARK  3 active torsions:
REMARK  status: ('A' for Active; 'I' for Inactive)
REMARK    1  A    between atoms: C1_1  and  C2_2 
REMARK    2  A    between atoms: C1_1  and  O10_10 
REMARK    3  A    between atoms: C7_7  and  O10_10 
ROOT
HETATM    1  C1  UNL     1     -33.079   7.086   2.381  1.00 20.00     0.291 C 
HETATM    2  O8  UNL     1     -32.979   6.068   1.709  1.00 20.00    -0.262 OA
ENDROOT
BRANCH   1   3
HETATM    3  C2  UNL     1     -33.982   7.228   3.523  1.00 20.00     0.250 A 
HETATM    4  C3  UNL     1     -34.550   6.030   4.240  1.00 20.00     0.157 A 
HETATM    5  C4  UNL     1     -34.221   4.631   3.859  1.00 20.00     0.042 C 
HETATM    6  O9  UNL     1     -35.313   6.749   3.266  1.00 20.00    -0.365 OA
ENDBRANCH   1   3
BRANCH   1   7
HETATM    7  O10 UNL     1     -32.388   8.247   2.199  1.00 20.00    -0.315 OA
BRANCH   7   8
HETATM    8  C7  UNL     1     -32.447   8.797   0.879  1.00 20.00     0.123 C 
HETATM    9  C5  UNL     1     -32.761  10.283   0.971  1.00 20.00     0.040 C 
HETATM   10  C6  UNL     1     -31.128   8.540   0.169  1.00 20.00     0.040 C 
ENDBRANCH   7   8
ENDBRANCH   1   7
TORSDOF 3
ENDMDL
MODEL 7
REMARK VINA RESULT:      -0.0      1.276      4.141
REMARK  3 active torsions:
REMARK  status: ('A' for Active; 'I' for Inactive)
REMARK    1  A    between atoms: C1_1  and  C2_2 
REMARK    2  A    between atoms: C1_1  and  O10_10 
REMARK    3  A    between atoms: C7_7  and  O10_10 
ROOT
HETATM    1  C1  UNL     1     -32.689   7.628   2.929  1.00 20.00     0.291 C 
HETATM    2  O8  UNL     1     -32.676   8.333   3.929  1.00 20.00    -0.262 OA
ENDROOT
BRANCH   1   3
HETATM    3  C2  UNL     1     -31.737   7.750   1.827  1.00 20.00     0.250 A 
HETATM    4  C3  UNL     1     -31.801   8.893   0.846  1.00 20.00     0.157 A 
HETATM    5  C4  UNL     1     -32.810   9.981   0.939  1.00 20.00     0.042 C 
HETATM    6  O9  UNL     1     -32.338   7.607   0.529  1.00 20.00    -0.365 OA
ENDBRANCH   1   3
BRANCH   1   7
HETATM    7  O10 UNL     1     -33.570   6.621   2.661  1.00 20.00    -0.315 OA
BRANCH   7   8
HETATM    8  C7  UNL     1     -34.139   5.981   3.808  1.00 20.00     0.123 C 
HETATM    9  C5  UNL     1     -35.609   6.356   3.912  1.00 20.00     0.040 C 
HETATM   10  C6  UNL     1     -33.945   4.477   3.690  1.00 20.00     0.040 C 
ENDBRANCH   7   8
ENDBRANCH   1   7
TORSDOF 3
ENDMDL
MODEL 8
REMARK VINA RESULT:      -0.0      1.866      2.914
REMARK  3 active torsions:
REMARK  status: ('A' for Active; 'I' for Inactive)
REMARK    1  A    between atoms: C1_1  and  C2_2 
REMARK    2  A    between atoms: C1_1  and  O10_10 
REMARK    3  A    between atoms: C7_7  and  O10_10 
ROOT
HETATM    1  C1  UNL     1     -32.285   7.626   1.714  1.00 20.00     0.291 C 
HETATM    2  O8  UNL     1     -31.081   7.445   1.835  1.00 20.00    -0.262 OA
ENDROOT
BRANCH   1   3
HETATM    3  C2  UNL     1     -33.289   6.570   1.834  1.00 20.00     0.250 A 
HETATM    4  C3  UNL     1     -34.185   6.458   3.041  1.00 20.00     0.157 A 
HETATM    5  C4  UNL     1     -34.132   7.417   4.176  1.00 20.00     0.042 C 
HETATM    6  O9  UNL     1     -33.021   5.640   2.897  1.00 20.00    -0.365 OA
ENDBRANCH   1   3
BRANCH   1   7
HETATM    7  O10 UNL     1     -32.903   8.814   1.454  1.00 20.00    -0.315 OA
BRANCH   7   8
HETATM    8  C7  UNL     1     -32.206   9.685   0.557  1.00 20.00     0.123 C 
HETATM    9  C5  UNL     1     -32.498   9.263  -0.875  1.00 20.00     0.040 C 
HETATM   10  C6  UNL     1     -32.630  11.121   0.822  1.00 20.00     0.040 C 
ENDBRANCH   7   8
ENDBRANCH   1   7
TORSDOF 3
ENDMDL
MODEL 9
REMARK VINA RESULT:       0.0      1.555      2.599
REMARK  3 active torsions:
REMARK  status: ('A' for Active; 'I' for Inactive)
REMARK    1  A    between atoms: C1_1  and  C2_2 
REMARK    2  A    between atoms: C1_1  and  O10_10 
REMARK    3  A    between atoms: C7_7  and  O10_10 
ROOT
HETATM    1  C1  UNL     1     -32.674   7.402   2.403  1.00 20.00     0.291 C 
HETATM    2  O8  UNL     1     -32.970   6.399   1.768  1.00 20.00    -0.262 OA
ENDROOT
BRANCH   1   3
HETATM    3  C2  UNL     1     -33.040   7.625   3.801  1.00 20.00     0.250 A 
HETATM    4  C3  UNL     1     -34.318   7.078   4.384  1.00 20.00     0.157 A 
HETATM    5  C4  UNL     1     -35.279   6.261   3.597  1.00 20.00     0.042 C 
HETATM    6  O9  UNL     1     -34.212   8.441   3.965  1.00 20.00    -0.365 OA
ENDBRANCH   1   3
BRANCH   1   7
HETATM    7  O10 UNL     1     -31.965   8.472   1.941  1.00 20.00    -0.315 OA
BRANCH   7   8
HETATM    8  C7  UNL     1     -32.358   8.959   0.654  1.00 20.00     0.123 C 
HETATM    9  C5  UNL     1     -32.779  10.415   0.778  1.00 20.00     0.040 C 
HETATM   10  C6  UNL     1     -31.204   8.784  -0.321  1.00 20.00     0.040 C 
ENDBRANCH   7   8
ENDBRANCH   1   7
TORSDOF 3
ENDMDL
