MODEL 1
REMARK VINA RESULT:      -2.2      0.000      0.000
REMARK  6 active torsions:
REMARK  status: ('A' for Active; 'I' for Inactive)
REMARK    1  A    between atoms: C2_2  and  C5_5 
REMARK    2  A    between atoms: C5_5  and  C8_8 
REMARK    3  A    between atoms: C6_6  and  C8_8 
REMARK    4  A    between atoms: C7_7  and  C9_9 
REMARK    5  A    between atoms: C9_9  and  C10_10 
REMARK    6  A    between atoms: C10_10  and  N11_11 
ROOT
HETATM    1  C1  UNL     1     -33.304   8.073   3.902  1.00 20.00     0.308 A 
HETATM    2  C2  UNL     1     -33.694   6.632   3.675  1.00 20.00     0.251 A 
HETATM    3  N11 UNL     1     -33.520   7.550   2.556  1.00 20.00     0.097 N 
ENDROOT
BRANCH   2   4
HETATM    4  C5  UNL     1     -35.064   6.163   4.015  1.00 20.00     0.037 C 
BRANCH   4   5
HETATM    5  C8  UNL     1     -35.056   4.717   4.506  1.00 20.00     0.002 C 
BRANCH   5   6
HETATM    6  C6  UNL     1     -33.892   3.932   3.901  1.00 20.00    -0.004 C 
HETATM    7  C3  UNL     1     -33.208   3.059   4.943  1.00 20.00     0.005 C 
ENDBRANCH   5   6
ENDBRANCH   4   5
ENDBRANCH   2   4
BRANCH   3   8
HETATM    8  C10 UNL     1     -32.280   7.330   1.822  1.00 20.00     0.273 C 
BRANCH   8   9
HETATM    9  C9  UNL     1     -31.622   8.635   1.387  1.00 20.00     0.030 C 
BRANCH   9  10
HETATM   10  C7  UNL     1     -32.254   9.218   0.120  1.00 20.00    -0.003 C 
HETATM   11  C4  UNL     1     -32.672  10.665   0.325  1.00 20.00     0.005 C 
ENDBRANCH   9  10
ENDBRANCH   8   9
ENDBRANCH   3   8
TORSDOF 6
ENDMDL
MODEL 2
REMARK VINA RESULT:      -2.0      0.836      5.678
REMARK  6 active torsions:
REMARK  status: ('A' for Active; 'I' for Inactive)
REMARK    1  A    between atoms: C2_2  and  C5_5 
REMARK    2  A    between atoms: C5_5  and  C8_8 
REMARK    3  A    between atoms: C6_6  and  C8_8 
REMARK    4  A    between atoms: C7_7  and  C9_9 
REMARK    5  A    between atoms: C9_9  and  C10_10 
REMARK    6  A    between atoms: C10_10  and  N11_11 
ROOT
HETATM    1  C1  UNL     1     -33.833   8.239   4.117  1.00 20.00     0.308 A 
HETATM    2  C2  UNL     1     -33.415   7.610   2.810  1.00 20.00     0.251 A 
HETATM    3  N11 UNL     1     -33.713   6.791   3.979  1.00 20.00     0.097 N 
ENDROOT
BRANCH   2   4
HETATM    4  C5  UNL     1     -32.005   7.713   2.345  1.00 20.00     0.037 C 
BRANCH   4   5
HETATM    5  C8  UNL     1     -31.924   8.256   0.920  1.00 20.00     0.002 C 
BRANCH   5   6
HETATM    6  C6  UNL     1     -32.388   9.711   0.852  1.00 20.00    -0.004 C 
HETATM    7  C3  UNL     1     -32.784  10.105  -0.563  1.00 20.00     0.005 C 
ENDBRANCH   5   6
ENDBRANCH   4   5
ENDBRANCH   2   4
BRANCH   3   8
HETATM    8  C10 UNL     1     -35.003   6.117   3.891  1.00 20.00     0.273 C 
BRANCH   8   9
HETATM    9  C9  UNL     1     -34.958   4.699   4.450  1.00 20.00     0.030 C 
BRANCH   9  10
HETATM   10  C7  UNL     1     -33.793   3.881   3.887  1.00 20.00    -0.003 C 
HETATM   11  C4  UNL     1     -33.190   2.972   4.947  1.00 20.00     0.005 C 
ENDBRANCH   9  10
ENDBRANCH   8   9
ENDBRANCH   3   8
TORSDOF 6
ENDMDL
MODEL 3
REMARK VINA RESULT:      -1.6      1.341      2.044
REMARK  6 active torsions:
REMARK  status: ('A' for Active; 'I' for Inactive)
REMARK    1  A    between atoms: C2_2  and  C5_5 
REMARK    2  A    between atoms: C5_5  and  C8_8 
REMARK    3  A    between atoms: C6_6  and  C8_8 
REMARK    4  A    between atoms: C7_7  and  C9_9 
REMARK    5  A    between atoms: C9_9  and  C10_10 
REMARK    6  A    between atoms: C10_10  and  N11_11 
ROOT
HETATM    1  C1  UNL     1     -33.766   8.256   4.565  1.00 20.00     0.308 A 
HETATM    2  C2  UNL     1     -33.833   6.845   4.034  1.00 20.00     0.251 A 
HETATM    3  N11 UNL     1     -33.597   7.974   3.142  1.00 20.00     0.097 N 
ENDROOT
BRANCH   2   4
HETATM    4  C5  UNL     1     -35.137   6.132   3.963  1.00 20.00     0.037 C 
BRANCH   4   5
HETATM    5  C8  UNL     1     -35.033   4.715   4.524  1.00 20.00     0.002 C 
BRANCH   5   6
HETATM    6  C6  UNL     1     -33.850   3.961   3.914  1.00 20.00    -0.004 C 
HETATM    7  C3  UNL     1     -33.252   2.971   4.901  1.00 20.00     0.005 C 
ENDBRANCH   5   6
ENDBRANCH   4   5
ENDBRANCH   2   4
BRANCH   3   8
HETATM    8  C10 UNL     1     -32.211   8.073   2.701  1.00 20.00     0.273 C 
BRANCH   8   9
HETATM    9  C9  UNL     1     -31.993   7.450   1.326  1.00 20.00     0.030 C 
BRANCH   9  10
HETATM   10  C7  UNL     1     -31.942   5.921   1.375  1.00 20.00    -0.003 C 
HETATM   11  C4  UNL     1     -33.140   5.303   0.672  1.00 20.00     0.005 C 
ENDBRANCH   9  10
ENDBRANCH   8   9
ENDBRANCH   3   8
TORSDOF 6
ENDMDL
MODEL 4
REMARK VINA RESULT:      -1.6      0.897      1.659
REMARK  6 active torsions:
REMARK  status: ('A' for Active; 'I' for Inactive)
REMARK    1  A    between atoms: C2_2  and  C5_5 
REMARK    2  A    between atoms: C5_5  and  C8_8 
REMARK    3  A    between atoms: C6_6  and  C8_8 
REMARK    4  A    between atoms: C7_7  and  C9_9 
REMARK    5  A    between atoms: C9_9  and  C10_10 
REMARK    6  A    between atoms: C10_10  and  N11_11 
ROOT
HETATM    1  C1  UNL     1     -32.661   6.591   1.649  1.00 20.00     0.308 A 
HETATM    2  C2  UNL     1     -33.342   7.566   2.579  1.00 20.00     0.251 A 
HETATM    3  N11 UNL     1     -31.901   7.614   2.361  1.00 20.00     0.097 N 
ENDROOT
BRANCH   2   4
HETATM    4  C5  UNL     1     -33.855   7.110   3.899  1.00 20.00     0.037 C 
BRANCH   4   5
HETATM    5  C8  UNL     1     -35.217   6.430   3.767  1.00 20.00     0.002 C 
BRANCH   5   6
HETATM    6  C6  UNL     1     -35.242   5.088   4.499  1.00 20.00    -0.004 C 
HETATM    7  C3  UNL     1     -34.054   4.221   4.113  1.00 20.00     0.005 C 
ENDBRANCH   5   6
ENDBRANCH   4   5
ENDBRANCH   2   4
BRANCH   3   8
HETATM    8  C10 UNL     1     -31.489   8.719   1.504  1.00 20.00     0.273 C 
BRANCH   8   9
HETATM    9  C9  UNL     1     -32.010   8.575   0.078  1.00 20.00     0.030 C 
BRANCH   9  10
HETATM   10  C7  UNL     1     -32.715   9.840  -0.421  1.00 20.00    -0.003 C 
HETATM   11  C4  UNL     1     -32.762  10.911   0.658  1.00 20.00     0.005 C 
ENDBRANCH   9  10
ENDBRANCH   8   9
ENDBRANCH   3   8
TORSDOF 6
ENDMDL
MODEL 5
REMARK VINA RESULT:      -1.5      1.453      5.197
REMARK  6 active torsions:
REMARK  status: ('A' for Active; 'I' for Inactive)
REMARK    1  A    between atoms: C2_2  and  C5_5 
REMARK    2  A    between atoms: C5_5  and  C8_8 
REMARK    3  A    between atoms: C6_6  and  C8_8 
REMARK    4  A    between atoms: C7_7  and  C9_9 
REMARK    5  A    between atoms: C9_9  and  C10_10 
REMARK    6  A    between atoms: C10_10  and  N11_11 
ROOT
HETATM    1  C1  UNL     1     -32.343   5.385   1.098  1.00 20.00     0.308 A 
HETATM    2  C2  UNL     1     -31.949   6.645   1.830  1.00 20.00     0.251 A 
HETATM    3  N11 UNL     1     -33.315   6.138   1.884  1.00 20.00     0.097 N 
ENDROOT
BRANCH   2   4
HETATM    4  C5  UNL     1     -31.676   7.898   1.073  1.00 20.00     0.037 C 
BRANCH   4   5
HETATM    5  C8  UNL     1     -32.553   9.049   1.561  1.00 20.00     0.002 C 
BRANCH   5   6
HETATM    6  C6  UNL     1     -32.433  10.266   0.643  1.00 20.00    -0.004 C 
HETATM    7  C3  UNL     1     -32.743   9.907  -0.802  1.00 20.00     0.005 C 
ENDBRANCH   5   6
ENDBRANCH   4   5
ENDBRANCH   2   4
BRANCH   3   8
HETATM    8  C10 UNL     1     -33.637   5.502   3.155  1.00 20.00     0.273 C 
BRANCH   8   9
HETATM    9  C9  UNL     1     -34.812   6.172   3.860  1.00 20.00     0.030 C 
BRANCH   9  10
HETATM   10  C7  UNL     1     -34.601   7.675   4.056  1.00 20.00    -0.003 C 
HETATM   11  C4  UNL     1     -33.424   7.954   4.978  1.00 20.00     0.005 C 
ENDBRANCH   9  10
ENDBRANCH   8   9
ENDBRANCH   3   8
TORSDOF 6
ENDMDL
MODEL 6
REMARK VINA RESULT:      -1.4      1.487      2.518
REMARK  6 active torsions:
REMARK  status: ('A' for Active; 'I' for Inactive)
REMARK    1  A    between atoms: C2_2  and  C5_5 
REMARK    2  A    between atoms: C5_5  and  C8_8 
REMARK    3  A    between atoms: C6_6  and  C8_8 
REMARK    4  A    between atoms: C7_7  and  C9_9 
REMARK    5  A    between atoms: C9_9  and  C10_10 
REMARK    6  A    between atoms: C10_10  and  N11_11 
ROOT
HETATM    1  C1  UNL     1     -32.834   5.582   0.866  1.00 20.00     0.308 A 
HETATM    2  C2  UNL     1     -33.362   6.250   2.113  1.00 20.00     0.251 A 
HETATM    3  N11 UNL     1     -31.929   6.142   1.866  1.00 20.00     0.097 N 
ENDROOT
BRANCH   2   4
HETATM    4  C5  UNL     1     -33.967   5.435   3.201  1.00 20.00     0.037 C 
BRANCH   4   5
HETATM    5  C8  UNL     1     -34.908   6.269   4.069  1.00 20.00     0.002 C 
BRANCH   5   6
HETATM    6  C6  UNL     1     -34.514   7.746   4.054  1.00 20.00    -0.004 C 
HETATM    7  C3  UNL     1     -33.399   8.036   5.048  1.00 20.00     0.005 C 
ENDBRANCH   5   6
ENDBRANCH   4   5
ENDBRANCH   2   4
BRANCH   3   8
HETATM    8  C10 UNL     1     -31.325   7.402   1.448  1.00 20.00     0.273 C 
BRANCH   8   9
HETATM    9  C9  UNL     1     -32.338   8.540   1.387  1.00 20.00     0.030 C 
BRANCH   9  10
HETATM   10  C7  UNL     1     -32.242   9.345   0.088  1.00 20.00    -0.003 C 
HETATM   11  C4  UNL     1     -32.702  10.780   0.289  1.00 20.00     0.005 C 
ENDBRANCH   9  10
ENDBRANCH   8   9
ENDBRANCH   3   8
TORSDOF 6
ENDMDL
MODEL 7
REMARK VINA RESULT:      -1.4      0.793      5.755
REMARK  6 active torsions:
REMARK  status: ('A' for Active; 'I' for Inactive)
REMARK    1  A    between atoms: C2_2  and  C5_5 
REMARK    2  A    between atoms: C5_5  and  C8_8 
REMARK    3  A    between atoms: C6_6  and  C8_8 
REMARK    4  A    between atoms: C7_7  and  C9_9 
REMARK    5  A    between atoms: C9_9  and  C10_10 
REMARK    6  A    between atoms: C10_10  and  N11_11 
ROOT
HETATM    1  C1  UNL     1     -32.763   6.024   1.539  1.00 20.00     0.308 A 
HETATM    2  C2  UNL     1     -32.078   7.285   2.005  1.00 20.00     0.251 A 
HETATM    3  N11 UNL     1     -33.476   7.026   2.326  1.00 20.00     0.097 N 
ENDROOT
BRANCH   2   4
HETATM    4  C5  UNL     1     -31.751   8.364   1.033  1.00 20.00     0.037 C 
BRANCH   4   5
HETATM    5  C8  UNL     1     -32.238   9.726   1.523  1.00 20.00     0.002 C 
BRANCH   5   6
HETATM    6  C6  UNL     1     -32.583  10.647   0.352  1.00 20.00    -0.004 C 
HETATM    7  C3  UNL     1     -32.779   9.861  -0.936  1.00 20.00     0.005 C 
ENDBRANCH   5   6
ENDBRANCH   4   5
ENDBRANCH   2   4
BRANCH   3   8
HETATM    8  C10 UNL     1     -33.679   6.625   3.713  1.00 20.00     0.273 C 
BRANCH   8   9
HETATM    9  C9  UNL     1     -35.128   6.251   4.004  1.00 20.00     0.030 C 
BRANCH   9  10
HETATM   10  C7  UNL     1     -35.268   4.835   4.569  1.00 20.00    -0.003 C 
HETATM   11  C4  UNL     1     -34.012   4.014   4.326  1.00 20.00     0.005 C 
ENDBRANCH   9  10
ENDBRANCH   8   9
ENDBRANCH   3   8
TORSDOF 6
ENDMDL
MODEL 8
REMARK VINA RESULT:      -1.4      1.465      4.864
REMARK  6 active torsions:
REMARK  status: ('A' for Active; 'I' for Inactive)
REMARK    1  A    between atoms: C2_2  and  C5_5 
REMARK    2  A    between atoms: C5_5  and  C8_8 
REMARK    3  A    between atoms: C6_6  and  C8_8 
REMARK    4  A    between atoms: C7_7  and  C9_9 
REMARK    5  A    between atoms: C9_9  and  C10_10 
REMARK    6  A    between atoms: C10_10  and  N11_11 
ROOT
HETATM    1  C1  UNL     1     -33.847   8.165   4.660  1.00 20.00     0.308 A 
HETATM    2  C2  UNL     1     -33.546   7.900   3.205  1.00 20.00     0.251 A 
HETATM    3  N11 UNL     1     -33.737   6.803   4.145  1.00 20.00     0.097 N 
ENDROOT
BRANCH   2   4
HETATM    4  C5  UNL     1     -32.183   8.154   2.662  1.00 20.00     0.037 C 
BRANCH   4   5
HETATM    5  C8  UNL     1     -31.982   7.472   1.311  1.00 20.00     0.002 C 
BRANCH   5   6
HETATM    6  C6  UNL     1     -31.975   5.949   1.452  1.00 20.00    -0.004 C 
HETATM    7  C3  UNL     1     -33.118   5.313   0.677  1.00 20.00     0.005 C 
ENDBRANCH   5   6
ENDBRANCH   4   5
ENDBRANCH   2   4
BRANCH   3   8
HETATM    8  C10 UNL     1     -35.028   6.142   3.997  1.00 20.00     0.273 C 
BRANCH   8   9
HETATM    9  C9  UNL     1     -35.005   4.702   4.498  1.00 20.00     0.030 C 
BRANCH   9  10
HETATM   10  C7  UNL     1     -33.849   3.892   3.907  1.00 20.00    -0.003 C 
HETATM   11  C4  UNL     1     -33.199   3.004   4.957  1.00 20.00     0.005 C 
ENDBRANCH   9  10
ENDBRANCH   8   9
ENDBRANCH   3   8
TORSDOF 6
ENDMDL
MODEL 9
REMARK VINA RESULT:      -0.4      1.474      2.374
REMARK  6 active torsions:
REMARK  status: ('A' for Active; 'I' for Inactive)
REMARK    1  A    between atoms: C2_2  and  C5_5 
REMARK    2  A    between atoms: C5_5  and  C8_8 
REMARK    3  A    between atoms: C6_6  and  C8_8 
REMARK    4  A    between atoms: C7_7  and  C9_9 
REMARK    5  A    between atoms: C9_9  and  C10_10 
REMARK    6  A    between atoms: C10_10  and  N11_11 
ROOT
HETATM    1  C1  UNL     1     -32.545   8.212   3.680  1.00 20.00     0.308 A 
HETATM    2  C2  UNL     1     -33.344   6.948   3.477  1.00 20.00     0.251 A 
HETATM    3  N11 UNL     1     -33.034   7.830   2.359  1.00 20.00     0.097 N 
ENDROOT
BRANCH   2   4
HETATM    4  C5  UNL     1     -34.749   6.863   3.960  1.00 20.00     0.037 C 
BRANCH   4   5
HETATM    5  C8  UNL     1     -35.136   5.427   4.308  1.00 20.00     0.002 C 
BRANCH   5   6
HETATM    6  C6  UNL     1     -34.136   4.425   3.729  1.00 20.00    -0.004 C 
HETATM    7  C3  UNL     1     -33.618   3.474   4.797  1.00 20.00     0.005 C 
ENDBRANCH   5   6
ENDBRANCH   4   5
ENDBRANCH   2   4
BRANCH   3   8
HETATM    8  C10 UNL     1     -31.987   7.306   1.491  1.00 20.00     0.273 C 
BRANCH   8   9
HETATM    9  C9  UNL     1     -31.670   5.843   1.778  1.00 20.00     0.030 C 
BRANCH   9  10
HETATM   10  C7  UNL     1     -32.057   4.918   0.621  1.00 20.00    -0.003 C 
HETATM   11  C4  UNL     1     -33.525   5.074   0.254  1.00 20.00     0.005 C 
ENDBRANCH   9  10
ENDBRANCH   8   9
ENDBRANCH   3   8
TORSDOF 6
ENDMDL
