MODEL 1
REMARK VINA RESULT:      -2.4      0.000      0.000
REMARK  2 active torsions:
REMARK  status: ('A' for Active; 'I' for Inactive)
REMARK    1  A    between atoms: C4_4  and  O10_10 
REMARK    2  A    between atoms: C5_5  and  C6_6 
ROOT
HETATM    1  C1  UNL     1     -34.086   7.550   4.044  1.00 20.00     0.040 A 
HETATM    2  C2  UNL     1     -33.051   8.142   3.329  1.00 20.00     0.034 A 
HETATM    3  C3  UNL     1     -33.951   5.675   2.586  1.00 20.00     0.153 A 
HETATM    4  C4  UNL     1     -34.552   6.293   3.672  1.00 20.00     0.083 A 
HETATM    5  C5  UNL     1     -32.518   7.440   2.260  1.00 20.00     0.056 A 
HETATM    6  N9  UNL     1     -32.943   6.218   1.868  1.00 20.00    -0.258 NA
ENDROOT
BRANCH   5   7
HETATM    7  C6  UNL     1     -31.433   8.017   1.481  1.00 20.00     0.027 C 
HETATM    8  C7  UNL     1     -31.539   9.056   0.621  1.00 20.00    -0.029 C 
HETATM    9  C8  UNL     1     -32.815   9.781   0.338  1.00 20.00     0.036 C 
ENDBRANCH   5   7
BRANCH   4  10
HETATM   10  O10 UNL     1     -35.560   5.691   4.349  1.00 20.00    -0.359 OA
HETATM   11  H19 UNL     1     -36.332   6.279   4.406  1.00 20.00     0.217 HD
ENDBRANCH   4  10
TORSDOF 2
ENDMDL
MODEL 2
REMARK VINA RESULT:      -2.2      0.858      1.518
REMARK  2 active torsions:
REMARK  status: ('A' for Active; 'I' for Inactive)
REMARK    1  A    between atoms: C4_4  and  O10_10 
REMARK    2  A    between atoms: C5_5  and  C6_6 
ROOT
HETATM    1  C1  UNL     1     -33.941   5.561   2.577  1.00 20.00     0.040 A 
HETATM    2  C2  UNL     1     -32.905   6.135   1.849  1.00 20.00     0.034 A 
HETATM    3  C3  UNL     1     -34.025   7.529   3.910  1.00 20.00     0.153 A 
HETATM    4  C4  UNL     1     -34.518   6.265   3.629  1.00 20.00     0.083 A 
HETATM    5  C5  UNL     1     -32.486   7.405   2.209  1.00 20.00     0.056 A 
HETATM    6  N9  UNL     1     -33.020   8.119   3.224  1.00 20.00    -0.258 NA
ENDROOT
BRANCH   5   7
HETATM    7  C6  UNL     1     -31.406   8.048   1.478  1.00 20.00     0.027 C 
HETATM    8  C7  UNL     1     -31.533   9.098   0.635  1.00 20.00    -0.029 C 
HETATM    9  C8  UNL     1     -32.832   9.769   0.324  1.00 20.00     0.036 C 
ENDBRANCH   5   7
BRANCH   4  10
HETATM   10  O10 UNL     1     -35.529   5.731   4.357  1.00 20.00    -0.359 OA
HETATM   11  H19 UNL     1     -36.113   5.197   3.791  1.00 20.00     0.217 HD
ENDBRANCH   4  10
TORSDOF 2
ENDMDL
MODEL 3
REMARK VINA RESULT:      -1.7      2.305      4.357
REMARK  2 active torsions:
REMARK  status: ('A' for Active; 'I' for Inactive)
REMARK    1  A    between atoms: C4_4  and  O10_10 
REMARK    2  A    between atoms: C5_5  and  C6_6 
ROOT
HETATM    1  C1  UNL     1     -32.644   8.340   2.981  1.00 20.00     0.040 A 
HETATM    2  C2  UNL     1     -33.594   7.688   3.758  1.00 20.00     0.034 A 
HETATM    3  C3  UNL     1     -32.639   6.470   1.511  1.00 20.00     0.153 A 
HETATM    4  C4  UNL     1     -32.151   7.726   1.834  1.00 20.00     0.083 A 
HETATM    5  C5  UNL     1     -34.017   6.434   3.349  1.00 20.00     0.056 A 
HETATM    6  N9  UNL     1     -33.562   5.806   2.242  1.00 20.00    -0.258 NA
ENDROOT
BRANCH   5   7
HETATM    7  C6  UNL     1     -35.010   5.713   4.129  1.00 20.00     0.027 C 
HETATM    8  C7  UNL     1     -34.879   4.456   4.612  1.00 20.00    -0.029 C 
HETATM    9  C8  UNL     1     -33.667   3.605   4.412  1.00 20.00     0.036 C 
ENDBRANCH   5   7
BRANCH   4  10
HETATM   10  O10 UNL     1     -31.224   8.337   1.056  1.00 20.00    -0.359 OA
HETATM   11  H19 UNL     1     -30.525   7.711   0.803  1.00 20.00     0.217 HD
ENDBRANCH   4  10
TORSDOF 2
ENDMDL
MODEL 4
REMARK VINA RESULT:      -1.7      2.438      4.616
REMARK  2 active torsions:
REMARK  status: ('A' for Active; 'I' for Inactive)
REMARK    1  A    between atoms: C4_4  and  O10_10 
REMARK    2  A    between atoms: C5_5  and  C6_6 
ROOT
HETATM    1  C1  UNL     1     -32.486   6.448   1.386  1.00 20.00     0.040 A 
HETATM    2  C2  UNL     1     -33.439   5.771   2.138  1.00 20.00     0.034 A 
HETATM    3  C3  UNL     1     -32.653   8.268   2.908  1.00 20.00     0.153 A 
HETATM    4  C4  UNL     1     -32.080   7.722   1.771  1.00 20.00     0.083 A 
HETATM    5  C5  UNL     1     -33.950   6.404   3.259  1.00 20.00     0.056 A 
HETATM    6  N9  UNL     1     -33.581   7.640   3.664  1.00 20.00    -0.258 NA
ENDROOT
BRANCH   5   7
HETATM    7  C6  UNL     1     -34.948   5.737   4.078  1.00 20.00     0.027 C 
HETATM    8  C7  UNL     1     -34.845   4.492   4.598  1.00 20.00    -0.029 C 
HETATM    9  C8  UNL     1     -33.663   3.599   4.402  1.00 20.00     0.036 C 
ENDBRANCH   5   7
BRANCH   4  10
HETATM   10  O10 UNL     1     -31.153   8.407   1.057  1.00 20.00    -0.359 OA
HETATM   11  H19 UNL     1     -31.466   8.559   0.149  1.00 20.00     0.217 HD
ENDBRANCH   4  10
TORSDOF 2
ENDMDL
MODEL 5
REMARK VINA RESULT:      -0.5      1.410      1.745
REMARK  2 active torsions:
REMARK  status: ('A' for Active; 'I' for Inactive)
REMARK    1  A    between atoms: C4_4  and  O10_10 
REMARK    2  A    between atoms: C5_5  and  C6_6 
ROOT
HETATM    1  C1  UNL     1     -35.101   6.471   4.020  1.00 20.00     0.040 A 
HETATM    2  C2  UNL     1     -34.274   7.051   3.064  1.00 20.00     0.034 A 
HETATM    3  C3  UNL     1     -33.969   4.408   3.669  1.00 20.00     0.153 A 
HETATM    4  C4  UNL     1     -34.952   5.123   4.334  1.00 20.00     0.083 A 
HETATM    5  C5  UNL     1     -33.322   6.249   2.457  1.00 20.00     0.056 A 
HETATM    6  N9  UNL     1     -33.148   4.938   2.735  1.00 20.00    -0.258 NA
ENDROOT
BRANCH   5   7
HETATM    7  C6  UNL     1     -32.434   6.811   1.452  1.00 20.00     0.027 C 
HETATM    8  C7  UNL     1     -31.640   7.894   1.610  1.00 20.00    -0.029 C 
HETATM    9  C8  UNL     1     -31.553   8.691   2.872  1.00 20.00     0.036 C 
ENDBRANCH   5   7
BRANCH   4  10
HETATM   10  O10 UNL     1     -35.743   4.530   5.261  1.00 20.00    -0.359 OA
HETATM   11  H19 UNL     1     -36.457   5.130   5.536  1.00 20.00     0.217 HD
ENDBRANCH   4  10
TORSDOF 2
ENDMDL
MODEL 6
REMARK VINA RESULT:      -0.2      1.459      2.213
REMARK  2 active torsions:
REMARK  status: ('A' for Active; 'I' for Inactive)
REMARK    1  A    between atoms: C4_4  and  O10_10 
REMARK    2  A    between atoms: C5_5  and  C6_6 
ROOT
HETATM    1  C1  UNL     1     -33.963   4.344   3.698  1.00 20.00     0.040 A 
HETATM    2  C2  UNL     1     -33.129   4.918   2.745  1.00 20.00     0.034 A 
HETATM    3  C3  UNL     1     -35.031   6.453   3.959  1.00 20.00     0.153 A 
HETATM    4  C4  UNL     1     -34.934   5.119   4.322  1.00 20.00     0.083 A 
HETATM    5  C5  UNL     1     -33.307   6.260   2.452  1.00 20.00     0.056 A 
HETATM    6  N9  UNL     1     -34.239   7.045   3.037  1.00 20.00    -0.258 NA
ENDROOT
BRANCH   5   7
HETATM    7  C6  UNL     1     -32.461   6.906   1.462  1.00 20.00     0.027 C 
HETATM    8  C7  UNL     1     -31.674   7.985   1.673  1.00 20.00    -0.029 C 
HETATM    9  C8  UNL     1     -31.554   8.689   2.986  1.00 20.00     0.036 C 
ENDBRANCH   5   7
BRANCH   4  10
HETATM   10  O10 UNL     1     -35.761   4.587   5.256  1.00 20.00    -0.359 OA
HETATM   11  H19 UNL     1     -35.415   4.749   6.150  1.00 20.00     0.217 HD
ENDBRANCH   4  10
TORSDOF 2
ENDMDL
MODEL 7
REMARK VINA RESULT:       0.3      2.438      4.387
REMARK  2 active torsions:
REMARK  status: ('A' for Active; 'I' for Inactive)
REMARK    1  A    between atoms: C4_4  and  O10_10 
REMARK    2  A    between atoms: C5_5  and  C6_6 
ROOT
HETATM    1  C1  UNL     1     -32.065   6.805   0.785  1.00 20.00     0.040 A 
HETATM    2  C2  UNL     1     -32.579   5.723   1.490  1.00 20.00     0.034 A 
HETATM    3  C3  UNL     1     -32.650   8.208   2.614  1.00 20.00     0.153 A 
HETATM    4  C4  UNL     1     -32.097   8.076   1.351  1.00 20.00     0.083 A 
HETATM    5  C5  UNL     1     -33.109   5.961   2.747  1.00 20.00     0.056 A 
HETATM    6  N9  UNL     1     -33.159   7.180   3.329  1.00 20.00    -0.258 NA
ENDROOT
BRANCH   5   7
HETATM    7  C6  UNL     1     -33.659   4.861   3.524  1.00 20.00     0.027 C 
HETATM    8  C7  UNL     1     -34.811   4.888   4.233  1.00 20.00    -0.029 C 
HETATM    9  C8  UNL     1     -35.710   6.079   4.324  1.00 20.00     0.036 C 
ENDBRANCH   5   7
BRANCH   4  10
HETATM   10  O10 UNL     1     -31.604   9.150   0.687  1.00 20.00    -0.359 OA
HETATM   11  H19 UNL     1     -32.309   9.597   0.189  1.00 20.00     0.217 HD
ENDBRANCH   4  10
TORSDOF 2
ENDMDL
MODEL 8
REMARK VINA RESULT:       0.4      2.325      4.145
REMARK  2 active torsions:
REMARK  status: ('A' for Active; 'I' for Inactive)
REMARK    1  A    between atoms: C4_4  and  O10_10 
REMARK    2  A    between atoms: C5_5  and  C6_6 
ROOT
HETATM    1  C1  UNL     1     -32.653   8.304   2.641  1.00 20.00     0.040 A 
HETATM    2  C2  UNL     1     -33.168   7.241   3.375  1.00 20.00     0.034 A 
HETATM    3  C3  UNL     1     -32.102   6.771   0.907  1.00 20.00     0.153 A 
HETATM    4  C4  UNL     1     -32.107   8.073   1.382  1.00 20.00     0.083 A 
HETATM    5  C5  UNL     1     -33.117   5.977   2.810  1.00 20.00     0.056 A 
HETATM    6  N9  UNL     1     -32.595   5.714   1.591  1.00 20.00    -0.258 NA
ENDROOT
BRANCH   5   7
HETATM    7  C6  UNL     1     -33.643   4.834   3.538  1.00 20.00     0.027 C 
HETATM    8  C7  UNL     1     -34.796   4.806   4.245  1.00 20.00    -0.029 C 
HETATM    9  C8  UNL     1     -35.720   5.973   4.385  1.00 20.00     0.036 C 
ENDBRANCH   5   7
BRANCH   4  10
HETATM   10  O10 UNL     1     -31.597   9.089   0.644  1.00 20.00    -0.359 OA
HETATM   11  H19 UNL     1     -30.631   9.009   0.574  1.00 20.00     0.217 HD
ENDBRANCH   4  10
TORSDOF 2
ENDMDL
