MODEL 1
REMARK VINA RESULT:      -1.1      0.000      0.000
REMARK  1 active torsions:
REMARK  status: ('A' for Active; 'I' for Inactive)
REMARK    1  A    between atoms: C1_1  and  C4_4 
ROOT
HETATM    1  C2  UNL     1     -33.160   7.146   3.809  1.00 20.00     0.038 C 
HETATM    2  C3  UNL     1     -33.762   6.192   1.996  1.00 20.00     0.038 C 
HETATM    3  C4  UNL     1     -33.307   7.632   2.345  1.00 20.00     0.076 C 
HETATM    4  C5  UNL     1     -34.140   5.985   3.489  1.00 20.00     0.035 C 
HETATM    5  C6  UNL     1     -35.604   6.322   3.797  1.00 20.00     0.032 C 
HETATM    6 CL9  UNL     1     -33.716   4.388   4.188  1.00 20.00    -0.120 Cl
ENDROOT
BRANCH   3   7
HETATM    7  C1  UNL     1     -32.057   8.165   1.637  1.00 20.00     0.223 C 
HETATM    8  O7  UNL     1     -30.958   7.641   1.786  1.00 20.00    -0.279 OA
HETATM    9 CL8  UNL     1     -32.409   9.548   0.646  1.00 20.00    -0.043 Cl
ENDBRANCH   3   7
TORSDOF 1
ENDMDL
MODEL 2
REMARK VINA RESULT:      -0.9      1.867      4.287
REMARK  1 active torsions:
REMARK  status: ('A' for Active; 'I' for Inactive)
REMARK    1  A    between atoms: C1_1  and  C4_4 
ROOT
HETATM    1  C2  UNL     1     -33.140   8.077   3.163  1.00 20.00     0.038 C 
HETATM    2  C3  UNL     1     -32.970   6.574   1.656  1.00 20.00     0.038 C 
HETATM    3  C4  UNL     1     -33.197   6.529   3.188  1.00 20.00     0.076 C 
HETATM    4  C5  UNL     1     -32.363   7.995   1.821  1.00 20.00     0.035 C 
HETATM    5  C6  UNL     1     -30.839   7.988   2.000  1.00 20.00     0.032 C 
HETATM    6 CL9  UNL     1     -32.831   9.195   0.572  1.00 20.00    -0.120 Cl
ENDROOT
BRANCH   3   7
HETATM    7  C1  UNL     1     -34.485   5.867   3.687  1.00 20.00     0.223 C 
HETATM    8  O7  UNL     1     -35.543   6.483   3.756  1.00 20.00    -0.279 OA
HETATM    9 CL8  UNL     1     -34.237   4.202   4.121  1.00 20.00    -0.043 Cl
ENDBRANCH   3   7
TORSDOF 1
ENDMDL
MODEL 3
REMARK VINA RESULT:      -0.3      2.243      4.155
REMARK  1 active torsions:
REMARK  status: ('A' for Active; 'I' for Inactive)
REMARK    1  A    between atoms: C1_1  and  C4_4 
ROOT
HETATM    1  C2  UNL     1     -32.811   6.446   1.873  1.00 20.00     0.038 C 
HETATM    2  C3  UNL     1     -33.112   7.956   3.351  1.00 20.00     0.038 C 
HETATM    3  C4  UNL     1     -34.018   6.850   2.756  1.00 20.00     0.076 C 
HETATM    4  C5  UNL     1     -32.224   7.869   2.079  1.00 20.00     0.035 C 
HETATM    5  C6  UNL     1     -32.634   8.860   0.983  1.00 20.00     0.032 C 
HETATM    6 CL9  UNL     1     -30.453   7.952   2.355  1.00 20.00    -0.120 Cl
ENDROOT
BRANCH   3   7
HETATM    7  C1  UNL     1     -34.581   5.804   3.724  1.00 20.00     0.223 C 
HETATM    8  O7  UNL     1     -35.590   6.017   4.388  1.00 20.00    -0.279 OA
HETATM    9 CL8  UNL     1     -33.627   4.352   3.743  1.00 20.00    -0.043 Cl
ENDBRANCH   3   7
TORSDOF 1
ENDMDL
MODEL 4
REMARK VINA RESULT:      -0.1      2.133      4.052
REMARK  1 active torsions:
REMARK  status: ('A' for Active; 'I' for Inactive)
REMARK    1  A    between atoms: C1_1  and  C4_4 
ROOT
HETATM    1  C2  UNL     1     -32.388   6.409   1.821  1.00 20.00     0.038 C 
HETATM    2  C3  UNL     1     -33.148   7.856   3.194  1.00 20.00     0.038 C 
HETATM    3  C4  UNL     1     -33.748   6.585   2.542  1.00 20.00     0.076 C 
HETATM    4  C5  UNL     1     -32.113   7.922   2.037  1.00 20.00     0.035 C 
HETATM    5  C6  UNL     1     -32.569   8.797   0.863  1.00 20.00     0.032 C 
HETATM    6 CL9  UNL     1     -30.436   8.351   2.511  1.00 20.00    -0.120 Cl
ENDROOT
BRANCH   3   7
HETATM    7  C1  UNL     1     -34.213   5.466   3.480  1.00 20.00     0.223 C 
HETATM    8  O7  UNL     1     -33.618   4.396   3.552  1.00 20.00    -0.279 OA
HETATM    9 CL8  UNL     1     -35.633   5.914   4.376  1.00 20.00    -0.043 Cl
ENDBRANCH   3   7
TORSDOF 1
ENDMDL
MODEL 5
REMARK VINA RESULT:       0.0      2.009      4.182
REMARK  1 active torsions:
REMARK  status: ('A' for Active; 'I' for Inactive)
REMARK    1  A    between atoms: C1_1  and  C4_4 
ROOT
HETATM    1  C2  UNL     1     -32.175   8.455   3.018  1.00 20.00     0.038 C 
HETATM    2  C3  UNL     1     -33.503   7.353   1.762  1.00 20.00     0.038 C 
HETATM    3  C4  UNL     1     -33.082   7.220   3.247  1.00 20.00     0.076 C 
HETATM    4  C5  UNL     1     -32.196   8.150   1.496  1.00 20.00     0.035 C 
HETATM    5  C6  UNL     1     -31.029   7.267   1.037  1.00 20.00     0.032 C 
HETATM    6 CL9  UNL     1     -32.354   9.573   0.415  1.00 20.00    -0.120 Cl
ENDROOT
BRANCH   3   7
HETATM    7  C1  UNL     1     -34.187   7.326   4.303  1.00 20.00     0.223 C 
HETATM    8  O7  UNL     1     -34.137   8.154   5.207  1.00 20.00    -0.279 OA
HETATM    9 CL8  UNL     1     -35.450   6.162   4.045  1.00 20.00    -0.043 Cl
ENDBRANCH   3   7
TORSDOF 1
ENDMDL
MODEL 6
REMARK VINA RESULT:       0.2      2.287      2.884
REMARK  1 active torsions:
REMARK  status: ('A' for Active; 'I' for Inactive)
REMARK    1  A    between atoms: C1_1  and  C4_4 
ROOT
HETATM    1  C2  UNL     1     -33.351   7.277   0.661  1.00 20.00     0.038 C 
HETATM    2  C3  UNL     1     -32.057   8.136   2.126  1.00 20.00     0.038 C 
HETATM    3  C4  UNL     1     -32.217   8.330   0.597  1.00 20.00     0.076 C 
HETATM    4  C5  UNL     1     -32.743   6.749   1.989  1.00 20.00     0.035 C 
HETATM    5  C6  UNL     1     -31.749   5.597   1.786  1.00 20.00     0.032 C 
HETATM    6 CL9  UNL     1     -33.920   6.327   3.275  1.00 20.00    -0.120 Cl
ENDROOT
BRANCH   3   7
HETATM    7  C1  UNL     1     -32.570   9.736   0.100  1.00 20.00     0.223 C 
HETATM    8  O7  UNL     1     -32.865   9.950  -1.071  1.00 20.00    -0.279 OA
HETATM    9 CL8  UNL     1     -32.493  10.917   1.373  1.00 20.00    -0.043 Cl
ENDBRANCH   3   7
TORSDOF 1
ENDMDL
MODEL 7
REMARK VINA RESULT:       0.2      2.016      4.216
REMARK  1 active torsions:
REMARK  status: ('A' for Active; 'I' for Inactive)
REMARK    1  A    between atoms: C1_1  and  C4_4 
ROOT
HETATM    1  C2  UNL     1     -32.025   8.319   2.464  1.00 20.00     0.038 C 
HETATM    2  C3  UNL     1     -33.219   7.554   0.868  1.00 20.00     0.038 C 
HETATM    3  C4  UNL     1     -32.597   6.917   2.135  1.00 20.00     0.076 C 
HETATM    4  C5  UNL     1     -32.166   8.693   0.963  1.00 20.00     0.035 C 
HETATM    5  C6  UNL     1     -30.898   8.419   0.146  1.00 20.00     0.032 C 
HETATM    6 CL9  UNL     1     -32.772  10.348   0.625  1.00 20.00    -0.120 Cl
ENDROOT
BRANCH   3   7
HETATM    7  C1  UNL     1     -33.556   6.279   3.145  1.00 20.00     0.223 C 
HETATM    8  O7  UNL     1     -33.689   5.062   3.229  1.00 20.00    -0.279 OA
HETATM    9 CL8  UNL     1     -34.385   7.470   4.100  1.00 20.00    -0.043 Cl
ENDBRANCH   3   7
TORSDOF 1
ENDMDL
MODEL 8
REMARK VINA RESULT:       0.4      1.470      1.898
REMARK  1 active torsions:
REMARK  status: ('A' for Active; 'I' for Inactive)
REMARK    1  A    between atoms: C1_1  and  C4_4 
ROOT
HETATM    1  C2  UNL     1     -33.564   6.563   1.521  1.00 20.00     0.038 C 
HETATM    2  C3  UNL     1     -32.874   7.597   3.256  1.00 20.00     0.038 C 
HETATM    3  C4  UNL     1     -32.265   7.337   1.856  1.00 20.00     0.076 C 
HETATM    4  C5  UNL     1     -33.805   6.372   3.043  1.00 20.00     0.035 C 
HETATM    5  C6  UNL     1     -33.222   5.063   3.591  1.00 20.00     0.032 C 
HETATM    6 CL9  UNL     1     -35.500   6.572   3.598  1.00 20.00    -0.120 Cl
ENDROOT
BRANCH   3   7
HETATM    7  C1  UNL     1     -31.918   8.561   1.001  1.00 20.00     0.223 C 
HETATM    8  O7  UNL     1     -31.000   8.541   0.189  1.00 20.00    -0.279 OA
HETATM    9 CL8  UNL     1     -32.963   9.908   1.338  1.00 20.00    -0.043 Cl
ENDBRANCH   3   7
TORSDOF 1
ENDMDL
MODEL 9
REMARK VINA RESULT:       0.5      2.585      3.668
REMARK  1 active torsions:
REMARK  status: ('A' for Active; 'I' for Inactive)
REMARK    1  A    between atoms: C1_1  and  C4_4 
ROOT
HETATM    1  C2  UNL     1     -33.108   6.938   1.637  1.00 20.00     0.038 C 
HETATM    2  C3  UNL     1     -33.440   5.097   2.665  1.00 20.00     0.038 C 
HETATM    3  C4  UNL     1     -33.129   6.541   3.134  1.00 20.00     0.076 C 
HETATM    4  C5  UNL     1     -32.836   5.452   1.278  1.00 20.00     0.035 C 
HETATM    5  C6  UNL     1     -31.343   5.118   1.162  1.00 20.00     0.032 C 
HETATM    6 CL9  UNL     1     -33.722   4.817  -0.147  1.00 20.00    -0.120 Cl
ENDROOT
BRANCH   3   7
HETATM    7  C1  UNL     1     -34.157   7.221   4.043  1.00 20.00     0.223 C 
HETATM    8  O7  UNL     1     -33.877   8.218   4.700  1.00 20.00    -0.279 OA
HETATM    9 CL8  UNL     1     -35.696   6.414   4.007  1.00 20.00    -0.043 Cl
ENDBRANCH   3   7
TORSDOF 1
ENDMDL
