MODEL 1
REMARK VINA RESULT:      -0.3      0.000      0.000
REMARK  1 active torsions:
REMARK  status: ('A' for Active; 'I' for Inactive)
REMARK    1  A    between atoms: CA_2  and  C_3 
ROOT
ATOM      1  N   GLY A   1     -33.519   8.033   3.524  1.00 20.00    -0.249 NA
ATOM      2  CA  GLY A   1     -32.825   7.449   2.483  1.00 20.00     0.122 A 
HETATM    3  C1  UNK A   1     -34.305   7.132   4.069  1.00 20.00     0.168 A 
HETATM    4  C2  UNK A   1     -33.093   6.115   2.253  1.00 20.00     0.104 A 
HETATM    5  S3  UNK A   1     -32.375   5.174   1.040  1.00 20.00    -0.070 SA
HETATM    6  S4  UNK A   1     -34.259   5.560   3.381  1.00 20.00    -0.069 SA
ENDROOT
BRANCH   2   7
ATOM      7  C   GLY A   1     -31.899   8.272   1.743  1.00 20.00     0.292 C 
ATOM      8  O   GLY A   1     -32.246   9.063   0.852  1.00 20.00    -0.300 OA
ENDBRANCH   2   7
TORSDOF 1
ENDMDL
MODEL 2
REMARK VINA RESULT:      -0.2      3.063      3.942
REMARK  1 active torsions:
REMARK  status: ('A' for Active; 'I' for Inactive)
REMARK    1  A    between atoms: CA_2  and  C_3 
ROOT
ATOM      1  N   GLY A   1     -33.119   5.428   1.869  1.00 20.00    -0.249 NA
ATOM      2  CA  GLY A   1     -33.627   5.959   3.038  1.00 20.00     0.122 A 
HETATM    3  C1  UNK A   1     -32.373   6.337   1.279  1.00 20.00     0.168 A 
HETATM    4  C2  UNK A   1     -33.263   7.259   3.319  1.00 20.00     0.104 A 
HETATM    5  S3  UNK A   1     -33.752   8.133   4.686  1.00 20.00    -0.070 SA
HETATM    6  S4  UNK A   1     -32.239   7.851   2.077  1.00 20.00    -0.069 SA
ENDROOT
BRANCH   2   7
ATOM      7  C   GLY A   1     -34.480   5.120   3.845  1.00 20.00     0.292 C 
ATOM      8  O   GLY A   1     -34.167   3.975   4.211  1.00 20.00    -0.300 OA
ENDBRANCH   2   7
TORSDOF 1
ENDMDL
MODEL 3
REMARK VINA RESULT:       0.0      2.362      2.625
REMARK  1 active torsions:
REMARK  status: ('A' for Active; 'I' for Inactive)
REMARK    1  A    between atoms: CA_2  and  C_3 
ROOT
ATOM      1  N   GLY A   1     -34.238   5.579   3.165  1.00 20.00    -0.249 NA
ATOM      2  CA  GLY A   1     -33.302   6.173   2.341  1.00 20.00     0.122 A 
HETATM    3  C1  UNK A   1     -34.597   6.441   4.091  1.00 20.00     0.168 A 
HETATM    4  C2  UNK A   1     -32.965   7.473   2.652  1.00 20.00     0.104 A 
HETATM    5  S3  UNK A   1     -31.846   8.418   1.799  1.00 20.00    -0.070 SA
HETATM    6  S4  UNK A   1     -33.850   7.985   4.029  1.00 20.00    -0.069 SA
ENDROOT
BRANCH   2   7
ATOM      7  C   GLY A   1     -32.772   5.392   1.250  1.00 20.00     0.292 C 
ATOM      8  O   GLY A   1     -31.590   5.022   1.183  1.00 20.00    -0.300 OA
ENDBRANCH   2   7
TORSDOF 1
ENDMDL
MODEL 4
REMARK VINA RESULT:       0.1      2.753      3.157
REMARK  1 active torsions:
REMARK  status: ('A' for Active; 'I' for Inactive)
REMARK    1  A    between atoms: CA_2  and  C_3 
ROOT
ATOM      1  N   GLY A   1     -34.002   7.149   3.933  1.00 20.00    -0.249 NA
ATOM      2  CA  GLY A   1     -33.681   6.026   3.196  1.00 20.00     0.122 A 
HETATM    3  C1  UNK A   1     -33.401   8.191   3.404  1.00 20.00     0.168 A 
HETATM    4  C2  UNK A   1     -32.843   6.230   2.120  1.00 20.00     0.104 A 
HETATM    5  S3  UNK A   1     -32.302   5.020   1.064  1.00 20.00    -0.070 SA
HETATM    6  S4  UNK A   1     -32.435   7.893   2.017  1.00 20.00    -0.069 SA
ENDROOT
BRANCH   2   7
ATOM      7  C   GLY A   1     -34.242   4.764   3.612  1.00 20.00     0.292 C 
ATOM      8  O   GLY A   1     -35.121   4.657   4.481  1.00 20.00    -0.300 OA
ENDBRANCH   2   7
TORSDOF 1
ENDMDL
MODEL 5
REMARK VINA RESULT:       0.2      1.880      2.886
REMARK  1 active torsions:
REMARK  status: ('A' for Active; 'I' for Inactive)
REMARK    1  A    between atoms: CA_2  and  C_3 
ROOT
ATOM      1  N   GLY A   1     -32.591   8.035   2.386  1.00 20.00    -0.249 NA
ATOM      2  CA  GLY A   1     -33.335   7.199   3.196  1.00 20.00     0.122 A 
HETATM    3  C1  UNK A   1     -32.045   7.322   1.426  1.00 20.00     0.168 A 
HETATM    4  C2  UNK A   1     -33.343   5.866   2.840  1.00 20.00     0.104 A 
HETATM    5  S3  UNK A   1     -34.176   4.644   3.668  1.00 20.00    -0.070 SA
HETATM    6  S4  UNK A   1     -32.386   5.640   1.436  1.00 20.00    -0.069 SA
ENDROOT
BRANCH   2   7
ATOM      7  C   GLY A   1     -34.023   7.786   4.320  1.00 20.00     0.292 C 
ATOM      8  O   GLY A   1     -33.441   8.263   5.307  1.00 20.00    -0.300 OA
ENDBRANCH   2   7
TORSDOF 1
ENDMDL
MODEL 6
REMARK VINA RESULT:       0.3      3.383      3.843
REMARK  1 active torsions:
REMARK  status: ('A' for Active; 'I' for Inactive)
REMARK    1  A    between atoms: CA_2  and  C_3 
ROOT
ATOM      1  N   GLY A   1     -35.105   4.953   4.562  1.00 20.00    -0.249 NA
ATOM      2  CA  GLY A   1     -34.024   4.640   3.761  1.00 20.00     0.122 A 
HETATM    3  C1  UNK A   1     -35.460   6.197   4.329  1.00 20.00     0.168 A 
HETATM    4  C2  UNK A   1     -33.574   5.648   2.934  1.00 20.00     0.104 A 
HETATM    5  S3  UNK A   1     -32.269   5.516   1.861  1.00 20.00    -0.070 SA
HETATM    6  S4  UNK A   1     -34.538   7.049   3.158  1.00 20.00    -0.069 SA
ENDROOT
BRANCH   2   7
ATOM      7  C   GLY A   1     -33.473   3.311   3.862  1.00 20.00     0.292 C 
ATOM      8  O   GLY A   1     -33.055   2.820   4.923  1.00 20.00    -0.300 OA
ENDBRANCH   2   7
TORSDOF 1
ENDMDL
MODEL 7
REMARK VINA RESULT:       0.5      1.622      2.410
REMARK  1 active torsions:
REMARK  status: ('A' for Active; 'I' for Inactive)
REMARK    1  A    between atoms: CA_2  and  C_3 
ROOT
ATOM      1  N   GLY A   1     -32.146   6.242   1.161  1.00 20.00    -0.249 NA
ATOM      2  CA  GLY A   1     -32.507   7.274   2.005  1.00 20.00     0.122 A 
HETATM    3  C1  UNK A   1     -32.704   5.130   1.586  1.00 20.00     0.168 A 
HETATM    4  C2  UNK A   1     -33.332   6.932   3.056  1.00 20.00     0.104 A 
HETATM    5  S3  UNK A   1     -33.913   8.011   4.227  1.00 20.00    -0.070 SA
HETATM    6  S4  UNK A   1     -33.677   5.253   2.995  1.00 20.00    -0.069 SA
ENDROOT
BRANCH   2   7
ATOM      7  C   GLY A   1     -31.997   8.591   1.715  1.00 20.00     0.292 C 
ATOM      8  O   GLY A   1     -32.293   9.232   0.694  1.00 20.00    -0.300 OA
ENDBRANCH   2   7
TORSDOF 1
ENDMDL
MODEL 8
REMARK VINA RESULT:       0.7      2.261      2.835
REMARK  1 active torsions:
REMARK  status: ('A' for Active; 'I' for Inactive)
REMARK    1  A    between atoms: CA_2  and  C_3 
ROOT
ATOM      1  N   GLY A   1     -32.215   7.548   1.991  1.00 20.00    -0.249 NA
ATOM      2  CA  GLY A   1     -33.048   6.487   2.288  1.00 20.00     0.122 A 
HETATM    3  C1  UNK A   1     -32.397   8.494   2.885  1.00 20.00     0.168 A 
HETATM    4  C2  UNK A   1     -33.850   6.643   3.399  1.00 20.00     0.104 A 
HETATM    5  S3  UNK A   1     -34.955   5.492   3.971  1.00 20.00    -0.070 SA
HETATM    6  S4  UNK A   1     -33.555   8.175   4.112  1.00 20.00    -0.069 SA
ENDROOT
BRANCH   2   7
ATOM      7  C   GLY A   1     -33.006   5.334   1.423  1.00 20.00     0.292 C 
ATOM      8  O   GLY A   1     -31.990   4.977   0.805  1.00 20.00    -0.300 OA
ENDBRANCH   2   7
TORSDOF 1
ENDMDL
MODEL 9
REMARK VINA RESULT:       0.7      2.306      2.845
REMARK  1 active torsions:
REMARK  status: ('A' for Active; 'I' for Inactive)
REMARK    1  A    between atoms: CA_2  and  C_3 
ROOT
ATOM      1  N   GLY A   1     -34.069   5.664   3.515  1.00 20.00    -0.249 NA
ATOM      2  CA  GLY A   1     -33.560   6.922   3.258  1.00 20.00     0.122 A 
HETATM    3  C1  UNK A   1     -33.635   4.833   2.592  1.00 20.00     0.168 A 
HETATM    4  C2  UNK A   1     -32.749   7.029   2.147  1.00 20.00     0.104 A 
HETATM    5  S3  UNK A   1     -32.005   8.457   1.620  1.00 20.00    -0.070 SA
HETATM    6  S4  UNK A   1     -32.609   5.498   1.387  1.00 20.00    -0.069 SA
ENDROOT
BRANCH   2   7
ATOM      7  C   GLY A   1     -33.917   7.990   4.158  1.00 20.00     0.292 C 
ATOM      8  O   GLY A   1     -33.287   8.252   5.195  1.00 20.00    -0.300 OA
ENDBRANCH   2   7
TORSDOF 1
ENDMDL
