MODEL 1
REMARK VINA RESULT:      -2.1      0.000      0.000
REMARK  1 active torsions:
REMARK  status: ('A' for Active; 'I' for Inactive)
REMARK    1  A    between atoms: C1_1  and  C6_6 
ROOT
HETATM    1  C1  UNL     1     -32.196   8.711   1.211  1.00 20.00    -0.100 C 
HETATM    2  C2  UNL     1     -32.527   9.548   0.417  1.00 20.00    -0.111 C 
HETATM    3  C7  UNL     1     -32.932  10.567  -0.551  1.00 20.00     0.112 C 
ENDROOT
BRANCH   1   4
HETATM    4  C6  UNL     1     -31.788   7.684   2.187  1.00 20.00     0.090 C 
HETATM    5  C4  UNL     1     -32.664   7.717   3.424  1.00 20.00     0.072 C 
HETATM    6  C3  UNL     1     -33.714   6.728   3.018  1.00 20.00     0.004 C 
HETATM    7  C8  UNL     1     -35.019   6.666   3.742  1.00 20.00     0.065 C 
HETATM    8  N9  UNL     1     -33.419   5.922   2.045  1.00 20.00    -0.297 NA
HETATM    9  C5  UNL     1     -32.038   6.278   1.647  1.00 20.00     0.166 C 
ENDBRANCH   1   4
TORSDOF 1
ENDMDL
MODEL 2
REMARK VINA RESULT:      -0.9      2.543      4.810
REMARK  1 active torsions:
REMARK  status: ('A' for Active; 'I' for Inactive)
REMARK    1  A    between atoms: C1_1  and  C6_6 
ROOT
HETATM    1  C1  UNL     1     -34.018   4.605   3.717  1.00 20.00    -0.100 C 
HETATM    2  C2  UNL     1     -33.598   3.619   4.257  1.00 20.00    -0.111 C 
HETATM    3  C7  UNL     1     -33.087   2.418   4.916  1.00 20.00     0.112 C 
ENDROOT
BRANCH   1   4
HETATM    4  C6  UNL     1     -34.533   5.816   3.052  1.00 20.00     0.090 C 
HETATM    5  C4  UNL     1     -34.816   6.919   4.054  1.00 20.00     0.072 C 
HETATM    6  C3  UNL     1     -33.494   7.627   4.031  1.00 20.00     0.004 C 
HETATM    7  C8  UNL     1     -33.124   8.579   5.120  1.00 20.00     0.065 C 
HETATM    8  N9  UNL     1     -32.721   7.397   3.014  1.00 20.00    -0.297 NA
HETATM    9  C5  UNL     1     -33.472   6.450   2.158  1.00 20.00     0.166 C 
ENDBRANCH   1   4
TORSDOF 1
ENDMDL
MODEL 3
REMARK VINA RESULT:       0.2      1.527      4.035
REMARK  1 active torsions:
REMARK  status: ('A' for Active; 'I' for Inactive)
REMARK    1  A    between atoms: C1_1  and  C6_6 
ROOT
HETATM    1  C1  UNL     1     -33.175   6.889   2.704  1.00 20.00    -0.100 C 
HETATM    2  C2  UNL     1     -34.197   6.622   3.274  1.00 20.00    -0.111 C 
HETATM    3  C7  UNL     1     -35.443   6.297   3.967  1.00 20.00     0.112 C 
ENDROOT
BRANCH   1   4
HETATM    4  C6  UNL     1     -31.919   7.216   2.006  1.00 20.00     0.090 C 
HETATM    5  C4  UNL     1     -32.174   7.617   0.566  1.00 20.00     0.072 C 
HETATM    6  C3  UNL     1     -32.314   9.100   0.737  1.00 20.00     0.004 C 
HETATM    7  C8  UNL     1     -32.937   9.932  -0.335  1.00 20.00     0.065 C 
HETATM    8  N9  UNL     1     -31.841   9.613   1.831  1.00 20.00    -0.297 NA
HETATM    9  C5  UNL     1     -31.275   8.472   2.586  1.00 20.00     0.166 C 
ENDBRANCH   1   4
TORSDOF 1
ENDMDL
MODEL 4
REMARK VINA RESULT:       0.6      3.187      4.018
REMARK  1 active torsions:
REMARK  status: ('A' for Active; 'I' for Inactive)
REMARK    1  A    between atoms: C1_1  and  C6_6 
ROOT
HETATM    1  C1  UNL     1     -33.653   7.326   4.061  1.00 20.00    -0.100 C 
HETATM    2  C2  UNL     1     -33.034   8.095   4.744  1.00 20.00    -0.111 C 
HETATM    3  C7  UNL     1     -32.280   9.031   5.576  1.00 20.00     0.112 C 
ENDROOT
BRANCH   1   4
HETATM    4  C6  UNL     1     -34.413   6.381   3.223  1.00 20.00     0.090 C 
HETATM    5  C4  UNL     1     -33.625   5.111   2.967  1.00 20.00     0.072 C 
HETATM    6  C3  UNL     1     -34.109   4.278   4.116  1.00 20.00     0.004 C 
HETATM    7  C8  UNL     1     -33.361   3.054   4.533  1.00 20.00     0.065 C 
HETATM    8  N9  UNL     1     -35.209   4.652   4.693  1.00 20.00    -0.297 NA
HETATM    9  C5  UNL     1     -35.646   5.860   3.955  1.00 20.00     0.166 C 
ENDBRANCH   1   4
TORSDOF 1
ENDMDL
