MODEL 1
REMARK VINA RESULT:      -2.3      0.000      0.000
REMARK  3 active torsions:
REMARK  status: ('A' for Active; 'I' for Inactive)
REMARK    1  A    between atoms: C1_1  and  C3_3 
REMARK    2  A    between atoms: C2_2  and  C7_7 
REMARK    3  A    between atoms: C7_7  and  C8_8 
ROOT
HETATM    1  C1  UNL     1     -33.559   5.100   3.130  1.00 20.00    -0.029 C 
HETATM    2  C2  UNL     1     -33.046   5.763   2.270  1.00 20.00    -0.098 C 
ENDROOT
BRANCH   2   3
HETATM    3  C7  UNL     1     -32.419   6.574   1.217  1.00 20.00     0.098 C 
BRANCH   3   4
HETATM    4  C8  UNL     1     -31.905   7.939   1.710  1.00 20.00    -0.012 C 
HETATM    5  C5  UNL     1     -32.221   9.068   0.728  1.00 20.00     0.010 C 
HETATM    6  C6  UNL     1     -32.418   8.281   3.110  1.00 20.00     0.010 C 
ENDBRANCH   3   4
ENDBRANCH   2   3
BRANCH   1   7
HETATM    7  C3  UNL     1     -34.170   4.297   4.162  1.00 20.00     0.198 C 
HETATM    8  C4  UNL     1     -33.391   3.100   4.618  1.00 20.00     0.106 C 
HETATM    9  O9  UNL     1     -35.265   4.612   4.610  1.00 20.00    -0.284 OA
ENDBRANCH   1   7
TORSDOF 3
ENDMDL
MODEL 2
REMARK VINA RESULT:      -2.2      2.975      5.291
REMARK  3 active torsions:
REMARK  status: ('A' for Active; 'I' for Inactive)
REMARK    1  A    between atoms: C1_1  and  C3_3 
REMARK    2  A    between atoms: C2_2  and  C7_7 
REMARK    3  A    between atoms: C7_7  and  C8_8 
ROOT
HETATM    1  C1  UNL     1     -32.351   8.114   1.214  1.00 20.00    -0.029 C 
HETATM    2  C2  UNL     1     -32.798   7.227   1.889  1.00 20.00    -0.098 C 
ENDROOT
BRANCH   2   3
HETATM    3  C7  UNL     1     -33.343   6.140   2.714  1.00 20.00     0.098 C 
BRANCH   3   4
HETATM    4  C8  UNL     1     -34.517   6.573   3.610  1.00 20.00    -0.012 C 
HETATM    5  C5  UNL     1     -35.143   5.393   4.358  1.00 20.00     0.010 C 
HETATM    6  C6  UNL     1     -34.124   7.683   4.587  1.00 20.00     0.010 C 
ENDBRANCH   3   4
ENDBRANCH   2   3
BRANCH   1   7
HETATM    7  C3  UNL     1     -31.819   9.178   0.396  1.00 20.00     0.198 C 
HETATM    8  C4  UNL     1     -32.632  10.435   0.333  1.00 20.00     0.106 C 
HETATM    9  O9  UNL     1     -30.760   9.018  -0.196  1.00 20.00    -0.284 OA
ENDBRANCH   1   7
TORSDOF 3
ENDMDL
MODEL 3
REMARK VINA RESULT:      -2.1      0.863      1.672
REMARK  3 active torsions:
REMARK  status: ('A' for Active; 'I' for Inactive)
REMARK    1  A    between atoms: C1_1  and  C3_3 
REMARK    2  A    between atoms: C2_2  and  C7_7 
REMARK    3  A    between atoms: C7_7  and  C8_8 
ROOT
HETATM    1  C1  UNL     1     -34.092   6.020   3.810  1.00 20.00    -0.029 C 
HETATM    2  C2  UNL     1     -33.642   7.049   3.386  1.00 20.00    -0.098 C 
ENDROOT
BRANCH   2   3
HETATM    3  C7  UNL     1     -33.090   8.309   2.866  1.00 20.00     0.098 C 
BRANCH   3   4
HETATM    4  C8  UNL     1     -32.001   8.112   1.796  1.00 20.00    -0.012 C 
HETATM    5  C5  UNL     1     -31.972   6.682   1.253  1.00 20.00     0.010 C 
HETATM    6  C6  UNL     1     -32.122   9.121   0.651  1.00 20.00     0.010 C 
ENDBRANCH   3   4
ENDBRANCH   2   3
BRANCH   1   7
HETATM    7  C3  UNL     1     -34.625   4.781   4.322  1.00 20.00     0.198 C 
HETATM    8  C4  UNL     1     -33.714   3.591   4.260  1.00 20.00     0.106 C 
HETATM    9  O9  UNL     1     -35.763   4.748   4.771  1.00 20.00    -0.284 OA
ENDBRANCH   1   7
TORSDOF 3
ENDMDL
MODEL 4
REMARK VINA RESULT:      -1.9      3.092      5.167
REMARK  3 active torsions:
REMARK  status: ('A' for Active; 'I' for Inactive)
REMARK    1  A    between atoms: C1_1  and  C3_3 
REMARK    2  A    between atoms: C2_2  and  C7_7 
REMARK    3  A    between atoms: C7_7  and  C8_8 
ROOT
HETATM    1  C1  UNL     1     -32.358   8.092   1.210  1.00 20.00    -0.029 C 
HETATM    2  C2  UNL     1     -32.778   7.174   1.861  1.00 20.00    -0.098 C 
ENDROOT
BRANCH   2   3
HETATM    3  C7  UNL     1     -33.291   6.049   2.656  1.00 20.00     0.098 C 
BRANCH   3   4
HETATM    4  C8  UNL     1     -34.054   6.482   3.921  1.00 20.00    -0.012 C 
HETATM    5  C5  UNL     1     -33.855   7.965   4.240  1.00 20.00     0.010 C 
HETATM    6  C6  UNL     1     -35.544   6.141   3.846  1.00 20.00     0.010 C 
ENDBRANCH   3   4
ENDBRANCH   2   3
BRANCH   1   7
HETATM    7  C3  UNL     1     -31.857   9.193   0.422  1.00 20.00     0.198 C 
HETATM    8  C4  UNL     1     -32.696  10.435   0.412  1.00 20.00     0.106 C 
HETATM    9  O9  UNL     1     -30.803   9.074  -0.188  1.00 20.00    -0.284 OA
ENDBRANCH   1   7
TORSDOF 3
ENDMDL
MODEL 5
REMARK VINA RESULT:      -1.7      1.228      2.103
REMARK  3 active torsions:
REMARK  status: ('A' for Active; 'I' for Inactive)
REMARK    1  A    between atoms: C1_1  and  C3_3 
REMARK    2  A    between atoms: C2_2  and  C7_7 
REMARK    3  A    between atoms: C7_7  and  C8_8 
ROOT
HETATM    1  C1  UNL     1     -33.568   6.727   2.977  1.00 20.00    -0.029 C 
HETATM    2  C2  UNL     1     -32.797   7.444   2.399  1.00 20.00    -0.098 C 
ENDROOT
BRANCH   2   3
HETATM    3  C7  UNL     1     -31.852   8.319   1.690  1.00 20.00     0.098 C 
BRANCH   3   4
HETATM    4  C8  UNL     1     -32.506   9.170   0.586  1.00 20.00    -0.012 C 
HETATM    5  C5  UNL     1     -32.800  10.598   1.051  1.00 20.00     0.010 C 
HETATM    6  C6  UNL     1     -31.683   9.181  -0.703  1.00 20.00     0.010 C 
ENDBRANCH   3   4
ENDBRANCH   2   3
BRANCH   1   7
HETATM    7  C3  UNL     1     -34.489   5.865   3.678  1.00 20.00     0.198 C 
HETATM    8  C4  UNL     1     -34.039   4.451   3.894  1.00 20.00     0.106 C 
HETATM    9  O9  UNL     1     -35.567   6.305   4.055  1.00 20.00    -0.284 OA
ENDBRANCH   1   7
TORSDOF 3
ENDMDL
MODEL 6
REMARK VINA RESULT:      -1.7      2.875      5.411
REMARK  3 active torsions:
REMARK  status: ('A' for Active; 'I' for Inactive)
REMARK    1  A    between atoms: C1_1  and  C3_3 
REMARK    2  A    between atoms: C2_2  and  C7_7 
REMARK    3  A    between atoms: C7_7  and  C8_8 
ROOT
HETATM    1  C1  UNL     1     -32.364   8.492   1.539  1.00 20.00    -0.029 C 
HETATM    2  C2  UNL     1     -32.752   7.895   2.506  1.00 20.00    -0.098 C 
ENDROOT
BRANCH   2   3
HETATM    3  C7  UNL     1     -33.227   7.163   3.689  1.00 20.00     0.098 C 
BRANCH   3   4
HETATM    4  C8  UNL     1     -34.248   6.058   3.364  1.00 20.00    -0.012 C 
HETATM    5  C5  UNL     1     -33.718   4.661   3.692  1.00 20.00     0.010 C 
HETATM    6  C6  UNL     1     -35.598   6.297   4.044  1.00 20.00     0.010 C 
ENDBRANCH   3   4
ENDBRANCH   2   3
BRANCH   1   7
HETATM    7  C3  UNL     1     -31.905   9.210   0.374  1.00 20.00     0.198 C 
HETATM    8  C4  UNL     1     -32.716  10.404  -0.030  1.00 20.00     0.106 C 
HETATM    9  O9  UNL     1     -30.906   8.829  -0.221  1.00 20.00    -0.284 OA
ENDBRANCH   1   7
TORSDOF 3
ENDMDL
MODEL 7
REMARK VINA RESULT:      -1.6      2.240      2.767
REMARK  3 active torsions:
REMARK  status: ('A' for Active; 'I' for Inactive)
REMARK    1  A    between atoms: C1_1  and  C3_3 
REMARK    2  A    between atoms: C2_2  and  C7_7 
REMARK    3  A    between atoms: C7_7  and  C8_8 
ROOT
HETATM    1  C1  UNL     1     -33.266   7.688   3.014  1.00 20.00    -0.029 C 
HETATM    2  C2  UNL     1     -32.544   7.971   2.096  1.00 20.00    -0.098 C 
ENDROOT
BRANCH   2   3
HETATM    3  C7  UNL     1     -31.659   8.317   0.974  1.00 20.00     0.098 C 
BRANCH   3   4
HETATM    4  C8  UNL     1     -31.985   9.673   0.325  1.00 20.00    -0.012 C 
HETATM    5  C5  UNL     1     -32.724   9.518  -1.006  1.00 20.00     0.010 C 
HETATM    6  C6  UNL     1     -32.759  10.598   1.267  1.00 20.00     0.010 C 
ENDBRANCH   3   4
ENDBRANCH   2   3
BRANCH   1   7
HETATM    7  C3  UNL     1     -34.134   7.357   4.118  1.00 20.00     0.198 C 
HETATM    8  C4  UNL     1     -35.130   6.263   3.873  1.00 20.00     0.106 C 
HETATM    9  O9  UNL     1     -34.028   7.961   5.177  1.00 20.00    -0.284 OA
ENDBRANCH   1   7
TORSDOF 3
ENDMDL
MODEL 8
REMARK VINA RESULT:      -1.5      2.791      5.170
REMARK  3 active torsions:
REMARK  status: ('A' for Active; 'I' for Inactive)
REMARK    1  A    between atoms: C1_1  and  C3_3 
REMARK    2  A    between atoms: C2_2  and  C7_7 
REMARK    3  A    between atoms: C7_7  and  C8_8 
ROOT
HETATM    1  C1  UNL     1     -32.369   7.874   1.161  1.00 20.00    -0.029 C 
HETATM    2  C2  UNL     1     -32.757   6.842   1.636  1.00 20.00    -0.098 C 
ENDROOT
BRANCH   2   3
HETATM    3  C7  UNL     1     -33.231   5.578   2.220  1.00 20.00     0.098 C 
BRANCH   3   4
HETATM    4  C8  UNL     1     -33.805   5.729   3.640  1.00 20.00    -0.012 C 
HETATM    5  C5  UNL     1     -34.923   6.772   3.707  1.00 20.00     0.010 C 
HETATM    6  C6  UNL     1     -34.277   4.395   4.221  1.00 20.00     0.010 C 
ENDBRANCH   3   4
ENDBRANCH   2   3
BRANCH   1   7
HETATM    7  C3  UNL     1     -31.899   9.110   0.583  1.00 20.00     0.198 C 
HETATM    8  C4  UNL     1     -32.797  10.300   0.742  1.00 20.00     0.106 C 
HETATM    9  O9  UNL     1     -30.822   9.139   0.002  1.00 20.00    -0.284 OA
ENDBRANCH   1   7
TORSDOF 3
ENDMDL
MODEL 9
REMARK VINA RESULT:      -1.4      1.801      2.777
REMARK  3 active torsions:
REMARK  status: ('A' for Active; 'I' for Inactive)
REMARK    1  A    between atoms: C1_1  and  C3_3 
REMARK    2  A    between atoms: C2_2  and  C7_7 
REMARK    3  A    between atoms: C7_7  and  C8_8 
ROOT
HETATM    1  C1  UNL     1     -33.978   4.164   4.449  1.00 20.00    -0.029 C 
HETATM    2  C2  UNL     1     -34.504   5.186   4.100  1.00 20.00    -0.098 C 
ENDROOT
BRANCH   2   3
HETATM    3  C7  UNL     1     -35.147   6.437   3.672  1.00 20.00     0.098 C 
BRANCH   3   4
HETATM    4  C8  UNL     1     -34.176   7.627   3.567  1.00 20.00    -0.012 C 
HETATM    5  C5  UNL     1     -33.597   8.026   4.927  1.00 20.00     0.010 C 
HETATM    6  C6  UNL     1     -33.055   7.375   2.557  1.00 20.00     0.010 C 
ENDBRANCH   3   4
ENDBRANCH   2   3
BRANCH   1   7
HETATM    7  C3  UNL     1     -33.342   2.940   4.874  1.00 20.00     0.198 C 
HETATM    8  C4  UNL     1     -32.450   3.040   6.074  1.00 20.00     0.106 C 
HETATM    9  O9  UNL     1     -33.546   1.903   4.258  1.00 20.00    -0.284 OA
ENDBRANCH   1   7
TORSDOF 3
ENDMDL
