MODEL 1
REMARK VINA RESULT:       1.0      0.000      0.000
REMARK  1 active torsions:
REMARK  status: ('A' for Active; 'I' for Inactive)
REMARK    1  A    between atoms: C2_2  and  C3_3 
ROOT
HETATM    1  C1  UNL     1     -31.405   7.741   1.790  1.00 20.00    -0.011 C 
HETATM    2  C2  UNL     1     -32.462   8.339   1.219  1.00 20.00    -0.019 C 
HETATM    3  C4  UNL     1     -32.259   5.524   1.239  1.00 20.00     0.010 C 
HETATM    4  C5  UNL     1     -33.477   6.229   0.571  1.00 20.00     0.011 C 
HETATM    5  C6  UNL     1     -31.933   6.466   2.426  1.00 20.00     0.017 C 
HETATM    6  C7  UNL     1     -33.680   7.478   1.468  1.00 20.00     0.030 C 
HETATM    7  C8  UNL     1     -33.340   6.943   2.886  1.00 20.00    -0.033 C 
HETATM    8  C9  UNL     1     -33.318   8.026   3.992  1.00 20.00     0.016 C 
HETATM    9  C10 UNL     1     -34.268   5.825   3.397  1.00 20.00     0.016 C 
ENDROOT
BRANCH   2  10
HETATM   10  C3  UNL     1     -32.436   9.584   0.481  1.00 20.00     0.265 C 
HETATM   11  O11 UNL     1     -32.882   9.701  -0.663  1.00 20.00    -0.302 OA
ENDBRANCH   2  10
TORSDOF 1
ENDMDL
MODEL 2
REMARK VINA RESULT:       2.0      2.774      4.147
REMARK  1 active torsions:
REMARK  status: ('A' for Active; 'I' for Inactive)
REMARK    1  A    between atoms: C2_2  and  C3_3 
ROOT
HETATM    1  C1  UNL     1     -35.085   6.177   3.497  1.00 20.00    -0.011 C 
HETATM    2  C2  UNL     1     -34.084   5.340   3.809  1.00 20.00    -0.019 C 
HETATM    3  C4  UNL     1     -34.172   6.568   1.270  1.00 20.00     0.010 C 
HETATM    4  C5  UNL     1     -33.019   5.588   1.640  1.00 20.00     0.011 C 
HETATM    5  C6  UNL     1     -34.474   7.259   2.623  1.00 20.00     0.017 C 
HETATM    6  C7  UNL     1     -32.821   5.853   3.155  1.00 20.00     0.030 C 
HETATM    7  C8  UNL     1     -33.066   7.383   3.272  1.00 20.00    -0.033 C 
HETATM    8  C9  UNL     1     -33.075   7.922   4.723  1.00 20.00     0.016 C 
HETATM    9  C10 UNL     1     -32.068   8.261   2.493  1.00 20.00     0.016 C 
ENDROOT
BRANCH   2  10
HETATM   10  C3  UNL     1     -34.198   4.146   4.619  1.00 20.00     0.265 C 
HETATM   11  O11 UNL     1     -33.421   3.191   4.529  1.00 20.00    -0.302 OA
ENDBRANCH   2  10
TORSDOF 1
ENDMDL
MODEL 3
REMARK VINA RESULT:       3.2      1.931      3.538
REMARK  1 active torsions:
REMARK  status: ('A' for Active; 'I' for Inactive)
REMARK    1  A    between atoms: C2_2  and  C3_3 
ROOT
HETATM    1  C1  UNL     1     -31.220   7.050   1.661  1.00 20.00    -0.011 C 
HETATM    2  C2  UNL     1     -32.508   6.697   1.536  1.00 20.00    -0.019 C 
HETATM    3  C4  UNL     1     -31.749   8.661   3.415  1.00 20.00     0.010 C 
HETATM    4  C5  UNL     1     -33.240   8.236   3.266  1.00 20.00     0.011 C 
HETATM    5  C6  UNL     1     -31.218   8.539   1.964  1.00 20.00     0.017 C 
HETATM    6  C7  UNL     1     -33.357   7.929   1.750  1.00 20.00     0.030 C 
HETATM    7  C8  UNL     1     -32.432   9.001   1.110  1.00 20.00    -0.033 C 
HETATM    8  C9  UNL     1     -32.235   8.848  -0.418  1.00 20.00     0.016 C 
HETATM    9  C10 UNL     1     -32.871  10.459   1.343  1.00 20.00     0.016 C 
ENDROOT
BRANCH   2  10
HETATM   10  C3  UNL     1     -32.998   5.364   1.257  1.00 20.00     0.265 C 
HETATM   11  O11 UNL     1     -32.517   4.634   0.385  1.00 20.00    -0.302 OA
ENDBRANCH   2  10
TORSDOF 1
ENDMDL
MODEL 4
REMARK VINA RESULT:       3.3      1.874      3.262
REMARK  1 active torsions:
REMARK  status: ('A' for Active; 'I' for Inactive)
REMARK    1  A    between atoms: C2_2  and  C3_3 
ROOT
HETATM    1  C1  UNL     1     -33.283   5.958   0.724  1.00 20.00    -0.011 C 
HETATM    2  C2  UNL     1     -32.174   5.586   1.381  1.00 20.00    -0.019 C 
HETATM    3  C4  UNL     1     -32.867   8.315   1.195  1.00 20.00     0.010 C 
HETATM    4  C5  UNL     1     -31.578   7.871   1.949  1.00 20.00     0.011 C 
HETATM    5  C6  UNL     1     -33.844   7.148   1.484  1.00 20.00     0.017 C 
HETATM    6  C7  UNL     1     -31.995   6.510   2.564  1.00 20.00     0.030 C 
HETATM    7  C8  UNL     1     -33.484   6.746   2.942  1.00 20.00    -0.033 C 
HETATM    8  C9  UNL     1     -34.221   5.487   3.460  1.00 20.00     0.016 C 
HETATM    9  C10 UNL     1     -33.720   7.846   3.995  1.00 20.00     0.016 C 
ENDROOT
BRANCH   2  10
HETATM   10  C3  UNL     1     -31.295   4.496   1.013  1.00 20.00     0.265 C 
HETATM   11  O11 UNL     1     -31.266   4.004  -0.118  1.00 20.00    -0.302 OA
ENDBRANCH   2  10
TORSDOF 1
ENDMDL
MODEL 5
REMARK VINA RESULT:       3.5      1.111      2.522
REMARK  1 active torsions:
REMARK  status: ('A' for Active; 'I' for Inactive)
REMARK    1  A    between atoms: C2_2  and  C3_3 
ROOT
HETATM    1  C1  UNL     1     -33.800   7.187   1.175  1.00 20.00    -0.011 C 
HETATM    2  C2  UNL     1     -32.738   7.687   1.824  1.00 20.00    -0.019 C 
HETATM    3  C4  UNL     1     -35.011   6.836   3.262  1.00 20.00     0.010 C 
HETATM    4  C5  UNL     1     -33.774   7.425   4.005  1.00 20.00     0.011 C 
HETATM    5  C6  UNL     1     -34.363   6.093   2.066  1.00 20.00     0.017 C 
HETATM    6  C7  UNL     1     -32.590   6.939   3.130  1.00 20.00     0.030 C 
HETATM    7  C8  UNL     1     -33.052   5.526   2.679  1.00 20.00    -0.033 C 
HETATM    8  C9  UNL     1     -32.112   4.841   1.657  1.00 20.00     0.016 C 
HETATM    9  C10 UNL     1     -33.255   4.514   3.823  1.00 20.00     0.016 C 
ENDROOT
BRANCH   2  10
HETATM   10  C3  UNL     1     -31.889   8.763   1.359  1.00 20.00     0.265 C 
HETATM   11  O11 UNL     1     -32.197   9.514   0.429  1.00 20.00    -0.302 OA
ENDBRANCH   2  10
TORSDOF 1
ENDMDL
MODEL 6
REMARK VINA RESULT:       3.5      0.981      2.428
REMARK  1 active torsions:
REMARK  status: ('A' for Active; 'I' for Inactive)
REMARK    1  A    between atoms: C2_2  and  C3_3 
ROOT
HETATM    1  C1  UNL     1     -33.679   8.791   1.890  1.00 20.00    -0.011 C 
HETATM    2  C2  UNL     1     -32.603   8.918   1.099  1.00 20.00    -0.019 C 
HETATM    3  C4  UNL     1     -32.325   7.937   3.730  1.00 20.00     0.010 C 
HETATM    4  C5  UNL     1     -31.082   8.096   2.804  1.00 20.00     0.011 C 
HETATM    5  C6  UNL     1     -33.442   7.547   2.728  1.00 20.00     0.017 C 
HETATM    6  C7  UNL     1     -31.659   7.776   1.401  1.00 20.00     0.030 C 
HETATM    7  C8  UNL     1     -32.690   6.654   1.701  1.00 20.00    -0.033 C 
HETATM    8  C9  UNL     1     -33.543   6.224   0.482  1.00 20.00     0.016 C 
HETATM    9  C10 UNL     1     -32.090   5.360   2.283  1.00 20.00     0.016 C 
ENDROOT
BRANCH   2  10
HETATM   10  C3  UNL     1     -32.380   9.973   0.133  1.00 20.00     0.265 C 
HETATM   11  O11 UNL     1     -33.019  10.075  -0.918  1.00 20.00    -0.302 OA
ENDBRANCH   2  10
TORSDOF 1
ENDMDL
MODEL 7
REMARK VINA RESULT:       3.9      2.067      3.726
REMARK  1 active torsions:
REMARK  status: ('A' for Active; 'I' for Inactive)
REMARK    1  A    between atoms: C2_2  and  C3_3 
ROOT
HETATM    1  C1  UNL     1     -31.935   6.378   1.864  1.00 20.00    -0.011 C 
HETATM    2  C2  UNL     1     -33.106   6.719   2.423  1.00 20.00    -0.019 C 
HETATM    3  C4  UNL     1     -30.832   8.352   2.774  1.00 20.00     0.010 C 
HETATM    4  C5  UNL     1     -32.194   8.735   3.425  1.00 20.00     0.011 C 
HETATM    5  C6  UNL     1     -31.269   7.678   1.449  1.00 20.00     0.017 C 
HETATM    6  C7  UNL     1     -33.224   8.226   2.383  1.00 20.00     0.030 C 
HETATM    7  C8  UNL     1     -32.514   8.511   1.031  1.00 20.00    -0.033 C 
HETATM    8  C9  UNL     1     -33.261   7.966  -0.211  1.00 20.00     0.016 C 
HETATM    9  C10 UNL     1     -32.234   9.999   0.746  1.00 20.00     0.016 C 
ENDROOT
BRANCH   2  10
HETATM   10  C3  UNL     1     -34.080   5.804   2.979  1.00 20.00     0.265 C 
HETATM   11  O11 UNL     1     -34.904   6.132   3.837  1.00 20.00    -0.302 OA
ENDBRANCH   2  10
TORSDOF 1
ENDMDL
MODEL 8
REMARK VINA RESULT:       4.0      2.111      3.515
REMARK  1 active torsions:
REMARK  status: ('A' for Active; 'I' for Inactive)
REMARK    1  A    between atoms: C2_2  and  C3_3 
ROOT
HETATM    1  C1  UNL     1     -33.851   7.574   2.458  1.00 20.00    -0.011 C 
HETATM    2  C2  UNL     1     -32.813   7.954   3.219  1.00 20.00    -0.019 C 
HETATM    3  C4  UNL     1     -32.425   6.158   1.077  1.00 20.00     0.010 C 
HETATM    4  C5  UNL     1     -31.229   6.599   1.972  1.00 20.00     0.011 C 
HETATM    5  C6  UNL     1     -33.309   7.430   1.046  1.00 20.00     0.017 C 
HETATM    6  C7  UNL     1     -31.594   8.063   2.331  1.00 20.00     0.030 C 
HETATM    7  C8  UNL     1     -32.263   8.580   1.027  1.00 20.00    -0.033 C 
HETATM    8  C9  UNL     1     -32.870  10.000   1.138  1.00 20.00     0.016 C 
HETATM    9  C10 UNL     1     -31.344   8.600  -0.209  1.00 20.00     0.016 C 
ENDROOT
BRANCH   2  10
HETATM   10  C3  UNL     1     -32.852   8.202   4.644  1.00 20.00     0.265 C 
HETATM   11  O11 UNL     1     -33.888   8.140   5.314  1.00 20.00    -0.302 OA
ENDBRANCH   2  10
TORSDOF 1
ENDMDL
