MODEL 1
REMARK VINA RESULT:       1.3      0.000      0.000
REMARK  1 active torsions:
REMARK  status: ('A' for Active; 'I' for Inactive)
REMARK    1  A    between atoms: C1_1  and  C9_9 
ROOT
HETATM    1  C2  UNL     1     -32.050   7.991   2.536  1.00 20.00     0.010 C 
HETATM    2  C3  UNL     1     -33.231   6.843   4.554  1.00 20.00     0.025 C 
HETATM    3  C4  UNL     1     -33.189   5.656   2.360  1.00 20.00     0.025 C 
HETATM    4  C5  UNL     1     -35.115   6.810   3.115  1.00 20.00     0.026 C 
HETATM    5  C6  UNL     1     -33.103   8.097   3.668  1.00 20.00    -0.008 C 
HETATM    6  C7  UNL     1     -33.066   7.085   1.797  1.00 20.00    -0.008 C 
HETATM    7  C8  UNL     1     -34.181   7.872   2.559  1.00 20.00    -0.005 C 
HETATM    8  C9  UNL     1     -34.010   5.891   3.637  1.00 20.00     0.049 C 
ENDROOT
BRANCH   8   9
HETATM    9  C1  UNL     1     -34.551   4.642   4.283  1.00 20.00     0.181 C 
HETATM   10  O10 UNL     1     -33.801   3.629   4.210  1.00 20.00    -0.647 OA
HETATM   11  O11 UNL     1     -35.689   4.771   4.816  1.00 20.00    -0.647 OA
ENDBRANCH   8   9
TORSDOF 1
ENDMDL
MODEL 2
REMARK VINA RESULT:       1.4      0.956      1.156
REMARK  1 active torsions:
REMARK  status: ('A' for Active; 'I' for Inactive)
REMARK    1  A    between atoms: C1_1  and  C9_9 
ROOT
HETATM    1  C2  UNL     1     -31.355   7.543   1.891  1.00 20.00     0.010 C 
HETATM    2  C3  UNL     1     -33.329   7.341   3.577  1.00 20.00     0.025 C 
HETATM    3  C4  UNL     1     -32.454   5.264   2.507  1.00 20.00     0.025 C 
HETATM    4  C5  UNL     1     -34.448   6.303   1.763  1.00 20.00     0.026 C 
HETATM    5  C6  UNL     1     -32.773   8.010   2.306  1.00 20.00    -0.008 C 
HETATM    6  C7  UNL     1     -32.026   6.238   1.393  1.00 20.00    -0.008 C 
HETATM    7  C8  UNL     1     -33.308   7.100   1.152  1.00 20.00    -0.005 C 
HETATM    8  C9  UNL     1     -33.714   5.950   3.057  1.00 20.00     0.049 C 
ENDROOT
BRANCH   8   9
HETATM    9  C1  UNL     1     -34.546   5.101   3.983  1.00 20.00     0.181 C 
HETATM   10  O10 UNL     1     -34.102   3.937   4.192  1.00 20.00    -0.647 OA
HETATM   11  O11 UNL     1     -35.583   5.666   4.432  1.00 20.00    -0.647 OA
ENDBRANCH   8   9
TORSDOF 1
ENDMDL
MODEL 3
REMARK VINA RESULT:       1.6      1.129      2.442
REMARK  1 active torsions:
REMARK  status: ('A' for Active; 'I' for Inactive)
REMARK    1  A    between atoms: C1_1  and  C9_9 
ROOT
HETATM    1  C2  UNL     1     -32.375   8.697   1.095  1.00 20.00     0.010 C 
HETATM    2  C3  UNL     1     -34.077   6.745   1.370  1.00 20.00     0.025 C 
HETATM    3  C4  UNL     1     -32.957   7.651   3.408  1.00 20.00     0.025 C 
HETATM    4  C5  UNL     1     -32.253   5.629   2.396  1.00 20.00     0.026 C 
HETATM    5  C6  UNL     1     -32.813   7.274   0.666  1.00 20.00    -0.008 C 
HETATM    6  C7  UNL     1     -31.858   8.048   2.404  1.00 20.00    -0.008 C 
HETATM    7  C8  UNL     1     -31.647   6.747   1.564  1.00 20.00    -0.005 C 
HETATM    8  C9  UNL     1     -33.533   6.384   2.759  1.00 20.00     0.049 C 
ENDROOT
BRANCH   8   9
HETATM    9  C1  UNL     1     -34.450   5.578   3.642  1.00 20.00     0.181 C 
HETATM   10  O10 UNL     1     -35.495   6.177   4.022  1.00 20.00    -0.647 OA
HETATM   11  O11 UNL     1     -34.054   4.404   3.888  1.00 20.00    -0.647 OA
ENDBRANCH   8   9
TORSDOF 1
ENDMDL
MODEL 4
REMARK VINA RESULT:       1.7      3.030      4.110
REMARK  1 active torsions:
REMARK  status: ('A' for Active; 'I' for Inactive)
REMARK    1  A    between atoms: C1_1  and  C9_9 
ROOT
HETATM    1  C2  UNL     1     -34.983   6.420   3.733  1.00 20.00     0.010 C 
HETATM    2  C3  UNL     1     -34.199   8.666   2.673  1.00 20.00     0.025 C 
HETATM    3  C4  UNL     1     -33.097   6.550   1.943  1.00 20.00     0.025 C 
HETATM    4  C5  UNL     1     -32.067   8.020   3.488  1.00 20.00     0.026 C 
HETATM    5  C6  UNL     1     -34.468   7.864   3.961  1.00 20.00    -0.008 C 
HETATM    6  C7  UNL     1     -33.530   6.059   3.337  1.00 20.00    -0.008 C 
HETATM    7  C8  UNL     1     -33.083   7.218   4.285  1.00 20.00    -0.005 C 
HETATM    8  C9  UNL     1     -32.878   8.049   2.192  1.00 20.00     0.049 C 
ENDROOT
BRANCH   8   9
HETATM    9  C1  UNL     1     -32.170   8.781   1.081  1.00 20.00     0.181 C 
HETATM   10  O10 UNL     1     -32.674   9.894   0.762  1.00 20.00    -0.647 OA
HETATM   11  O11 UNL     1     -31.160   8.185   0.613  1.00 20.00    -0.647 OA
ENDBRANCH   8   9
TORSDOF 1
ENDMDL
MODEL 5
REMARK VINA RESULT:       1.8      1.181      2.150
REMARK  1 active torsions:
REMARK  status: ('A' for Active; 'I' for Inactive)
REMARK    1  A    between atoms: C1_1  and  C9_9 
ROOT
HETATM    1  C2  UNL     1     -32.225   8.618   0.826  1.00 20.00     0.010 C 
HETATM    2  C3  UNL     1     -32.639   6.284   1.905  1.00 20.00     0.025 C 
HETATM    3  C4  UNL     1     -34.216   8.144   2.435  1.00 20.00     0.025 C 
HETATM    4  C5  UNL     1     -32.518   7.482   3.948  1.00 20.00     0.026 C 
HETATM    5  C6  UNL     1     -31.652   7.440   1.654  1.00 20.00    -0.008 C 
HETATM    6  C7  UNL     1     -32.997   9.026   2.105  1.00 20.00    -0.008 C 
HETATM    7  C8  UNL     1     -31.835   8.355   2.908  1.00 20.00    -0.005 C 
HETATM    8  C9  UNL     1     -33.546   6.878   2.991  1.00 20.00     0.049 C 
ENDROOT
BRANCH   8   9
HETATM    9  C1  UNL     1     -34.480   5.914   3.676  1.00 20.00     0.181 C 
HETATM   10  O10 UNL     1     -34.029   4.744   3.830  1.00 20.00    -0.647 OA
HETATM   11  O11 UNL     1     -35.596   6.403   4.010  1.00 20.00    -0.647 OA
ENDBRANCH   8   9
TORSDOF 1
ENDMDL
MODEL 6
REMARK VINA RESULT:       2.0      3.664      4.680
REMARK  1 active torsions:
REMARK  status: ('A' for Active; 'I' for Inactive)
REMARK    1  A    between atoms: C1_1  and  C9_9 
ROOT
HETATM    1  C2  UNL     1     -33.677   6.177   2.753  1.00 20.00     0.010 C 
HETATM    2  C3  UNL     1     -33.331   8.743   2.473  1.00 20.00     0.025 C 
HETATM    3  C4  UNL     1     -33.191   7.290   0.449  1.00 20.00     0.025 C 
HETATM    4  C5  UNL     1     -31.249   8.110   1.530  1.00 20.00     0.026 C 
HETATM    5  C6  UNL     1     -32.917   7.451   3.202  1.00 20.00    -0.008 C 
HETATM    6  C7  UNL     1     -32.799   6.211   1.476  1.00 20.00    -0.008 C 
HETATM    7  C8  UNL     1     -31.717   6.921   2.353  1.00 20.00    -0.005 C 
HETATM    8  C9  UNL     1     -32.647   8.566   1.111  1.00 20.00     0.049 C 
ENDROOT
BRANCH   8   9
HETATM    9  C1  UNL     1     -32.618   9.781   0.219  1.00 20.00     0.181 C 
HETATM   10  O10 UNL     1     -32.373  10.872   0.805  1.00 20.00    -0.647 OA
HETATM   11  O11 UNL     1     -32.842   9.548  -1.002  1.00 20.00    -0.647 OA
ENDBRANCH   8   9
TORSDOF 1
ENDMDL
MODEL 7
REMARK VINA RESULT:       2.0      1.775      2.942
REMARK  1 active torsions:
REMARK  status: ('A' for Active; 'I' for Inactive)
REMARK    1  A    between atoms: C1_1  and  C9_9 
ROOT
HETATM    1  C2  UNL     1     -32.066   8.409   0.147  1.00 20.00     0.010 C 
HETATM    2  C3  UNL     1     -32.844   6.653   1.904  1.00 20.00     0.025 C 
HETATM    3  C4  UNL     1     -33.623   9.010   2.145  1.00 20.00     0.025 C 
HETATM    4  C5  UNL     1     -31.859   8.141   3.465  1.00 20.00     0.026 C 
HETATM    5  C6  UNL     1     -31.664   7.312   1.165  1.00 20.00    -0.008 C 
HETATM    6  C7  UNL     1     -32.330   9.324   1.369  1.00 20.00    -0.008 C 
HETATM    7  C8  UNL     1     -31.246   8.480   2.116  1.00 20.00    -0.005 C 
HETATM    8  C9  UNL     1     -33.229   7.741   2.915  1.00 20.00     0.049 C 
ENDROOT
BRANCH   8   9
HETATM    9  C1  UNL     1     -34.192   7.331   3.999  1.00 20.00     0.181 C 
HETATM   10  O10 UNL     1     -34.990   6.403   3.688  1.00 20.00    -0.647 OA
HETATM   11  O11 UNL     1     -34.074   7.970   5.082  1.00 20.00    -0.647 OA
ENDBRANCH   8   9
TORSDOF 1
ENDMDL
MODEL 8
REMARK VINA RESULT:       2.1      2.271      3.540
REMARK  1 active torsions:
REMARK  status: ('A' for Active; 'I' for Inactive)
REMARK    1  A    between atoms: C1_1  and  C9_9 
ROOT
HETATM    1  C2  UNL     1     -35.801   5.537   4.052  1.00 20.00     0.010 C 
HETATM    2  C3  UNL     1     -34.678   6.826   2.088  1.00 20.00     0.025 C 
HETATM    3  C4  UNL     1     -33.311   5.186   3.379  1.00 20.00     0.025 C 
HETATM    4  C5  UNL     1     -33.135   7.519   3.750  1.00 20.00     0.026 C 
HETATM    5  C6  UNL     1     -35.484   6.906   3.398  1.00 20.00    -0.008 C 
HETATM    6  C7  UNL     1     -34.318   5.506   4.499  1.00 20.00    -0.008 C 
HETATM    7  C8  UNL     1     -34.381   7.068   4.494  1.00 20.00    -0.005 C 
HETATM    8  C9  UNL     1     -33.268   6.513   2.606  1.00 20.00     0.049 C 
ENDROOT
BRANCH   8   9
HETATM    9  C1  UNL     1     -32.150   6.627   1.601  1.00 20.00     0.181 C 
HETATM   10  O10 UNL     1     -31.736   7.801   1.388  1.00 20.00    -0.647 OA
HETATM   11  O11 UNL     1     -31.771   5.530   1.102  1.00 20.00    -0.647 OA
ENDBRANCH   8   9
TORSDOF 1
ENDMDL
MODEL 9
REMARK VINA RESULT:       2.1      1.651      2.394
REMARK  1 active torsions:
REMARK  status: ('A' for Active; 'I' for Inactive)
REMARK    1  A    between atoms: C1_1  and  C9_9 
ROOT
HETATM    1  C2  UNL     1     -31.183   5.700   1.338  1.00 20.00     0.010 C 
HETATM    2  C3  UNL     1     -32.503   7.515   2.659  1.00 20.00     0.025 C 
HETATM    3  C4  UNL     1     -33.116   5.118   2.983  1.00 20.00     0.025 C 
HETATM    4  C5  UNL     1     -34.396   6.555   1.603  1.00 20.00     0.026 C 
HETATM    5  C6  UNL     1     -32.007   7.012   1.290  1.00 20.00    -0.008 C 
HETATM    6  C7  UNL     1     -32.529   4.967   1.567  1.00 20.00    -0.008 C 
HETATM    7  C8  UNL     1     -33.194   6.137   0.772  1.00 20.00    -0.005 C 
HETATM    8  C9  UNL     1     -33.664   6.553   2.945  1.00 20.00     0.049 C 
ENDROOT
BRANCH   8   9
HETATM    9  C1  UNL     1     -34.563   6.921   4.097  1.00 20.00     0.181 C 
HETATM   10  O10 UNL     1     -34.187   7.915   4.778  1.00 20.00    -0.647 OA
HETATM   11  O11 UNL     1     -35.580   6.184   4.231  1.00 20.00    -0.647 OA
ENDBRANCH   8   9
TORSDOF 1
ENDMDL
