MODEL 1
REMARK VINA RESULT:      -0.3      0.000      0.000
REMARK  0 active torsions:
REMARK  status: ('A' for Active; 'I' for Inactive)
ROOT
HETATM    1  C1  UNL     1     -31.930   7.101   1.142  1.00 20.00     0.057 C 
HETATM    2  C2  UNL     1     -34.075   4.903   3.196  1.00 20.00    -0.019 C 
HETATM    3  C3  UNL     1     -33.346   5.916   2.712  1.00 20.00    -0.051 C 
HETATM    4  C4  UNL     1     -32.380   5.935   1.635  1.00 20.00    -0.052 C 
HETATM    5  C5  UNL     1     -32.468   8.407   1.619  1.00 20.00     0.150 C 
HETATM    6  C6  UNL     1     -34.957   5.350   4.318  1.00 20.00     0.028 C 
HETATM    7  C7  UNL     1     -33.661   8.395   2.554  1.00 20.00     0.092 C 
HETATM    8  C8  UNL     1     -34.923   6.874   4.186  1.00 20.00     0.013 C 
HETATM    9  C9  UNL     1     -33.603   7.185   3.474  1.00 20.00     0.026 C 
HETATM   10  C10 UNL     1     -31.878   4.622   1.103  1.00 20.00     0.049 C 
HETATM   11  O11 UNL     1     -31.989   9.456   1.195  1.00 20.00    -0.293 OA
ENDROOT
TORSDOF 0
ENDMDL
MODEL 2
REMARK VINA RESULT:       0.4      1.691      2.867
REMARK  0 active torsions:
REMARK  status: ('A' for Active; 'I' for Inactive)
ROOT
HETATM    1  C1  UNL     1     -31.738   6.761   1.055  1.00 20.00     0.057 C 
HETATM    2  C2  UNL     1     -33.980   7.789   3.807  1.00 20.00    -0.019 C 
HETATM    3  C3  UNL     1     -33.391   7.159   2.782  1.00 20.00    -0.051 C 
HETATM    4  C4  UNL     1     -32.371   7.624   1.868  1.00 20.00    -0.052 C 
HETATM    5  C5  UNL     1     -31.997   5.294   1.125  1.00 20.00     0.150 C 
HETATM    6  C6  UNL     1     -34.982   6.912   4.486  1.00 20.00     0.028 C 
HETATM    7  C7  UNL     1     -32.865   4.770   2.251  1.00 20.00     0.092 C 
HETATM    8  C8  UNL     1     -34.636   5.523   3.946  1.00 20.00     0.013 C 
HETATM    9  C9  UNL     1     -33.951   5.777   2.599  1.00 20.00     0.026 C 
HETATM   10  C10 UNL     1     -32.057   9.093   1.835  1.00 20.00     0.049 C 
HETATM   11  O11 UNL     1     -31.450   4.539   0.324  1.00 20.00    -0.293 OA
ENDROOT
TORSDOF 0
ENDMDL
MODEL 3
REMARK VINA RESULT:       0.5      1.945      3.482
REMARK  0 active torsions:
REMARK  status: ('A' for Active; 'I' for Inactive)
ROOT
HETATM    1  C1  UNL     1     -33.727   5.161   2.758  1.00 20.00     0.057 C 
HETATM    2  C2  UNL     1     -31.545   7.607   1.052  1.00 20.00    -0.019 C 
HETATM    3  C3  UNL     1     -32.540   6.993   1.705  1.00 20.00    -0.051 C 
HETATM    4  C4  UNL     1     -32.814   5.582   1.866  1.00 20.00    -0.052 C 
HETATM    5  C5  UNL     1     -34.422   6.116   3.668  1.00 20.00     0.150 C 
HETATM    6  C6  UNL     1     -31.656   9.094   1.157  1.00 20.00     0.028 C 
HETATM    7  C7  UNL     1     -33.956   7.558   3.690  1.00 20.00     0.092 C 
HETATM    8  C8  UNL     1     -32.663   9.277   2.295  1.00 20.00     0.013 C 
HETATM    9  C9  UNL     1     -33.490   7.988   2.307  1.00 20.00     0.026 C 
HETATM   10  C10 UNL     1     -32.072   4.606   0.998  1.00 20.00     0.049 C 
HETATM   11  O11 UNL     1     -35.299   5.708   4.427  1.00 20.00    -0.293 OA
ENDROOT
TORSDOF 0
ENDMDL
MODEL 4
REMARK VINA RESULT:       1.1      2.202      4.345
REMARK  0 active torsions:
REMARK  status: ('A' for Active; 'I' for Inactive)
ROOT
HETATM    1  C1  UNL     1     -34.228   6.062   4.238  1.00 20.00     0.057 C 
HETATM    2  C2  UNL     1     -32.619   8.595   2.082  1.00 20.00    -0.019 C 
HETATM    3  C3  UNL     1     -32.963   7.473   2.727  1.00 20.00    -0.051 C 
HETATM    4  C4  UNL     1     -33.812   7.290   3.884  1.00 20.00    -0.052 C 
HETATM    5  C5  UNL     1     -33.908   4.864   3.409  1.00 20.00     0.150 C 
HETATM    6  C6  UNL     1     -31.720   8.307   0.923  1.00 20.00     0.028 C 
HETATM    7  C7  UNL     1     -33.246   5.076   2.063  1.00 20.00     0.092 C 
HETATM    8  C8  UNL     1     -31.880   6.796   0.741  1.00 20.00     0.013 C 
HETATM    9  C9  UNL     1     -32.305   6.270   2.115  1.00 20.00     0.026 C 
HETATM   10  C10 UNL     1     -34.193   8.499   4.690  1.00 20.00     0.049 C 
HETATM   11  O11 UNL     1     -34.248   3.747   3.794  1.00 20.00    -0.293 OA
ENDROOT
TORSDOF 0
ENDMDL
MODEL 5
REMARK VINA RESULT:       1.2      1.032      2.672
REMARK  0 active torsions:
REMARK  status: ('A' for Active; 'I' for Inactive)
ROOT
HETATM    1  C1  UNL     1     -32.709   8.440   2.762  1.00 20.00     0.057 C 
HETATM    2  C2  UNL     1     -34.123   5.402   4.320  1.00 20.00    -0.019 C 
HETATM    3  C3  UNL     1     -33.642   6.317   3.470  1.00 20.00    -0.051 C 
HETATM    4  C4  UNL     1     -33.423   7.736   3.656  1.00 20.00    -0.052 C 
HETATM    5  C5  UNL     1     -32.045   7.777   1.602  1.00 20.00     0.150 C 
HETATM    6  C6  UNL     1     -34.167   4.044   3.696  1.00 20.00     0.028 C 
HETATM    7  C7  UNL     1     -32.048   6.263   1.540  1.00 20.00     0.092 C 
HETATM    8  C8  UNL     1     -33.282   4.213   2.459  1.00 20.00     0.013 C 
HETATM    9  C9  UNL     1     -33.335   5.708   2.132  1.00 20.00     0.026 C 
HETATM   10  C10 UNL     1     -34.034   8.400   4.857  1.00 20.00     0.049 C 
HETATM   11  O11 UNL     1     -31.454   8.458   0.766  1.00 20.00    -0.293 OA
ENDROOT
TORSDOF 0
ENDMDL
MODEL 6
REMARK VINA RESULT:       2.1      1.629      3.309
REMARK  0 active torsions:
REMARK  status: ('A' for Active; 'I' for Inactive)
ROOT
HETATM    1  C1  UNL     1     -34.307   6.378   4.448  1.00 20.00     0.057 C 
HETATM    2  C2  UNL     1     -32.405   4.848   1.673  1.00 20.00    -0.019 C 
HETATM    3  C3  UNL     1     -33.088   5.677   2.474  1.00 20.00    -0.051 C 
HETATM    4  C4  UNL     1     -33.898   5.387   3.637  1.00 20.00    -0.052 C 
HETATM    5  C5  UNL     1     -33.872   7.788   4.233  1.00 20.00     0.150 C 
HETATM    6  C6  UNL     1     -31.697   5.594   0.589  1.00 20.00     0.028 C 
HETATM    7  C7  UNL     1     -32.818   8.063   3.179  1.00 20.00     0.092 C 
HETATM    8  C8  UNL     1     -31.751   7.041   1.085  1.00 20.00     0.013 C 
HETATM    9  C9  UNL     1     -32.969   7.100   2.011  1.00 20.00     0.026 C 
HETATM   10  C10 UNL     1     -34.289   3.960   3.897  1.00 20.00     0.049 C 
HETATM   11  O11 UNL     1     -34.316   8.680   4.953  1.00 20.00    -0.293 OA
ENDROOT
TORSDOF 0
ENDMDL
MODEL 7
REMARK VINA RESULT:       2.2      1.695      3.257
REMARK  0 active torsions:
REMARK  status: ('A' for Active; 'I' for Inactive)
ROOT
HETATM    1  C1  UNL     1     -32.930   8.483   3.198  1.00 20.00     0.057 C 
HETATM    2  C2  UNL     1     -32.183   5.971   0.593  1.00 20.00    -0.019 C 
HETATM    3  C3  UNL     1     -32.486   6.603   1.734  1.00 20.00    -0.051 C 
HETATM    4  C4  UNL     1     -32.347   7.999   2.088  1.00 20.00    -0.052 C 
HETATM    5  C5  UNL     1     -33.807   7.631   4.051  1.00 20.00     0.150 C 
HETATM    6  C6  UNL     1     -32.506   4.513   0.673  1.00 20.00     0.028 C 
HETATM    7  C7  UNL     1     -34.171   6.247   3.551  1.00 20.00     0.092 C 
HETATM    8  C8  UNL     1     -33.404   4.434   1.909  1.00 20.00     0.013 C 
HETATM    9  C9  UNL     1     -33.018   5.646   2.762  1.00 20.00     0.026 C 
HETATM   10  C10 UNL     1     -31.517   8.882   1.200  1.00 20.00     0.049 C 
HETATM   11  O11 UNL     1     -34.273   8.085   5.094  1.00 20.00    -0.293 OA
ENDROOT
TORSDOF 0
ENDMDL
MODEL 8
REMARK VINA RESULT:       2.5      1.745      2.929
REMARK  0 active torsions:
REMARK  status: ('A' for Active; 'I' for Inactive)
ROOT
HETATM    1  C1  UNL     1     -32.811   4.377   2.266  1.00 20.00     0.057 C 
HETATM    2  C2  UNL     1     -34.462   7.011   4.265  1.00 20.00    -0.019 C 
HETATM    3  C3  UNL     1     -33.643   6.309   3.471  1.00 20.00    -0.051 C 
HETATM    4  C4  UNL     1     -33.530   4.878   3.285  1.00 20.00    -0.052 C 
HETATM    5  C5  UNL     1     -32.183   5.267   1.247  1.00 20.00     0.150 C 
HETATM    6  C6  UNL     1     -34.232   8.481   4.126  1.00 20.00     0.028 C 
HETATM    7  C7  UNL     1     -32.511   6.746   1.281  1.00 20.00     0.092 C 
HETATM    8  C8  UNL     1     -33.404   8.573   2.842  1.00 20.00     0.013 C 
HETATM    9  C9  UNL     1     -32.712   7.213   2.716  1.00 20.00     0.026 C 
HETATM   10  C10 UNL     1     -34.212   3.973   4.271  1.00 20.00     0.049 C 
HETATM   11  O11 UNL     1     -31.477   4.781   0.365  1.00 20.00    -0.293 OA
ENDROOT
TORSDOF 0
ENDMDL
MODEL 9
REMARK VINA RESULT:       2.5      0.699      2.762
REMARK  0 active torsions:
REMARK  status: ('A' for Active; 'I' for Inactive)
ROOT
HETATM    1  C1  UNL     1     -33.342   8.640   2.603  1.00 20.00     0.057 C 
HETATM    2  C2  UNL     1     -33.524   5.050   3.461  1.00 20.00    -0.019 C 
HETATM    3  C3  UNL     1     -33.402   6.228   2.836  1.00 20.00    -0.051 C 
HETATM    4  C4  UNL     1     -33.764   7.557   3.277  1.00 20.00    -0.052 C 
HETATM    5  C5  UNL     1     -32.420   8.519   1.437  1.00 20.00     0.150 C 
HETATM    6  C6  UNL     1     -33.005   3.927   2.621  1.00 20.00     0.028 C 
HETATM    7  C7  UNL     1     -31.826   7.159   1.127  1.00 20.00     0.092 C 
HETATM    8  C8  UNL     1     -32.201   4.657   1.543  1.00 20.00     0.013 C 
HETATM    9  C9  UNL     1     -32.820   6.056   1.462  1.00 20.00     0.026 C 
HETATM   10  C10 UNL     1     -34.641   7.692   4.489  1.00 20.00     0.049 C 
HETATM   11  O11 UNL     1     -32.104   9.522   0.801  1.00 20.00    -0.293 OA
ENDROOT
TORSDOF 0
ENDMDL
