MODEL 1
REMARK VINA RESULT:       1.2      0.000      0.000
REMARK  0 active torsions:
REMARK  status: ('A' for Active; 'I' for Inactive)
ROOT
HETATM    1  C1  UNL     1     -33.486   7.615   3.740  1.00 20.00    -0.013 C 
HETATM    2  C2  UNL     1     -33.921   6.697   2.850  1.00 20.00     0.004 C 
HETATM    3  C3  UNL     1     -32.435   8.489   1.097  1.00 20.00     0.341 C 
HETATM    4  C4  UNL     1     -32.190   8.386   3.502  1.00 20.00     0.127 C 
HETATM    5  C5  UNL     1     -31.618   6.572   1.971  1.00 20.00     0.137 C 
HETATM    6  C6  UNL     1     -33.077   6.385   1.621  1.00 20.00     0.169 C 
HETATM    7  N7  UNL     1     -31.679   7.999   2.183  1.00 20.00    -0.222 NA
HETATM    8  O8  UNL     1     -32.485   9.633   0.671  1.00 20.00    -0.245 OA
HETATM    9  O9  UNL     1     -33.245   7.453   0.652  1.00 20.00    -0.298 OA
ENDROOT
TORSDOF 0
ENDMDL
MODEL 2
REMARK VINA RESULT:       1.6      2.495      3.328
REMARK  0 active torsions:
REMARK  status: ('A' for Active; 'I' for Inactive)
ROOT
HETATM    1  C1  UNL     1     -33.757   4.556   3.593  1.00 20.00    -0.013 C 
HETATM    2  C2  UNL     1     -34.767   4.959   4.394  1.00 20.00     0.004 C 
HETATM    3  C3  UNL     1     -33.495   7.514   3.800  1.00 20.00     0.341 C 
HETATM    4  C4  UNL     1     -33.189   5.482   2.520  1.00 20.00     0.127 C 
HETATM    5  C5  UNL     1     -35.301   6.691   2.718  1.00 20.00     0.137 C 
HETATM    6  C6  UNL     1     -35.386   6.335   4.185  1.00 20.00     0.169 C 
HETATM    7  N7  UNL     1     -33.862   6.779   2.652  1.00 20.00    -0.222 NA
HETATM    8  O8  UNL     1     -32.448   8.107   4.010  1.00 20.00    -0.245 OA
HETATM    9  O9  UNL     1     -34.499   7.339   4.743  1.00 20.00    -0.298 OA
ENDROOT
TORSDOF 0
ENDMDL
MODEL 3
REMARK VINA RESULT:       1.8      2.401      3.360
REMARK  0 active torsions:
REMARK  status: ('A' for Active; 'I' for Inactive)
ROOT
HETATM    1  C1  UNL     1     -32.970   7.895   3.785  1.00 20.00    -0.013 C 
HETATM    2  C2  UNL     1     -32.362   7.524   2.638  1.00 20.00     0.004 C 
HETATM    3  C3  UNL     1     -33.737   5.053   3.347  1.00 20.00     0.341 C 
HETATM    4  C4  UNL     1     -34.276   7.242   4.229  1.00 20.00     0.127 C 
HETATM    5  C5  UNL     1     -34.522   6.591   1.889  1.00 20.00     0.137 C 
HETATM    6  C6  UNL     1     -33.020   6.480   1.745  1.00 20.00     0.169 C 
HETATM    7  N7  UNL     1     -34.587   6.177   3.270  1.00 20.00    -0.222 NA
HETATM    8  O8  UNL     1     -33.714   4.185   4.206  1.00 20.00    -0.245 OA
HETATM    9  O9  UNL     1     -32.806   5.166   2.322  1.00 20.00    -0.298 OA
ENDROOT
TORSDOF 0
ENDMDL
MODEL 4
REMARK VINA RESULT:       1.8      1.543      2.624
REMARK  0 active torsions:
REMARK  status: ('A' for Active; 'I' for Inactive)
ROOT
HETATM    1  C1  UNL     1     -33.274   7.515   3.936  1.00 20.00    -0.013 C 
HETATM    2  C2  UNL     1     -32.259   8.315   3.542  1.00 20.00     0.004 C 
HETATM    3  C3  UNL     1     -32.081   6.195   1.551  1.00 20.00     0.341 C 
HETATM    4  C4  UNL     1     -34.018   6.640   2.932  1.00 20.00     0.127 C 
HETATM    5  C5  UNL     1     -33.140   8.167   1.241  1.00 20.00     0.137 C 
HETATM    6  C6  UNL     1     -31.892   8.389   2.066  1.00 20.00     0.169 C 
HETATM    7  N7  UNL     1     -33.356   6.795   1.632  1.00 20.00    -0.222 NA
HETATM    8  O8  UNL     1     -31.812   5.006   1.474  1.00 20.00    -0.245 OA
HETATM    9  O9  UNL     1     -31.137   7.202   1.710  1.00 20.00    -0.298 OA
ENDROOT
TORSDOF 0
ENDMDL
MODEL 5
REMARK VINA RESULT:       2.2      0.950      1.422
REMARK  0 active torsions:
REMARK  status: ('A' for Active; 'I' for Inactive)
ROOT
HETATM    1  C1  UNL     1     -33.706   6.592   2.392  1.00 20.00    -0.013 C 
HETATM    2  C2  UNL     1     -32.731   6.166   1.559  1.00 20.00     0.004 C 
HETATM    3  C3  UNL     1     -32.455   9.055   1.284  1.00 20.00     0.341 C 
HETATM    4  C4  UNL     1     -33.598   7.939   3.102  1.00 20.00     0.127 C 
HETATM    5  C5  UNL     1     -31.204   7.766   2.656  1.00 20.00     0.137 C 
HETATM    6  C6  UNL     1     -31.480   7.016   1.372  1.00 20.00     0.169 C 
HETATM    7  N7  UNL     1     -32.381   8.599   2.618  1.00 20.00    -0.222 NA
HETATM    8  O8  UNL     1     -33.073  10.015   0.850  1.00 20.00    -0.245 OA
HETATM    9  O9  UNL     1     -31.794   8.126   0.491  1.00 20.00    -0.298 OA
ENDROOT
TORSDOF 0
ENDMDL
MODEL 6
REMARK VINA RESULT:       2.3      2.074      2.748
REMARK  0 active torsions:
REMARK  status: ('A' for Active; 'I' for Inactive)
ROOT
HETATM    1  C1  UNL     1     -31.250   7.085   1.688  1.00 20.00    -0.013 C 
HETATM    2  C2  UNL     1     -31.703   5.812   1.692  1.00 20.00     0.004 C 
HETATM    3  C3  UNL     1     -33.701   7.103   3.375  1.00 20.00     0.341 C 
HETATM    4  C4  UNL     1     -32.209   8.259   1.860  1.00 20.00     0.127 C 
HETATM    5  C5  UNL     1     -33.948   6.693   1.166  1.00 20.00     0.137 C 
HETATM    6  C6  UNL     1     -33.198   5.549   1.811  1.00 20.00     0.169 C 
HETATM    7  N7  UNL     1     -33.545   7.708   2.109  1.00 20.00    -0.222 NA
HETATM    8  O8  UNL     1     -33.794   7.650   4.464  1.00 20.00    -0.245 OA
HETATM    9  O9  UNL     1     -33.598   5.730   3.194  1.00 20.00    -0.298 OA
ENDROOT
TORSDOF 0
ENDMDL
MODEL 7
REMARK VINA RESULT:       2.3      1.605      2.861
REMARK  0 active torsions:
REMARK  status: ('A' for Active; 'I' for Inactive)
ROOT
HETATM    1  C1  UNL     1     -32.380   9.419   0.379  1.00 20.00    -0.013 C 
HETATM    2  C2  UNL     1     -32.967   9.659   1.571  1.00 20.00     0.004 C 
HETATM    3  C3  UNL     1     -32.526   6.783   1.752  1.00 20.00     0.341 C 
HETATM    4  C4  UNL     1     -31.398   8.263   0.205  1.00 20.00     0.127 C 
HETATM    5  C5  UNL     1     -31.160   8.353   2.634  1.00 20.00     0.137 C 
HETATM    6  C6  UNL     1     -32.599   8.799   2.774  1.00 20.00     0.169 C 
HETATM    7  N7  UNL     1     -31.357   7.522   1.470  1.00 20.00    -0.222 NA
HETATM    8  O8  UNL     1     -32.905   5.745   1.230  1.00 20.00    -0.245 OA
HETATM    9  O9  UNL     1     -33.274   7.520   2.661  1.00 20.00    -0.298 OA
ENDROOT
TORSDOF 0
ENDMDL
MODEL 8
REMARK VINA RESULT:       2.4      2.224      3.348
REMARK  0 active torsions:
REMARK  status: ('A' for Active; 'I' for Inactive)
ROOT
HETATM    1  C1  UNL     1     -32.778   5.999   1.770  1.00 20.00    -0.013 C 
HETATM    2  C2  UNL     1     -32.719   7.348   1.822  1.00 20.00     0.004 C 
HETATM    3  C3  UNL     1     -34.991   6.836   3.575  1.00 20.00     0.341 C 
HETATM    4  C4  UNL     1     -33.333   5.192   2.940  1.00 20.00     0.127 C 
HETATM    5  C5  UNL     1     -32.872   7.180   4.281  1.00 20.00     0.137 C 
HETATM    6  C6  UNL     1     -33.158   8.069   3.091  1.00 20.00     0.169 C 
HETATM    7  N7  UNL     1     -33.819   6.143   3.945  1.00 20.00    -0.222 NA
HETATM    8  O8  UNL     1     -36.134   6.407   3.521  1.00 20.00    -0.245 OA
HETATM    9  O9  UNL     1     -34.608   8.097   3.137  1.00 20.00    -0.298 OA
ENDROOT
TORSDOF 0
ENDMDL
MODEL 9
REMARK VINA RESULT:       3.1      1.759      3.023
REMARK  0 active torsions:
REMARK  status: ('A' for Active; 'I' for Inactive)
ROOT
HETATM    1  C1  UNL     1     -33.094   8.076   0.249  1.00 20.00    -0.013 C 
HETATM    2  C2  UNL     1     -32.244   8.700   1.094  1.00 20.00     0.004 C 
HETATM    3  C3  UNL     1     -33.543   6.830   2.914  1.00 20.00     0.341 C 
HETATM    4  C4  UNL     1     -33.536   6.637   0.502  1.00 20.00     0.127 C 
HETATM    5  C5  UNL     1     -31.549   6.476   1.911  1.00 20.00     0.137 C 
HETATM    6  C6  UNL     1     -31.674   7.936   2.283  1.00 20.00     0.169 C 
HETATM    7  N7  UNL     1     -32.963   6.215   1.784  1.00 20.00    -0.222 NA
HETATM    8  O8  UNL     1     -34.640   6.616   3.407  1.00 20.00    -0.245 OA
HETATM    9  O9  UNL     1     -32.690   7.849   3.316  1.00 20.00    -0.298 OA
ENDROOT
TORSDOF 0
ENDMDL
