MODEL 1
REMARK VINA RESULT:       3.3      0.000      0.000
REMARK  1 active torsions:
REMARK  status: ('A' for Active; 'I' for Inactive)
REMARK    1  A    between atoms: C5_5  and  C9_9 
ROOT
HETATM    1  C1  UNL     1     -33.126   5.428   0.513  1.00 20.00    -0.029 C 
HETATM    2  C2  UNL     1     -33.885   6.541   0.523  1.00 20.00    -0.021 C 
HETATM    3  C3  UNL     1     -32.330   8.332   1.195  1.00 20.00    -0.021 C 
HETATM    4  C4  UNL     1     -31.295   7.643   1.703  1.00 20.00    -0.024 C 
HETATM    5  C6  UNL     1     -31.991   5.229   1.506  1.00 20.00     0.036 C 
HETATM    6  C7  UNL     1     -33.621   7.628   1.547  1.00 20.00     0.045 C 
HETATM    7  C8  UNL     1     -31.809   6.437   2.464  1.00 20.00     0.026 C 
HETATM    8  C9  UNL     1     -33.178   6.997   2.877  1.00 20.00     0.106 C 
ENDROOT
BRANCH   8   9
HETATM    9  C5  UNL     1     -34.140   6.000   3.498  1.00 20.00     0.178 C 
HETATM   10  O10 UNL     1     -33.669   4.846   3.695  1.00 20.00    -0.648 OA
HETATM   11  O11 UNL     1     -35.294   6.455   3.737  1.00 20.00    -0.648 OA
ENDBRANCH   8   9
TORSDOF 1
ENDMDL
MODEL 2
REMARK VINA RESULT:       3.5      2.624      3.782
REMARK  1 active torsions:
REMARK  status: ('A' for Active; 'I' for Inactive)
REMARK    1  A    between atoms: C5_5  and  C9_9 
ROOT
HETATM    1  C1  UNL     1     -32.022   8.486   3.574  1.00 20.00    -0.029 C 
HETATM    2  C2  UNL     1     -33.297   8.200   3.244  1.00 20.00    -0.021 C 
HETATM    3  C3  UNL     1     -33.136   6.108   1.950  1.00 20.00    -0.021 C 
HETATM    4  C4  UNL     1     -31.830   6.059   1.640  1.00 20.00    -0.024 C 
HETATM    5  C6  UNL     1     -30.866   8.160   2.642  1.00 20.00     0.036 C 
HETATM    6  C7  UNL     1     -33.605   7.545   1.912  1.00 20.00     0.045 C 
HETATM    7  C8  UNL     1     -31.324   7.455   1.337  1.00 20.00     0.026 C 
HETATM    8  C9  UNL     1     -32.639   8.069   0.836  1.00 20.00     0.106 C 
ENDROOT
BRANCH   8   9
HETATM    9  C5  UNL     1     -32.628   9.572   0.622  1.00 20.00     0.178 C 
HETATM   10  O10 UNL     1     -33.507  10.214   1.261  1.00 20.00    -0.648 OA
HETATM   11  O11 UNL     1     -31.738   9.987  -0.172  1.00 20.00    -0.648 OA
ENDBRANCH   8   9
TORSDOF 1
ENDMDL
MODEL 3
REMARK VINA RESULT:       3.5      0.998      2.398
REMARK  1 active torsions:
REMARK  status: ('A' for Active; 'I' for Inactive)
REMARK    1  A    between atoms: C5_5  and  C9_9 
ROOT
HETATM    1  C1  UNL     1     -32.735   8.078   0.924  1.00 20.00    -0.029 C 
HETATM    2  C2  UNL     1     -31.792   7.779   1.839  1.00 20.00    -0.021 C 
HETATM    3  C3  UNL     1     -31.326   5.385   1.472  1.00 20.00    -0.021 C 
HETATM    4  C4  UNL     1     -32.382   4.993   0.739  1.00 20.00    -0.024 C 
HETATM    5  C6  UNL     1     -33.795   7.067   0.513  1.00 20.00     0.036 C 
HETATM    6  C7  UNL     1     -31.777   6.409   2.490  1.00 20.00     0.045 C 
HETATM    7  C8  UNL     1     -33.632   5.698   1.226  1.00 20.00     0.026 C 
HETATM    8  C9  UNL     1     -33.218   5.909   2.690  1.00 20.00     0.106 C 
ENDROOT
BRANCH   8   9
HETATM    9  C5  UNL     1     -34.128   6.803   3.513  1.00 20.00     0.178 C 
HETATM   10  O10 UNL     1     -33.552   7.756   4.108  1.00 20.00    -0.648 OA
HETATM   11  O11 UNL     1     -35.348   6.477   3.496  1.00 20.00    -0.648 OA
ENDBRANCH   8   9
TORSDOF 1
ENDMDL
MODEL 4
REMARK VINA RESULT:       3.6      2.702      3.619
REMARK  1 active torsions:
REMARK  status: ('A' for Active; 'I' for Inactive)
REMARK    1  A    between atoms: C5_5  and  C9_9 
ROOT
HETATM    1  C1  UNL     1     -31.931   6.192   1.332  1.00 20.00    -0.029 C 
HETATM    2  C2  UNL     1     -31.071   6.996   1.988  1.00 20.00    -0.021 C 
HETATM    3  C3  UNL     1     -32.423   7.987   3.796  1.00 20.00    -0.021 C 
HETATM    4  C4  UNL     1     -33.679   7.735   3.391  1.00 20.00    -0.024 C 
HETATM    5  C6  UNL     1     -33.402   6.552   1.184  1.00 20.00     0.036 C 
HETATM    6  C7  UNL     1     -31.562   8.297   2.592  1.00 20.00     0.045 C 
HETATM    7  C8  UNL     1     -33.770   7.886   1.886  1.00 20.00     0.026 C 
HETATM    8  C9  UNL     1     -32.647   8.915   1.692  1.00 20.00     0.106 C 
ENDROOT
BRANCH   8   9
HETATM    9  C5  UNL     1     -32.245   9.193   0.255  1.00 20.00     0.178 C 
HETATM   10  O10 UNL     1     -31.027   8.993  -0.013  1.00 20.00    -0.648 OA
HETATM   11  O11 UNL     1     -33.184   9.592  -0.490  1.00 20.00    -0.648 OA
ENDBRANCH   8   9
TORSDOF 1
ENDMDL
MODEL 5
REMARK VINA RESULT:       3.7      1.996      3.668
REMARK  1 active torsions:
REMARK  status: ('A' for Active; 'I' for Inactive)
REMARK    1  A    between atoms: C5_5  and  C9_9 
ROOT
HETATM    1  C1  UNL     1     -33.094   7.498   4.827  1.00 20.00    -0.029 C 
HETATM    2  C2  UNL     1     -33.980   8.102   4.011  1.00 20.00    -0.021 C 
HETATM    3  C3  UNL     1     -35.793   6.450   3.751  1.00 20.00    -0.021 C 
HETATM    4  C4  UNL     1     -35.216   5.316   4.183  1.00 20.00    -0.024 C 
HETATM    5  C6  UNL     1     -32.864   5.995   4.779  1.00 20.00     0.036 C 
HETATM    6  C7  UNL     1     -34.769   7.280   3.009  1.00 20.00     0.045 C 
HETATM    7  C8  UNL     1     -33.767   5.279   3.739  1.00 20.00     0.026 C 
HETATM    8  C9  UNL     1     -33.896   6.134   2.471  1.00 20.00     0.106 C 
ENDROOT
BRANCH   8   9
HETATM    9  C5  UNL     1     -32.591   6.541   1.811  1.00 20.00     0.178 C 
HETATM   10  O10 UNL     1     -32.424   7.784   1.667  1.00 20.00    -0.648 OA
HETATM   11  O11 UNL     1     -31.837   5.579   1.490  1.00 20.00    -0.648 OA
ENDBRANCH   8   9
TORSDOF 1
ENDMDL
MODEL 6
REMARK VINA RESULT:       3.9      1.491      2.465
REMARK  1 active torsions:
REMARK  status: ('A' for Active; 'I' for Inactive)
REMARK    1  A    between atoms: C5_5  and  C9_9 
ROOT
HETATM    1  C1  UNL     1     -35.461   6.546   2.124  1.00 20.00    -0.029 C 
HETATM    2  C2  UNL     1     -35.513   7.059   3.368  1.00 20.00    -0.021 C 
HETATM    3  C3  UNL     1     -33.288   8.066   3.704  1.00 20.00    -0.021 C 
HETATM    4  C4  UNL     1     -32.563   7.504   2.723  1.00 20.00    -0.024 C 
HETATM    5  C6  UNL     1     -34.177   5.959   1.557  1.00 20.00     0.036 C 
HETATM    6  C7  UNL     1     -34.273   7.053   4.242  1.00 20.00     0.045 C 
HETATM    7  C8  UNL     1     -32.982   6.058   2.542  1.00 20.00     0.026 C 
HETATM    8  C9  UNL     1     -33.453   5.779   3.977  1.00 20.00     0.106 C 
ENDROOT
BRANCH   8   9
HETATM    9  C5  UNL     1     -34.177   4.461   4.190  1.00 20.00     0.178 C 
HETATM   10  O10 UNL     1     -35.333   4.556   4.689  1.00 20.00    -0.648 OA
HETATM   11  O11 UNL     1     -33.526   3.437   3.841  1.00 20.00    -0.648 OA
ENDBRANCH   8   9
TORSDOF 1
ENDMDL
MODEL 7
REMARK VINA RESULT:       3.9      1.437      2.994
REMARK  1 active torsions:
REMARK  status: ('A' for Active; 'I' for Inactive)
REMARK    1  A    between atoms: C5_5  and  C9_9 
ROOT
HETATM    1  C1  UNL     1     -34.483   7.560   4.215  1.00 20.00    -0.029 C 
HETATM    2  C2  UNL     1     -33.170   7.273   4.298  1.00 20.00    -0.021 C 
HETATM    3  C3  UNL     1     -32.470   6.941   1.957  1.00 20.00    -0.021 C 
HETATM    4  C4  UNL     1     -33.644   6.779   1.324  1.00 20.00    -0.024 C 
HETATM    5  C6  UNL     1     -35.371   6.930   3.153  1.00 20.00     0.036 C 
HETATM    6  C7  UNL     1     -32.545   6.295   3.322  1.00 20.00     0.045 C 
HETATM    7  C8  UNL     1     -34.592   5.984   2.200  1.00 20.00     0.026 C 
HETATM    8  C9  UNL     1     -33.549   5.178   2.988  1.00 20.00     0.106 C 
ENDROOT
BRANCH   8   9
HETATM    9  C5  UNL     1     -34.082   4.382   4.167  1.00 20.00     0.178 C 
HETATM   10  O10 UNL     1     -35.265   4.656   4.511  1.00 20.00    -0.648 OA
HETATM   11  O11 UNL     1     -33.268   3.547   4.652  1.00 20.00    -0.648 OA
ENDBRANCH   8   9
TORSDOF 1
ENDMDL
MODEL 8
REMARK VINA RESULT:       4.1      1.530      2.842
REMARK  1 active torsions:
REMARK  status: ('A' for Active; 'I' for Inactive)
REMARK    1  A    between atoms: C5_5  and  C9_9 
ROOT
HETATM    1  C1  UNL     1     -30.949   8.335   2.970  1.00 20.00    -0.029 C 
HETATM    2  C2  UNL     1     -30.674   8.041   1.684  1.00 20.00    -0.021 C 
HETATM    3  C3  UNL     1     -32.195   9.489   0.391  1.00 20.00    -0.021 C 
HETATM    4  C4  UNL     1     -33.091   9.868   1.317  1.00 20.00    -0.024 C 
HETATM    5  C6  UNL     1     -32.356   8.694   3.421  1.00 20.00     0.036 C 
HETATM    6  C7  UNL     1     -31.784   8.057   0.650  1.00 20.00     0.045 C 
HETATM    7  C8  UNL     1     -33.378   8.712   2.254  1.00 20.00     0.026 C 
HETATM    8  C9  UNL     1     -33.094   7.557   1.283  1.00 20.00     0.106 C 
ENDROOT
BRANCH   8   9
HETATM    9  C5  UNL     1     -33.053   6.170   1.898  1.00 20.00     0.178 C 
HETATM   10  O10 UNL     1     -32.294   5.345   1.317  1.00 20.00    -0.648 OA
HETATM   11  O11 UNL     1     -33.787   6.019   2.915  1.00 20.00    -0.648 OA
ENDBRANCH   8   9
TORSDOF 1
ENDMDL
MODEL 9
REMARK VINA RESULT:       4.4      2.032      3.199
REMARK  1 active torsions:
REMARK  status: ('A' for Active; 'I' for Inactive)
REMARK    1  A    between atoms: C5_5  and  C9_9 
ROOT
HETATM    1  C1  UNL     1     -33.366   5.391   0.530  1.00 20.00    -0.029 C 
HETATM    2  C2  UNL     1     -32.381   5.034   1.377  1.00 20.00    -0.021 C 
HETATM    3  C3  UNL     1     -33.444   5.090   3.602  1.00 20.00    -0.021 C 
HETATM    4  C4  UNL     1     -34.560   5.800   3.372  1.00 20.00    -0.024 C 
HETATM    5  C6  UNL     1     -34.432   6.400   0.928  1.00 20.00     0.036 C 
HETATM    6  C7  UNL     1     -32.316   5.647   2.763  1.00 20.00     0.045 C 
HETATM    7  C8  UNL     1     -34.265   6.911   2.384  1.00 20.00     0.026 C 
HETATM    8  C9  UNL     1     -32.778   7.113   2.708  1.00 20.00     0.106 C 
ENDROOT
BRANCH   8   9
HETATM    9  C5  UNL     1     -32.012   8.021   1.762  1.00 20.00     0.178 C 
HETATM   10  O10 UNL     1     -30.826   7.666   1.516  1.00 20.00    -0.648 OA
HETATM   11  O11 UNL     1     -32.663   9.018   1.342  1.00 20.00    -0.648 OA
ENDBRANCH   8   9
TORSDOF 1
ENDMDL
