MODEL 1
REMARK VINA RESULT:       0.5      0.000      0.000
REMARK  1 active torsions:
REMARK  status: ('A' for Active; 'I' for Inactive)
REMARK    1  A    between atoms: C3_3  and  C7_7 
ROOT
HETATM    1  C1  UNL     1     -31.834   6.624   1.595  1.00 20.00     0.346 C 
HETATM    2  C2  UNL     1     -33.009   7.303   3.522  1.00 20.00     0.233 C 
HETATM    3  C3  UNL     1     -34.105   6.398   2.925  1.00 20.00     0.081 C 
HETATM    4  C4  UNL     1     -33.587   8.409   4.409  1.00 20.00     0.044 C 
HETATM    5  C6  UNL     1     -32.747   8.866   1.616  1.00 20.00     0.311 C 
HETATM    6  N8  UNL     1     -32.148   7.800   2.420  1.00 20.00     0.098 N 
HETATM    7  S9  UNL     1     -33.237   5.475   1.622  1.00 20.00    -0.132 SA
ENDROOT
BRANCH   3   8
HETATM    8  C7  UNL     1     -34.726   5.445   3.936  1.00 20.00     0.013 C 
HETATM    9  C5  UNL     1     -33.945   4.176   4.057  1.00 20.00     0.006 C 
ENDBRANCH   3   8
TORSDOF 1
ENDMDL
MODEL 2
REMARK VINA RESULT:       0.7      1.613      2.407
REMARK  1 active torsions:
REMARK  status: ('A' for Active; 'I' for Inactive)
REMARK    1  A    between atoms: C3_3  and  C7_7 
ROOT
HETATM    1  C1  UNL     1     -33.780   8.233   2.678  1.00 20.00     0.346 C 
HETATM    2  C2  UNL     1     -33.255   6.064   1.918  1.00 20.00     0.233 C 
HETATM    3  C3  UNL     1     -33.396   5.725   3.416  1.00 20.00     0.081 C 
HETATM    4  C4  UNL     1     -32.317   5.101   1.189  1.00 20.00     0.044 C 
HETATM    5  C6  UNL     1     -31.475   7.780   2.096  1.00 20.00     0.311 C 
HETATM    6  N8  UNL     1     -32.876   7.493   1.786  1.00 20.00     0.098 N 
HETATM    7  S9  UNL     1     -34.180   7.207   4.119  1.00 20.00    -0.132 SA
ENDROOT
BRANCH   3   8
HETATM    8  C7  UNL     1     -34.242   4.490   3.684  1.00 20.00     0.013 C 
HETATM    9  C5  UNL     1     -33.474   3.440   4.422  1.00 20.00     0.006 C 
ENDBRANCH   3   8
TORSDOF 1
ENDMDL
MODEL 3
REMARK VINA RESULT:       0.7      1.645      2.893
REMARK  1 active torsions:
REMARK  status: ('A' for Active; 'I' for Inactive)
REMARK    1  A    between atoms: C3_3  and  C7_7 
ROOT
HETATM    1  C1  UNL     1     -34.871   6.639   4.083  1.00 20.00     0.346 C 
HETATM    2  C2  UNL     1     -33.355   7.377   2.436  1.00 20.00     0.233 C 
HETATM    3  C3  UNL     1     -32.888   5.909   2.498  1.00 20.00     0.081 C 
HETATM    4  C4  UNL     1     -32.242   8.323   1.980  1.00 20.00     0.044 C 
HETATM    5  C6  UNL     1     -32.992   7.977   4.814  1.00 20.00     0.311 C 
HETATM    6  N8  UNL     1     -33.960   7.741   3.742  1.00 20.00     0.098 N 
HETATM    7  S9  UNL     1     -34.202   5.080   3.442  1.00 20.00    -0.132 SA
ENDROOT
BRANCH   3   8
HETATM    8  C7  UNL     1     -32.720   5.265   1.130  1.00 20.00     0.013 C 
HETATM    9  C5  UNL     1     -31.359   4.670   0.958  1.00 20.00     0.006 C 
ENDBRANCH   3   8
TORSDOF 1
ENDMDL
MODEL 4
REMARK VINA RESULT:       1.2      1.803      3.312
REMARK  1 active torsions:
REMARK  status: ('A' for Active; 'I' for Inactive)
REMARK    1  A    between atoms: C3_3  and  C7_7 
ROOT
HETATM    1  C1  UNL     1     -33.673   7.882   3.799  1.00 20.00     0.346 C 
HETATM    2  C2  UNL     1     -33.393   5.556   3.533  1.00 20.00     0.233 C 
HETATM    3  C3  UNL     1     -33.077   5.965   2.080  1.00 20.00     0.081 C 
HETATM    4  C4  UNL     1     -33.940   4.130   3.630  1.00 20.00     0.044 C 
HETATM    5  C6  UNL     1     -35.671   6.520   3.698  1.00 20.00     0.311 C 
HETATM    6  N8  UNL     1     -34.277   6.585   4.137  1.00 20.00     0.098 N 
HETATM    7  S9  UNL     1     -32.865   7.768   2.179  1.00 20.00    -0.132 SA
ENDROOT
BRANCH   3   8
HETATM    8  C7  UNL     1     -31.826   5.306   1.520  1.00 20.00     0.013 C 
HETATM    9  C5  UNL     1     -32.128   4.470   0.318  1.00 20.00     0.006 C 
ENDBRANCH   3   8
TORSDOF 1
ENDMDL
MODEL 5
REMARK VINA RESULT:       1.4      1.512      3.396
REMARK  1 active torsions:
REMARK  status: ('A' for Active; 'I' for Inactive)
REMARK    1  A    between atoms: C3_3  and  C7_7 
ROOT
HETATM    1  C1  UNL     1     -33.416   5.300   1.390  1.00 20.00     0.346 C 
HETATM    2  C2  UNL     1     -33.769   7.111   2.857  1.00 20.00     0.233 C 
HETATM    3  C3  UNL     1     -32.296   7.412   2.514  1.00 20.00     0.081 C 
HETATM    4  C4  UNL     1     -34.169   7.652   4.231  1.00 20.00     0.044 C 
HETATM    5  C6  UNL     1     -33.474   4.822   3.761  1.00 20.00     0.311 C 
HETATM    6  N8  UNL     1     -34.011   5.657   2.686  1.00 20.00     0.098 N 
HETATM    7  S9  UNL     1     -31.959   6.337   1.088  1.00 20.00    -0.132 SA
ENDROOT
BRANCH   3   8
HETATM    8  C7  UNL     1     -32.038   8.870   2.162  1.00 20.00     0.013 C 
HETATM    9  C5  UNL     1     -32.278   9.142   0.711  1.00 20.00     0.006 C 
ENDBRANCH   3   8
TORSDOF 1
ENDMDL
MODEL 6
REMARK VINA RESULT:       1.6      1.586      2.789
REMARK  1 active torsions:
REMARK  status: ('A' for Active; 'I' for Inactive)
REMARK    1  A    between atoms: C3_3  and  C7_7 
ROOT
HETATM    1  C1  UNL     1     -33.287   4.665   2.982  1.00 20.00     0.346 C 
HETATM    2  C2  UNL     1     -32.678   6.915   2.631  1.00 20.00     0.233 C 
HETATM    3  C3  UNL     1     -34.104   7.172   3.158  1.00 20.00     0.081 C 
HETATM    4  C4  UNL     1     -32.189   8.033   1.707  1.00 20.00     0.044 C 
HETATM    5  C6  UNL     1     -33.256   5.472   0.700  1.00 20.00     0.311 C 
HETATM    6  N8  UNL     1     -32.631   5.563   2.020  1.00 20.00     0.098 N 
HETATM    7  S9  UNL     1     -34.600   5.566   3.850  1.00 20.00    -0.132 SA
ENDROOT
BRANCH   3   8
HETATM    8  C7  UNL     1     -34.174   8.260   4.220  1.00 20.00     0.013 C 
HETATM    9  C5  UNL     1     -33.055   8.149   5.205  1.00 20.00     0.006 C 
ENDBRANCH   3   8
TORSDOF 1
ENDMDL
MODEL 7
REMARK VINA RESULT:       2.1      1.623      2.965
REMARK  1 active torsions:
REMARK  status: ('A' for Active; 'I' for Inactive)
REMARK    1  A    between atoms: C3_3  and  C7_7 
ROOT
HETATM    1  C1  UNL     1     -32.440   6.944   0.725  1.00 20.00     0.346 C 
HETATM    2  C2  UNL     1     -33.635   5.976   2.512  1.00 20.00     0.233 C 
HETATM    3  C3  UNL     1     -32.981   7.126   3.305  1.00 20.00     0.081 C 
HETATM    4  C4  UNL     1     -33.963   4.771   3.396  1.00 20.00     0.044 C 
HETATM    5  C6  UNL     1     -31.572   4.892   1.670  1.00 20.00     0.311 C 
HETATM    6  N8  UNL     1     -32.778   5.654   1.344  1.00 20.00     0.098 N 
HETATM    7  S9  UNL     1     -32.320   8.218   2.011  1.00 20.00    -0.132 SA
ENDROOT
BRANCH   3   8
HETATM    8  C7  UNL     1     -33.954   7.880   4.199  1.00 20.00     0.013 C 
HETATM    9  C5  UNL     1     -33.294   8.374   5.447  1.00 20.00     0.006 C 
ENDBRANCH   3   8
TORSDOF 1
ENDMDL
MODEL 8
REMARK VINA RESULT:       2.1      2.118      3.966
REMARK  1 active torsions:
REMARK  status: ('A' for Active; 'I' for Inactive)
REMARK    1  A    between atoms: C3_3  and  C7_7 
ROOT
HETATM    1  C1  UNL     1     -33.776   7.256   4.716  1.00 20.00     0.346 C 
HETATM    2  C2  UNL     1     -33.163   6.304   2.648  1.00 20.00     0.233 C 
HETATM    3  C3  UNL     1     -33.032   7.784   2.236  1.00 20.00     0.081 C 
HETATM    4  C4  UNL     1     -33.474   5.394   1.458  1.00 20.00     0.044 C 
HETATM    5  C6  UNL     1     -35.542   6.328   3.346  1.00 20.00     0.311 C 
HETATM    6  N8  UNL     1     -34.143   6.203   3.758  1.00 20.00     0.098 N 
HETATM    7  S9  UNL     1     -33.093   8.676   3.819  1.00 20.00    -0.132 SA
ENDROOT
BRANCH   3   8
HETATM    8  C7  UNL     1     -31.743   8.097   1.492  1.00 20.00     0.013 C 
HETATM    9  C5  UNL     1     -31.932   9.187   0.485  1.00 20.00     0.006 C 
ENDBRANCH   3   8
TORSDOF 1
ENDMDL
