MODEL 1
REMARK VINA RESULT:      -1.7      0.000      0.000
REMARK  2 active torsions:
REMARK  status: ('A' for Active; 'I' for Inactive)
REMARK    1  A    between atoms: C1_1  and  C5_5 
REMARK    2  A    between atoms: C5_5  and  C6_6 
ROOT
HETATM    1  C2  UNL     1     -34.632   7.425   4.332  1.00 20.00     0.003 C 
HETATM    2  C3  UNL     1     -34.987   6.661   3.045  1.00 20.00     0.026 C 
HETATM    3  C4  UNL     1     -33.152   7.324   3.925  1.00 20.00     0.026 C 
HETATM    4  C5  UNL     1     -33.524   6.118   3.007  1.00 20.00     0.110 C 
ENDROOT
BRANCH   4   5
HETATM    5  C1  UNL     1     -33.360   4.757   3.690  1.00 20.00     0.249 C 
HETATM    6  O7  UNL     1     -34.305   4.068   4.059  1.00 20.00    -0.306 OA
ENDBRANCH   4   5
BRANCH   4   7
HETATM    7  C6  UNL     1     -32.853   6.120   1.605  1.00 20.00     0.401 C 
HETATM    8  F8  UNL     1     -32.423   7.354   1.308  1.00 20.00    -0.170 F 
HETATM    9  F9  UNL     1     -31.809   5.280   1.599  1.00 20.00    -0.170 F 
HETATM   10  F10 UNL     1     -33.736   5.728   0.677  1.00 20.00    -0.170 F 
ENDBRANCH   4   7
TORSDOF 2
ENDMDL
MODEL 2
REMARK VINA RESULT:      -1.5      2.322      3.132
REMARK  2 active torsions:
REMARK  status: ('A' for Active; 'I' for Inactive)
REMARK    1  A    between atoms: C1_1  and  C5_5 
REMARK    2  A    between atoms: C5_5  and  C6_6 
ROOT
HETATM    1  C2  UNL     1     -32.544   6.373   1.513  1.00 20.00     0.003 C 
HETATM    2  C3  UNL     1     -32.751   6.976   2.913  1.00 20.00     0.026 C 
HETATM    3  C4  UNL     1     -33.945   5.747   1.630  1.00 20.00     0.026 C 
HETATM    4  C5  UNL     1     -33.840   5.890   3.181  1.00 20.00     0.110 C 
ENDROOT
BRANCH   4   5
HETATM    5  C1  UNL     1     -33.296   4.637   3.873  1.00 20.00     0.249 C 
HETATM    6  O7  UNL     1     -33.981   3.652   4.126  1.00 20.00    -0.306 OA
ENDBRANCH   4   5
BRANCH   4   7
HETATM    7  C6  UNL     1     -35.126   6.401   3.888  1.00 20.00     0.401 C 
HETATM    8  F8  UNL     1     -36.022   6.797   2.974  1.00 20.00    -0.170 F 
HETATM    9  F9  UNL     1     -35.661   5.418   4.626  1.00 20.00    -0.170 F 
HETATM   10  F10 UNL     1     -34.827   7.435   4.686  1.00 20.00    -0.170 F 
ENDBRANCH   4   7
TORSDOF 2
ENDMDL
MODEL 3
REMARK VINA RESULT:      -1.5      2.321      3.103
REMARK  2 active torsions:
REMARK  status: ('A' for Active; 'I' for Inactive)
REMARK    1  A    between atoms: C1_1  and  C5_5 
REMARK    2  A    between atoms: C5_5  and  C6_6 
ROOT
HETATM    1  C2  UNL     1     -32.536   6.396   1.513  1.00 20.00     0.003 C 
HETATM    2  C3  UNL     1     -32.735   6.986   2.920  1.00 20.00     0.026 C 
HETATM    3  C4  UNL     1     -33.942   5.781   1.625  1.00 20.00     0.026 C 
HETATM    4  C5  UNL     1     -33.833   5.906   3.177  1.00 20.00     0.110 C 
ENDROOT
BRANCH   4   5
HETATM    5  C1  UNL     1     -33.299   4.642   3.855  1.00 20.00     0.249 C 
HETATM    6  O7  UNL     1     -33.996   3.666   4.114  1.00 20.00    -0.306 OA
ENDBRANCH   4   5
BRANCH   4   7
HETATM    7  C6  UNL     1     -35.114   6.420   3.892  1.00 20.00     0.401 C 
HETATM    8  F8  UNL     1     -34.810   7.464   4.676  1.00 20.00    -0.170 F 
HETATM    9  F9  UNL     1     -36.019   6.806   2.982  1.00 20.00    -0.170 F 
HETATM   10  F10 UNL     1     -35.638   5.444   4.645  1.00 20.00    -0.170 F 
ENDBRANCH   4   7
TORSDOF 2
ENDMDL
MODEL 4
REMARK VINA RESULT:      -1.5      2.322      3.128
REMARK  2 active torsions:
REMARK  status: ('A' for Active; 'I' for Inactive)
REMARK    1  A    between atoms: C1_1  and  C5_5 
REMARK    2  A    between atoms: C5_5  and  C6_6 
ROOT
HETATM    1  C2  UNL     1     -32.538   6.399   1.513  1.00 20.00     0.003 C 
HETATM    2  C3  UNL     1     -32.739   6.984   2.921  1.00 20.00     0.026 C 
HETATM    3  C4  UNL     1     -33.943   5.782   1.623  1.00 20.00     0.026 C 
HETATM    4  C5  UNL     1     -33.836   5.903   3.176  1.00 20.00     0.110 C 
ENDROOT
BRANCH   4   5
HETATM    5  C1  UNL     1     -33.299   4.637   3.850  1.00 20.00     0.249 C 
HETATM    6  O7  UNL     1     -33.999   3.667   4.121  1.00 20.00    -0.306 OA
ENDBRANCH   4   5
BRANCH   4   7
HETATM    7  C6  UNL     1     -35.117   6.414   3.891  1.00 20.00     0.401 C 
HETATM    8  F8  UNL     1     -35.642   5.435   4.640  1.00 20.00    -0.170 F 
HETATM    9  F9  UNL     1     -34.813   7.454   4.680  1.00 20.00    -0.170 F 
HETATM   10  F10 UNL     1     -36.021   6.803   2.982  1.00 20.00    -0.170 F 
ENDBRANCH   4   7
TORSDOF 2
ENDMDL
MODEL 5
REMARK VINA RESULT:      -1.4      2.140      3.244
REMARK  2 active torsions:
REMARK  status: ('A' for Active; 'I' for Inactive)
REMARK    1  A    between atoms: C1_1  and  C5_5 
REMARK    2  A    between atoms: C5_5  and  C6_6 
ROOT
HETATM    1  C2  UNL     1     -32.949   4.864   0.729  1.00 20.00     0.003 C 
HETATM    2  C3  UNL     1     -31.824   5.459   1.593  1.00 20.00     0.026 C 
HETATM    3  C4  UNL     1     -33.532   6.281   0.599  1.00 20.00     0.026 C 
HETATM    4  C5  UNL     1     -32.747   6.684   1.887  1.00 20.00     0.110 C 
ENDROOT
BRANCH   4   5
HETATM    5  C1  UNL     1     -33.566   6.537   3.172  1.00 20.00     0.249 C 
HETATM    6  O7  UNL     1     -34.143   7.472   3.717  1.00 20.00    -0.306 OA
ENDBRANCH   4   5
BRANCH   4   7
HETATM    7  C6  UNL     1     -32.047   8.070   1.829  1.00 20.00     0.401 C 
HETATM    8  F8  UNL     1     -31.070   8.050   0.913  1.00 20.00    -0.170 F 
HETATM    9  F9  UNL     1     -32.937   9.016   1.498  1.00 20.00    -0.170 F 
HETATM   10  F10 UNL     1     -31.520   8.364   3.026  1.00 20.00    -0.170 F 
ENDBRANCH   4   7
TORSDOF 2
ENDMDL
MODEL 6
REMARK VINA RESULT:      -1.4      1.870      2.596
REMARK  2 active torsions:
REMARK  status: ('A' for Active; 'I' for Inactive)
REMARK    1  A    between atoms: C1_1  and  C5_5 
REMARK    2  A    between atoms: C5_5  and  C6_6 
ROOT
HETATM    1  C2  UNL     1     -31.871   9.078   1.211  1.00 20.00     0.003 C 
HETATM    2  C3  UNL     1     -33.096   8.211   0.873  1.00 20.00     0.026 C 
HETATM    3  C4  UNL     1     -31.225   7.832   1.842  1.00 20.00     0.026 C 
HETATM    4  C5  UNL     1     -32.650   7.210   1.985  1.00 20.00     0.110 C 
ENDROOT
BRANCH   4   5
HETATM    5  C1  UNL     1     -33.300   7.481   3.345  1.00 20.00     0.249 C 
HETATM    6  O7  UNL     1     -34.415   7.073   3.654  1.00 20.00    -0.306 OA
ENDBRANCH   4   5
BRANCH   4   7
HETATM    7  C6  UNL     1     -32.758   5.707   1.607  1.00 20.00     0.401 C 
HETATM    8  F8  UNL     1     -31.558   5.245   1.230  1.00 20.00    -0.170 F 
HETATM    9  F9  UNL     1     -33.186   5.002   2.663  1.00 20.00    -0.170 F 
HETATM   10  F10 UNL     1     -33.624   5.553   0.597  1.00 20.00    -0.170 F 
ENDBRANCH   4   7
TORSDOF 2
ENDMDL
MODEL 7
REMARK VINA RESULT:      -1.3      2.825      3.668
REMARK  2 active torsions:
REMARK  status: ('A' for Active; 'I' for Inactive)
REMARK    1  A    between atoms: C1_1  and  C5_5 
REMARK    2  A    between atoms: C5_5  and  C6_6 
ROOT
HETATM    1  C2  UNL     1     -32.560   5.278   0.769  1.00 20.00     0.003 C 
HETATM    2  C3  UNL     1     -33.685   6.304   0.991  1.00 20.00     0.026 C 
HETATM    3  C4  UNL     1     -32.131   5.506   2.228  1.00 20.00     0.026 C 
HETATM    4  C5  UNL     1     -32.874   6.879   2.195  1.00 20.00     0.110 C 
ENDROOT
BRANCH   4   5
HETATM    5  C1  UNL     1     -31.969   8.054   1.815  1.00 20.00     0.249 C 
HETATM    6  O7  UNL     1     -32.335   8.989   1.111  1.00 20.00    -0.306 OA
ENDBRANCH   4   5
BRANCH   4   7
HETATM    7  C6  UNL     1     -33.712   7.210   3.461  1.00 20.00     0.401 C 
HETATM    8  F8  UNL     1     -32.911   7.683   4.426  1.00 20.00    -0.170 F 
HETATM    9  F9  UNL     1     -34.635   8.135   3.166  1.00 20.00    -0.170 F 
HETATM   10  F10 UNL     1     -34.325   6.104   3.904  1.00 20.00    -0.170 F 
ENDBRANCH   4   7
TORSDOF 2
ENDMDL
MODEL 8
REMARK VINA RESULT:      -1.3      2.823      3.666
REMARK  2 active torsions:
REMARK  status: ('A' for Active; 'I' for Inactive)
REMARK    1  A    between atoms: C1_1  and  C5_5 
REMARK    2  A    between atoms: C5_5  and  C6_6 
ROOT
HETATM    1  C2  UNL     1     -32.594   5.269   0.763  1.00 20.00     0.003 C 
HETATM    2  C3  UNL     1     -33.700   6.315   0.984  1.00 20.00     0.026 C 
HETATM    3  C4  UNL     1     -32.168   5.483   2.226  1.00 20.00     0.026 C 
HETATM    4  C5  UNL     1     -32.884   6.870   2.194  1.00 20.00     0.110 C 
ENDROOT
BRANCH   4   5
HETATM    5  C1  UNL     1     -31.955   8.029   1.823  1.00 20.00     0.249 C 
HETATM    6  O7  UNL     1     -32.307   8.987   1.145  1.00 20.00    -0.306 OA
ENDBRANCH   4   5
BRANCH   4   7
HETATM    7  C6  UNL     1     -33.722   7.211   3.457  1.00 20.00     0.401 C 
HETATM    8  F8  UNL     1     -34.345   6.112   3.902  1.00 20.00    -0.170 F 
HETATM    9  F9  UNL     1     -32.919   7.680   4.423  1.00 20.00    -0.170 F 
HETATM   10  F10 UNL     1     -34.638   8.143   3.158  1.00 20.00    -0.170 F 
ENDBRANCH   4   7
TORSDOF 2
ENDMDL
MODEL 9
REMARK VINA RESULT:      -1.3      2.639      3.417
REMARK  2 active torsions:
REMARK  status: ('A' for Active; 'I' for Inactive)
REMARK    1  A    between atoms: C1_1  and  C5_5 
REMARK    2  A    between atoms: C5_5  and  C6_6 
ROOT
HETATM    1  C2  UNL     1     -31.610   8.807   1.040  1.00 20.00     0.003 C 
HETATM    2  C3  UNL     1     -31.371   8.021   2.341  1.00 20.00     0.026 C 
HETATM    3  C4  UNL     1     -33.121   8.661   1.288  1.00 20.00     0.026 C 
HETATM    4  C5  UNL     1     -32.816   7.443   2.215  1.00 20.00     0.110 C 
ENDROOT
BRANCH   4   5
HETATM    5  C1  UNL     1     -32.872   6.095   1.490  1.00 20.00     0.249 C 
HETATM    6  O7  UNL     1     -31.934   5.306   1.457  1.00 20.00    -0.306 OA
ENDBRANCH   4   5
BRANCH   4   7
HETATM    7  C6  UNL     1     -33.629   7.397   3.538  1.00 20.00     0.401 C 
HETATM    8  F8  UNL     1     -34.709   8.183   3.437  1.00 20.00    -0.170 F 
HETATM    9  F9  UNL     1     -34.024   6.140   3.786  1.00 20.00    -0.170 F 
HETATM   10  F10 UNL     1     -32.869   7.826   4.555  1.00 20.00    -0.170 F 
ENDBRANCH   4   7
TORSDOF 2
ENDMDL
