MODEL 1
REMARK VINA RESULT:      -1.3      0.000      0.000
REMARK  4 active torsions:
REMARK  status: ('A' for Active; 'I' for Inactive)
REMARK    1  A    between atoms: C1_1  and  C7_7 
REMARK    2  A    between atoms: C2_2  and  C9_9 
REMARK    3  A    between atoms: C4_4  and  C9_9 
REMARK    4  A    between atoms: C9_9  and  O10_10 
ROOT
HETATM    1  C1  UNL     1     -32.386   8.408   1.277  1.00 20.00    -0.094 C 
HETATM    2  C2  UNL     1     -32.710   7.594   2.098  1.00 20.00    -0.070 C 
ENDROOT
BRANCH   2   3
HETATM    3  C9  UNL     1     -33.114   6.600   3.100  1.00 20.00     0.219 C 
BRANCH   3   4
HETATM    4  C4  UNL     1     -34.385   7.033   3.764  1.00 20.00     0.007 C 
HETATM    5  C3  UNL     1     -35.386   6.201   4.075  1.00 20.00     0.010 C 
ENDBRANCH   3   4
BRANCH   3   6
HETATM    6  O10 UNL     1     -33.351   5.343   2.472  1.00 20.00    -0.380 OA
HETATM    7  H22 UNL     1     -33.950   5.514   1.729  1.00 20.00     0.211 HD
ENDBRANCH   3   6
ENDBRANCH   2   3
BRANCH   1   8
HETATM    8  C7  UNL     1     -31.995   9.385   0.293  1.00 20.00     0.020 A 
HETATM    9  C5  UNL     1     -33.095  10.016  -0.532  1.00 20.00     0.024 A 
HETATM   10  C6  UNL     1     -32.414  10.818   0.538  1.00 20.00     0.024 A 
HETATM   11  C8  UNL     1     -30.669   9.139  -0.367  1.00 20.00     0.029 C 
ENDBRANCH   1   8
TORSDOF 4
ENDMDL
MODEL 2
REMARK VINA RESULT:      -1.0      2.143      3.150
REMARK  4 active torsions:
REMARK  status: ('A' for Active; 'I' for Inactive)
REMARK    1  A    between atoms: C1_1  and  C7_7 
REMARK    2  A    between atoms: C2_2  and  C9_9 
REMARK    3  A    between atoms: C4_4  and  C9_9 
REMARK    4  A    between atoms: C9_9  and  O10_10 
ROOT
HETATM    1  C1  UNL     1     -33.140   6.781   3.006  1.00 20.00    -0.094 C 
HETATM    2  C2  UNL     1     -33.798   5.852   3.386  1.00 20.00    -0.070 C 
ENDROOT
BRANCH   2   3
HETATM    3  C9  UNL     1     -34.598   4.715   3.859  1.00 20.00     0.219 C 
BRANCH   3   4
HETATM    4  C4  UNL     1     -33.786   3.874   4.796  1.00 20.00     0.007 C 
HETATM    5  C3  UNL     1     -33.192   2.727   4.445  1.00 20.00     0.010 C 
ENDBRANCH   3   4
BRANCH   3   6
HETATM    6  O10 UNL     1     -35.743   5.183   4.565  1.00 20.00    -0.380 OA
HETATM    7  H22 UNL     1     -36.211   4.397   4.884  1.00 20.00     0.211 HD
ENDBRANCH   3   6
ENDBRANCH   2   3
BRANCH   1   8
HETATM    8  C7  UNL     1     -32.351   7.896   2.547  1.00 20.00     0.020 A 
HETATM    9  C5  UNL     1     -31.486   7.676   1.326  1.00 20.00     0.024 A 
HETATM   10  C6  UNL     1     -32.729   8.509   1.217  1.00 20.00     0.024 A 
HETATM   11  C8  UNL     1     -31.836   8.806   3.624  1.00 20.00     0.029 C 
ENDBRANCH   1   8
TORSDOF 4
ENDMDL
MODEL 3
REMARK VINA RESULT:      -0.9      1.742      4.868
REMARK  4 active torsions:
REMARK  status: ('A' for Active; 'I' for Inactive)
REMARK    1  A    between atoms: C1_1  and  C7_7 
REMARK    2  A    between atoms: C2_2  and  C9_9 
REMARK    3  A    between atoms: C4_4  and  C9_9 
REMARK    4  A    between atoms: C9_9  and  O10_10 
ROOT
HETATM    1  C1  UNL     1     -33.225   7.668   2.564  1.00 20.00    -0.094 C 
HETATM    2  C2  UNL     1     -32.677   8.045   1.564  1.00 20.00    -0.070 C 
ENDROOT
BRANCH   2   3
HETATM    3  C9  UNL     1     -32.014   8.501   0.336  1.00 20.00     0.219 C 
BRANCH   3   4
HETATM    4  C4  UNL     1     -32.640   9.777  -0.138  1.00 20.00     0.007 C 
HETATM    5  C3  UNL     1     -32.762  10.874   0.619  1.00 20.00     0.010 C 
ENDBRANCH   3   4
BRANCH   3   6
HETATM    6  O10 UNL     1     -30.635   8.753   0.590  1.00 20.00    -0.380 OA
HETATM    7  H22 UNL     1     -30.275   9.152  -0.217  1.00 20.00     0.211 HD
ENDBRANCH   3   6
ENDBRANCH   2   3
BRANCH   1   8
HETATM    8  C7  UNL     1     -33.879   7.216   3.765  1.00 20.00     0.020 A 
HETATM    9  C5  UNL     1     -35.290   6.691   3.630  1.00 20.00     0.024 A 
HETATM   10  C6  UNL     1     -34.162   5.735   3.883  1.00 20.00     0.024 A 
HETATM   11  C8  UNL     1     -33.522   7.970   5.014  1.00 20.00     0.029 C 
ENDBRANCH   1   8
TORSDOF 4
ENDMDL
MODEL 4
REMARK VINA RESULT:      -0.7      1.604      5.064
REMARK  4 active torsions:
REMARK  status: ('A' for Active; 'I' for Inactive)
REMARK    1  A    between atoms: C1_1  and  C7_7 
REMARK    2  A    between atoms: C2_2  and  C9_9 
REMARK    3  A    between atoms: C4_4  and  C9_9 
REMARK    4  A    between atoms: C9_9  and  O10_10 
ROOT
HETATM    1  C1  UNL     1     -33.511   6.562   2.782  1.00 20.00    -0.094 C 
HETATM    2  C2  UNL     1     -32.778   7.198   2.074  1.00 20.00    -0.070 C 
ENDROOT
BRANCH   2   3
HETATM    3  C9  UNL     1     -31.879   7.980   1.217  1.00 20.00     0.219 C 
BRANCH   3   4
HETATM    4  C4  UNL     1     -32.472   9.330   0.952  1.00 20.00     0.007 C 
HETATM    5  C3  UNL     1     -32.447   9.934  -0.242  1.00 20.00     0.010 C 
ENDBRANCH   3   4
BRANCH   3   6
HETATM    6  O10 UNL     1     -30.626   8.169   1.867  1.00 20.00    -0.380 OA
HETATM    7  H22 UNL     1     -30.603   9.093   2.159  1.00 20.00     0.211 HD
ENDBRANCH   3   6
ENDBRANCH   2   3
BRANCH   1   8
HETATM    8  C7  UNL     1     -34.392   5.798   3.628  1.00 20.00     0.020 A 
HETATM    9  C5  UNL     1     -35.048   6.525   4.780  1.00 20.00     0.024 A 
HETATM   10  C6  UNL     1     -35.864   6.140   3.581  1.00 20.00     0.024 A 
HETATM   11  C8  UNL     1     -34.005   4.361   3.828  1.00 20.00     0.029 C 
ENDBRANCH   1   8
TORSDOF 4
ENDMDL
MODEL 5
REMARK VINA RESULT:      -0.6      0.473      1.321
REMARK  4 active torsions:
REMARK  status: ('A' for Active; 'I' for Inactive)
REMARK    1  A    between atoms: C1_1  and  C7_7 
REMARK    2  A    between atoms: C2_2  and  C9_9 
REMARK    3  A    between atoms: C4_4  and  C9_9 
REMARK    4  A    between atoms: C9_9  and  O10_10 
ROOT
HETATM    1  C1  UNL     1     -32.606   8.728   1.398  1.00 20.00    -0.094 C 
HETATM    2  C2  UNL     1     -32.821   7.813   2.144  1.00 20.00    -0.070 C 
ENDROOT
BRANCH   2   3
HETATM    3  C9  UNL     1     -33.087   6.699   3.064  1.00 20.00     0.219 C 
BRANCH   3   4
HETATM    4  C4  UNL     1     -34.308   6.993   3.881  1.00 20.00     0.007 C 
HETATM    5  C3  UNL     1     -35.335   6.145   4.019  1.00 20.00     0.010 C 
ENDBRANCH   3   4
BRANCH   3   6
HETATM    6  O10 UNL     1     -33.327   5.504   2.326  1.00 20.00    -0.380 OA
HETATM    7  H22 UNL     1     -32.916   5.628   1.458  1.00 20.00     0.211 HD
ENDBRANCH   3   6
ENDBRANCH   2   3
BRANCH   1   8
HETATM    8  C7  UNL     1     -32.345   9.825   0.501  1.00 20.00     0.020 A 
HETATM    9  C5  UNL     1     -31.292   9.615  -0.563  1.00 20.00     0.024 A 
HETATM   10  C6  UNL     1     -32.742   9.643  -0.947  1.00 20.00     0.024 A 
HETATM   11  C8  UNL     1     -32.477  11.194   1.105  1.00 20.00     0.029 C 
ENDBRANCH   1   8
TORSDOF 4
ENDMDL
MODEL 6
REMARK VINA RESULT:      -0.4      1.329      1.366
REMARK  4 active torsions:
REMARK  status: ('A' for Active; 'I' for Inactive)
REMARK    1  A    between atoms: C1_1  and  C7_7 
REMARK    2  A    between atoms: C2_2  and  C9_9 
REMARK    3  A    between atoms: C4_4  and  C9_9 
REMARK    4  A    between atoms: C9_9  and  O10_10 
ROOT
HETATM    1  C1  UNL     1     -32.693   8.764   1.732  1.00 20.00    -0.094 C 
HETATM    2  C2  UNL     1     -33.182   8.329   2.739  1.00 20.00    -0.070 C 
ENDROOT
BRANCH   2   3
HETATM    3  C9  UNL     1     -33.787   7.804   3.969  1.00 20.00     0.219 C 
BRANCH   3   4
HETATM    4  C4  UNL     1     -34.198   6.377   3.767  1.00 20.00     0.007 C 
HETATM    5  C3  UNL     1     -35.381   5.881   4.148  1.00 20.00     0.010 C 
ENDBRANCH   3   4
BRANCH   3   6
HETATM    6  O10 UNL     1     -32.842   7.845   5.034  1.00 20.00    -0.380 OA
HETATM    7  H22 UNL     1     -32.181   7.161   4.843  1.00 20.00     0.211 HD
ENDBRANCH   3   6
ENDBRANCH   2   3
BRANCH   1   8
HETATM    8  C7  UNL     1     -32.104   9.285   0.525  1.00 20.00     0.020 A 
HETATM    9  C5  UNL     1     -33.044   9.838  -0.522  1.00 20.00     0.024 A 
HETATM   10  C6  UNL     1     -32.205  10.776   0.294  1.00 20.00     0.024 A 
HETATM   11  C8  UNL     1     -30.863   8.580   0.059  1.00 20.00     0.029 C 
ENDBRANCH   1   8
TORSDOF 4
ENDMDL
MODEL 7
REMARK VINA RESULT:      -0.3      1.736      4.824
REMARK  4 active torsions:
REMARK  status: ('A' for Active; 'I' for Inactive)
REMARK    1  A    between atoms: C1_1  and  C7_7 
REMARK    2  A    between atoms: C2_2  and  C9_9 
REMARK    3  A    between atoms: C4_4  and  C9_9 
REMARK    4  A    between atoms: C9_9  and  O10_10 
ROOT
HETATM    1  C1  UNL     1     -33.189   7.171   2.250  1.00 20.00    -0.094 C 
HETATM    2  C2  UNL     1     -32.611   7.748   1.370  1.00 20.00    -0.070 C 
ENDROOT
BRANCH   2   3
HETATM    3  C9  UNL     1     -31.912   8.456   0.290  1.00 20.00     0.219 C 
BRANCH   3   4
HETATM    4  C4  UNL     1     -32.688   9.675  -0.106  1.00 20.00     0.007 C 
HETATM    5  C3  UNL     1     -32.743  10.794   0.626  1.00 20.00     0.010 C 
ENDBRANCH   3   4
BRANCH   3   6
HETATM    6  O10 UNL     1     -30.625   8.876   0.733  1.00 20.00    -0.380 OA
HETATM    7  H22 UNL     1     -30.731   9.167   1.652  1.00 20.00     0.211 HD
ENDBRANCH   3   6
ENDBRANCH   2   3
BRANCH   1   8
HETATM    8  C7  UNL     1     -33.880   6.477   3.307  1.00 20.00     0.020 A 
HETATM    9  C5  UNL     1     -34.228   7.271   4.545  1.00 20.00     0.024 A 
HETATM   10  C6  UNL     1     -35.310   6.885   3.581  1.00 20.00     0.024 A 
HETATM   11  C8  UNL     1     -33.512   5.031   3.474  1.00 20.00     0.029 C 
ENDBRANCH   1   8
TORSDOF 4
ENDMDL
MODEL 8
REMARK VINA RESULT:       0.2      1.831      2.746
REMARK  4 active torsions:
REMARK  status: ('A' for Active; 'I' for Inactive)
REMARK    1  A    between atoms: C1_1  and  C7_7 
REMARK    2  A    between atoms: C2_2  and  C9_9 
REMARK    3  A    between atoms: C4_4  and  C9_9 
REMARK    4  A    between atoms: C9_9  and  O10_10 
ROOT
HETATM    1  C1  UNL     1     -33.233   6.789   2.482  1.00 20.00    -0.094 C 
HETATM    2  C2  UNL     1     -34.131   6.401   3.179  1.00 20.00    -0.070 C 
ENDROOT
BRANCH   2   3
HETATM    3  C9  UNL     1     -35.232   5.936   4.031  1.00 20.00     0.219 C 
BRANCH   3   4
HETATM    4  C4  UNL     1     -34.929   4.565   4.553  1.00 20.00     0.007 C 
HETATM    5  C3  UNL     1     -33.837   3.865   4.222  1.00 20.00     0.010 C 
ENDBRANCH   3   4
BRANCH   3   6
HETATM    6  O10 UNL     1     -35.388   6.808   5.147  1.00 20.00    -0.380 OA
HETATM    7  H22 UNL     1     -35.279   7.710   4.809  1.00 20.00     0.211 HD
ENDBRANCH   3   6
ENDBRANCH   2   3
BRANCH   1   8
HETATM    8  C7  UNL     1     -32.155   7.253   1.647  1.00 20.00     0.020 A 
HETATM    9  C5  UNL     1     -32.291   8.630   1.039  1.00 20.00     0.024 A 
HETATM   10  C6  UNL     1     -31.326   8.406   2.165  1.00 20.00     0.024 A 
HETATM   11  C8  UNL     1     -31.463   6.190   0.841  1.00 20.00     0.029 C 
ENDBRANCH   1   8
TORSDOF 4
ENDMDL
MODEL 9
REMARK VINA RESULT:       0.5      2.373      5.868
REMARK  4 active torsions:
REMARK  status: ('A' for Active; 'I' for Inactive)
REMARK    1  A    between atoms: C1_1  and  C7_7 
REMARK    2  A    between atoms: C2_2  and  C9_9 
REMARK    3  A    between atoms: C4_4  and  C9_9 
REMARK    4  A    between atoms: C9_9  and  O10_10 
ROOT
HETATM    1  C1  UNL     1     -33.428   4.895   3.291  1.00 20.00    -0.094 C 
HETATM    2  C2  UNL     1     -33.037   5.584   2.388  1.00 20.00    -0.070 C 
ENDROOT
BRANCH   2   3
HETATM    3  C9  UNL     1     -32.552   6.421   1.284  1.00 20.00     0.219 C 
BRANCH   3   4
HETATM    4  C4  UNL     1     -32.111   7.753   1.810  1.00 20.00     0.007 C 
HETATM    5  C3  UNL     1     -32.031   8.861   1.062  1.00 20.00     0.010 C 
ENDBRANCH   3   4
BRANCH   3   6
HETATM    6  O10 UNL     1     -31.432   5.802   0.657  1.00 20.00    -0.380 OA
HETATM    7  H22 UNL     1     -30.856   6.519   0.352  1.00 20.00     0.211 HD
ENDBRANCH   3   6
ENDBRANCH   2   3
BRANCH   1   8
HETATM    8  C7  UNL     1     -33.899   4.070   4.374  1.00 20.00     0.020 A 
HETATM    9  C5  UNL     1     -33.564   2.596   4.319  1.00 20.00     0.024 A 
HETATM   10  C6  UNL     1     -32.856   3.483   5.299  1.00 20.00     0.024 A 
HETATM   11  C8  UNL     1     -35.220   4.474   4.963  1.00 20.00     0.029 C 
ENDBRANCH   1   8
TORSDOF 4
ENDMDL
