MODEL 1
REMARK VINA RESULT:      -2.5      0.000      0.000
REMARK  2 active torsions:
REMARK  status: ('A' for Active; 'I' for Inactive)
REMARK    1  A    between atoms: C1_1  and  C4_4 
REMARK    2  A    between atoms: C1_1  and  C5_5 
ROOT
HETATM    1  C1  UNL     1     -32.885   6.755   2.003  1.00 20.00     0.144 C 
HETATM    2  O6  UNL     1     -32.758   5.635   1.512  1.00 20.00    -0.296 OA
ENDROOT
BRANCH   1   3
HETATM    3  C4  UNL     1     -34.105   7.117   2.733  1.00 20.00     0.056 A 
HETATM    4  C2  UNL     1     -34.576   6.242   3.864  1.00 20.00     0.013 A 
HETATM    5  C3  UNL     1     -33.999   7.595   4.155  1.00 20.00     0.013 A 
ENDBRANCH   1   3
BRANCH   1   6
HETATM    6  C5  UNL     1     -31.831   7.835   1.911  1.00 20.00     0.193 C 
HETATM    7 CL7  UNL     1     -32.344   9.116   0.801  1.00 20.00    -0.123 Cl
ENDBRANCH   1   6
TORSDOF 2
ENDMDL
MODEL 2
REMARK VINA RESULT:      -2.4      3.404      3.927
REMARK  2 active torsions:
REMARK  status: ('A' for Active; 'I' for Inactive)
REMARK    1  A    between atoms: C1_1  and  C4_4 
REMARK    2  A    between atoms: C1_1  and  C5_5 
ROOT
HETATM    1  C1  UNL     1     -34.770   5.213   4.110  1.00 20.00     0.144 C 
HETATM    2  O6  UNL     1     -35.670   4.789   4.834  1.00 20.00    -0.296 OA
ENDROOT
BRANCH   1   3
HETATM    3  C4  UNL     1     -34.774   6.607   3.652  1.00 20.00     0.056 A 
HETATM    4  C2  UNL     1     -34.035   7.648   4.448  1.00 20.00     0.013 A 
HETATM    5  C3  UNL     1     -33.504   7.210   3.116  1.00 20.00     0.013 A 
ENDBRANCH   1   3
BRANCH   1   6
HETATM    6  C5  UNL     1     -33.607   4.371   3.638  1.00 20.00     0.193 C 
HETATM    7 CL7  UNL     1     -33.308   3.033   4.758  1.00 20.00    -0.123 Cl
ENDBRANCH   1   6
TORSDOF 2
ENDMDL
MODEL 3
REMARK VINA RESULT:      -2.0      2.768      3.687
REMARK  2 active torsions:
REMARK  status: ('A' for Active; 'I' for Inactive)
REMARK    1  A    between atoms: C1_1  and  C4_4 
REMARK    2  A    between atoms: C1_1  and  C5_5 
ROOT
HETATM    1  C1  UNL     1     -34.000   7.183   3.673  1.00 20.00     0.144 C 
HETATM    2  O6  UNL     1     -33.488   7.877   4.549  1.00 20.00    -0.296 OA
ENDROOT
BRANCH   1   3
HETATM    3  C4  UNL     1     -33.536   7.271   2.284  1.00 20.00     0.056 A 
HETATM    4  C2  UNL     1     -32.083   7.545   2.006  1.00 20.00     0.013 A 
HETATM    5  C3  UNL     1     -32.652   6.186   1.731  1.00 20.00     0.013 A 
ENDBRANCH   1   3
BRANCH   1   6
HETATM    6  C5  UNL     1     -35.119   6.199   3.930  1.00 20.00     0.193 C 
HETATM    7 CL7  UNL     1     -34.469   4.586   4.259  1.00 20.00    -0.123 Cl
ENDBRANCH   1   6
TORSDOF 2
ENDMDL
MODEL 4
REMARK VINA RESULT:      -2.0      2.025      2.259
REMARK  2 active torsions:
REMARK  status: ('A' for Active; 'I' for Inactive)
REMARK    1  A    between atoms: C1_1  and  C4_4 
REMARK    2  A    between atoms: C1_1  and  C5_5 
ROOT
HETATM    1  C1  UNL     1     -33.485   7.390   3.550  1.00 20.00     0.144 C 
HETATM    2  O6  UNL     1     -33.543   7.990   4.623  1.00 20.00    -0.296 OA
ENDROOT
BRANCH   1   3
HETATM    3  C4  UNL     1     -34.415   6.295   3.255  1.00 20.00     0.056 A 
HETATM    4  C2  UNL     1     -34.310   5.008   4.027  1.00 20.00     0.013 A 
HETATM    5  C3  UNL     1     -35.467   5.930   4.266  1.00 20.00     0.013 A 
ENDBRANCH   1   3
BRANCH   1   6
HETATM    6  C5  UNL     1     -32.484   7.713   2.464  1.00 20.00     0.193 C 
HETATM    7 CL7  UNL     1     -32.197   6.298   1.439  1.00 20.00    -0.123 Cl
ENDBRANCH   1   6
TORSDOF 2
ENDMDL
MODEL 5
REMARK VINA RESULT:      -1.9      2.300      3.472
REMARK  2 active torsions:
REMARK  status: ('A' for Active; 'I' for Inactive)
REMARK    1  A    between atoms: C1_1  and  C4_4 
REMARK    2  A    between atoms: C1_1  and  C5_5 
ROOT
HETATM    1  C1  UNL     1     -32.182   7.938   1.753  1.00 20.00     0.144 C 
HETATM    2  O6  UNL     1     -32.091   6.781   1.346  1.00 20.00    -0.296 OA
ENDROOT
BRANCH   1   3
HETATM    3  C4  UNL     1     -31.789   9.063   0.898  1.00 20.00     0.056 A 
HETATM    4  C2  UNL     1     -32.589   9.364  -0.340  1.00 20.00     0.013 A 
HETATM    5  C3  UNL     1     -32.665  10.285   0.840  1.00 20.00     0.013 A 
ENDBRANCH   1   3
BRANCH   1   6
HETATM    6  C5  UNL     1     -32.694   8.305   3.127  1.00 20.00     0.193 C 
HETATM    7 CL7  UNL     1     -34.001   7.218   3.619  1.00 20.00    -0.123 Cl
ENDBRANCH   1   6
TORSDOF 2
ENDMDL
MODEL 6
REMARK VINA RESULT:      -1.9      2.199      3.339
REMARK  2 active torsions:
REMARK  status: ('A' for Active; 'I' for Inactive)
REMARK    1  A    between atoms: C1_1  and  C4_4 
REMARK    2  A    between atoms: C1_1  and  C5_5 
ROOT
HETATM    1  C1  UNL     1     -33.244   7.044   2.755  1.00 20.00     0.144 C 
HETATM    2  O6  UNL     1     -33.298   5.997   2.112  1.00 20.00    -0.296 OA
ENDROOT
BRANCH   1   3
HETATM    3  C4  UNL     1     -32.264   8.080   2.413  1.00 20.00     0.056 A 
HETATM    4  C2  UNL     1     -31.281   7.829   1.302  1.00 20.00     0.013 A 
HETATM    5  C3  UNL     1     -32.393   8.815   1.107  1.00 20.00     0.013 A 
ENDBRANCH   1   3
BRANCH   1   6
HETATM    6  C5  UNL     1     -34.155   7.360   3.919  1.00 20.00     0.193 C 
HETATM    7 CL7  UNL     1     -35.416   6.129   4.079  1.00 20.00    -0.123 Cl
ENDBRANCH   1   6
TORSDOF 2
ENDMDL
MODEL 7
REMARK VINA RESULT:      -1.8      2.436      3.256
REMARK  2 active torsions:
REMARK  status: ('A' for Active; 'I' for Inactive)
REMARK    1  A    between atoms: C1_1  and  C4_4 
REMARK    2  A    between atoms: C1_1  and  C5_5 
ROOT
HETATM    1  C1  UNL     1     -33.079   7.282   2.769  1.00 20.00     0.144 C 
HETATM    2  O6  UNL     1     -32.323   8.128   2.297  1.00 20.00    -0.296 OA
ENDROOT
BRANCH   1   3
HETATM    3  C4  UNL     1     -33.053   5.900   2.277  1.00 20.00     0.056 A 
HETATM    4  C2  UNL     1     -33.348   5.626   0.827  1.00 20.00     0.013 A 
HETATM    5  C3  UNL     1     -31.951   5.469   1.347  1.00 20.00     0.013 A 
ENDBRANCH   1   3
BRANCH   1   6
HETATM    6  C5  UNL     1     -34.077   7.568   3.868  1.00 20.00     0.193 C 
HETATM    7 CL7  UNL     1     -35.264   6.261   3.991  1.00 20.00    -0.123 Cl
ENDBRANCH   1   6
TORSDOF 2
ENDMDL
MODEL 8
REMARK VINA RESULT:      -1.8      2.062      3.131
REMARK  2 active torsions:
REMARK  status: ('A' for Active; 'I' for Inactive)
REMARK    1  A    between atoms: C1_1  and  C4_4 
REMARK    2  A    between atoms: C1_1  and  C5_5 
ROOT
HETATM    1  C1  UNL     1     -33.870   6.057   3.196  1.00 20.00     0.144 C 
HETATM    2  O6  UNL     1     -33.719   4.916   3.630  1.00 20.00    -0.296 OA
ENDROOT
BRANCH   1   3
HETATM    3  C4  UNL     1     -33.344   6.431   1.879  1.00 20.00     0.056 A 
HETATM    4  C2  UNL     1     -32.056   7.205   1.791  1.00 20.00     0.013 A 
HETATM    5  C3  UNL     1     -32.094   5.767   1.369  1.00 20.00     0.013 A 
ENDBRANCH   1   3
BRANCH   1   6
HETATM    6  C5  UNL     1     -34.592   7.151   3.950  1.00 20.00     0.193 C 
HETATM    7 CL7  UNL     1     -33.459   8.080   4.942  1.00 20.00    -0.123 Cl
ENDBRANCH   1   6
TORSDOF 2
ENDMDL
MODEL 9
REMARK VINA RESULT:      -1.8      1.377      1.418
REMARK  2 active torsions:
REMARK  status: ('A' for Active; 'I' for Inactive)
REMARK    1  A    between atoms: C1_1  and  C4_4 
REMARK    2  A    between atoms: C1_1  and  C5_5 
ROOT
HETATM    1  C1  UNL     1     -33.355   5.696   2.674  1.00 20.00     0.144 C 
HETATM    2  O6  UNL     1     -33.352   4.628   3.284  1.00 20.00    -0.296 OA
ENDROOT
BRANCH   1   3
HETATM    3  C4  UNL     1     -34.299   6.760   3.034  1.00 20.00     0.056 A 
HETATM    4  C2  UNL     1     -35.325   6.505   4.105  1.00 20.00     0.013 A 
HETATM    5  C3  UNL     1     -34.177   7.430   4.376  1.00 20.00     0.013 A 
ENDBRANCH   1   3
BRANCH   1   6
HETATM    6  C5  UNL     1     -32.415   6.012   1.533  1.00 20.00     0.193 C 
HETATM    7 CL7  UNL     1     -31.869   7.693   1.619  1.00 20.00    -0.123 Cl
ENDBRANCH   1   6
TORSDOF 2
ENDMDL
