MODEL 1
REMARK VINA RESULT:       0.7      0.000      0.000
REMARK  1 active torsions:
REMARK  status: ('A' for Active; 'I' for Inactive)
REMARK    1  A    between atoms: C1_1  and  C7_7 
ROOT
HETATM    1  C2  UNL     1     -33.733   4.882   3.527  1.00 20.00     0.048 C 
HETATM    2  C3  UNL     1     -33.110   7.293   3.650  1.00 20.00     0.048 C 
HETATM    3  C4  UNL     1     -34.936   5.189   4.422  1.00 20.00     0.273 C 
HETATM    4  C5  UNL     1     -34.334   7.523   4.540  1.00 20.00     0.273 C 
HETATM    5  C6  UNL     1     -35.072   6.566   2.565  1.00 20.00     0.288 C 
HETATM    6  C7  UNL     1     -33.612   6.180   2.728  1.00 20.00     0.042 C 
HETATM    7  N8  UNL     1     -35.352   6.564   4.025  1.00 20.00     0.089 N 
ENDROOT
BRANCH   6   8
HETATM    8  C1  UNL     1     -32.854   6.058   1.451  1.00 20.00     0.242 C 
HETATM    9  O9  UNL     1     -31.810   5.422   1.342  1.00 20.00    -0.306 OA
ENDBRANCH   6   8
TORSDOF 1
ENDMDL
MODEL 2
REMARK VINA RESULT:       0.9      2.229      3.292
REMARK  1 active torsions:
REMARK  status: ('A' for Active; 'I' for Inactive)
REMARK    1  A    between atoms: C1_1  and  C7_7 
ROOT
HETATM    1  C2  UNL     1     -33.144   7.582   3.713  1.00 20.00     0.048 C 
HETATM    2  C3  UNL     1     -33.109   5.164   3.108  1.00 20.00     0.048 C 
HETATM    3  C4  UNL     1     -32.282   7.861   2.480  1.00 20.00     0.273 C 
HETATM    4  C5  UNL     1     -32.248   5.521   1.894  1.00 20.00     0.273 C 
HETATM    5  C6  UNL     1     -34.195   6.768   1.767  1.00 20.00     0.288 C 
HETATM    6  C7  UNL     1     -33.992   6.406   3.228  1.00 20.00     0.042 C 
HETATM    7  N8  UNL     1     -32.741   6.863   1.472  1.00 20.00     0.089 N 
ENDROOT
BRANCH   6   8
HETATM    8  C1  UNL     1     -35.252   6.188   3.996  1.00 20.00     0.242 C 
HETATM    9  O9  UNL     1     -35.546   5.119   4.521  1.00 20.00    -0.306 OA
ENDBRANCH   6   8
TORSDOF 1
ENDMDL
MODEL 3
REMARK VINA RESULT:       1.2      2.374      3.111
REMARK  1 active torsions:
REMARK  status: ('A' for Active; 'I' for Inactive)
REMARK    1  A    between atoms: C1_1  and  C7_7 
ROOT
HETATM    1  C2  UNL     1     -31.239   7.068   1.658  1.00 20.00     0.048 C 
HETATM    2  C3  UNL     1     -33.148   7.786   3.091  1.00 20.00     0.048 C 
HETATM    3  C4  UNL     1     -31.780   5.638   1.722  1.00 20.00     0.273 C 
HETATM    4  C5  UNL     1     -33.629   6.333   3.109  1.00 20.00     0.273 C 
HETATM    5  C6  UNL     1     -33.467   6.992   0.896  1.00 20.00     0.288 C 
HETATM    6  C7  UNL     1     -32.532   7.883   1.695  1.00 20.00     0.042 C 
HETATM    7  N8  UNL     1     -33.261   5.804   1.765  1.00 20.00     0.089 N 
ENDROOT
BRANCH   6   8
HETATM    8  C1  UNL     1     -32.406   9.276   1.179  1.00 20.00     0.242 C 
HETATM    9  O9  UNL     1     -32.407   9.557  -0.015  1.00 20.00    -0.306 OA
ENDBRANCH   6   8
TORSDOF 1
ENDMDL
MODEL 4
REMARK VINA RESULT:       1.2      1.770      1.903
REMARK  1 active torsions:
REMARK  status: ('A' for Active; 'I' for Inactive)
REMARK    1  A    between atoms: C1_1  and  C7_7 
ROOT
HETATM    1  C2  UNL     1     -33.159   6.119   2.700  1.00 20.00     0.048 C 
HETATM    2  C3  UNL     1     -32.337   8.039   4.060  1.00 20.00     0.048 C 
HETATM    3  C4  UNL     1     -34.376   6.036   3.624  1.00 20.00     0.273 C 
HETATM    4  C5  UNL     1     -33.582   7.896   4.941  1.00 20.00     0.273 C 
HETATM    5  C6  UNL     1     -34.296   8.182   2.757  1.00 20.00     0.288 C 
HETATM    6  C7  UNL     1     -32.885   7.623   2.694  1.00 20.00     0.042 C 
HETATM    7  N8  UNL     1     -34.651   7.452   4.002  1.00 20.00     0.089 N 
ENDROOT
BRANCH   6   8
HETATM    8  C1  UNL     1     -32.075   8.104   1.540  1.00 20.00     0.242 C 
HETATM    9  O9  UNL     1     -32.317   9.140   0.929  1.00 20.00    -0.306 OA
ENDBRANCH   6   8
TORSDOF 1
ENDMDL
MODEL 5
REMARK VINA RESULT:       1.4      2.625      3.623
REMARK  1 active torsions:
REMARK  status: ('A' for Active; 'I' for Inactive)
REMARK    1  A    between atoms: C1_1  and  C7_7 
ROOT
HETATM    1  C2  UNL     1     -33.142   6.248   1.966  1.00 20.00     0.048 C 
HETATM    2  C3  UNL     1     -33.508   8.707   1.784  1.00 20.00     0.048 C 
HETATM    3  C4  UNL     1     -31.830   6.427   1.199  1.00 20.00     0.273 C 
HETATM    4  C5  UNL     1     -32.184   8.807   1.023  1.00 20.00     0.273 C 
HETATM    5  C6  UNL     1     -31.748   7.800   3.061  1.00 20.00     0.288 C 
HETATM    6  C7  UNL     1     -33.215   7.558   2.750  1.00 20.00     0.042 C 
HETATM    7  N8  UNL     1     -31.322   7.758   1.637  1.00 20.00     0.089 N 
ENDROOT
BRANCH   6   8
HETATM    8  C1  UNL     1     -34.107   7.521   3.944  1.00 20.00     0.242 C 
HETATM    9  O9  UNL     1     -35.015   6.709   4.084  1.00 20.00    -0.306 OA
ENDBRANCH   6   8
TORSDOF 1
ENDMDL
MODEL 6
REMARK VINA RESULT:       1.5      1.796      2.677
REMARK  1 active torsions:
REMARK  status: ('A' for Active; 'I' for Inactive)
REMARK    1  A    between atoms: C1_1  and  C7_7 
ROOT
HETATM    1  C2  UNL     1     -33.471   5.645   2.230  1.00 20.00     0.048 C 
HETATM    2  C3  UNL     1     -35.360   6.316   3.712  1.00 20.00     0.048 C 
HETATM    3  C4  UNL     1     -32.995   7.099   2.245  1.00 20.00     0.273 C 
HETATM    4  C5  UNL     1     -34.823   7.749   3.680  1.00 20.00     0.273 C 
HETATM    5  C6  UNL     1     -33.120   6.378   4.442  1.00 20.00     0.288 C 
HETATM    6  C7  UNL     1     -34.065   5.507   3.632  1.00 20.00     0.042 C 
HETATM    7  N8  UNL     1     -33.342   7.589   3.609  1.00 20.00     0.089 N 
ENDROOT
BRANCH   6   8
HETATM    8  C1  UNL     1     -34.191   4.104   4.121  1.00 20.00     0.242 C 
HETATM    9  O9  UNL     1     -33.242   3.442   4.527  1.00 20.00    -0.306 OA
ENDBRANCH   6   8
TORSDOF 1
ENDMDL
MODEL 7
REMARK VINA RESULT:       2.1      2.205      3.181
REMARK  1 active torsions:
REMARK  status: ('A' for Active; 'I' for Inactive)
REMARK    1  A    between atoms: C1_1  and  C7_7 
ROOT
HETATM    1  C2  UNL     1     -33.512   7.286   2.922  1.00 20.00     0.048 C 
HETATM    2  C3  UNL     1     -33.449   6.818   0.474  1.00 20.00     0.048 C 
HETATM    3  C4  UNL     1     -33.631   5.781   3.166  1.00 20.00     0.273 C 
HETATM    4  C5  UNL     1     -33.569   5.327   0.797  1.00 20.00     0.273 C 
HETATM    5  C6  UNL     1     -31.714   6.140   1.918  1.00 20.00     0.288 C 
HETATM    6  C7  UNL     1     -32.637   7.321   1.669  1.00 20.00     0.042 C 
HETATM    7  N8  UNL     1     -32.822   5.163   2.077  1.00 20.00     0.089 N 
ENDROOT
BRANCH   6   8
HETATM    8  C1  UNL     1     -31.940   8.617   1.431  1.00 20.00     0.242 C 
HETATM    9  O9  UNL     1     -32.244   9.393   0.531  1.00 20.00    -0.306 OA
ENDBRANCH   6   8
TORSDOF 1
ENDMDL
MODEL 8
REMARK VINA RESULT:       2.1      1.318      2.223
REMARK  1 active torsions:
REMARK  status: ('A' for Active; 'I' for Inactive)
REMARK    1  A    between atoms: C1_1  and  C7_7 
ROOT
HETATM    1  C2  UNL     1     -34.964   7.328   2.811  1.00 20.00     0.048 C 
HETATM    2  C3  UNL     1     -33.213   5.635   2.279  1.00 20.00     0.048 C 
HETATM    3  C4  UNL     1     -35.523   6.363   3.858  1.00 20.00     0.273 C 
HETATM    4  C5  UNL     1     -33.827   4.724   3.345  1.00 20.00     0.273 C 
HETATM    5  C6  UNL     1     -33.293   6.734   4.362  1.00 20.00     0.288 C 
HETATM    6  C7  UNL     1     -33.469   7.017   2.880  1.00 20.00     0.042 C 
HETATM    7  N8  UNL     1     -34.322   5.661   4.394  1.00 20.00     0.089 N 
ENDROOT
BRANCH   6   8
HETATM    8  C1  UNL     1     -32.584   8.090   2.342  1.00 20.00     0.242 C 
HETATM    9  O9  UNL     1     -31.690   7.883   1.529  1.00 20.00    -0.306 OA
ENDBRANCH   6   8
TORSDOF 1
ENDMDL
MODEL 9
REMARK VINA RESULT:       2.5      2.685      3.650
REMARK  1 active torsions:
REMARK  status: ('A' for Active; 'I' for Inactive)
REMARK    1  A    between atoms: C1_1  and  C7_7 
ROOT
HETATM    1  C2  UNL     1     -33.497   8.527   2.501  1.00 20.00     0.048 C 
HETATM    2  C3  UNL     1     -33.165   7.188   0.425  1.00 20.00     0.048 C 
HETATM    3  C4  UNL     1     -33.253   7.254   3.314  1.00 20.00     0.273 C 
HETATM    4  C5  UNL     1     -32.931   5.957   1.305  1.00 20.00     0.273 C 
HETATM    5  C6  UNL     1     -31.411   7.580   1.949  1.00 20.00     0.288 C 
HETATM    6  C7  UNL     1     -32.581   8.299   1.299  1.00 20.00     0.042 C 
HETATM    7  N8  UNL     1     -32.249   6.492   2.518  1.00 20.00     0.089 N 
ENDROOT
BRANCH   6   8
HETATM    8  C1  UNL     1     -32.214   9.535   0.550  1.00 20.00     0.242 C 
HETATM    9  O9  UNL     1     -32.784   9.899  -0.473  1.00 20.00    -0.306 OA
ENDBRANCH   6   8
TORSDOF 1
ENDMDL
