MODEL 1
REMARK VINA RESULT:      -1.2      0.000      0.000
REMARK  1 active torsions:
REMARK  status: ('A' for Active; 'I' for Inactive)
REMARK    1  A    between atoms: C1_1  and  C5_5 
ROOT
HETATM    1  C2  UNL     1     -32.344   8.229   2.368  1.00 20.00     0.015 C 
HETATM    2  C3  UNL     1     -31.467   7.301   1.530  1.00 20.00     0.021 C 
HETATM    3  C4  UNL     1     -33.542   6.166   1.804  1.00 20.00     0.033 C 
HETATM    4  C5  UNL     1     -33.697   7.517   2.506  1.00 20.00     0.073 C 
HETATM    5  C6  UNL     1     -32.038   5.921   1.811  1.00 20.00     0.083 C 
HETATM    6 CL9  UNL     1     -31.543   4.728   0.601  1.00 20.00    -0.125 Cl
ENDROOT
BRANCH   4   7
HETATM    7  C1  UNL     1     -34.048   7.312   3.949  1.00 20.00     0.223 C 
HETATM    8  O7  UNL     1     -33.484   7.933   4.845  1.00 20.00    -0.279 OA
HETATM    9 CL8  UNL     1     -35.304   6.128   4.153  1.00 20.00    -0.043 Cl
ENDBRANCH   4   7
TORSDOF 1
ENDMDL
MODEL 2
REMARK VINA RESULT:      -0.8      2.214      2.656
REMARK  1 active torsions:
REMARK  status: ('A' for Active; 'I' for Inactive)
REMARK    1  A    between atoms: C1_1  and  C5_5 
ROOT
HETATM    1  C2  UNL     1     -34.309   7.503   4.533  1.00 20.00     0.015 C 
HETATM    2  C3  UNL     1     -33.155   8.178   3.795  1.00 20.00     0.021 C 
HETATM    3  C4  UNL     1     -33.960   6.480   2.334  1.00 20.00     0.033 C 
HETATM    4  C5  UNL     1     -34.858   6.439   3.573  1.00 20.00     0.073 C 
HETATM    5  C6  UNL     1     -32.665   7.101   2.841  1.00 20.00     0.083 C 
HETATM    6 CL9  UNL     1     -31.676   7.762   1.532  1.00 20.00    -0.125 Cl
ENDROOT
BRANCH   4   7
HETATM    7  C1  UNL     1     -34.811   5.078   4.200  1.00 20.00     0.223 C 
HETATM    8  O7  UNL     1     -35.679   4.697   4.979  1.00 20.00    -0.279 OA
HETATM    9 CL8  UNL     1     -33.422   4.170   3.686  1.00 20.00    -0.043 Cl
ENDBRANCH   4   7
TORSDOF 1
ENDMDL
MODEL 3
REMARK VINA RESULT:      -0.6      1.715      2.178
REMARK  1 active torsions:
REMARK  status: ('A' for Active; 'I' for Inactive)
REMARK    1  A    between atoms: C1_1  and  C5_5 
ROOT
HETATM    1  C2  UNL     1     -33.167   6.024   2.259  1.00 20.00     0.015 C 
HETATM    2  C3  UNL     1     -32.624   6.708   1.005  1.00 20.00     0.021 C 
HETATM    3  C4  UNL     1     -32.200   8.209   2.804  1.00 20.00     0.033 C 
HETATM    4  C5  UNL     1     -32.852   6.971   3.425  1.00 20.00     0.073 C 
HETATM    5  C6  UNL     1     -32.675   8.186   1.357  1.00 20.00     0.083 C 
HETATM    6 CL9  UNL     1     -31.654   9.165   0.295  1.00 20.00    -0.125 Cl
ENDROOT
BRANCH   4   7
HETATM    7  C1  UNL     1     -34.104   7.358   4.153  1.00 20.00     0.223 C 
HETATM    8  O7  UNL     1     -34.146   8.342   4.886  1.00 20.00    -0.279 OA
HETATM    9 CL8  UNL     1     -35.414   6.265   3.824  1.00 20.00    -0.043 Cl
ENDBRANCH   4   7
TORSDOF 1
ENDMDL
MODEL 4
REMARK VINA RESULT:      -0.5      2.064      3.505
REMARK  1 active torsions:
REMARK  status: ('A' for Active; 'I' for Inactive)
REMARK    1  A    between atoms: C1_1  and  C5_5 
ROOT
HETATM    1  C2  UNL     1     -32.421   5.719   1.756  1.00 20.00     0.015 C 
HETATM    2  C3  UNL     1     -33.318   5.062   2.804  1.00 20.00     0.021 C 
HETATM    3  C4  UNL     1     -34.273   7.200   2.376  1.00 20.00     0.033 C 
HETATM    4  C5  UNL     1     -33.063   7.079   1.447  1.00 20.00     0.073 C 
HETATM    5  C6  UNL     1     -33.955   6.242   3.518  1.00 20.00     0.083 C 
HETATM    6 CL9  UNL     1     -35.398   5.778   4.430  1.00 20.00    -0.125 Cl
ENDROOT
BRANCH   4   7
HETATM    7  C1  UNL     1     -32.098   8.197   1.707  1.00 20.00     0.223 C 
HETATM    8  O7  UNL     1     -31.334   8.178   2.668  1.00 20.00    -0.279 OA
HETATM    9 CL8  UNL     1     -32.216   9.453   0.513  1.00 20.00    -0.043 Cl
ENDBRANCH   4   7
TORSDOF 1
ENDMDL
MODEL 5
REMARK VINA RESULT:      -0.3      2.642      3.092
REMARK  1 active torsions:
REMARK  status: ('A' for Active; 'I' for Inactive)
REMARK    1  A    between atoms: C1_1  and  C5_5 
ROOT
HETATM    1  C2  UNL     1     -31.241   7.379   1.390  1.00 20.00     0.015 C 
HETATM    2  C3  UNL     1     -31.236   8.527   0.381  1.00 20.00     0.021 C 
HETATM    3  C4  UNL     1     -32.795   9.148   2.070  1.00 20.00     0.033 C 
HETATM    4  C5  UNL     1     -32.211   7.801   2.501  1.00 20.00     0.073 C 
HETATM    5  C6  UNL     1     -32.605   9.161   0.558  1.00 20.00     0.083 C 
HETATM    6 CL9  UNL     1     -32.682  10.794  -0.118  1.00 20.00    -0.125 Cl
ENDROOT
BRANCH   4   7
HETATM    7  C1  UNL     1     -33.308   6.792   2.665  1.00 20.00     0.223 C 
HETATM    8  O7  UNL     1     -33.373   5.790   1.958  1.00 20.00    -0.279 OA
HETATM    9 CL8  UNL     1     -34.413   7.227   3.933  1.00 20.00    -0.043 Cl
ENDBRANCH   4   7
TORSDOF 1
ENDMDL
MODEL 6
REMARK VINA RESULT:      -0.2      2.870      3.732
REMARK  1 active torsions:
REMARK  status: ('A' for Active; 'I' for Inactive)
REMARK    1  A    between atoms: C1_1  and  C5_5 
ROOT
HETATM    1  C2  UNL     1     -31.828   8.745   3.103  1.00 20.00     0.015 C 
HETATM    2  C3  UNL     1     -32.784   7.972   4.010  1.00 20.00     0.021 C 
HETATM    3  C4  UNL     1     -32.986   6.983   1.854  1.00 20.00     0.033 C 
HETATM    4  C5  UNL     1     -31.924   8.078   1.725  1.00 20.00     0.073 C 
HETATM    5  C6  UNL     1     -33.825   7.426   3.046  1.00 20.00     0.083 C 
HETATM    6 CL9  UNL     1     -34.758   6.096   3.746  1.00 20.00    -0.125 Cl
ENDROOT
BRANCH   4   7
HETATM    7  C1  UNL     1     -32.331   9.070   0.677  1.00 20.00     0.223 C 
HETATM    8  O7  UNL     1     -32.343   8.780  -0.516  1.00 20.00    -0.279 OA
HETATM    9 CL8  UNL     1     -32.759  10.607   1.364  1.00 20.00    -0.043 Cl
ENDBRANCH   4   7
TORSDOF 1
ENDMDL
MODEL 7
REMARK VINA RESULT:      -0.1      2.290      3.740
REMARK  1 active torsions:
REMARK  status: ('A' for Active; 'I' for Inactive)
REMARK    1  A    between atoms: C1_1  and  C5_5 
ROOT
HETATM    1  C2  UNL     1     -33.350   8.061   3.531  1.00 20.00     0.015 C 
HETATM    2  C3  UNL     1     -34.481   7.463   4.365  1.00 20.00     0.021 C 
HETATM    3  C4  UNL     1     -33.389   5.618   3.330  1.00 20.00     0.033 C 
HETATM    4  C5  UNL     1     -32.617   6.868   2.900  1.00 20.00     0.073 C 
HETATM    5  C6  UNL     1     -34.778   6.145   3.670  1.00 20.00     0.083 C 
HETATM    6 CL9  UNL     1     -35.689   5.032   4.700  1.00 20.00    -0.125 Cl
ENDROOT
BRANCH   4   7
HETATM    7  C1  UNL     1     -32.605   6.978   1.405  1.00 20.00     0.223 C 
HETATM    8  O7  UNL     1     -32.928   6.036   0.687  1.00 20.00    -0.279 OA
HETATM    9 CL8  UNL     1     -32.093   8.549   0.870  1.00 20.00    -0.043 Cl
ENDBRANCH   4   7
TORSDOF 1
ENDMDL
MODEL 8
REMARK VINA RESULT:      -0.1      2.293      2.872
REMARK  1 active torsions:
REMARK  status: ('A' for Active; 'I' for Inactive)
REMARK    1  A    between atoms: C1_1  and  C5_5 
ROOT
HETATM    1  C2  UNL     1     -33.290   5.881   1.977  1.00 20.00     0.015 C 
HETATM    2  C3  UNL     1     -33.072   4.424   2.383  1.00 20.00     0.021 C 
HETATM    3  C4  UNL     1     -34.457   5.372   4.072  1.00 20.00     0.033 C 
HETATM    4  C5  UNL     1     -34.221   6.479   3.041  1.00 20.00     0.073 C 
HETATM    5  C6  UNL     1     -33.263   4.443   3.891  1.00 20.00     0.083 C 
HETATM    6 CL9  UNL     1     -33.558   2.828   4.551  1.00 20.00    -0.125 Cl
ENDROOT
BRANCH   4   7
HETATM    7  C1  UNL     1     -33.587   7.669   3.698  1.00 20.00     0.223 C 
HETATM    8  O7  UNL     1     -33.976   8.089   4.784  1.00 20.00    -0.279 OA
HETATM    9 CL8  UNL     1     -32.291   8.327   2.746  1.00 20.00    -0.043 Cl
ENDBRANCH   4   7
TORSDOF 1
ENDMDL
MODEL 9
REMARK VINA RESULT:      -0.0      1.993      2.318
REMARK  1 active torsions:
REMARK  status: ('A' for Active; 'I' for Inactive)
REMARK    1  A    between atoms: C1_1  and  C5_5 
ROOT
HETATM    1  C2  UNL     1     -33.909   7.631   4.086  1.00 20.00     0.015 C 
HETATM    2  C3  UNL     1     -32.812   8.368   3.320  1.00 20.00     0.021 C 
HETATM    3  C4  UNL     1     -33.535   6.607   1.890  1.00 20.00     0.033 C 
HETATM    4  C5  UNL     1     -34.407   6.524   3.146  1.00 20.00     0.073 C 
HETATM    5  C6  UNL     1     -32.272   7.313   2.368  1.00 20.00     0.083 C 
HETATM    6 CL9  UNL     1     -31.349   8.020   1.035  1.00 20.00    -0.125 Cl
ENDROOT
BRANCH   4   7
HETATM    7  C1  UNL     1     -34.265   5.175   3.785  1.00 20.00     0.223 C 
HETATM    8  O7  UNL     1     -33.328   4.429   3.515  1.00 20.00    -0.279 OA
HETATM    9 CL8  UNL     1     -35.552   4.844   4.904  1.00 20.00    -0.043 Cl
ENDBRANCH   4   7
TORSDOF 1
ENDMDL
