MODEL 1
REMARK VINA RESULT:       0.0      0.000      0.000
REMARK  0 active torsions:
REMARK  status: ('A' for Active; 'I' for Inactive)
ROOT
HETATM    1  C1  UNL     1     -33.500   4.389   3.198  1.00 20.00     0.013 A 
HETATM    2  C2  UNL     1     -34.455   4.149   4.110  1.00 20.00    -0.025 A 
HETATM    3  C3  UNL     1     -33.258   5.729   2.775  1.00 20.00     0.035 A 
HETATM    4  C4  UNL     1     -33.930   6.789   3.234  1.00 20.00    -0.046 A 
HETATM    5  C5  UNL     1     -32.271   6.216   1.795  1.00 20.00     0.254 A 
HETATM    6  C6  UNL     1     -35.301   5.239   4.725  1.00 20.00     0.031 A 
HETATM    7  C7  UNL     1     -35.018   6.687   4.250  1.00 20.00     0.040 A 
HETATM    8  C8  UNL     1     -33.478   8.071   2.628  1.00 20.00     0.161 A 
HETATM    9  C9  UNL     1     -31.653   8.466   0.893  1.00 20.00     0.153 C 
HETATM   10  N10 UNL     1     -32.437   7.596   1.743  1.00 20.00    -0.348 N 
HETATM   11  O11 UNL     1     -31.489   5.510   1.181  1.00 20.00    -0.267 OA
ENDROOT
TORSDOF 0
ENDMDL
MODEL 2
REMARK VINA RESULT:       1.0      2.057      4.386
REMARK  0 active torsions:
REMARK  status: ('A' for Active; 'I' for Inactive)
ROOT
HETATM    1  C1  UNL     1     -32.499   8.512   2.498  1.00 20.00     0.013 A 
HETATM    2  C2  UNL     1     -31.649   8.518   1.460  1.00 20.00    -0.025 A 
HETATM    3  C3  UNL     1     -33.168   7.302   2.848  1.00 20.00     0.035 A 
HETATM    4  C4  UNL     1     -33.003   6.144   2.200  1.00 20.00    -0.046 A 
HETATM    5  C5  UNL     1     -34.133   7.070   3.938  1.00 20.00     0.254 A 
HETATM    6  C6  UNL     1     -31.355   7.292   0.627  1.00 20.00     0.031 A 
HETATM    7  C7  UNL     1     -32.092   5.989   1.028  1.00 20.00     0.040 A 
HETATM    8  C8  UNL     1     -33.818   5.037   2.770  1.00 20.00     0.161 A 
HETATM    9  C9  UNL     1     -35.421   5.086   4.751  1.00 20.00     0.153 C 
HETATM   10  N10 UNL     1     -34.485   5.727   3.852  1.00 20.00    -0.348 N 
HETATM   11  O11 UNL     1     -34.511   7.918   4.727  1.00 20.00    -0.267 OA
ENDROOT
TORSDOF 0
ENDMDL
MODEL 3
REMARK VINA RESULT:       1.5      1.442      2.321
REMARK  0 active torsions:
REMARK  status: ('A' for Active; 'I' for Inactive)
ROOT
HETATM    1  C1  UNL     1     -34.938   6.303   4.190  1.00 20.00     0.013 A 
HETATM    2  C2  UNL     1     -35.094   5.034   4.597  1.00 20.00    -0.025 A 
HETATM    3  C3  UNL     1     -33.914   6.615   3.249  1.00 20.00     0.035 A 
HETATM    4  C4  UNL     1     -33.078   5.710   2.729  1.00 20.00    -0.046 A 
HETATM    5  C5  UNL     1     -33.567   7.926   2.672  1.00 20.00     0.254 A 
HETATM    6  C6  UNL     1     -34.231   3.896   4.104  1.00 20.00     0.031 A 
HETATM    7  C7  UNL     1     -33.126   4.260   3.080  1.00 20.00     0.040 A 
HETATM    8  C8  UNL     1     -32.105   6.300   1.770  1.00 20.00     0.161 A 
HETATM    9  C9  UNL     1     -31.855   8.728   1.034  1.00 20.00     0.153 C 
HETATM   10  N10 UNL     1     -32.501   7.690   1.809  1.00 20.00    -0.348 N 
HETATM   11  O11 UNL     1     -34.133   8.974   2.931  1.00 20.00    -0.267 OA
ENDROOT
TORSDOF 0
ENDMDL
MODEL 4
REMARK VINA RESULT:       1.5      1.680      3.791
REMARK  0 active torsions:
REMARK  status: ('A' for Active; 'I' for Inactive)
ROOT
HETATM    1  C1  UNL     1     -32.087   5.891   1.627  1.00 20.00     0.013 A 
HETATM    2  C2  UNL     1     -31.523   6.980   1.082  1.00 20.00    -0.025 A 
HETATM    3  C3  UNL     1     -33.108   6.049   2.610  1.00 20.00     0.035 A 
HETATM    4  C4  UNL     1     -33.555   7.235   3.036  1.00 20.00    -0.046 A 
HETATM    5  C5  UNL     1     -33.855   5.004   3.332  1.00 20.00     0.254 A 
HETATM    6  C6  UNL     1     -31.918   8.389   1.457  1.00 20.00     0.031 A 
HETATM    7  C7  UNL     1     -33.030   8.535   2.526  1.00 20.00     0.040 A 
HETATM    8  C8  UNL     1     -34.624   7.118   4.065  1.00 20.00     0.161 A 
HETATM    9  C9  UNL     1     -35.659   5.014   5.066  1.00 20.00     0.153 C 
HETATM   10  N10 UNL     1     -34.734   5.680   4.174  1.00 20.00    -0.348 N 
HETATM   11  O11 UNL     1     -33.697   3.805   3.184  1.00 20.00    -0.267 OA
ENDROOT
TORSDOF 0
ENDMDL
MODEL 5
REMARK VINA RESULT:       2.5      1.207      3.959
REMARK  0 active torsions:
REMARK  status: ('A' for Active; 'I' for Inactive)
ROOT
HETATM    1  C1  UNL     1     -31.729   7.886   0.458  1.00 20.00     0.013 A 
HETATM    2  C2  UNL     1     -31.756   9.214   0.264  1.00 20.00    -0.025 A 
HETATM    3  C3  UNL     1     -32.496   7.319   1.518  1.00 20.00     0.035 A 
HETATM    4  C4  UNL     1     -33.260   8.033   2.351  1.00 20.00    -0.046 A 
HETATM    5  C5  UNL     1     -32.612   5.903   1.909  1.00 20.00     0.254 A 
HETATM    6  C6  UNL     1     -32.570  10.157   1.119  1.00 20.00     0.031 A 
HETATM    7  C7  UNL     1     -33.396   9.516   2.262  1.00 20.00     0.040 A 
HETATM    8  C8  UNL     1     -33.955   7.195   3.366  1.00 20.00     0.161 A 
HETATM    9  C9  UNL     1     -33.864   4.668   3.689  1.00 20.00     0.153 C 
HETATM   10  N10 UNL     1     -33.479   5.880   2.998  1.00 20.00    -0.348 N 
HETATM   11  O11 UNL     1     -32.043   4.977   1.357  1.00 20.00    -0.267 OA
ENDROOT
TORSDOF 0
ENDMDL
MODEL 6
REMARK VINA RESULT:       2.5      1.400      2.516
REMARK  0 active torsions:
REMARK  status: ('A' for Active; 'I' for Inactive)
ROOT
HETATM    1  C1  UNL     1     -33.554   7.876   3.495  1.00 20.00     0.013 A 
HETATM    2  C2  UNL     1     -34.529   7.770   4.411  1.00 20.00    -0.025 A 
HETATM    3  C3  UNL     1     -33.166   6.724   2.751  1.00 20.00     0.035 A 
HETATM    4  C4  UNL     1     -33.719   5.516   2.903  1.00 20.00    -0.046 A 
HETATM    5  C5  UNL     1     -32.130   6.612   1.708  1.00 20.00     0.254 A 
HETATM    6  C6  UNL     1     -35.252   6.475   4.701  1.00 20.00     0.031 A 
HETATM    7  C7  UNL     1     -34.813   5.238   3.878  1.00 20.00     0.040 A 
HETATM    8  C8  UNL     1     -33.129   4.488   2.002  1.00 20.00     0.161 A 
HETATM    9  C9  UNL     1     -31.270   4.750   0.276  1.00 20.00     0.153 C 
HETATM   10  N10 UNL     1     -32.146   5.283   1.298  1.00 20.00    -0.348 N 
HETATM   11  O11 UNL     1     -31.428   7.531   1.320  1.00 20.00    -0.267 OA
ENDROOT
TORSDOF 0
ENDMDL
MODEL 7
REMARK VINA RESULT:       2.7      2.303      4.254
REMARK  0 active torsions:
REMARK  status: ('A' for Active; 'I' for Inactive)
ROOT
HETATM    1  C1  UNL     1     -34.482   7.288   3.506  1.00 20.00     0.013 A 
HETATM    2  C2  UNL     1     -33.920   8.260   2.772  1.00 20.00    -0.025 A 
HETATM    3  C3  UNL     1     -33.917   5.979   3.484  1.00 20.00     0.035 A 
HETATM    4  C4  UNL     1     -32.840   5.643   2.767  1.00 20.00    -0.046 A 
HETATM    5  C5  UNL     1     -34.367   4.774   4.204  1.00 20.00     0.254 A 
HETATM    6  C6  UNL     1     -32.700   8.042   1.908  1.00 20.00     0.031 A 
HETATM    7  C7  UNL     1     -32.103   6.611   1.902  1.00 20.00     0.040 A 
HETATM    8  C8  UNL     1     -32.458   4.214   2.923  1.00 20.00     0.161 A 
HETATM    9  C9  UNL     1     -33.568   2.407   4.338  1.00 20.00     0.153 C 
HETATM   10  N10 UNL     1     -33.479   3.764   3.844  1.00 20.00    -0.348 N 
HETATM   11  O11 UNL     1     -35.328   4.726   4.953  1.00 20.00    -0.267 OA
ENDROOT
TORSDOF 0
ENDMDL
