MODEL 1
REMARK VINA RESULT:      -1.5      0.000      0.000
REMARK  1 active torsions:
REMARK  status: ('A' for Active; 'I' for Inactive)
REMARK    1  A    between atoms: C6_6  and  N10_10 
ROOT
HETATM    1  C1  UNL     1     -32.262   8.957   0.770  1.00 20.00     0.064 C 
HETATM    2  C2  UNL     1     -32.181   8.527   3.224  1.00 20.00     0.021 C 
HETATM    3  C3  UNL     1     -33.328   7.719   3.827  1.00 20.00     0.037 C 
HETATM    4  C4  UNL     1     -32.900   6.745   1.702  1.00 20.00     0.055 C 
HETATM    5  C5  UNL     1     -31.968   7.962   1.810  1.00 20.00     0.095 C 
HETATM    6  C6  UNL     1     -33.185   6.361   3.151  1.00 20.00     0.223 C 
HETATM    7  N9  UNL     1     -32.495   9.744  -0.050  1.00 20.00    -0.197 NA
ENDROOT
BRANCH   6   8
HETATM    8  N10 UNL     1     -34.371   5.536   3.291  1.00 20.00     0.084 N 
HETATM    9  C7  UNL     1     -35.417   6.248   4.031  1.00 20.00     0.309 C 
HETATM   10  C8  UNL     1     -34.050   4.272   3.963  1.00 20.00     0.309 C 
ENDBRANCH   6   8
TORSDOF 1
ENDMDL
MODEL 2
REMARK VINA RESULT:      -1.3      1.432      4.494
REMARK  1 active torsions:
REMARK  status: ('A' for Active; 'I' for Inactive)
REMARK    1  A    between atoms: C6_6  and  N10_10 
ROOT
HETATM    1  C1  UNL     1     -33.906   4.090   4.039  1.00 20.00     0.064 C 
HETATM    2  C2  UNL     1     -34.785   6.423   4.011  1.00 20.00     0.021 C 
HETATM    3  C3  UNL     1     -33.777   7.542   3.761  1.00 20.00     0.037 C 
HETATM    4  C4  UNL     1     -33.097   5.741   2.368  1.00 20.00     0.055 C 
HETATM    5  C5  UNL     1     -34.290   5.222   3.185  1.00 20.00     0.095 C 
HETATM    6  C6  UNL     1     -33.286   7.255   2.348  1.00 20.00     0.223 C 
HETATM    7  N9  UNL     1     -33.602   3.197   4.714  1.00 20.00    -0.197 NA
ENDROOT
BRANCH   6   8
HETATM    8  N10 UNL     1     -32.065   7.969   2.021  1.00 20.00     0.084 N 
HETATM    9  C7  UNL     1     -31.548   8.682   3.193  1.00 20.00     0.309 C 
HETATM   10  C8  UNL     1     -32.291   8.910   0.919  1.00 20.00     0.309 C 
ENDBRANCH   6   8
TORSDOF 1
ENDMDL
MODEL 3
REMARK VINA RESULT:      -1.3      1.456      4.356
REMARK  1 active torsions:
REMARK  status: ('A' for Active; 'I' for Inactive)
REMARK    1  A    between atoms: C6_6  and  N10_10 
ROOT
HETATM    1  C1  UNL     1     -34.021   4.319   4.065  1.00 20.00     0.064 C 
HETATM    2  C2  UNL     1     -34.581   6.726   4.390  1.00 20.00     0.021 C 
HETATM    3  C3  UNL     1     -33.505   7.746   4.022  1.00 20.00     0.037 C 
HETATM    4  C4  UNL     1     -33.348   6.026   2.390  1.00 20.00     0.055 C 
HETATM    5  C5  UNL     1     -34.416   5.566   3.394  1.00 20.00     0.095 C 
HETATM    6  C6  UNL     1     -33.341   7.546   2.521  1.00 20.00     0.223 C 
HETATM    7  N9  UNL     1     -33.708   3.336   4.594  1.00 20.00    -0.197 NA
ENDROOT
BRANCH   6   8
HETATM    8  N10 UNL     1     -32.126   8.149   2.003  1.00 20.00     0.084 N 
HETATM    9  C7  UNL     1     -32.437   9.142   0.970  1.00 20.00     0.309 C 
HETATM   10  C8  UNL     1     -31.225   7.126   1.462  1.00 20.00     0.309 C 
ENDBRANCH   6   8
TORSDOF 1
ENDMDL
MODEL 4
REMARK VINA RESULT:      -1.1      1.639      4.511
REMARK  1 active torsions:
REMARK  status: ('A' for Active; 'I' for Inactive)
REMARK    1  A    between atoms: C6_6  and  N10_10 
ROOT
HETATM    1  C1  UNL     1     -33.702   3.829   4.244  1.00 20.00     0.064 C 
HETATM    2  C2  UNL     1     -35.043   5.930   4.239  1.00 20.00     0.021 C 
HETATM    3  C3  UNL     1     -34.281   7.240   4.046  1.00 20.00     0.037 C 
HETATM    4  C4  UNL     1     -33.208   5.657   2.636  1.00 20.00     0.055 C 
HETATM    5  C5  UNL     1     -34.290   4.881   3.404  1.00 20.00     0.095 C 
HETATM    6  C6  UNL     1     -33.704   7.099   2.643  1.00 20.00     0.223 C 
HETATM    7  N9  UNL     1     -33.238   2.998   4.907  1.00 20.00    -0.197 NA
ENDROOT
BRANCH   6   8
HETATM    8  N10 UNL     1     -32.649   8.058   2.370  1.00 20.00     0.084 N 
HETATM    9  C7  UNL     1     -31.644   7.485   1.471  1.00 20.00     0.309 C 
HETATM   10  C8  UNL     1     -32.016   8.505   3.614  1.00 20.00     0.309 C 
ENDBRANCH   6   8
TORSDOF 1
ENDMDL
MODEL 5
REMARK VINA RESULT:       0.1      1.203      4.421
REMARK  1 active torsions:
REMARK  status: ('A' for Active; 'I' for Inactive)
REMARK    1  A    between atoms: C6_6  and  N10_10 
ROOT
HETATM    1  C1  UNL     1     -34.433   6.521   3.607  1.00 20.00     0.064 C 
HETATM    2  C2  UNL     1     -32.745   5.933   1.870  1.00 20.00     0.021 C 
HETATM    3  C3  UNL     1     -32.516   6.947   0.752  1.00 20.00     0.037 C 
HETATM    4  C4  UNL     1     -32.861   8.229   2.723  1.00 20.00     0.055 C 
HETATM    5  C5  UNL     1     -33.066   6.761   3.126  1.00 20.00     0.095 C 
HETATM    6  C6  UNL     1     -31.962   8.158   1.492  1.00 20.00     0.223 C 
HETATM    7  N9  UNL     1     -35.513   6.332   3.986  1.00 20.00    -0.197 NA
ENDROOT
BRANCH   6   8
HETATM    8  N10 UNL     1     -32.002   9.371   0.695  1.00 20.00     0.084 N 
HETATM    9  C7  UNL     1     -32.864  10.377   1.322  1.00 20.00     0.309 C 
HETATM   10  C8  UNL     1     -32.467   9.087  -0.666  1.00 20.00     0.309 C 
ENDBRANCH   6   8
TORSDOF 1
ENDMDL
MODEL 6
REMARK VINA RESULT:       0.3      0.631      1.207
REMARK  1 active torsions:
REMARK  status: ('A' for Active; 'I' for Inactive)
REMARK    1  A    between atoms: C6_6  and  N10_10 
ROOT
HETATM    1  C1  UNL     1     -32.345   8.984   0.830  1.00 20.00     0.064 C 
HETATM    2  C2  UNL     1     -31.787   8.599   3.229  1.00 20.00     0.021 C 
HETATM    3  C3  UNL     1     -32.918   8.122   4.137  1.00 20.00     0.037 C 
HETATM    4  C4  UNL     1     -33.258   7.026   2.057  1.00 20.00     0.055 C 
HETATM    5  C5  UNL     1     -32.062   7.968   1.853  1.00 20.00     0.095 C 
HETATM    6  C6  UNL     1     -33.273   6.759   3.559  1.00 20.00     0.223 C 
HETATM    7  N9  UNL     1     -32.570   9.786   0.023  1.00 20.00    -0.197 NA
ENDROOT
BRANCH   6   8
HETATM    8  N10 UNL     1     -34.555   6.264   4.029  1.00 20.00     0.084 N 
HETATM    9  C7  UNL     1     -34.569   4.799   4.059  1.00 20.00     0.309 C 
HETATM   10  C8  UNL     1     -35.647   6.761   3.186  1.00 20.00     0.309 C 
ENDBRANCH   6   8
TORSDOF 1
ENDMDL
MODEL 7
REMARK VINA RESULT:       0.6      1.210      4.584
REMARK  1 active torsions:
REMARK  status: ('A' for Active; 'I' for Inactive)
REMARK    1  A    between atoms: C6_6  and  N10_10 
ROOT
HETATM    1  C1  UNL     1     -34.575   6.447   3.776  1.00 20.00     0.064 C 
HETATM    2  C2  UNL     1     -32.664   5.777   2.322  1.00 20.00     0.021 C 
HETATM    3  C3  UNL     1     -32.467   6.563   1.028  1.00 20.00     0.037 C 
HETATM    4  C4  UNL     1     -33.168   8.154   2.647  1.00 20.00     0.055 C 
HETATM    5  C5  UNL     1     -33.212   6.787   3.345  1.00 20.00     0.095 C 
HETATM    6  C6  UNL     1     -32.154   7.969   1.522  1.00 20.00     0.223 C 
HETATM    7  N9  UNL     1     -35.651   6.179   4.116  1.00 20.00    -0.197 NA
ENDROOT
BRANCH   6   8
HETATM    8  N10 UNL     1     -32.279   8.972   0.481  1.00 20.00     0.084 N 
HETATM    9  C7  UNL     1     -31.022   9.114  -0.260  1.00 20.00     0.309 C 
HETATM   10  C8  UNL     1     -32.677  10.265   1.047  1.00 20.00     0.309 C 
ENDBRANCH   6   8
TORSDOF 1
ENDMDL
MODEL 8
REMARK VINA RESULT:       1.4      2.014      3.050
REMARK  1 active torsions:
REMARK  status: ('A' for Active; 'I' for Inactive)
REMARK    1  A    between atoms: C6_6  and  N10_10 
ROOT
HETATM    1  C1  UNL     1     -32.949   4.643   0.358  1.00 20.00     0.064 C 
HETATM    2  C2  UNL     1     -31.875   6.767   1.098  1.00 20.00     0.021 C 
HETATM    3  C3  UNL     1     -32.744   7.750   1.879  1.00 20.00     0.037 C 
HETATM    4  C4  UNL     1     -33.403   5.588   2.610  1.00 20.00     0.055 C 
HETATM    5  C5  UNL     1     -32.368   5.365   1.497  1.00 20.00     0.095 C 
HETATM    6  C6  UNL     1     -33.083   6.979   3.147  1.00 20.00     0.223 C 
HETATM    7  N9  UNL     1     -33.410   4.073  -0.542  1.00 20.00    -0.197 NA
ENDROOT
BRANCH   6   8
HETATM    8  N10 UNL     1     -34.189   7.565   3.884  1.00 20.00     0.084 N 
HETATM    9  C7  UNL     1     -33.725   8.135   5.153  1.00 20.00     0.309 C 
HETATM   10  C8  UNL     1     -35.237   6.571   4.132  1.00 20.00     0.309 C 
ENDBRANCH   6   8
TORSDOF 1
ENDMDL
