MODEL 1
REMARK VINA RESULT:      -1.5      0.000      0.000
REMARK  1 active torsions:
REMARK  status: ('A' for Active; 'I' for Inactive)
REMARK    1  A    between atoms: C1_1  and  C3_3 
REMARK       I    between atoms: C3_3  and  N8_8 
ROOT
HETATM    1  C3  UNL     1     -32.491   6.940   1.948  1.00 20.00     0.223 C 
HETATM    2  C4  UNL     1     -34.173   6.006   3.493  1.00 20.00     0.119 A 
HETATM    3  C5  UNL     1     -34.078   7.451   3.807  1.00 20.00     0.075 A 
HETATM    4  C7  UNL     1     -33.045   7.969   4.743  1.00 20.00     0.028 C 
HETATM    5  N8  UNL     1     -33.757   6.957   2.500  1.00 20.00    -0.243 NA
HETATM    6  O9  UNL     1     -31.758   5.975   1.769  1.00 20.00    -0.275 OA
ENDROOT
BRANCH   1   7
HETATM    7  C1  UNL     1     -32.069   8.293   1.546  1.00 20.00     0.064 C 
HETATM    8  C2  UNL     1     -32.735   9.041   0.656  1.00 20.00    -0.026 C 
HETATM    9  C6  UNL     1     -32.309  10.413   0.243  1.00 20.00     0.036 C 
ENDBRANCH   1   7
TORSDOF 1
ENDMDL
MODEL 2
REMARK VINA RESULT:      -0.2      1.798      4.096
REMARK  1 active torsions:
REMARK  status: ('A' for Active; 'I' for Inactive)
REMARK    1  A    between atoms: C1_1  and  C3_3 
REMARK       I    between atoms: C3_3  and  N8_8 
ROOT
HETATM    1  C3  UNL     1     -33.047   7.892   3.504  1.00 20.00     0.223 C 
HETATM    2  C4  UNL     1     -31.481   8.142   1.614  1.00 20.00     0.119 A 
HETATM    3  C5  UNL     1     -32.393   7.032   1.253  1.00 20.00     0.075 A 
HETATM    4  C7  UNL     1     -32.125   5.639   1.701  1.00 20.00     0.028 C 
HETATM    5  N8  UNL     1     -32.809   8.065   2.155  1.00 20.00    -0.243 NA
HETATM    6  O9  UNL     1     -32.356   8.264   4.446  1.00 20.00    -0.275 OA
ENDROOT
BRANCH   1   7
HETATM    7  C1  UNL     1     -34.313   7.176   3.733  1.00 20.00     0.064 C 
HETATM    8  C2  UNL     1     -34.378   5.914   4.180  1.00 20.00    -0.026 C 
HETATM    9  C6  UNL     1     -35.660   5.182   4.411  1.00 20.00     0.036 C 
ENDBRANCH   1   7
TORSDOF 1
ENDMDL
MODEL 3
REMARK VINA RESULT:      -0.1      1.702      3.928
REMARK  1 active torsions:
REMARK  status: ('A' for Active; 'I' for Inactive)
REMARK    1  A    between atoms: C1_1  and  C3_3 
REMARK       I    between atoms: C3_3  and  N8_8 
ROOT
HETATM    1  C3  UNL     1     -32.820   5.857   1.608  1.00 20.00     0.223 C 
HETATM    2  C4  UNL     1     -32.417   8.287   1.460  1.00 20.00     0.119 A 
HETATM    3  C5  UNL     1     -32.419   7.953   2.904  1.00 20.00     0.075 A 
HETATM    4  C7  UNL     1     -33.688   7.892   3.678  1.00 20.00     0.028 C 
HETATM    5  N8  UNL     1     -32.067   6.972   1.920  1.00 20.00    -0.243 NA
HETATM    6  O9  UNL     1     -33.493   5.657   0.603  1.00 20.00    -0.275 OA
ENDROOT
BRANCH   1   7
HETATM    7  C1  UNL     1     -32.724   4.837   2.667  1.00 20.00     0.064 C 
HETATM    8  C2  UNL     1     -33.760   4.470   3.435  1.00 20.00    -0.026 C 
HETATM    9  C6  UNL     1     -33.668   3.439   4.512  1.00 20.00     0.036 C 
ENDBRANCH   1   7
TORSDOF 1
ENDMDL
MODEL 4
REMARK VINA RESULT:       0.2      1.435      3.900
REMARK  1 active torsions:
REMARK  status: ('A' for Active; 'I' for Inactive)
REMARK    1  A    between atoms: C1_1  and  C3_3 
REMARK       I    between atoms: C3_3  and  N8_8 
ROOT
HETATM    1  C3  UNL     1     -32.289   7.168   1.697  1.00 20.00     0.223 C 
HETATM    2  C4  UNL     1     -30.819   8.672   0.407  1.00 20.00     0.119 A 
HETATM    3  C5  UNL     1     -31.988   9.484   0.816  1.00 20.00     0.075 A 
HETATM    4  C7  UNL     1     -33.237   9.498   0.008  1.00 20.00     0.028 C 
HETATM    5  N8  UNL     1     -31.577   8.345   1.582  1.00 20.00    -0.243 NA
HETATM    6  O9  UNL     1     -32.042   6.082   1.184  1.00 20.00    -0.275 OA
ENDROOT
BRANCH   1   7
HETATM    7  C1  UNL     1     -33.462   7.339   2.571  1.00 20.00     0.064 C 
HETATM    8  C2  UNL     1     -34.022   6.336   3.262  1.00 20.00    -0.026 C 
HETATM    9  C6  UNL     1     -35.213   6.504   4.148  1.00 20.00     0.036 C 
ENDBRANCH   1   7
TORSDOF 1
ENDMDL
MODEL 5
REMARK VINA RESULT:       0.2      1.907      3.021
REMARK  1 active torsions:
REMARK  status: ('A' for Active; 'I' for Inactive)
REMARK    1  A    between atoms: C1_1  and  C3_3 
REMARK       I    between atoms: C3_3  and  N8_8 
ROOT
HETATM    1  C3  UNL     1     -32.854   7.434   2.319  1.00 20.00     0.223 C 
HETATM    2  C4  UNL     1     -33.786   8.120   4.499  1.00 20.00     0.119 A 
HETATM    3  C5  UNL     1     -34.426   6.826   4.162  1.00 20.00     0.075 A 
HETATM    4  C7  UNL     1     -35.641   6.768   3.306  1.00 20.00     0.028 C 
HETATM    5  N8  UNL     1     -33.133   7.167   3.645  1.00 20.00    -0.243 NA
HETATM    6  O9  UNL     1     -32.615   8.519   1.801  1.00 20.00    -0.275 OA
ENDROOT
BRANCH   1   7
HETATM    7  C1  UNL     1     -32.855   6.199   1.517  1.00 20.00     0.064 C 
HETATM    8  C2  UNL     1     -31.739   5.549   1.159  1.00 20.00    -0.026 C 
HETATM    9  C6  UNL     1     -31.735   4.297   0.343  1.00 20.00     0.036 C 
ENDBRANCH   1   7
TORSDOF 1
ENDMDL
MODEL 6
REMARK VINA RESULT:       0.4      2.459      4.502
REMARK  1 active torsions:
REMARK  status: ('A' for Active; 'I' for Inactive)
REMARK    1  A    between atoms: C1_1  and  C3_3 
REMARK       I    between atoms: C3_3  and  N8_8 
ROOT
HETATM    1  C3  UNL     1     -34.921   6.097   3.648  1.00 20.00     0.223 C 
HETATM    2  C4  UNL     1     -33.914   8.175   2.778  1.00 20.00     0.119 A 
HETATM    3  C5  UNL     1     -32.974   7.653   3.797  1.00 20.00     0.075 A 
HETATM    4  C7  UNL     1     -33.149   7.970   5.240  1.00 20.00     0.028 C 
HETATM    5  N8  UNL     1     -33.856   6.773   3.088  1.00 20.00    -0.243 NA
HETATM    6  O9  UNL     1     -36.118   6.329   3.514  1.00 20.00    -0.275 OA
ENDROOT
BRANCH   1   7
HETATM    7  C1  UNL     1     -34.459   4.972   4.479  1.00 20.00     0.064 C 
HETATM    8  C2  UNL     1     -33.744   3.945   4.000  1.00 20.00    -0.026 C 
HETATM    9  C6  UNL     1     -33.276   2.800   4.838  1.00 20.00     0.036 C 
ENDBRANCH   1   7
TORSDOF 1
ENDMDL
MODEL 7
REMARK VINA RESULT:       0.6      1.805      2.515
REMARK  1 active torsions:
REMARK  status: ('A' for Active; 'I' for Inactive)
REMARK    1  A    between atoms: C1_1  and  C3_3 
REMARK       I    between atoms: C3_3  and  N8_8 
ROOT
HETATM    1  C3  UNL     1     -32.390   7.575   2.165  1.00 20.00     0.223 C 
HETATM    2  C4  UNL     1     -32.807   5.152   2.376  1.00 20.00     0.119 A 
HETATM    3  C5  UNL     1     -32.714   5.433   0.925  1.00 20.00     0.075 A 
HETATM    4  C7  UNL     1     -33.899   5.889   0.151  1.00 20.00     0.028 C 
HETATM    5  N8  UNL     1     -32.049   6.268   1.881  1.00 20.00    -0.243 NA
HETATM    6  O9  UNL     1     -32.951   8.009   3.165  1.00 20.00    -0.275 OA
ENDROOT
BRANCH   1   7
HETATM    7  C1  UNL     1     -31.975   8.480   1.080  1.00 20.00     0.064 C 
HETATM    8  C2  UNL     1     -32.671   9.568   0.718  1.00 20.00    -0.026 C 
HETATM    9  C6  UNL     1     -32.256  10.487  -0.384  1.00 20.00     0.036 C 
ENDBRANCH   1   7
TORSDOF 1
ENDMDL
MODEL 8
REMARK VINA RESULT:       0.7      2.148      4.258
REMARK  1 active torsions:
REMARK  status: ('A' for Active; 'I' for Inactive)
REMARK    1  A    between atoms: C1_1  and  C3_3 
REMARK       I    between atoms: C3_3  and  N8_8 
ROOT
HETATM    1  C3  UNL     1     -33.186   5.639   2.440  1.00 20.00     0.223 C 
HETATM    2  C4  UNL     1     -33.667   7.921   3.244  1.00 20.00     0.119 A 
HETATM    3  C5  UNL     1     -34.429   7.003   4.122  1.00 20.00     0.075 A 
HETATM    4  C7  UNL     1     -35.781   6.516   3.737  1.00 20.00     0.028 C 
HETATM    5  N8  UNL     1     -33.234   6.569   3.459  1.00 20.00    -0.243 NA
HETATM    6  O9  UNL     1     -32.984   5.836   1.247  1.00 20.00    -0.275 OA
ENDROOT
BRANCH   1   7
HETATM    7  C1  UNL     1     -33.404   4.275   2.953  1.00 20.00     0.064 C 
HETATM    8  C2  UNL     1     -33.146   3.911   4.217  1.00 20.00    -0.026 C 
HETATM    9  C6  UNL     1     -33.362   2.529   4.741  1.00 20.00     0.036 C 
ENDBRANCH   1   7
TORSDOF 1
ENDMDL
MODEL 9
REMARK VINA RESULT:       0.9      2.148      4.083
REMARK  1 active torsions:
REMARK  status: ('A' for Active; 'I' for Inactive)
REMARK    1  A    between atoms: C1_1  and  C3_3 
REMARK       I    between atoms: C3_3  and  N8_8 
ROOT
HETATM    1  C3  UNL     1     -32.059   8.287   1.982  1.00 20.00     0.223 C 
HETATM    2  C4  UNL     1     -32.714  10.443   0.977  1.00 20.00     0.119 A 
HETATM    3  C5  UNL     1     -32.380   9.543  -0.151  1.00 20.00     0.075 A 
HETATM    4  C7  UNL     1     -30.978   9.390  -0.625  1.00 20.00     0.028 C 
HETATM    5  N8  UNL     1     -32.833   9.017   1.103  1.00 20.00    -0.243 NA
HETATM    6  O9  UNL     1     -31.592   8.648   3.057  1.00 20.00    -0.275 OA
ENDROOT
BRANCH   1   7
HETATM    7  C1  UNL     1     -31.834   6.919   1.484  1.00 20.00     0.064 C 
HETATM    8  C2  UNL     1     -32.800   5.994   1.400  1.00 20.00    -0.026 C 
HETATM    9  C6  UNL     1     -32.576   4.605   0.898  1.00 20.00     0.036 C 
ENDBRANCH   1   7
TORSDOF 1
ENDMDL
