MODEL 1
REMARK VINA RESULT:       1.4      0.000      0.000
REMARK  2 active torsions:
REMARK  status: ('A' for Active; 'I' for Inactive)
REMARK    1  A    between atoms: C3_3  and  C7_7 
REMARK    2  A    between atoms: C6_6  and  O11_11 
ROOT
HETATM    1  C1  UNL     1     -32.697   5.179   1.993  1.00 20.00    -0.028 C 
HETATM    2  C2  UNL     1     -33.574   5.988   2.602  1.00 20.00     0.002 C 
HETATM    3  C4  UNL     1     -31.644   5.671   1.046  1.00 20.00     0.028 C 
HETATM    4  C5  UNL     1     -31.855   7.125   0.614  1.00 20.00     0.023 C 
HETATM    5  C6  UNL     1     -33.583   7.481   2.422  1.00 20.00     0.158 C 
HETATM    6  C7  UNL     1     -32.280   8.036   1.784  1.00 20.00     0.039 C 
HETATM    7  C8  UNL     1     -31.139   8.195   2.803  1.00 20.00     0.026 C 
ENDROOT
BRANCH   6   8
HETATM    8  C3  UNL     1     -32.562   9.400   1.201  1.00 20.00     0.243 C 
HETATM    9  O10 UNL     1     -32.332   9.695   0.033  1.00 20.00    -0.306 OA
ENDBRANCH   6   8
BRANCH   5  10
HETATM   10  O11 UNL     1     -33.811   8.073   3.701  1.00 20.00    -0.386 OA
HETATM   11  C9  UNL     1     -34.536   7.201   4.552  1.00 20.00     0.202 C 
ENDBRANCH   5  10
TORSDOF 2
ENDMDL
MODEL 2
REMARK VINA RESULT:       1.5      1.990      3.685
REMARK  2 active torsions:
REMARK  status: ('A' for Active; 'I' for Inactive)
REMARK    1  A    between atoms: C3_3  and  C7_7 
REMARK    2  A    between atoms: C6_6  and  O11_11 
ROOT
HETATM    1  C1  UNL     1     -32.324   7.606   1.662  1.00 20.00    -0.028 C 
HETATM    2  C2  UNL     1     -32.436   7.938   2.956  1.00 20.00     0.002 C 
HETATM    3  C4  UNL     1     -32.923   6.363   1.077  1.00 20.00     0.028 C 
HETATM    4  C5  UNL     1     -33.407   5.371   2.139  1.00 20.00     0.023 C 
HETATM    5  C6  UNL     1     -33.193   7.111   3.957  1.00 20.00     0.158 C 
HETATM    6  C7  UNL     1     -34.137   6.062   3.309  1.00 20.00     0.039 C 
HETATM    7  C8  UNL     1     -35.472   6.670   2.843  1.00 20.00     0.026 C 
ENDROOT
BRANCH   6   8
HETATM    8  C3  UNL     1     -34.455   4.991   4.325  1.00 20.00     0.243 C 
HETATM    9  O10 UNL     1     -34.087   3.827   4.216  1.00 20.00    -0.306 OA
ENDBRANCH   6   8
BRANCH   5  10
HETATM   10  O11 UNL     1     -33.930   8.005   4.792  1.00 20.00    -0.386 OA
HETATM   11  C9  UNL     1     -33.081   8.663   5.718  1.00 20.00     0.202 C 
ENDBRANCH   5  10
TORSDOF 2
ENDMDL
MODEL 3
REMARK VINA RESULT:       1.5      2.331      3.418
REMARK  2 active torsions:
REMARK  status: ('A' for Active; 'I' for Inactive)
REMARK    1  A    between atoms: C3_3  and  C7_7 
REMARK    2  A    between atoms: C6_6  and  O11_11 
ROOT
HETATM    1  C1  UNL     1     -33.816   7.986   3.382  1.00 20.00    -0.028 C 
HETATM    2  C2  UNL     1     -33.861   6.728   3.843  1.00 20.00     0.002 C 
HETATM    3  C4  UNL     1     -33.013   8.394   2.183  1.00 20.00     0.028 C 
HETATM    4  C5  UNL     1     -32.027   7.316   1.724  1.00 20.00     0.023 C 
HETATM    5  C6  UNL     1     -33.132   5.585   3.195  1.00 20.00     0.158 C 
HETATM    6  C7  UNL     1     -32.637   5.900   1.756  1.00 20.00     0.039 C 
HETATM    7  C8  UNL     1     -33.746   5.753   0.700  1.00 20.00     0.026 C 
ENDROOT
BRANCH   6   8
HETATM    8  C3  UNL     1     -31.533   4.935   1.393  1.00 20.00     0.243 C 
HETATM    9  O10 UNL     1     -31.436   4.404   0.292  1.00 20.00    -0.306 OA
ENDBRANCH   6   8
BRANCH   5  10
HETATM   10  O11 UNL     1     -34.005   4.455   3.191  1.00 20.00    -0.386 OA
HETATM   11  C9  UNL     1     -33.716   3.577   4.267  1.00 20.00     0.202 C 
ENDBRANCH   5  10
TORSDOF 2
ENDMDL
MODEL 4
REMARK VINA RESULT:       1.6      2.122      3.160
REMARK  2 active torsions:
REMARK  status: ('A' for Active; 'I' for Inactive)
REMARK    1  A    between atoms: C3_3  and  C7_7 
REMARK    2  A    between atoms: C6_6  and  O11_11 
ROOT
HETATM    1  C1  UNL     1     -33.004   8.600   2.953  1.00 20.00    -0.028 C 
HETATM    2  C2  UNL     1     -33.439   7.504   3.590  1.00 20.00     0.002 C 
HETATM    3  C4  UNL     1     -32.194   8.551   1.692  1.00 20.00     0.028 C 
HETATM    4  C5  UNL     1     -31.662   7.151   1.373  1.00 20.00     0.023 C 
HETATM    5  C6  UNL     1     -33.183   6.107   3.098  1.00 20.00     0.158 C 
HETATM    6  C7  UNL     1     -32.711   6.047   1.619  1.00 20.00     0.039 C 
HETATM    7  C8  UNL     1     -33.873   6.156   0.617  1.00 20.00     0.026 C 
ENDROOT
BRANCH   6   8
HETATM    8  C3  UNL     1     -32.024   4.724   1.376  1.00 20.00     0.243 C 
HETATM    9  O10 UNL     1     -31.606   4.372   0.277  1.00 20.00    -0.306 OA
ENDBRANCH   6   8
BRANCH   5  10
HETATM   10  O11 UNL     1     -34.385   5.355   3.274  1.00 20.00    -0.386 OA
HETATM   11  C9  UNL     1     -35.320   6.059   4.075  1.00 20.00     0.202 C 
ENDBRANCH   5  10
TORSDOF 2
ENDMDL
MODEL 5
REMARK VINA RESULT:       1.7      1.306      3.342
REMARK  2 active torsions:
REMARK  status: ('A' for Active; 'I' for Inactive)
REMARK    1  A    between atoms: C3_3  and  C7_7 
REMARK    2  A    between atoms: C6_6  and  O11_11 
ROOT
HETATM    1  C1  UNL     1     -32.692   5.386   1.444  1.00 20.00    -0.028 C 
HETATM    2  C2  UNL     1     -32.298   6.666   1.464  1.00 20.00     0.002 C 
HETATM    3  C4  UNL     1     -33.512   4.760   2.533  1.00 20.00     0.028 C 
HETATM    4  C5  UNL     1     -33.595   5.625   3.795  1.00 20.00     0.023 C 
HETATM    5  C6  UNL     1     -32.652   7.622   2.568  1.00 20.00     0.158 C 
HETATM    6  C7  UNL     1     -33.808   7.120   3.477  1.00 20.00     0.039 C 
HETATM    7  C8  UNL     1     -35.197   7.360   2.861  1.00 20.00     0.026 C 
ENDROOT
BRANCH   6   8
HETATM    8  C3  UNL     1     -33.759   7.862   4.791  1.00 20.00     0.243 C 
HETATM    9  O10 UNL     1     -32.738   8.375   5.238  1.00 20.00    -0.306 OA
ENDBRANCH   6   8
BRANCH   5  10
HETATM   10  O11 UNL     1     -32.989   8.874   1.971  1.00 20.00    -0.386 OA
HETATM   11  C9  UNL     1     -32.200   9.124   0.819  1.00 20.00     0.202 C 
ENDBRANCH   5  10
TORSDOF 2
ENDMDL
MODEL 6
REMARK VINA RESULT:       1.8      2.002      4.131
REMARK  2 active torsions:
REMARK  status: ('A' for Active; 'I' for Inactive)
REMARK    1  A    between atoms: C3_3  and  C7_7 
REMARK    2  A    between atoms: C6_6  and  O11_11 
ROOT
HETATM    1  C1  UNL     1     -31.881   8.335   2.839  1.00 20.00    -0.028 C 
HETATM    2  C2  UNL     1     -32.413   7.571   1.875  1.00 20.00     0.002 C 
HETATM    3  C4  UNL     1     -32.450   8.427   4.224  1.00 20.00     0.028 C 
HETATM    4  C5  UNL     1     -33.848   7.812   4.342  1.00 20.00     0.023 C 
HETATM    5  C6  UNL     1     -33.625   6.705   2.082  1.00 20.00     0.158 C 
HETATM    6  C7  UNL     1     -33.976   6.478   3.578  1.00 20.00     0.039 C 
HETATM    7  C8  UNL     1     -33.117   5.383   4.232  1.00 20.00     0.026 C 
ENDROOT
BRANCH   6   8
HETATM    8  C3  UNL     1     -35.420   6.047   3.684  1.00 20.00     0.243 C 
HETATM    9  O10 UNL     1     -35.807   5.165   4.444  1.00 20.00    -0.306 OA
ENDBRANCH   6   8
BRANCH   5  10
HETATM   10  O11 UNL     1     -33.388   5.460   1.425  1.00 20.00    -0.386 OA
HETATM   11  C9  UNL     1     -32.051   5.368   0.960  1.00 20.00     0.202 C 
ENDBRANCH   5  10
TORSDOF 2
ENDMDL
MODEL 7
REMARK VINA RESULT:       1.9      2.266      3.411
REMARK  2 active torsions:
REMARK  status: ('A' for Active; 'I' for Inactive)
REMARK    1  A    between atoms: C3_3  and  C7_7 
REMARK    2  A    between atoms: C6_6  and  O11_11 
ROOT
HETATM    1  C1  UNL     1     -31.641   6.930   1.402  1.00 20.00    -0.028 C 
HETATM    2  C2  UNL     1     -32.080   5.775   1.921  1.00 20.00     0.002 C 
HETATM    3  C4  UNL     1     -32.343   8.240   1.599  1.00 20.00     0.028 C 
HETATM    4  C5  UNL     1     -33.750   8.086   2.185  1.00 20.00     0.023 C 
HETATM    5  C6  UNL     1     -33.311   5.670   2.777  1.00 20.00     0.158 C 
HETATM    6  C7  UNL     1     -33.810   7.038   3.316  1.00 20.00     0.039 C 
HETATM    7  C8  UNL     1     -33.026   7.514   4.551  1.00 20.00     0.026 C 
ENDROOT
BRANCH   6   8
HETATM    8  C3  UNL     1     -35.260   6.908   3.720  1.00 20.00     0.243 C 
HETATM    9  O10 UNL     1     -35.683   6.005   4.434  1.00 20.00    -0.306 OA
ENDBRANCH   6   8
BRANCH   5  10
HETATM   10  O11 UNL     1     -33.018   4.780   3.855  1.00 20.00    -0.386 OA
HETATM   11  C9  UNL     1     -33.742   3.566   3.733  1.00 20.00     0.202 C 
ENDBRANCH   5  10
TORSDOF 2
ENDMDL
MODEL 8
REMARK VINA RESULT:       2.1      1.631      3.105
REMARK  2 active torsions:
REMARK  status: ('A' for Active; 'I' for Inactive)
REMARK    1  A    between atoms: C3_3  and  C7_7 
REMARK    2  A    between atoms: C6_6  and  O11_11 
ROOT
HETATM    1  C1  UNL     1     -34.677   6.470   3.979  1.00 20.00    -0.028 C 
HETATM    2  C2  UNL     1     -34.096   5.687   3.060  1.00 20.00     0.002 C 
HETATM    3  C4  UNL     1     -34.181   7.843   4.322  1.00 20.00     0.028 C 
HETATM    4  C5  UNL     1     -32.791   8.140   3.751  1.00 20.00     0.023 C 
HETATM    5  C6  UNL     1     -32.898   6.107   2.256  1.00 20.00     0.158 C 
HETATM    6  C7  UNL     1     -32.624   7.635   2.303  1.00 20.00     0.039 C 
HETATM    7  C8  UNL     1     -33.517   8.430   1.335  1.00 20.00     0.026 C 
ENDROOT
BRANCH   6   8
HETATM    8  C3  UNL     1     -31.188   7.890   1.910  1.00 20.00     0.243 C 
HETATM    9  O10 UNL     1     -30.857   8.343   0.820  1.00 20.00    -0.306 OA
ENDBRANCH   6   8
BRANCH   5  10
HETATM   10  O11 UNL     1     -33.101   5.672   0.911  1.00 20.00    -0.386 OA
HETATM   11  C9  UNL     1     -32.142   4.697   0.535  1.00 20.00     0.202 C 
ENDBRANCH   5  10
TORSDOF 2
ENDMDL
MODEL 9
REMARK VINA RESULT:       2.1      1.981      3.524
REMARK  2 active torsions:
REMARK  status: ('A' for Active; 'I' for Inactive)
REMARK    1  A    between atoms: C3_3  and  C7_7 
REMARK    2  A    between atoms: C6_6  and  O11_11 
ROOT
HETATM    1  C1  UNL     1     -33.861   7.332   4.237  1.00 20.00    -0.028 C 
HETATM    2  C2  UNL     1     -33.365   8.085   3.246  1.00 20.00     0.002 C 
HETATM    3  C4  UNL     1     -34.187   5.877   4.080  1.00 20.00     0.028 C 
HETATM    4  C5  UNL     1     -34.188   5.415   2.620  1.00 20.00     0.023 C 
HETATM    5  C6  UNL     1     -33.061   7.549   1.874  1.00 20.00     0.158 C 
HETATM    6  C7  UNL     1     -33.010   5.998   1.812  1.00 20.00     0.039 C 
HETATM    7  C8  UNL     1     -31.668   5.426   2.302  1.00 20.00     0.026 C 
ENDROOT
BRANCH   6   8
HETATM    8  C3  UNL     1     -33.196   5.557   0.380  1.00 20.00     0.243 C 
HETATM    9  O10 UNL     1     -32.994   4.410  -0.004  1.00 20.00    -0.306 OA
ENDBRANCH   6   8
BRANCH   5  10
HETATM   10  O11 UNL     1     -31.819   8.112   1.451  1.00 20.00    -0.386 OA
HETATM   11  C9  UNL     1     -32.022   9.248   0.627  1.00 20.00     0.202 C 
ENDBRANCH   5  10
TORSDOF 2
ENDMDL
