MODEL 1
REMARK VINA RESULT:      -2.1      0.000      0.000
REMARK  4 active torsions:
REMARK  status: ('A' for Active; 'I' for Inactive)
REMARK    1  A    between atoms: C5_5  and  N8_8 
REMARK    2  A    between atoms: C6_6  and  C7_7 
REMARK    3  A    between atoms: C6_6  and  N8_8 
REMARK    4  A    between atoms: C7_7  and  O9_9 
ROOT
HETATM    1  C1  UNL     1     -32.392   9.814   0.165  1.00 20.00     0.013 C 
HETATM    2  C2  UNL     1     -32.230   8.995   1.028  1.00 20.00    -0.087 C 
HETATM    3  C5  UNL     1     -32.027   7.999   2.083  1.00 20.00     0.364 C 
ENDROOT
BRANCH   3   4
HETATM    4  N8  UNL     1     -33.137   7.048   2.115  1.00 20.00     0.097 N 
HETATM    5  C3  UNL     1     -32.760   5.798   1.456  1.00 20.00     0.311 C 
BRANCH   4   6
HETATM    6  C6  UNL     1     -33.552   6.794   3.494  1.00 20.00     0.299 C 
BRANCH   6   7
HETATM    7  C7  UNL     1     -35.039   6.494   3.532  1.00 20.00     0.197 C 
BRANCH   7   8
HETATM    8  O9  UNL     1     -35.279   5.404   4.414  1.00 20.00    -0.394 OA
HETATM    9  C4  UNL     1     -34.291   4.393   4.275  1.00 20.00     0.201 C 
ENDBRANCH   7   8
ENDBRANCH   6   7
ENDBRANCH   4   6
ENDBRANCH   3   4
TORSDOF 4
ENDMDL
MODEL 2
REMARK VINA RESULT:      -1.7      2.387      4.649
REMARK  4 active torsions:
REMARK  status: ('A' for Active; 'I' for Inactive)
REMARK    1  A    between atoms: C5_5  and  N8_8 
REMARK    2  A    between atoms: C6_6  and  C7_7 
REMARK    3  A    between atoms: C6_6  and  N8_8 
REMARK    4  A    between atoms: C7_7  and  O9_9 
ROOT
HETATM    1  C1  UNL     1     -35.318   5.795   4.272  1.00 20.00     0.013 C 
HETATM    2  C2  UNL     1     -34.556   6.540   3.718  1.00 20.00    -0.087 C 
HETATM    3  C5  UNL     1     -33.631   7.454   3.045  1.00 20.00     0.364 C 
ENDROOT
BRANCH   3   4
HETATM    4  N8  UNL     1     -32.535   6.712   2.421  1.00 20.00     0.097 N 
HETATM    5  C3  UNL     1     -33.058   5.728   1.473  1.00 20.00     0.311 C 
BRANCH   4   6
HETATM    6  C6  UNL     1     -31.614   7.629   1.751  1.00 20.00     0.299 C 
BRANCH   6   7
HETATM    7  C7  UNL     1     -32.343   8.910   1.390  1.00 20.00     0.197 C 
BRANCH   7   8
HETATM    8  O9  UNL     1     -31.934   9.338   0.097  1.00 20.00    -0.394 OA
HETATM    9  C4  UNL     1     -32.828  10.302  -0.441  1.00 20.00     0.201 C 
ENDBRANCH   7   8
ENDBRANCH   6   7
ENDBRANCH   4   6
ENDBRANCH   3   4
TORSDOF 4
ENDMDL
MODEL 3
REMARK VINA RESULT:      -1.6      2.077      4.759
REMARK  4 active torsions:
REMARK  status: ('A' for Active; 'I' for Inactive)
REMARK    1  A    between atoms: C5_5  and  N8_8 
REMARK    2  A    between atoms: C6_6  and  C7_7 
REMARK    3  A    between atoms: C6_6  and  N8_8 
REMARK    4  A    between atoms: C7_7  and  O9_9 
ROOT
HETATM    1  C1  UNL     1     -33.841   3.957   4.214  1.00 20.00     0.013 C 
HETATM    2  C2  UNL     1     -34.442   4.991   4.092  1.00 20.00    -0.087 C 
HETATM    3  C5  UNL     1     -35.180   6.247   3.947  1.00 20.00     0.364 C 
ENDROOT
BRANCH   3   4
HETATM    4  N8  UNL     1     -34.273   7.341   3.603  1.00 20.00     0.097 N 
HETATM    5  C3  UNL     1     -33.567   7.813   4.794  1.00 20.00     0.311 C 
BRANCH   4   6
HETATM    6  C6  UNL     1     -33.320   6.913   2.580  1.00 20.00     0.299 C 
BRANCH   6   7
HETATM    7  C7  UNL     1     -32.229   7.958   2.432  1.00 20.00     0.197 C 
BRANCH   7   8
HETATM    8  O9  UNL     1     -31.933   8.140   1.052  1.00 20.00    -0.394 OA
HETATM    9  C4  UNL     1     -32.343   9.422   0.597  1.00 20.00     0.201 C 
ENDBRANCH   7   8
ENDBRANCH   6   7
ENDBRANCH   4   6
ENDBRANCH   3   4
TORSDOF 4
ENDMDL
MODEL 4
REMARK VINA RESULT:      -1.6      0.975      1.148
REMARK  4 active torsions:
REMARK  status: ('A' for Active; 'I' for Inactive)
REMARK    1  A    between atoms: C5_5  and  N8_8 
REMARK    2  A    between atoms: C6_6  and  C7_7 
REMARK    3  A    between atoms: C6_6  and  N8_8 
REMARK    4  A    between atoms: C7_7  and  O9_9 
ROOT
HETATM    1  C1  UNL     1     -32.376   9.738   0.261  1.00 20.00     0.013 C 
HETATM    2  C2  UNL     1     -32.264   8.881   1.095  1.00 20.00    -0.087 C 
HETATM    3  C5  UNL     1     -32.123   7.840   2.116  1.00 20.00     0.364 C 
ENDROOT
BRANCH   3   4
HETATM    4  N8  UNL     1     -33.044   6.734   1.855  1.00 20.00     0.097 N 
HETATM    5  C3  UNL     1     -32.361   5.658   1.138  1.00 20.00     0.311 C 
BRANCH   4   6
HETATM    6  C6  UNL     1     -33.610   6.235   3.108  1.00 20.00     0.299 C 
BRANCH   6   7
HETATM    7  C7  UNL     1     -33.665   4.719   3.073  1.00 20.00     0.197 C 
BRANCH   7   8
HETATM    8  O9  UNL     1     -34.083   4.231   4.342  1.00 20.00    -0.394 OA
HETATM    9  C4  UNL     1     -33.365   3.064   4.714  1.00 20.00     0.201 C 
ENDBRANCH   7   8
ENDBRANCH   6   7
ENDBRANCH   4   6
ENDBRANCH   3   4
TORSDOF 4
ENDMDL
MODEL 5
REMARK VINA RESULT:      -1.5      1.964      4.787
REMARK  4 active torsions:
REMARK  status: ('A' for Active; 'I' for Inactive)
REMARK    1  A    between atoms: C5_5  and  N8_8 
REMARK    2  A    between atoms: C6_6  and  C7_7 
REMARK    3  A    between atoms: C6_6  and  N8_8 
REMARK    4  A    between atoms: C7_7  and  O9_9 
ROOT
HETATM    1  C1  UNL     1     -33.506   3.244   4.508  1.00 20.00     0.013 C 
HETATM    2  C2  UNL     1     -34.205   4.211   4.372  1.00 20.00    -0.087 C 
HETATM    3  C5  UNL     1     -35.062   5.388   4.212  1.00 20.00     0.364 C 
ENDROOT
BRANCH   3   4
HETATM    4  N8  UNL     1     -34.384   6.416   3.422  1.00 20.00     0.097 N 
HETATM    5  C3  UNL     1     -34.070   7.577   4.255  1.00 20.00     0.311 C 
BRANCH   4   6
HETATM    6  C6  UNL     1     -33.167   5.876   2.817  1.00 20.00     0.299 C 
BRANCH   6   7
HETATM    7  C7  UNL     1     -32.876   6.607   1.520  1.00 20.00     0.197 C 
BRANCH   7   8
HETATM    8  O9  UNL     1     -31.865   7.582   1.743  1.00 20.00    -0.394 OA
HETATM    9  C4  UNL     1     -32.145   8.792   1.053  1.00 20.00     0.201 C 
ENDBRANCH   7   8
ENDBRANCH   6   7
ENDBRANCH   4   6
ENDBRANCH   3   4
TORSDOF 4
ENDMDL
MODEL 6
REMARK VINA RESULT:      -1.5      2.177      4.841
REMARK  4 active torsions:
REMARK  status: ('A' for Active; 'I' for Inactive)
REMARK    1  A    between atoms: C5_5  and  N8_8 
REMARK    2  A    between atoms: C6_6  and  C7_7 
REMARK    3  A    between atoms: C6_6  and  N8_8 
REMARK    4  A    between atoms: C7_7  and  O9_9 
ROOT
HETATM    1  C1  UNL     1     -33.758   3.489   4.417  1.00 20.00     0.013 C 
HETATM    2  C2  UNL     1     -33.933   4.572   3.927  1.00 20.00    -0.087 C 
HETATM    3  C5  UNL     1     -34.153   5.892   3.334  1.00 20.00     0.364 C 
ENDROOT
BRANCH   3   4
HETATM    4  N8  UNL     1     -32.947   6.358   2.650  1.00 20.00     0.097 N 
HETATM    5  C3  UNL     1     -32.859   5.771   1.313  1.00 20.00     0.311 C 
BRANCH   4   6
HETATM    6  C6  UNL     1     -32.937   7.818   2.570  1.00 20.00     0.299 C 
BRANCH   6   7
HETATM    7  C7  UNL     1     -32.048   8.258   1.421  1.00 20.00     0.197 C 
BRANCH   7   8
HETATM    8  O9  UNL     1     -32.351   9.605   1.078  1.00 20.00    -0.394 OA
HETATM    9  C4  UNL     1     -32.598   9.746  -0.314  1.00 20.00     0.201 C 
ENDBRANCH   7   8
ENDBRANCH   6   7
ENDBRANCH   4   6
ENDBRANCH   3   4
TORSDOF 4
ENDMDL
MODEL 7
REMARK VINA RESULT:      -1.4      1.813      2.649
REMARK  4 active torsions:
REMARK  status: ('A' for Active; 'I' for Inactive)
REMARK    1  A    between atoms: C5_5  and  N8_8 
REMARK    2  A    between atoms: C6_6  and  C7_7 
REMARK    3  A    between atoms: C6_6  and  N8_8 
REMARK    4  A    between atoms: C7_7  and  O9_9 
ROOT
HETATM    1  C1  UNL     1     -32.349   5.344   1.076  1.00 20.00     0.013 C 
HETATM    2  C2  UNL     1     -32.756   6.262   1.734  1.00 20.00    -0.087 C 
HETATM    3  C5  UNL     1     -33.253   7.387   2.529  1.00 20.00     0.364 C 
ENDROOT
BRANCH   3   4
HETATM    4  N8  UNL     1     -33.708   6.929   3.842  1.00 20.00     0.097 N 
HETATM    5  C3  UNL     1     -33.791   8.053   4.775  1.00 20.00     0.311 C 
BRANCH   4   6
HETATM    6  C6  UNL     1     -35.003   6.261   3.729  1.00 20.00     0.299 C 
BRANCH   6   7
HETATM    7  C7  UNL     1     -34.985   4.976   4.537  1.00 20.00     0.197 C 
BRANCH   7   8
HETATM    8  O9  UNL     1     -34.216   3.996   3.848  1.00 20.00    -0.394 OA
HETATM    9  C4  UNL     1     -33.414   3.240   4.744  1.00 20.00     0.201 C 
ENDBRANCH   7   8
ENDBRANCH   6   7
ENDBRANCH   4   6
ENDBRANCH   3   4
TORSDOF 4
ENDMDL
MODEL 8
REMARK VINA RESULT:      -1.2      2.249      4.498
REMARK  4 active torsions:
REMARK  status: ('A' for Active; 'I' for Inactive)
REMARK    1  A    between atoms: C5_5  and  N8_8 
REMARK    2  A    between atoms: C6_6  and  C7_7 
REMARK    3  A    between atoms: C6_6  and  N8_8 
REMARK    4  A    between atoms: C7_7  and  O9_9 
ROOT
HETATM    1  C1  UNL     1     -33.805   3.730   4.373  1.00 20.00     0.013 C 
HETATM    2  C2  UNL     1     -34.484   4.720   4.323  1.00 20.00    -0.087 C 
HETATM    3  C5  UNL     1     -35.316   5.924   4.266  1.00 20.00     0.364 C 
ENDROOT
BRANCH   3   4
HETATM    4  N8  UNL     1     -34.570   7.040   3.685  1.00 20.00     0.097 N 
HETATM    5  C3  UNL     1     -33.820   7.749   4.721  1.00 20.00     0.311 C 
BRANCH   4   6
HETATM    6  C6  UNL     1     -33.668   6.561   2.638  1.00 20.00     0.299 C 
BRANCH   6   7
HETATM    7  C7  UNL     1     -32.661   7.644   2.299  1.00 20.00     0.197 C 
BRANCH   7   8
HETATM    8  O9  UNL     1     -31.629   7.094   1.489  1.00 20.00    -0.394 OA
HETATM    9  C4  UNL     1     -31.875   5.727   1.190  1.00 20.00     0.201 C 
ENDBRANCH   7   8
ENDBRANCH   6   7
ENDBRANCH   4   6
ENDBRANCH   3   4
TORSDOF 4
ENDMDL
MODEL 9
REMARK VINA RESULT:      -0.9      1.014      1.433
REMARK  4 active torsions:
REMARK  status: ('A' for Active; 'I' for Inactive)
REMARK    1  A    between atoms: C5_5  and  N8_8 
REMARK    2  A    between atoms: C6_6  and  C7_7 
REMARK    3  A    between atoms: C6_6  and  N8_8 
REMARK    4  A    between atoms: C7_7  and  O9_9 
ROOT
HETATM    1  C1  UNL     1     -32.651  10.181   0.428  1.00 20.00     0.013 C 
HETATM    2  C2  UNL     1     -32.259   9.095   0.759  1.00 20.00    -0.087 C 
HETATM    3  C5  UNL     1     -31.776   7.771   1.157  1.00 20.00     0.364 C 
ENDROOT
BRANCH   3   4
HETATM    4  N8  UNL     1     -32.206   7.452   2.518  1.00 20.00     0.097 N 
HETATM    5  C3  UNL     1     -32.096   8.630   3.378  1.00 20.00     0.311 C 
BRANCH   4   6
HETATM    6  C6  UNL     1     -33.579   6.947   2.515  1.00 20.00     0.299 C 
BRANCH   6   7
HETATM    7  C7  UNL     1     -34.241   7.265   3.843  1.00 20.00     0.197 C 
BRANCH   7   8
HETATM    8  O9  UNL     1     -35.263   6.311   4.102  1.00 20.00    -0.394 OA
HETATM    9  C4  UNL     1     -34.737   4.995   4.197  1.00 20.00     0.201 C 
ENDBRANCH   7   8
ENDBRANCH   6   7
ENDBRANCH   4   6
ENDBRANCH   3   4
TORSDOF 4
ENDMDL
