MODEL 1
REMARK VINA RESULT:      -1.7      0.000      0.000
REMARK  1 active torsions:
REMARK  status: ('A' for Active; 'I' for Inactive)
REMARK    1  A    between atoms: C3_3  and  C7_7 
ROOT
HETATM    1  C1  UNL     1     -32.667   7.895   2.872  1.00 20.00    -0.019 C 
HETATM    2  C2  UNL     1     -32.225   7.547   1.651  1.00 20.00    -0.087 C 
HETATM    3  C4  UNL     1     -32.475   6.180   1.071  1.00 20.00     0.034 C 
HETATM    4  C5  UNL     1     -32.918   5.156   2.117  1.00 20.00     0.017 C 
HETATM    5  C6  UNL     1     -33.486   6.994   3.766  1.00 20.00     0.015 C 
HETATM    6  C7  UNL     1     -33.995   5.735   3.034  1.00 20.00     0.062 C 
HETATM    7  C8  UNL     1     -31.448   8.498   0.788  1.00 20.00     0.043 C 
HETATM    8  C10 UNL     1     -34.661   7.782   4.359  1.00 20.00     0.015 C 
ENDROOT
BRANCH   6   9
HETATM    9  C3  UNL     1     -34.398   4.687   4.028  1.00 20.00     0.127 C 
HETATM   10  C9  UNL     1     -33.432   3.553   4.244  1.00 20.00     0.091 C 
HETATM   11  O11 UNL     1     -35.463   4.753   4.640  1.00 20.00    -0.298 OA
ENDBRANCH   6   9
TORSDOF 1
ENDMDL
MODEL 2
REMARK VINA RESULT:      -1.5      2.164      4.643
REMARK  1 active torsions:
REMARK  status: ('A' for Active; 'I' for Inactive)
REMARK    1  A    between atoms: C3_3  and  C7_7 
ROOT
HETATM    1  C1  UNL     1     -33.703   5.187   2.993  1.00 20.00    -0.019 C 
HETATM    2  C2  UNL     1     -34.531   5.748   3.892  1.00 20.00    -0.087 C 
HETATM    3  C4  UNL     1     -34.601   7.240   4.090  1.00 20.00     0.034 C 
HETATM    4  C5  UNL     1     -33.416   7.984   3.473  1.00 20.00     0.017 C 
HETATM    5  C6  UNL     1     -32.803   5.969   2.065  1.00 20.00     0.015 C 
HETATM    6  C7  UNL     1     -33.121   7.478   2.062  1.00 20.00     0.062 C 
HETATM    7  C8  UNL     1     -35.434   4.924   4.762  1.00 20.00     0.043 C 
HETATM    8  C10 UNL     1     -32.900   5.396   0.645  1.00 20.00     0.015 C 
ENDROOT
BRANCH   6   9
HETATM    9  C3  UNL     1     -31.961   8.249   1.504  1.00 20.00     0.127 C 
HETATM   10  C9  UNL     1     -32.291   9.408   0.602  1.00 20.00     0.091 C 
HETATM   11  O11 UNL     1     -30.798   7.952   1.774  1.00 20.00    -0.298 OA
ENDBRANCH   6   9
TORSDOF 1
ENDMDL
MODEL 3
REMARK VINA RESULT:      -0.4      0.700      2.208
REMARK  1 active torsions:
REMARK  status: ('A' for Active; 'I' for Inactive)
REMARK    1  A    between atoms: C3_3  and  C7_7 
ROOT
HETATM    1  C1  UNL     1     -32.658   6.922   1.136  1.00 20.00    -0.019 C 
HETATM    2  C2  UNL     1     -32.515   8.124   1.721  1.00 20.00    -0.087 C 
HETATM    3  C4  UNL     1     -32.922   8.369   3.150  1.00 20.00     0.034 C 
HETATM    4  C5  UNL     1     -33.827   7.274   3.713  1.00 20.00     0.017 C 
HETATM    5  C6  UNL     1     -33.187   5.694   1.839  1.00 20.00     0.015 C 
HETATM    6  C7  UNL     1     -33.294   5.884   3.366  1.00 20.00     0.062 C 
HETATM    7  C8  UNL     1     -31.946   9.302   0.985  1.00 20.00     0.043 C 
HETATM    8  C10 UNL     1     -32.300   4.486   1.509  1.00 20.00     0.015 C 
ENDROOT
BRANCH   6   9
HETATM    9  C3  UNL     1     -34.212   4.853   3.951  1.00 20.00     0.127 C 
HETATM   10  C9  UNL     1     -33.610   3.509   4.262  1.00 20.00     0.091 C 
HETATM   11  O11 UNL     1     -35.399   5.094   4.171  1.00 20.00    -0.298 OA
ENDBRANCH   6   9
TORSDOF 1
ENDMDL
MODEL 4
REMARK VINA RESULT:      -0.3      1.107      2.461
REMARK  1 active torsions:
REMARK  status: ('A' for Active; 'I' for Inactive)
REMARK    1  A    between atoms: C3_3  and  C7_7 
ROOT
HETATM    1  C1  UNL     1     -32.618   7.071   0.964  1.00 20.00    -0.019 C 
HETATM    2  C2  UNL     1     -32.394   8.269   1.533  1.00 20.00    -0.087 C 
HETATM    3  C4  UNL     1     -32.708   8.534   2.982  1.00 20.00     0.034 C 
HETATM    4  C5  UNL     1     -33.621   7.477   3.602  1.00 20.00     0.017 C 
HETATM    5  C6  UNL     1     -33.153   5.867   1.702  1.00 20.00     0.015 C 
HETATM    6  C7  UNL     1     -33.164   6.066   3.232  1.00 20.00     0.062 C 
HETATM    7  C8  UNL     1     -31.823   9.421   0.760  1.00 20.00     0.043 C 
HETATM    8  C10 UNL     1     -32.335   4.625   1.328  1.00 20.00     0.015 C 
ENDROOT
BRANCH   6   9
HETATM    9  C3  UNL     1     -34.087   5.074   3.875  1.00 20.00     0.127 C 
HETATM   10  C9  UNL     1     -35.514   5.509   4.077  1.00 20.00     0.091 C 
HETATM   11  O11 UNL     1     -33.699   3.958   4.217  1.00 20.00    -0.298 OA
ENDBRANCH   6   9
TORSDOF 1
ENDMDL
MODEL 5
REMARK VINA RESULT:       0.1      2.435      4.414
REMARK  1 active torsions:
REMARK  status: ('A' for Active; 'I' for Inactive)
REMARK    1  A    between atoms: C3_3  and  C7_7 
ROOT
HETATM    1  C1  UNL     1     -33.731   7.273   3.794  1.00 20.00    -0.019 C 
HETATM    2  C2  UNL     1     -33.998   6.019   3.391  1.00 20.00    -0.087 C 
HETATM    3  C4  UNL     1     -33.534   5.493   2.058  1.00 20.00     0.034 C 
HETATM    4  C5  UNL     1     -33.091   6.597   1.098  1.00 20.00     0.017 C 
HETATM    5  C6  UNL     1     -32.914   8.264   2.998  1.00 20.00     0.015 C 
HETATM    6  C7  UNL     1     -32.190   7.612   1.802  1.00 20.00     0.062 C 
HETATM    7  C8  UNL     1     -34.782   5.062   4.241  1.00 20.00     0.043 C 
HETATM    8  C10 UNL     1     -31.906   8.963   3.920  1.00 20.00     0.015 C 
ENDROOT
BRANCH   6   9
HETATM    9  C3  UNL     1     -31.778   8.661   0.813  1.00 20.00     0.127 C 
HETATM   10  C9  UNL     1     -32.706   9.835   0.646  1.00 20.00     0.091 C 
HETATM   11  O11 UNL     1     -30.732   8.570   0.172  1.00 20.00    -0.298 OA
ENDBRANCH   6   9
TORSDOF 1
ENDMDL
MODEL 6
REMARK VINA RESULT:       0.5      2.056      4.076
REMARK  1 active torsions:
REMARK  status: ('A' for Active; 'I' for Inactive)
REMARK    1  A    between atoms: C3_3  and  C7_7 
ROOT
HETATM    1  C1  UNL     1     -33.966   6.258   3.818  1.00 20.00    -0.019 C 
HETATM    2  C2  UNL     1     -33.584   5.061   3.339  1.00 20.00    -0.087 C 
HETATM    3  C4  UNL     1     -32.708   4.931   2.122  1.00 20.00     0.034 C 
HETATM    4  C5  UNL     1     -32.625   6.218   1.301  1.00 20.00     0.017 C 
HETATM    5  C6  UNL     1     -33.533   7.583   3.233  1.00 20.00     0.015 C 
HETATM    6  C7  UNL     1     -32.397   7.432   2.201  1.00 20.00     0.062 C 
HETATM    7  C8  UNL     1     -34.013   3.776   3.985  1.00 20.00     0.043 C 
HETATM    8  C10 UNL     1     -33.112   8.534   4.361  1.00 20.00     0.015 C 
ENDROOT
BRANCH   6   9
HETATM    9  C3  UNL     1     -32.313   8.661   1.344  1.00 20.00     0.127 C 
HETATM   10  C9  UNL     1     -31.246   8.673   0.282  1.00 20.00     0.091 C 
HETATM   11  O11 UNL     1     -33.080   9.610   1.498  1.00 20.00    -0.298 OA
ENDBRANCH   6   9
TORSDOF 1
ENDMDL
