MODEL 1
REMARK VINA RESULT:      -0.3      0.000      0.000
REMARK  3 active torsions:
REMARK  status: ('A' for Active; 'I' for Inactive)
REMARK    1  A    between atoms: C1_1  and  C8_8 
REMARK    2  A    between atoms: C8_8  and  C9_9 
REMARK    3  A    between atoms: C9_9  and  C10_10 
ROOT
HETATM    1  C8  UNL     1     -32.139   7.385   2.138  1.00 20.00     0.055 C 
ENDROOT
BRANCH   1   2
HETATM    2  C1  UNL     1     -32.264   8.610   1.293  1.00 20.00     0.006 C 
HETATM    3  C2  UNL     1     -31.619   8.674  -0.057  1.00 20.00     0.056 C 
HETATM    4  C3  UNL     1     -32.386   9.840  -0.633  1.00 20.00     0.027 C 
HETATM    5  C4  UNL     1     -32.738  10.652   0.601  1.00 20.00     0.149 C 
HETATM    6  N11 UNL     1     -32.893   9.672   1.694  1.00 20.00    -0.298 NA
ENDBRANCH   1   2
BRANCH   1   7
HETATM    7  C9  UNL     1     -33.438   6.575   2.126  1.00 20.00     0.014 C 
BRANCH   7   8
HETATM    8  C10 UNL     1     -34.198   6.504   3.479  1.00 20.00    -0.051 C 
HETATM    9  C5  UNL     1     -35.703   6.748   3.285  1.00 20.00     0.014 C 
HETATM   10  C6  UNL     1     -33.644   7.529   4.483  1.00 20.00     0.014 C 
HETATM   11  C7  UNL     1     -34.003   5.092   4.066  1.00 20.00     0.014 C 
ENDBRANCH   7   8
ENDBRANCH   1   7
TORSDOF 3
ENDMDL
MODEL 2
REMARK VINA RESULT:      -0.3      0.142      1.315
REMARK  3 active torsions:
REMARK  status: ('A' for Active; 'I' for Inactive)
REMARK    1  A    between atoms: C1_1  and  C8_8 
REMARK    2  A    between atoms: C8_8  and  C9_9 
REMARK    3  A    between atoms: C9_9  and  C10_10 
ROOT
HETATM    1  C8  UNL     1     -32.196   7.558   2.281  1.00 20.00     0.055 C 
ENDROOT
BRANCH   1   2
HETATM    2  C1  UNL     1     -32.306   8.709   1.336  1.00 20.00     0.006 C 
HETATM    3  C2  UNL     1     -31.712   8.627  -0.035  1.00 20.00     0.056 C 
HETATM    4  C3  UNL     1     -32.454   9.771  -0.686  1.00 20.00     0.027 C 
HETATM    5  C4  UNL     1     -32.726  10.701   0.483  1.00 20.00     0.149 C 
HETATM    6  N11 UNL     1     -32.877   9.828   1.663  1.00 20.00    -0.298 NA
ENDBRANCH   1   2
BRANCH   1   7
HETATM    7  C9  UNL     1     -33.435   6.662   2.202  1.00 20.00     0.014 C 
BRANCH   7   8
HETATM    8  C10 UNL     1     -34.258   6.534   3.513  1.00 20.00    -0.051 C 
HETATM    9  C5  UNL     1     -33.795   7.559   4.561  1.00 20.00     0.014 C 
HETATM   10  C6  UNL     1     -34.147   5.119   4.104  1.00 20.00     0.014 C 
HETATM   11  C7  UNL     1     -35.738   6.809   3.180  1.00 20.00     0.014 C 
ENDBRANCH   7   8
ENDBRANCH   1   7
TORSDOF 3
ENDMDL
MODEL 3
REMARK VINA RESULT:      -0.3      0.047      1.304
REMARK  3 active torsions:
REMARK  status: ('A' for Active; 'I' for Inactive)
REMARK    1  A    between atoms: C1_1  and  C8_8 
REMARK    2  A    between atoms: C8_8  and  C9_9 
REMARK    3  A    between atoms: C9_9  and  C10_10 
ROOT
HETATM    1  C8  UNL     1     -32.165   7.442   2.144  1.00 20.00     0.055 C 
ENDROOT
BRANCH   1   2
HETATM    2  C1  UNL     1     -32.284   8.657   1.284  1.00 20.00     0.006 C 
HETATM    3  C2  UNL     1     -31.622   8.708  -0.057  1.00 20.00     0.056 C 
HETATM    4  C3  UNL     1     -32.385   9.866  -0.656  1.00 20.00     0.027 C 
HETATM    5  C4  UNL     1     -32.756  10.689   0.564  1.00 20.00     0.149 C 
HETATM    6  N11 UNL     1     -32.922   9.721   1.666  1.00 20.00    -0.298 NA
ENDBRANCH   1   2
BRANCH   1   7
HETATM    7  C9  UNL     1     -33.457   6.619   2.114  1.00 20.00     0.014 C 
BRANCH   7   8
HETATM    8  C10 UNL     1     -34.194   6.475   3.473  1.00 20.00    -0.051 C 
HETATM    9  C5  UNL     1     -33.994   5.071   4.067  1.00 20.00     0.014 C 
HETATM   10  C6  UNL     1     -35.699   6.751   3.321  1.00 20.00     0.014 C 
HETATM   11  C7  UNL     1     -33.604   7.509   4.451  1.00 20.00     0.014 C 
ENDBRANCH   7   8
ENDBRANCH   1   7
TORSDOF 3
ENDMDL
MODEL 4
REMARK VINA RESULT:      -0.1      0.812      1.215
REMARK  3 active torsions:
REMARK  status: ('A' for Active; 'I' for Inactive)
REMARK    1  A    between atoms: C1_1  and  C8_8 
REMARK    2  A    between atoms: C8_8  and  C9_9 
REMARK    3  A    between atoms: C9_9  and  C10_10 
ROOT
HETATM    1  C8  UNL     1     -32.195   7.637   2.313  1.00 20.00     0.055 C 
ENDROOT
BRANCH   1   2
HETATM    2  C1  UNL     1     -32.353   8.697   1.274  1.00 20.00     0.006 C 
HETATM    3  C2  UNL     1     -33.092   9.962   1.582  1.00 20.00     0.056 C 
HETATM    4  C3  UNL     1     -32.591  10.816   0.441  1.00 20.00     0.027 C 
HETATM    5  C4  UNL     1     -32.305   9.792  -0.642  1.00 20.00     0.149 C 
HETATM    6  N11 UNL     1     -31.898   8.562   0.065  1.00 20.00    -0.298 NA
ENDBRANCH   1   2
BRANCH   1   7
HETATM    7  C9  UNL     1     -33.350   6.633   2.254  1.00 20.00     0.014 C 
BRANCH   7   8
HETATM    8  C10 UNL     1     -34.251   6.570   3.517  1.00 20.00    -0.051 C 
HETATM    9  C5  UNL     1     -35.723   6.840   3.164  1.00 20.00     0.014 C 
HETATM   10  C6  UNL     1     -33.790   7.581   4.580  1.00 20.00     0.014 C 
HETATM   11  C7  UNL     1     -34.143   5.152   4.113  1.00 20.00     0.014 C 
ENDBRANCH   7   8
ENDBRANCH   1   7
TORSDOF 3
ENDMDL
MODEL 5
REMARK VINA RESULT:      -0.0      0.811      1.786
REMARK  3 active torsions:
REMARK  status: ('A' for Active; 'I' for Inactive)
REMARK    1  A    between atoms: C1_1  and  C8_8 
REMARK    2  A    between atoms: C8_8  and  C9_9 
REMARK    3  A    between atoms: C9_9  and  C10_10 
ROOT
HETATM    1  C8  UNL     1     -32.196   7.605   2.301  1.00 20.00     0.055 C 
ENDROOT
BRANCH   1   2
HETATM    2  C1  UNL     1     -32.355   8.681   1.278  1.00 20.00     0.006 C 
HETATM    3  C2  UNL     1     -33.091   9.942   1.607  1.00 20.00     0.056 C 
HETATM    4  C3  UNL     1     -32.593  10.812   0.477  1.00 20.00     0.027 C 
HETATM    5  C4  UNL     1     -32.313   9.803  -0.622  1.00 20.00     0.149 C 
HETATM    6  N11 UNL     1     -31.905   8.563   0.066  1.00 20.00    -0.298 NA
ENDBRANCH   1   2
BRANCH   1   7
HETATM    7  C9  UNL     1     -33.365   6.618   2.247  1.00 20.00     0.014 C 
BRANCH   7   8
HETATM    8  C10 UNL     1     -34.240   6.541   3.528  1.00 20.00    -0.051 C 
HETATM    9  C5  UNL     1     -33.788   7.575   4.572  1.00 20.00     0.014 C 
HETATM   10  C6  UNL     1     -34.191   5.136   4.152  1.00 20.00     0.014 C 
HETATM   11  C7  UNL     1     -35.697   6.849   3.133  1.00 20.00     0.014 C 
ENDBRANCH   7   8
ENDBRANCH   1   7
TORSDOF 3
ENDMDL
MODEL 6
REMARK VINA RESULT:       0.1      1.877      4.873
REMARK  3 active torsions:
REMARK  status: ('A' for Active; 'I' for Inactive)
REMARK    1  A    between atoms: C1_1  and  C8_8 
REMARK    2  A    between atoms: C8_8  and  C9_9 
REMARK    3  A    between atoms: C9_9  and  C10_10 
ROOT
HETATM    1  C8  UNL     1     -32.644   6.241   1.828  1.00 20.00     0.055 C 
ENDROOT
BRANCH   1   2
HETATM    2  C1  UNL     1     -33.590   5.867   2.921  1.00 20.00     0.006 C 
HETATM    3  C2  UNL     1     -34.381   6.917   3.636  1.00 20.00     0.056 C 
HETATM    4  C3  UNL     1     -35.437   6.037   4.262  1.00 20.00     0.027 C 
HETATM    5  C4  UNL     1     -34.710   4.715   4.433  1.00 20.00     0.149 C 
HETATM    6  N11 UNL     1     -33.742   4.642   3.322  1.00 20.00    -0.298 NA
ENDBRANCH   1   2
BRANCH   1   7
HETATM    7  C9  UNL     1     -33.095   7.526   1.126  1.00 20.00     0.014 C 
BRANCH   7   8
HETATM    8  C10 UNL     1     -32.055   8.679   1.103  1.00 20.00    -0.051 C 
HETATM    9  C5  UNL     1     -32.739  10.039   0.882  1.00 20.00     0.014 C 
HETATM   10  C6  UNL     1     -31.003   8.457   0.004  1.00 20.00     0.014 C 
HETATM   11  C7  UNL     1     -31.338   8.708   2.467  1.00 20.00     0.014 C 
ENDBRANCH   7   8
ENDBRANCH   1   7
TORSDOF 3
ENDMDL
MODEL 7
REMARK VINA RESULT:       0.1      1.880      4.895
REMARK  3 active torsions:
REMARK  status: ('A' for Active; 'I' for Inactive)
REMARK    1  A    between atoms: C1_1  and  C8_8 
REMARK    2  A    between atoms: C8_8  and  C9_9 
REMARK    3  A    between atoms: C9_9  and  C10_10 
ROOT
HETATM    1  C8  UNL     1     -32.606   6.201   1.834  1.00 20.00     0.055 C 
ENDROOT
BRANCH   1   2
HETATM    2  C1  UNL     1     -33.578   5.866   2.917  1.00 20.00     0.006 C 
HETATM    3  C2  UNL     1     -34.352   6.945   3.606  1.00 20.00     0.056 C 
HETATM    4  C3  UNL     1     -35.441   6.101   4.226  1.00 20.00     0.027 C 
HETATM    5  C4  UNL     1     -34.752   4.763   4.425  1.00 20.00     0.149 C 
HETATM    6  N11 UNL     1     -33.769   4.650   3.330  1.00 20.00    -0.298 NA
ENDBRANCH   1   2
BRANCH   1   7
HETATM    7  C9  UNL     1     -33.041   7.458   1.075  1.00 20.00     0.014 C 
BRANCH   7   8
HETATM    8  C10 UNL     1     -32.048   8.650   1.125  1.00 20.00    -0.051 C 
HETATM    9  C5  UNL     1     -31.297   8.693   2.466  1.00 20.00     0.014 C 
HETATM   10  C6  UNL     1     -32.773   9.988   0.908  1.00 20.00     0.014 C 
HETATM   11  C7  UNL     1     -31.017   8.466  -0.007  1.00 20.00     0.014 C 
ENDBRANCH   7   8
ENDBRANCH   1   7
TORSDOF 3
ENDMDL
MODEL 8
REMARK VINA RESULT:       0.2      1.889      4.921
REMARK  3 active torsions:
REMARK  status: ('A' for Active; 'I' for Inactive)
REMARK    1  A    between atoms: C1_1  and  C8_8 
REMARK    2  A    between atoms: C8_8  and  C9_9 
REMARK    3  A    between atoms: C9_9  and  C10_10 
ROOT
HETATM    1  C8  UNL     1     -32.631   6.196   1.825  1.00 20.00     0.055 C 
ENDROOT
BRANCH   1   2
HETATM    2  C1  UNL     1     -33.591   5.856   2.917  1.00 20.00     0.006 C 
HETATM    3  C2  UNL     1     -34.364   6.932   3.613  1.00 20.00     0.056 C 
HETATM    4  C3  UNL     1     -35.442   6.083   4.244  1.00 20.00     0.027 C 
HETATM    5  C4  UNL     1     -34.745   4.748   4.437  1.00 20.00     0.149 C 
HETATM    6  N11 UNL     1     -33.772   4.640   3.333  1.00 20.00    -0.298 NA
ENDBRANCH   1   2
BRANCH   1   7
HETATM    7  C9  UNL     1     -33.052   7.479   1.102  1.00 20.00     0.014 C 
BRANCH   7   8
HETATM    8  C10 UNL     1     -32.017   8.636   1.129  1.00 20.00    -0.051 C 
HETATM    9  C5  UNL     1     -30.993   8.492  -0.010  1.00 20.00     0.014 C 
HETATM   10  C6  UNL     1     -31.274   8.687   2.474  1.00 20.00     0.014 C 
HETATM   11  C7  UNL     1     -32.775   9.964   0.939  1.00 20.00     0.014 C 
ENDBRANCH   7   8
ENDBRANCH   1   7
TORSDOF 3
ENDMDL
MODEL 9
REMARK VINA RESULT:       0.2      1.673      4.935
REMARK  3 active torsions:
REMARK  status: ('A' for Active; 'I' for Inactive)
REMARK    1  A    between atoms: C1_1  and  C8_8 
REMARK    2  A    between atoms: C8_8  and  C9_9 
REMARK    3  A    between atoms: C9_9  and  C10_10 
ROOT
HETATM    1  C8  UNL     1     -32.393   6.833   1.716  1.00 20.00     0.055 C 
ENDROOT
BRANCH   1   2
HETATM    2  C1  UNL     1     -33.365   6.346   2.739  1.00 20.00     0.006 C 
HETATM    3  C2  UNL     1     -34.114   7.315   3.599  1.00 20.00     0.056 C 
HETATM    4  C3  UNL     1     -35.215   6.401   4.086  1.00 20.00     0.027 C 
HETATM    5  C4  UNL     1     -34.551   5.036   4.063  1.00 20.00     0.149 C 
HETATM    6  N11 UNL     1     -33.576   5.083   2.955  1.00 20.00    -0.298 NA
ENDBRANCH   1   2
BRANCH   1   7
HETATM    7  C9  UNL     1     -32.140   8.336   1.869  1.00 20.00     0.014 C 
BRANCH   7   8
HETATM    8  C10 UNL     1     -32.156   9.157   0.551  1.00 20.00    -0.051 C 
HETATM    9  C5  UNL     1     -32.654  10.591   0.796  1.00 20.00     0.014 C 
HETATM   10  C6  UNL     1     -33.042   8.487  -0.512  1.00 20.00     0.014 C 
HETATM   11  C7  UNL     1     -30.714   9.226   0.011  1.00 20.00     0.014 C 
ENDBRANCH   7   8
ENDBRANCH   1   7
TORSDOF 3
ENDMDL
