MODEL 1
REMARK VINA RESULT:      -2.0      0.000      0.000
REMARK  1 active torsions:
REMARK  status: ('A' for Active; 'I' for Inactive)
REMARK    1  A    between atoms: C9_9  and  C10_10 
ROOT
HETATM    1  C1  UNL     1     -34.581   5.151   3.545  1.00 20.00     0.001 A 
HETATM    2  C2  UNL     1     -34.910   6.340   4.341  1.00 20.00     0.001 A 
HETATM    3  C3  UNL     1     -33.654   5.178   2.565  1.00 20.00     0.012 A 
HETATM    4  C4  UNL     1     -34.304   7.529   4.141  1.00 20.00     0.012 A 
HETATM    5  C5  UNL     1     -32.028   6.735   1.415  1.00 20.00     0.001 A 
HETATM    6  C6  UNL     1     -32.554   8.643   2.695  1.00 20.00     0.001 A 
HETATM    7  C7  UNL     1     -32.977   6.427   2.310  1.00 20.00    -0.029 A 
HETATM    8  C8  UNL     1     -33.304   7.609   3.102  1.00 20.00    -0.029 A 
HETATM    9  C10 UNL     1     -31.659   8.189   1.571  1.00 20.00     0.094 A 
ENDROOT
BRANCH   9  10
HETATM   10  C9  UNL     1     -32.018   8.927   0.321  1.00 20.00     0.243 C 
HETATM   11  O11 UNL     1     -32.478  10.064   0.316  1.00 20.00    -0.306 OA
ENDBRANCH   9  10
TORSDOF 1
ENDMDL
MODEL 2
REMARK VINA RESULT:      -0.9      2.724      4.389
REMARK  1 active torsions:
REMARK  status: ('A' for Active; 'I' for Inactive)
REMARK    1  A    between atoms: C9_9  and  C10_10 
ROOT
HETATM    1  C1  UNL     1     -31.942   7.751   1.508  1.00 20.00     0.001 A 
HETATM    2  C2  UNL     1     -32.624   8.603   2.490  1.00 20.00     0.001 A 
HETATM    3  C3  UNL     1     -32.131   6.416   1.462  1.00 20.00     0.012 A 
HETATM    4  C4  UNL     1     -33.481   8.101   3.404  1.00 20.00     0.012 A 
HETATM    5  C5  UNL     1     -33.409   4.553   2.598  1.00 20.00     0.001 A 
HETATM    6  C6  UNL     1     -34.505   5.921   4.173  1.00 20.00     0.001 A 
HETATM    7  C7  UNL     1     -33.038   5.829   2.420  1.00 20.00    -0.029 A 
HETATM    8  C8  UNL     1     -33.717   6.676   3.397  1.00 20.00    -0.029 A 
HETATM    9  C10 UNL     1     -34.389   4.481   3.742  1.00 20.00     0.094 A 
ENDROOT
BRANCH   9  10
HETATM   10  C9  UNL     1     -33.794   3.676   4.853  1.00 20.00     0.243 C 
HETATM   11  O11 UNL     1     -33.069   2.704   4.670  1.00 20.00    -0.306 OA
ENDBRANCH   9  10
TORSDOF 1
ENDMDL
MODEL 3
REMARK VINA RESULT:      -0.4      1.444      2.363
REMARK  1 active torsions:
REMARK  status: ('A' for Active; 'I' for Inactive)
REMARK    1  A    between atoms: C9_9  and  C10_10 
ROOT
HETATM    1  C1  UNL     1     -35.266   5.239   4.694  1.00 20.00     0.001 A 
HETATM    2  C2  UNL     1     -34.410   4.098   4.348  1.00 20.00     0.001 A 
HETATM    3  C3  UNL     1     -35.125   6.446   4.108  1.00 20.00     0.012 A 
HETATM    4  C4  UNL     1     -33.432   4.188   3.422  1.00 20.00     0.012 A 
HETATM    5  C5  UNL     1     -33.736   7.661   2.379  1.00 20.00     0.001 A 
HETATM    6  C6  UNL     1     -32.364   5.828   1.821  1.00 20.00     0.001 A 
HETATM    7  C7  UNL     1     -34.092   6.595   3.110  1.00 20.00    -0.029 A 
HETATM    8  C8  UNL     1     -33.241   5.460   2.765  1.00 20.00    -0.029 A 
HETATM    9  C10 UNL     1     -32.591   7.278   1.476  1.00 20.00     0.094 A 
ENDROOT
BRANCH   9  10
HETATM   10  C9  UNL     1     -31.380   8.072   1.849  1.00 20.00     0.243 C 
HETATM   11  O11 UNL     1     -31.236   8.613   2.940  1.00 20.00    -0.306 OA
ENDBRANCH   9  10
TORSDOF 1
ENDMDL
MODEL 4
REMARK VINA RESULT:       0.4      1.912      4.241
REMARK  1 active torsions:
REMARK  status: ('A' for Active; 'I' for Inactive)
REMARK    1  A    between atoms: C9_9  and  C10_10 
ROOT
HETATM    1  C1  UNL     1     -31.600   8.190   1.277  1.00 20.00     0.001 A 
HETATM    2  C2  UNL     1     -31.514   6.822   0.750  1.00 20.00     0.001 A 
HETATM    3  C3  UNL     1     -32.371   8.503   2.338  1.00 20.00     0.012 A 
HETATM    4  C4  UNL     1     -32.200   5.797   1.298  1.00 20.00     0.012 A 
HETATM    5  C5  UNL     1     -33.957   7.465   4.013  1.00 20.00     0.001 A 
HETATM    6  C6  UNL     1     -33.816   5.269   3.169  1.00 20.00     0.001 A 
HETATM    7  C7  UNL     1     -33.126   7.441   2.960  1.00 20.00    -0.029 A 
HETATM    8  C8  UNL     1     -33.041   6.081   2.437  1.00 20.00    -0.029 A 
HETATM    9  C10 UNL     1     -34.485   6.074   4.254  1.00 20.00     0.094 A 
ENDROOT
BRANCH   9  10
HETATM   10  C9  UNL     1     -35.965   6.062   4.041  1.00 20.00     0.243 C 
HETATM   11  O11 UNL     1     -36.521   6.661   3.127  1.00 20.00    -0.306 OA
ENDBRANCH   9  10
TORSDOF 1
ENDMDL
MODEL 5
REMARK VINA RESULT:       0.8      2.169      3.133
REMARK  1 active torsions:
REMARK  status: ('A' for Active; 'I' for Inactive)
REMARK    1  A    between atoms: C9_9  and  C10_10 
ROOT
HETATM    1  C1  UNL     1     -33.421   8.303   4.516  1.00 20.00     0.001 A 
HETATM    2  C2  UNL     1     -34.484   7.293   4.597  1.00 20.00     0.001 A 
HETATM    3  C3  UNL     1     -32.501   8.299   3.530  1.00 20.00     0.012 A 
HETATM    4  C4  UNL     1     -34.603   6.301   3.690  1.00 20.00     0.012 A 
HETATM    5  C5  UNL     1     -31.817   7.017   1.460  1.00 20.00     0.001 A 
HETATM    6  C6  UNL     1     -33.523   5.397   1.589  1.00 20.00     0.001 A 
HETATM    7  C7  UNL     1     -32.584   7.257   2.534  1.00 20.00    -0.029 A 
HETATM    8  C8  UNL     1     -33.640   6.253   2.613  1.00 20.00    -0.029 A 
HETATM    9  C10 UNL     1     -32.341   5.799   0.744  1.00 20.00     0.094 A 
ENDROOT
BRANCH   9  10
HETATM   10  C9  UNL     1     -31.310   4.717   0.788  1.00 20.00     0.243 C 
HETATM   11  O11 UNL     1     -31.107   3.939  -0.138  1.00 20.00    -0.306 OA
ENDBRANCH   9  10
TORSDOF 1
ENDMDL
MODEL 6
REMARK VINA RESULT:       0.9      2.388      4.484
REMARK  1 active torsions:
REMARK  status: ('A' for Active; 'I' for Inactive)
REMARK    1  A    between atoms: C9_9  and  C10_10 
ROOT
HETATM    1  C1  UNL     1     -32.074   9.084   0.965  1.00 20.00     0.001 A 
HETATM    2  C2  UNL     1     -31.687   7.777   0.417  1.00 20.00     0.001 A 
HETATM    3  C3  UNL     1     -32.787   9.202   2.104  1.00 20.00     0.012 A 
HETATM    4  C4  UNL     1     -32.021   6.618   1.021  1.00 20.00     0.012 A 
HETATM    5  C5  UNL     1     -33.867   7.813   3.921  1.00 20.00     0.001 A 
HETATM    6  C6  UNL     1     -33.244   5.717   3.043  1.00 20.00     0.001 A 
HETATM    7  C7  UNL     1     -33.171   7.989   2.788  1.00 20.00    -0.029 A 
HETATM    8  C8  UNL     1     -32.786   6.691   2.245  1.00 20.00    -0.029 A 
HETATM    9  C10 UNL     1     -33.985   6.337   4.200  1.00 20.00     0.094 A 
ENDROOT
BRANCH   9  10
HETATM   10  C9  UNL     1     -35.424   5.935   4.140  1.00 20.00     0.243 C 
HETATM   11  O11 UNL     1     -35.850   4.878   4.592  1.00 20.00    -0.306 OA
ENDBRANCH   9  10
TORSDOF 1
ENDMDL
