MODEL 1
REMARK VINA RESULT:       0.7      0.000      0.000
REMARK  2 active torsions:
REMARK  status: ('A' for Active; 'I' for Inactive)
REMARK    1  A    between atoms: C3_3  and  C8_8 
REMARK    2  A    between atoms: C8_8  and  C10_10 
ROOT
HETATM    1  C1  UNL     1     -31.488   6.818   1.582  1.00 20.00    -0.026 C 
HETATM    2  C2  UNL     1     -32.150   7.962   1.811  1.00 20.00    -0.024 C 
HETATM    3  C4  UNL     1     -33.688   6.462   0.989  1.00 20.00     0.018 C 
HETATM    4  C5  UNL     1     -32.990   5.504   3.057  1.00 20.00     0.025 C 
HETATM    5  C6  UNL     1     -32.507   5.704   1.599  1.00 20.00     0.010 C 
HETATM    6  C7  UNL     1     -33.609   7.605   2.011  1.00 20.00     0.024 C 
HETATM    7  C8  UNL     1     -33.761   6.833   3.357  1.00 20.00     0.020 C 
ENDROOT
BRANCH   7   8
HETATM    8  C3  UNL     1     -33.146   7.582   4.511  1.00 20.00     0.241 C 
HETATM    9  O11 UNL     1     -33.777   8.347   5.232  1.00 20.00    -0.306 OA
ENDBRANCH   7   8
BRANCH   7  10
HETATM   10  C10 UNL     1     -35.224   6.574   3.724  1.00 20.00     0.013 C 
HETATM   11  C9  UNL     1     -35.385   5.279   4.450  1.00 20.00     0.006 C 
ENDBRANCH   7  10
TORSDOF 2
ENDMDL
MODEL 2
REMARK VINA RESULT:       1.9      1.948      3.807
REMARK  2 active torsions:
REMARK  status: ('A' for Active; 'I' for Inactive)
REMARK    1  A    between atoms: C3_3  and  C8_8 
REMARK    2  A    between atoms: C8_8  and  C10_10 
ROOT
HETATM    1  C1  UNL     1     -35.486   5.905   3.914  1.00 20.00    -0.026 C 
HETATM    2  C2  UNL     1     -35.607   6.901   3.023  1.00 20.00    -0.024 C 
HETATM    3  C4  UNL     1     -33.865   7.468   4.413  1.00 20.00     0.018 C 
HETATM    4  C5  UNL     1     -33.114   5.488   3.318  1.00 20.00     0.025 C 
HETATM    5  C6  UNL     1     -34.072   5.952   4.443  1.00 20.00     0.010 C 
HETATM    6  C7  UNL     1     -34.262   7.592   2.935  1.00 20.00     0.024 C 
HETATM    7  C8  UNL     1     -33.242   6.630   2.254  1.00 20.00     0.020 C 
ENDROOT
BRANCH   7   8
HETATM    8  C3  UNL     1     -33.751   6.106   0.937  1.00 20.00     0.241 C 
HETATM    9  O11 UNL     1     -33.287   5.117   0.379  1.00 20.00    -0.306 OA
ENDBRANCH   7   8
BRANCH   7  10
HETATM   10  C10 UNL     1     -31.896   7.303   1.974  1.00 20.00     0.013 C 
HETATM   11  C9  UNL     1     -32.071   8.610   1.274  1.00 20.00     0.006 C 
ENDBRANCH   7  10
TORSDOF 2
ENDMDL
MODEL 3
REMARK VINA RESULT:       1.9      1.637      3.329
REMARK  2 active torsions:
REMARK  status: ('A' for Active; 'I' for Inactive)
REMARK    1  A    between atoms: C3_3  and  C8_8 
REMARK    2  A    between atoms: C8_8  and  C10_10 
ROOT
HETATM    1  C1  UNL     1     -34.635   7.842   4.089  1.00 20.00    -0.026 C 
HETATM    2  C2  UNL     1     -33.347   7.669   4.426  1.00 20.00    -0.024 C 
HETATM    3  C4  UNL     1     -34.166   5.595   3.864  1.00 20.00     0.018 C 
HETATM    4  C5  UNL     1     -34.312   6.845   1.840  1.00 20.00     0.025 C 
HETATM    5  C6  UNL     1     -35.022   6.680   3.206  1.00 20.00     0.010 C 
HETATM    6  C7  UNL     1     -32.867   6.406   3.740  1.00 20.00     0.024 C 
HETATM    7  C8  UNL     1     -32.801   6.658   2.204  1.00 20.00     0.020 C 
ENDROOT
BRANCH   7   8
HETATM    8  C3  UNL     1     -31.994   7.885   1.867  1.00 20.00     0.241 C 
HETATM    9  O11 UNL     1     -32.398   8.778   1.129  1.00 20.00    -0.306 OA
ENDBRANCH   7   8
BRANCH   7  10
HETATM   10  C10 UNL     1     -32.170   5.490   1.443  1.00 20.00     0.013 C 
HETATM   11  C9  UNL     1     -33.089   4.963   0.390  1.00 20.00     0.006 C 
ENDBRANCH   7  10
TORSDOF 2
ENDMDL
MODEL 4
REMARK VINA RESULT:       2.4      1.525      2.350
REMARK  2 active torsions:
REMARK  status: ('A' for Active; 'I' for Inactive)
REMARK    1  A    between atoms: C3_3  and  C8_8 
REMARK    2  A    between atoms: C8_8  and  C10_10 
ROOT
HETATM    1  C1  UNL     1     -32.349   5.374   0.809  1.00 20.00    -0.026 C 
HETATM    2  C2  UNL     1     -31.798   5.356   2.032  1.00 20.00    -0.024 C 
HETATM    3  C4  UNL     1     -32.430   7.530   1.625  1.00 20.00     0.018 C 
HETATM    4  C5  UNL     1     -34.484   6.321   1.647  1.00 20.00     0.025 C 
HETATM    5  C6  UNL     1     -33.252   6.583   0.747  1.00 20.00     0.010 C 
HETATM    6  C7  UNL     1     -32.358   6.539   2.796  1.00 20.00     0.024 C 
HETATM    7  C8  UNL     1     -33.868   6.285   3.086  1.00 20.00     0.020 C 
ENDROOT
BRANCH   7   8
HETATM    8  C3  UNL     1     -34.099   4.955   3.754  1.00 20.00     0.241 C 
HETATM    9  O11 UNL     1     -35.095   4.700   4.425  1.00 20.00    -0.306 OA
ENDBRANCH   7   8
BRANCH   7  10
HETATM   10  C10 UNL     1     -34.480   7.352   3.996  1.00 20.00     0.013 C 
HETATM   11  C9  UNL     1     -33.446   7.989   4.865  1.00 20.00     0.006 C 
ENDBRANCH   7  10
TORSDOF 2
ENDMDL
MODEL 5
REMARK VINA RESULT:       2.6      1.927      3.796
REMARK  2 active torsions:
REMARK  status: ('A' for Active; 'I' for Inactive)
REMARK    1  A    between atoms: C3_3  and  C8_8 
REMARK    2  A    between atoms: C8_8  and  C10_10 
ROOT
HETATM    1  C1  UNL     1     -34.534   6.624   4.857  1.00 20.00    -0.026 C 
HETATM    2  C2  UNL     1     -35.064   6.130   3.728  1.00 20.00    -0.024 C 
HETATM    3  C4  UNL     1     -34.795   8.390   3.398  1.00 20.00     0.018 C 
HETATM    4  C5  UNL     1     -32.573   7.574   3.671  1.00 20.00     0.025 C 
HETATM    5  C6  UNL     1     -33.839   7.914   4.494  1.00 20.00     0.010 C 
HETATM    6  C7  UNL     1     -34.696   7.079   2.605  1.00 20.00     0.024 C 
HETATM    7  C8  UNL     1     -33.162   6.985   2.346  1.00 20.00     0.020 C 
ENDROOT
BRANCH   7   8
HETATM    8  C3  UNL     1     -32.713   5.564   2.123  1.00 20.00     0.241 C 
HETATM    9  O11 UNL     1     -32.017   5.217   1.174  1.00 20.00    -0.306 OA
ENDBRANCH   7   8
BRANCH   7  10
HETATM   10  C10 UNL     1     -32.723   7.787   1.119  1.00 20.00     0.013 C 
HETATM   11  C9  UNL     1     -31.577   8.691   1.436  1.00 20.00     0.006 C 
ENDBRANCH   7  10
TORSDOF 2
ENDMDL
MODEL 6
REMARK VINA RESULT:       2.6      2.030      2.853
REMARK  2 active torsions:
REMARK  status: ('A' for Active; 'I' for Inactive)
REMARK    1  A    between atoms: C3_3  and  C8_8 
REMARK    2  A    between atoms: C8_8  and  C10_10 
ROOT
HETATM    1  C1  UNL     1     -32.756   5.398   0.418  1.00 20.00    -0.026 C 
HETATM    2  C2  UNL     1     -33.861   6.094   0.726  1.00 20.00    -0.024 C 
HETATM    3  C4  UNL     1     -32.972   5.354   2.714  1.00 20.00     0.018 C 
HETATM    4  C5  UNL     1     -31.308   6.822   1.844  1.00 20.00     0.025 C 
HETATM    5  C6  UNL     1     -31.876   5.396   1.646  1.00 20.00     0.010 C 
HETATM    6  C7  UNL     1     -33.703   6.582   2.152  1.00 20.00     0.024 C 
HETATM    7  C8  UNL     1     -32.581   7.663   2.197  1.00 20.00     0.020 C 
ENDROOT
BRANCH   7   8
HETATM    8  C3  UNL     1     -32.815   8.762   1.193  1.00 20.00     0.241 C 
HETATM    9  O11 UNL     1     -31.957   9.153   0.409  1.00 20.00    -0.306 OA
ENDBRANCH   7   8
BRANCH   7  10
HETATM   10  C10 UNL     1     -32.463   8.331   3.568  1.00 20.00     0.013 C 
HETATM   11  C9  UNL     1     -33.666   8.067   4.412  1.00 20.00     0.006 C 
ENDBRANCH   7  10
TORSDOF 2
ENDMDL
MODEL 7
REMARK VINA RESULT:       2.6      1.356      2.195
REMARK  2 active torsions:
REMARK  status: ('A' for Active; 'I' for Inactive)
REMARK    1  A    between atoms: C3_3  and  C8_8 
REMARK    2  A    between atoms: C8_8  and  C10_10 
ROOT
HETATM    1  C1  UNL     1     -32.857   7.925   0.938  1.00 20.00    -0.026 C 
HETATM    2  C2  UNL     1     -33.561   6.805   0.709  1.00 20.00    -0.024 C 
HETATM    3  C4  UNL     1     -31.642   6.166   1.803  1.00 20.00     0.018 C 
HETATM    4  C5  UNL     1     -32.787   7.532   3.387  1.00 20.00     0.025 C 
HETATM    5  C6  UNL     1     -31.934   7.640   2.098  1.00 20.00     0.010 C 
HETATM    6  C7  UNL     1     -33.127   5.782   1.739  1.00 20.00     0.024 C 
HETATM    7  C8  UNL     1     -33.629   6.234   3.144  1.00 20.00     0.020 C 
ENDROOT
BRANCH   7   8
HETATM    8  C3  UNL     1     -35.107   6.524   3.150  1.00 20.00     0.241 C 
HETATM    9  O11 UNL     1     -35.841   6.275   4.101  1.00 20.00    -0.306 OA
ENDBRANCH   7   8
BRANCH   7  10
HETATM   10  C10 UNL     1     -33.379   5.181   4.225  1.00 20.00     0.013 C 
HETATM   11  C9  UNL     1     -33.791   3.820   3.770  1.00 20.00     0.006 C 
ENDBRANCH   7  10
TORSDOF 2
ENDMDL
MODEL 8
REMARK VINA RESULT:       2.8      1.565      3.173
REMARK  2 active torsions:
REMARK  status: ('A' for Active; 'I' for Inactive)
REMARK    1  A    between atoms: C3_3  and  C8_8 
REMARK    2  A    between atoms: C8_8  and  C10_10 
ROOT
HETATM    1  C1  UNL     1     -32.614   5.141   2.652  1.00 20.00    -0.026 C 
HETATM    2  C2  UNL     1     -31.694   5.558   1.770  1.00 20.00    -0.024 C 
HETATM    3  C4  UNL     1     -33.745   6.155   0.916  1.00 20.00     0.018 C 
HETATM    4  C5  UNL     1     -33.565   7.416   2.930  1.00 20.00     0.025 C 
HETATM    5  C6  UNL     1     -33.852   5.978   2.432  1.00 20.00     0.010 C 
HETATM    6  C7  UNL     1     -32.309   6.697   0.981  1.00 20.00     0.024 C 
HETATM    7  C8  UNL     1     -32.482   7.928   1.922  1.00 20.00     0.020 C 
ENDROOT
BRANCH   7   8
HETATM    8  C3  UNL     1     -31.198   8.289   2.623  1.00 20.00     0.241 C 
HETATM    9  O11 UNL     1     -31.158   8.897   3.687  1.00 20.00    -0.306 OA
ENDBRANCH   7   8
BRANCH   7  10
HETATM   10  C10 UNL     1     -32.946   9.180   1.173  1.00 20.00     0.013 C 
HETATM   11  C9  UNL     1     -32.052   9.490   0.018  1.00 20.00     0.006 C 
ENDBRANCH   7  10
TORSDOF 2
ENDMDL
MODEL 9
REMARK VINA RESULT:       2.8      1.732      2.957
REMARK  2 active torsions:
REMARK  status: ('A' for Active; 'I' for Inactive)
REMARK    1  A    between atoms: C3_3  and  C8_8 
REMARK    2  A    between atoms: C8_8  and  C10_10 
ROOT
HETATM    1  C1  UNL     1     -32.173   8.325   3.592  1.00 20.00    -0.026 C 
HETATM    2  C2  UNL     1     -33.421   7.850   3.721  1.00 20.00    -0.024 C 
HETATM    3  C4  UNL     1     -33.116   8.309   1.488  1.00 20.00     0.018 C 
HETATM    4  C5  UNL     1     -31.542   6.579   1.947  1.00 20.00     0.025 C 
HETATM    5  C6  UNL     1     -31.757   8.098   2.159  1.00 20.00     0.010 C 
HETATM    6  C7  UNL     1     -33.826   7.277   2.378  1.00 20.00     0.024 C 
HETATM    7  C8  UNL     1     -32.986   5.994   2.101  1.00 20.00     0.020 C 
ENDROOT
BRANCH   7   8
HETATM    8  C3  UNL     1     -33.066   5.010   3.239  1.00 20.00     0.241 C 
HETATM    9  O11 UNL     1     -34.124   4.580   3.686  1.00 20.00    -0.306 OA
ENDBRANCH   7   8
BRANCH   7  10
HETATM   10  C10 UNL     1     -33.440   5.254   0.841  1.00 20.00     0.013 C 
HETATM   11  C9  UNL     1     -32.330   4.452   0.246  1.00 20.00     0.006 C 
ENDBRANCH   7  10
TORSDOF 2
ENDMDL
