MODEL 1
REMARK VINA RESULT:      -0.6      0.000      0.000
REMARK  1 active torsions:
REMARK  status: ('A' for Active; 'I' for Inactive)
REMARK    1  A    between atoms: C1_1  and  C5_5 
ROOT
HETATM    1  C2  UNL     1     -33.197   5.730   1.663  1.00 20.00     0.015 C 
HETATM    2  C3  UNL     1     -31.827   6.393   1.798  1.00 20.00     0.026 C 
HETATM    3  C4  UNL     1     -33.298   7.664   3.175  1.00 20.00     0.038 C 
HETATM    4  C5  UNL     1     -34.120   6.489   2.626  1.00 20.00     0.074 C 
HETATM    5  C6  UNL     1     -32.146   7.839   2.181  1.00 20.00     0.034 C 
HETATM    6  C7  UNL     1     -32.553   8.686   0.972  1.00 20.00     0.032 C 
HETATM    7 CL10 UNL     1     -30.739   8.609   2.964  1.00 20.00    -0.120 Cl
ENDROOT
BRANCH   4   8
HETATM    8  C1  UNL     1     -34.606   5.605   3.734  1.00 20.00     0.223 C 
HETATM    9  O8  UNL     1     -35.542   5.933   4.458  1.00 20.00    -0.279 OA
HETATM   10 CL9  UNL     1     -33.698   4.127   3.838  1.00 20.00    -0.043 Cl
ENDBRANCH   4   8
TORSDOF 1
ENDMDL
MODEL 2
REMARK VINA RESULT:      -0.5      2.131      4.226
REMARK  1 active torsions:
REMARK  status: ('A' for Active; 'I' for Inactive)
REMARK    1  A    between atoms: C1_1  and  C5_5 
ROOT
HETATM    1  C2  UNL     1     -33.392   8.220   3.721  1.00 20.00     0.015 C 
HETATM    2  C3  UNL     1     -33.454   6.940   4.554  1.00 20.00     0.026 C 
HETATM    3  C4  UNL     1     -33.627   6.242   2.283  1.00 20.00     0.038 C 
HETATM    4  C5  UNL     1     -33.404   7.761   2.257  1.00 20.00     0.074 C 
HETATM    5  C6  UNL     1     -34.213   5.952   3.668  1.00 20.00     0.034 C 
HETATM    6  C7  UNL     1     -35.728   6.176   3.710  1.00 20.00     0.032 C 
HETATM    7 CL10 UNL     1     -33.877   4.271   4.165  1.00 20.00    -0.120 Cl
ENDROOT
BRANCH   4   8
HETATM    8  C1  UNL     1     -32.124   8.107   1.561  1.00 20.00     0.223 C 
HETATM    9  O8  UNL     1     -31.101   7.448   1.725  1.00 20.00    -0.279 OA
HETATM   10 CL9  UNL     1     -32.291   9.505   0.542  1.00 20.00    -0.043 Cl
ENDBRANCH   4   8
TORSDOF 1
ENDMDL
MODEL 3
REMARK VINA RESULT:       0.5      2.382      2.965
REMARK  1 active torsions:
REMARK  status: ('A' for Active; 'I' for Inactive)
REMARK    1  A    between atoms: C1_1  and  C5_5 
ROOT
HETATM    1  C2  UNL     1     -32.441   7.726   2.369  1.00 20.00     0.015 C 
HETATM    2  C3  UNL     1     -32.736   7.162   0.981  1.00 20.00     0.026 C 
HETATM    3  C4  UNL     1     -33.519   5.525   2.525  1.00 20.00     0.038 C 
HETATM    4  C5  UNL     1     -33.034   6.717   3.361  1.00 20.00     0.074 C 
HETATM    5  C6  UNL     1     -32.773   5.647   1.192  1.00 20.00     0.034 C 
HETATM    6  C7  UNL     1     -31.372   5.033   1.257  1.00 20.00     0.032 C 
HETATM    7 CL10 UNL     1     -33.679   4.849  -0.123  1.00 20.00    -0.120 Cl
ENDROOT
BRANCH   4   8
HETATM    8  C1  UNL     1     -34.158   7.316   4.150  1.00 20.00     0.223 C 
HETATM    9  O8  UNL     1     -33.997   8.314   4.846  1.00 20.00    -0.279 OA
HETATM   10 CL9  UNL     1     -35.642   6.436   3.947  1.00 20.00    -0.043 Cl
ENDBRANCH   4   8
TORSDOF 1
ENDMDL
MODEL 4
REMARK VINA RESULT:       0.9      1.432      2.023
REMARK  1 active torsions:
REMARK  status: ('A' for Active; 'I' for Inactive)
REMARK    1  A    between atoms: C1_1  and  C5_5 
ROOT
HETATM    1  C2  UNL     1     -33.117   7.862   3.995  1.00 20.00     0.015 C 
HETATM    2  C3  UNL     1     -33.068   8.844   2.826  1.00 20.00     0.026 C 
HETATM    3  C4  UNL     1     -33.070   6.672   1.847  1.00 20.00     0.038 C 
HETATM    4  C5  UNL     1     -33.218   6.469   3.361  1.00 20.00     0.074 C 
HETATM    5  C6  UNL     1     -32.414   8.048   1.695  1.00 20.00     0.034 C 
HETATM    6  C7  UNL     1     -30.891   7.980   1.836  1.00 20.00     0.032 C 
HETATM    7 CL10 UNL     1     -32.803   8.770   0.109  1.00 20.00    -0.120 Cl
ENDROOT
BRANCH   4   8
HETATM    8  C1  UNL     1     -34.519   5.806   3.692  1.00 20.00     0.223 C 
HETATM    9  O8  UNL     1     -35.584   6.416   3.650  1.00 20.00    -0.279 OA
HETATM   10 CL9  UNL     1     -34.312   4.135   4.122  1.00 20.00    -0.043 Cl
ENDBRANCH   4   8
TORSDOF 1
ENDMDL
MODEL 5
REMARK VINA RESULT:       1.0      2.850      4.374
REMARK  1 active torsions:
REMARK  status: ('A' for Active; 'I' for Inactive)
REMARK    1  A    between atoms: C1_1  and  C5_5 
ROOT
HETATM    1  C2  UNL     1     -31.797   7.032   1.913  1.00 20.00     0.015 C 
HETATM    2  C3  UNL     1     -33.077   6.297   2.307  1.00 20.00     0.026 C 
HETATM    3  C4  UNL     1     -33.563   8.616   2.553  1.00 20.00     0.038 C 
HETATM    4  C5  UNL     1     -32.143   8.526   1.977  1.00 20.00     0.074 C 
HETATM    5  C6  UNL     1     -33.795   7.269   3.244  1.00 20.00     0.034 C 
HETATM    6  C7  UNL     1     -33.219   7.243   4.664  1.00 20.00     0.032 C 
HETATM    7 CL10 UNL     1     -35.537   6.889   3.334  1.00 20.00    -0.120 Cl
ENDROOT
BRANCH   4   8
HETATM    8  C1  UNL     1     -32.066   9.167   0.625  1.00 20.00     0.223 C 
HETATM    9  O8  UNL     1     -31.383   8.692  -0.277  1.00 20.00    -0.279 OA
HETATM   10 CL9  UNL     1     -33.036  10.605   0.527  1.00 20.00    -0.043 Cl
ENDBRANCH   4   8
TORSDOF 1
ENDMDL
MODEL 6
REMARK VINA RESULT:       1.0      1.860      2.410
REMARK  1 active torsions:
REMARK  status: ('A' for Active; 'I' for Inactive)
REMARK    1  A    between atoms: C1_1  and  C5_5 
ROOT
HETATM    1  C2  UNL     1     -34.193   6.853   3.944  1.00 20.00     0.015 C 
HETATM    2  C3  UNL     1     -34.411   7.267   2.489  1.00 20.00     0.026 C 
HETATM    3  C4  UNL     1     -33.121   5.265   2.406  1.00 20.00     0.038 C 
HETATM    4  C5  UNL     1     -33.449   5.512   3.885  1.00 20.00     0.074 C 
HETATM    5  C6  UNL     1     -33.233   6.641   1.741  1.00 20.00     0.034 C 
HETATM    6  C7  UNL     1     -31.946   7.459   1.890  1.00 20.00     0.032 C 
HETATM    7 CL10 UNL     1     -33.603   6.482   0.002  1.00 20.00    -0.120 Cl
ENDROOT
BRANCH   4   8
HETATM    8  C1  UNL     1     -34.275   4.398   4.449  1.00 20.00     0.223 C 
HETATM    9  O8  UNL     1     -35.468   4.543   4.701  1.00 20.00    -0.279 OA
HETATM   10 CL9  UNL     1     -33.347   2.948   4.682  1.00 20.00    -0.043 Cl
ENDBRANCH   4   8
TORSDOF 1
ENDMDL
MODEL 7
REMARK VINA RESULT:       1.1      2.686      4.228
REMARK  1 active torsions:
REMARK  status: ('A' for Active; 'I' for Inactive)
REMARK    1  A    between atoms: C1_1  and  C5_5 
ROOT
HETATM    1  C2  UNL     1     -31.808   7.195   1.873  1.00 20.00     0.015 C 
HETATM    2  C3  UNL     1     -33.033   6.382   2.292  1.00 20.00     0.026 C 
HETATM    3  C4  UNL     1     -33.636   8.666   2.601  1.00 20.00     0.038 C 
HETATM    4  C5  UNL     1     -32.232   8.666   1.979  1.00 20.00     0.074 C 
HETATM    5  C6  UNL     1     -33.771   7.296   3.271  1.00 20.00     0.034 C 
HETATM    6  C7  UNL     1     -33.150   7.275   4.671  1.00 20.00     0.032 C 
HETATM    7 CL10 UNL     1     -35.486   6.819   3.408  1.00 20.00    -0.120 Cl
ENDROOT
BRANCH   4   8
HETATM    8  C1  UNL     1     -32.235   9.335   0.639  1.00 20.00     0.223 C 
HETATM    9  O8  UNL     1     -33.003  10.257   0.379  1.00 20.00    -0.279 OA
HETATM   10 CL9  UNL     1     -31.054   8.652  -0.436  1.00 20.00    -0.043 Cl
ENDBRANCH   4   8
TORSDOF 1
ENDMDL
MODEL 8
REMARK VINA RESULT:       1.1      2.295      4.054
REMARK  1 active torsions:
REMARK  status: ('A' for Active; 'I' for Inactive)
REMARK    1  A    between atoms: C1_1  and  C5_5 
ROOT
HETATM    1  C2  UNL     1     -32.575   6.187   1.125  1.00 20.00     0.015 C 
HETATM    2  C3  UNL     1     -33.947   5.750   1.636  1.00 20.00     0.026 C 
HETATM    3  C4  UNL     1     -33.220   7.465   3.121  1.00 20.00     0.038 C 
HETATM    4  C5  UNL     1     -32.153   7.358   2.022  1.00 20.00     0.074 C 
HETATM    5  C6  UNL     1     -33.923   6.105   3.123  1.00 20.00     0.034 C 
HETATM    6  C7  UNL     1     -33.166   5.067   3.958  1.00 20.00     0.032 C 
HETATM    7 CL10 UNL     1     -35.583   6.244   3.765  1.00 20.00    -0.120 Cl
ENDROOT
BRANCH   4   8
HETATM    8  C1  UNL     1     -32.046   8.635   1.246  1.00 20.00     0.223 C 
HETATM    9  O8  UNL     1     -32.680   9.637   1.563  1.00 20.00    -0.279 OA
HETATM   10 CL9  UNL     1     -30.950   8.495  -0.095  1.00 20.00    -0.043 Cl
ENDBRANCH   4   8
TORSDOF 1
ENDMDL
MODEL 9
REMARK VINA RESULT:       1.3      1.788      3.033
REMARK  1 active torsions:
REMARK  status: ('A' for Active; 'I' for Inactive)
REMARK    1  A    between atoms: C1_1  and  C5_5 
ROOT
HETATM    1  C2  UNL     1     -34.325   5.990   3.470  1.00 20.00     0.015 C 
HETATM    2  C3  UNL     1     -33.401   4.951   2.836  1.00 20.00     0.026 C 
HETATM    3  C4  UNL     1     -32.618   7.066   2.070  1.00 20.00     0.038 C 
HETATM    4  C5  UNL     1     -33.760   7.354   3.055  1.00 20.00     0.074 C 
HETATM    5  C6  UNL     1     -32.872   5.639   1.577  1.00 20.00     0.034 C 
HETATM    6  C7  UNL     1     -33.879   5.598   0.423  1.00 20.00     0.032 C 
HETATM    7 CL10 UNL     1     -31.355   4.873   1.030  1.00 20.00    -0.120 Cl
ENDROOT
BRANCH   4   8
HETATM    8  C1  UNL     1     -33.269   8.130   4.238  1.00 20.00     0.223 C 
HETATM    9  O8  UNL     1     -33.924   8.210   5.274  1.00 20.00    -0.279 OA
HETATM   10 CL9  UNL     1     -31.720   8.861   3.946  1.00 20.00    -0.043 Cl
ENDBRANCH   4   8
TORSDOF 1
ENDMDL
