MODEL 1
REMARK VINA RESULT:      -2.9      0.000      0.000
REMARK  1 active torsions:
REMARK  status: ('A' for Active; 'I' for Inactive)
REMARK    1  A    between atoms: C1_1  and  C3_3 
ROOT
HETATM    1  C1  UNL     1     -33.620   6.895   3.396  1.00 20.00     0.163 C 
HETATM    2  C2  UNL     1     -32.870   6.890   2.281  1.00 20.00    -0.045 C 
HETATM    3  C4  UNL     1     -31.901   7.965   1.872  1.00 20.00     0.046 C 
HETATM    4  C5  UNL     1     -32.939   5.734   1.318  1.00 20.00     0.046 C 
HETATM    5  F8  UNL     1     -33.544   7.936   4.255  1.00 20.00    -0.202 F 
ENDROOT
BRANCH   1   6
HETATM    6  C3  UNL     1     -34.587   5.850   3.831  1.00 20.00     0.183 C 
HETATM    7  C6  UNL     1     -34.032   4.467   4.044  1.00 20.00     0.099 C 
HETATM    8  O7  UNL     1     -35.785   6.079   3.967  1.00 20.00    -0.290 OA
ENDBRANCH   1   6
TORSDOF 1
ENDMDL
MODEL 2
REMARK VINA RESULT:      -2.5      2.450      3.966
REMARK  1 active torsions:
REMARK  status: ('A' for Active; 'I' for Inactive)
REMARK    1  A    between atoms: C1_1  and  C3_3 
ROOT
HETATM    1  C1  UNL     1     -33.102   6.964   2.274  1.00 20.00     0.163 C 
HETATM    2  C2  UNL     1     -33.856   6.990   3.386  1.00 20.00    -0.045 C 
HETATM    3  C4  UNL     1     -34.867   5.951   3.784  1.00 20.00     0.046 C 
HETATM    4  C5  UNL     1     -33.720   8.118   4.376  1.00 20.00     0.046 C 
HETATM    5  F8  UNL     1     -33.230   5.942   1.397  1.00 20.00    -0.202 F 
ENDROOT
BRANCH   1   6
HETATM    6  C3  UNL     1     -32.094   7.973   1.850  1.00 20.00     0.183 C 
HETATM    7  C6  UNL     1     -32.563   9.030   0.887  1.00 20.00     0.099 C 
HETATM    8  O7  UNL     1     -30.925   7.930   2.222  1.00 20.00    -0.290 OA
ENDBRANCH   1   6
TORSDOF 1
ENDMDL
MODEL 3
REMARK VINA RESULT:      -2.4      1.525      1.962
REMARK  1 active torsions:
REMARK  status: ('A' for Active; 'I' for Inactive)
REMARK    1  A    between atoms: C1_1  and  C3_3 
ROOT
HETATM    1  C1  UNL     1     -33.535   6.023   2.920  1.00 20.00     0.163 C 
HETATM    2  C2  UNL     1     -33.160   7.305   3.062  1.00 20.00    -0.045 C 
HETATM    3  C4  UNL     1     -32.284   8.073   2.111  1.00 20.00     0.046 C 
HETATM    4  C5  UNL     1     -33.631   8.113   4.244  1.00 20.00     0.046 C 
HETATM    5  F8  UNL     1     -33.110   5.311   1.852  1.00 20.00    -0.202 F 
ENDROOT
BRANCH   1   6
HETATM    6  C3  UNL     1     -34.399   5.234   3.840  1.00 20.00     0.183 C 
HETATM    7  C6  UNL     1     -33.889   3.875   4.243  1.00 20.00     0.099 C 
HETATM    8  O7  UNL     1     -35.494   5.637   4.221  1.00 20.00    -0.290 OA
ENDBRANCH   1   6
TORSDOF 1
ENDMDL
MODEL 4
REMARK VINA RESULT:      -2.3      1.572      2.194
REMARK  1 active torsions:
REMARK  status: ('A' for Active; 'I' for Inactive)
REMARK    1  A    between atoms: C1_1  and  C3_3 
ROOT
HETATM    1  C1  UNL     1     -33.560   5.845   2.920  1.00 20.00     0.163 C 
HETATM    2  C2  UNL     1     -32.698   6.250   1.972  1.00 20.00    -0.045 C 
HETATM    3  C4  UNL     1     -31.806   5.354   1.158  1.00 20.00     0.046 C 
HETATM    4  C5  UNL     1     -32.571   7.711   1.628  1.00 20.00     0.046 C 
HETATM    5  F8  UNL     1     -33.668   4.529   3.215  1.00 20.00    -0.202 F 
ENDROOT
BRANCH   1   6
HETATM    6  C3  UNL     1     -34.456   6.702   3.743  1.00 20.00     0.183 C 
HETATM    7  C6  UNL     1     -33.800   7.819   4.511  1.00 20.00     0.099 C 
HETATM    8  O7  UNL     1     -35.662   6.493   3.836  1.00 20.00    -0.290 OA
ENDBRANCH   1   6
TORSDOF 1
ENDMDL
MODEL 5
REMARK VINA RESULT:      -2.2      1.841      2.269
REMARK  1 active torsions:
REMARK  status: ('A' for Active; 'I' for Inactive)
REMARK    1  A    between atoms: C1_1  and  C3_3 
ROOT
HETATM    1  C1  UNL     1     -33.392   5.916   2.838  1.00 20.00     0.163 C 
HETATM    2  C2  UNL     1     -32.538   6.310   1.878  1.00 20.00    -0.045 C 
HETATM    3  C4  UNL     1     -31.761   5.399   0.969  1.00 20.00     0.046 C 
HETATM    4  C5  UNL     1     -32.301   7.775   1.620  1.00 20.00     0.046 C 
HETATM    5  F8  UNL     1     -33.600   4.598   3.055  1.00 20.00    -0.202 F 
ENDROOT
BRANCH   1   6
HETATM    6  C3  UNL     1     -34.177   6.789   3.753  1.00 20.00     0.183 C 
HETATM    7  C6  UNL     1     -35.603   6.382   4.013  1.00 20.00     0.099 C 
HETATM    8  O7  UNL     1     -33.713   7.815   4.242  1.00 20.00    -0.290 OA
ENDBRANCH   1   6
TORSDOF 1
ENDMDL
MODEL 6
REMARK VINA RESULT:      -1.6      1.677      3.312
REMARK  1 active torsions:
REMARK  status: ('A' for Active; 'I' for Inactive)
REMARK    1  A    between atoms: C1_1  and  C3_3 
ROOT
HETATM    1  C1  UNL     1     -33.793   6.689   2.983  1.00 20.00     0.163 C 
HETATM    2  C2  UNL     1     -34.338   5.677   3.679  1.00 20.00    -0.045 C 
HETATM    3  C4  UNL     1     -35.482   5.795   4.647  1.00 20.00     0.046 C 
HETATM    4  C5  UNL     1     -33.820   4.271   3.516  1.00 20.00     0.046 C 
HETATM    5  F8  UNL     1     -34.272   7.945   3.134  1.00 20.00    -0.202 F 
ENDROOT
BRANCH   1   6
HETATM    6  C3  UNL     1     -32.663   6.608   2.018  1.00 20.00     0.183 C 
HETATM    7  C6  UNL     1     -31.868   7.870   1.805  1.00 20.00     0.099 C 
HETATM    8  O7  UNL     1     -32.409   5.587   1.388  1.00 20.00    -0.290 OA
ENDBRANCH   1   6
TORSDOF 1
ENDMDL
MODEL 7
REMARK VINA RESULT:      -1.5      1.868      2.919
REMARK  1 active torsions:
REMARK  status: ('A' for Active; 'I' for Inactive)
REMARK    1  A    between atoms: C1_1  and  C3_3 
ROOT
HETATM    1  C1  UNL     1     -32.954   6.983   2.409  1.00 20.00     0.163 C 
HETATM    2  C2  UNL     1     -33.759   7.001   3.485  1.00 20.00    -0.045 C 
HETATM    3  C4  UNL     1     -33.832   8.102   4.507  1.00 20.00     0.046 C 
HETATM    4  C5  UNL     1     -34.711   5.863   3.747  1.00 20.00     0.046 C 
HETATM    5  F8  UNL     1     -32.109   8.014   2.182  1.00 20.00    -0.202 F 
ENDROOT
BRANCH   1   6
HETATM    6  C3  UNL     1     -32.857   5.912   1.379  1.00 20.00     0.183 C 
HETATM    7  C6  UNL     1     -31.634   5.035   1.433  1.00 20.00     0.099 C 
HETATM    8  O7  UNL     1     -33.700   5.770   0.498  1.00 20.00    -0.290 OA
ENDBRANCH   1   6
TORSDOF 1
ENDMDL
MODEL 8
REMARK VINA RESULT:      -1.5      2.241      3.565
REMARK  1 active torsions:
REMARK  status: ('A' for Active; 'I' for Inactive)
REMARK    1  A    between atoms: C1_1  and  C3_3 
ROOT
HETATM    1  C1  UNL     1     -32.430   8.008   3.126  1.00 20.00     0.163 C 
HETATM    2  C2  UNL     1     -33.484   7.665   3.885  1.00 20.00    -0.045 C 
HETATM    3  C4  UNL     1     -33.718   8.095   5.307  1.00 20.00     0.046 C 
HETATM    4  C5  UNL     1     -34.576   6.789   3.327  1.00 20.00     0.046 C 
HETATM    5  F8  UNL     1     -31.461   8.801   3.637  1.00 20.00    -0.202 F 
ENDROOT
BRANCH   1   6
HETATM    6  C3  UNL     1     -32.169   7.602   1.718  1.00 20.00     0.183 C 
HETATM    7  C6  UNL     1     -32.109   8.708   0.698  1.00 20.00     0.099 C 
HETATM    8  O7  UNL     1     -32.052   6.426   1.384  1.00 20.00    -0.290 OA
ENDBRANCH   1   6
TORSDOF 1
ENDMDL
MODEL 9
REMARK VINA RESULT:      -1.4      2.159      3.547
REMARK  1 active torsions:
REMARK  status: ('A' for Active; 'I' for Inactive)
REMARK    1  A    between atoms: C1_1  and  C3_3 
ROOT
HETATM    1  C1  UNL     1     -32.996   7.527   2.750  1.00 20.00     0.163 C 
HETATM    2  C2  UNL     1     -33.550   6.305   2.681  1.00 20.00    -0.045 C 
HETATM    3  C4  UNL     1     -34.527   5.728   3.668  1.00 20.00     0.046 C 
HETATM    4  C5  UNL     1     -33.223   5.381   1.537  1.00 20.00     0.046 C 
HETATM    5  F8  UNL     1     -33.303   8.349   3.780  1.00 20.00    -0.202 F 
ENDROOT
BRANCH   1   6
HETATM    6  C3  UNL     1     -32.027   8.128   1.794  1.00 20.00     0.183 C 
HETATM    7  C6  UNL     1     -32.551   9.227   0.907  1.00 20.00     0.099 C 
HETATM    8  O7  UNL     1     -30.872   7.728   1.689  1.00 20.00    -0.290 OA
ENDBRANCH   1   6
TORSDOF 1
ENDMDL
