MODEL 1
REMARK VINA RESULT:      -1.2      0.000      0.000
REMARK  1 active torsions:
REMARK  status: ('A' for Active; 'I' for Inactive)
REMARK    1  A    between atoms: C1_1  and  N7_7 
ROOT
HETATM    1  C2  UNL     1     -35.011   6.479   3.956  1.00 20.00     0.159 C 
HETATM    2  C3  UNL     1     -34.170   7.734   3.825  1.00 20.00     0.138 C 
HETATM    3  C4  UNL     1     -33.006   6.003   2.791  1.00 20.00     0.221 C 
HETATM    4  C5  UNL     1     -33.434   8.095   5.109  1.00 20.00     0.041 C 
HETATM    5  C6  UNL     1     -32.985   5.526   1.349  1.00 20.00     0.063 C 
HETATM    6  N7  UNL     1     -34.094   5.444   3.561  1.00 20.00    -0.330 N 
HETATM    7  O9  UNL     1     -33.206   7.429   2.797  1.00 20.00    -0.360 OA
ENDROOT
BRANCH   6   8
HETATM    8  C1  UNL     1     -34.201   4.128   3.942  1.00 20.00     0.352 C 
HETATM    9  O8  UNL     1     -33.348   3.447   4.500  1.00 20.00    -0.283 OA
ENDBRANCH   6   8
TORSDOF 1
ENDMDL
MODEL 2
REMARK VINA RESULT:      -1.0      1.943      3.467
REMARK  1 active torsions:
REMARK  status: ('A' for Active; 'I' for Inactive)
REMARK    1  A    between atoms: C1_1  and  N7_7 
ROOT
HETATM    1  C2  UNL     1     -32.977   7.531   3.574  1.00 20.00     0.159 C 
HETATM    2  C3  UNL     1     -34.041   6.458   3.699  1.00 20.00     0.138 C 
HETATM    3  C4  UNL     1     -32.966   6.140   1.658  1.00 20.00     0.221 C 
HETATM    4  C5  UNL     1     -35.445   6.975   3.414  1.00 20.00     0.041 C 
HETATM    5  C6  UNL     1     -31.774   5.279   1.274  1.00 20.00     0.063 C 
HETATM    6  N7  UNL     1     -32.588   7.429   2.193  1.00 20.00    -0.330 N 
HETATM    7  O9  UNL     1     -33.691   5.471   2.707  1.00 20.00    -0.360 OA
ENDROOT
BRANCH   6   8
HETATM    8  C1  UNL     1     -32.020   8.450   1.471  1.00 20.00     0.352 C 
HETATM    9  O8  UNL     1     -32.601   9.294   0.798  1.00 20.00    -0.283 OA
ENDBRANCH   6   8
TORSDOF 1
ENDMDL
MODEL 3
REMARK VINA RESULT:      -0.3      1.244      2.837
REMARK  1 active torsions:
REMARK  status: ('A' for Active; 'I' for Inactive)
REMARK    1  A    between atoms: C1_1  and  N7_7 
ROOT
HETATM    1  C2  UNL     1     -33.324   5.286   2.895  1.00 20.00     0.159 C 
HETATM    2  C3  UNL     1     -32.611   6.171   1.891  1.00 20.00     0.138 C 
HETATM    3  C4  UNL     1     -33.757   7.567   3.360  1.00 20.00     0.221 C 
HETATM    4  C5  UNL     1     -33.315   6.229   0.542  1.00 20.00     0.041 C 
HETATM    5  C6  UNL     1     -33.323   8.240   4.652  1.00 20.00     0.063 C 
HETATM    6  N7  UNL     1     -34.212   6.208   3.551  1.00 20.00    -0.330 N 
HETATM    7  O9  UNL     1     -32.616   7.485   2.485  1.00 20.00    -0.360 OA
ENDROOT
BRANCH   6   8
HETATM    8  C1  UNL     1     -35.373   5.844   4.189  1.00 20.00     0.352 C 
HETATM    9  O8  UNL     1     -35.611   4.775   4.740  1.00 20.00    -0.283 OA
ENDBRANCH   6   8
TORSDOF 1
ENDMDL
MODEL 4
REMARK VINA RESULT:       0.0      1.775      3.226
REMARK  1 active torsions:
REMARK  status: ('A' for Active; 'I' for Inactive)
REMARK    1  A    between atoms: C1_1  and  N7_7 
ROOT
HETATM    1  C2  UNL     1     -33.123   5.291   2.801  1.00 20.00     0.159 C 
HETATM    2  C3  UNL     1     -32.437   5.464   1.460  1.00 20.00     0.138 C 
HETATM    3  C4  UNL     1     -32.855   7.591   2.309  1.00 20.00     0.221 C 
HETATM    4  C5  UNL     1     -33.372   5.237   0.279  1.00 20.00     0.041 C 
HETATM    5  C6  UNL     1     -32.002   8.520   3.157  1.00 20.00     0.063 C 
HETATM    6  N7  UNL     1     -33.589   6.621   3.089  1.00 20.00    -0.330 N 
HETATM    7  O9  UNL     1     -31.984   6.833   1.449  1.00 20.00    -0.360 OA
ENDROOT
BRANCH   6   8
HETATM    8  C1  UNL     1     -34.642   6.908   3.923  1.00 20.00     0.352 C 
HETATM    9  O8  UNL     1     -35.599   6.188   4.182  1.00 20.00    -0.283 OA
ENDBRANCH   6   8
TORSDOF 1
ENDMDL
MODEL 5
REMARK VINA RESULT:       0.1      1.439      2.947
REMARK  1 active torsions:
REMARK  status: ('A' for Active; 'I' for Inactive)
REMARK    1  A    between atoms: C1_1  and  N7_7 
ROOT
HETATM    1  C2  UNL     1     -33.909   6.788   3.568  1.00 20.00     0.159 C 
HETATM    2  C3  UNL     1     -35.267   6.433   4.142  1.00 20.00     0.138 C 
HETATM    3  C4  UNL     1     -34.219   4.441   3.546  1.00 20.00     0.221 C 
HETATM    4  C5  UNL     1     -36.409   6.675   3.163  1.00 20.00     0.041 C 
HETATM    5  C6  UNL     1     -33.344   3.488   4.343  1.00 20.00     0.063 C 
HETATM    6  N7  UNL     1     -33.484   5.548   2.977  1.00 20.00    -0.330 N 
HETATM    7  O9  UNL     1     -35.187   5.024   4.438  1.00 20.00    -0.360 OA
ENDROOT
BRANCH   6   8
HETATM    8  C1  UNL     1     -32.571   5.450   1.954  1.00 20.00     0.352 C 
HETATM    9  O8  UNL     1     -31.931   6.362   1.444  1.00 20.00    -0.283 OA
ENDBRANCH   6   8
TORSDOF 1
ENDMDL
MODEL 6
REMARK VINA RESULT:       0.2      2.340      3.200
REMARK  1 active torsions:
REMARK  status: ('A' for Active; 'I' for Inactive)
REMARK    1  A    between atoms: C1_1  and  N7_7 
ROOT
HETATM    1  C2  UNL     1     -31.626   6.861   1.644  1.00 20.00     0.159 C 
HETATM    2  C3  UNL     1     -31.947   8.286   2.052  1.00 20.00     0.138 C 
HETATM    3  C4  UNL     1     -33.815   6.984   2.537  1.00 20.00     0.221 C 
HETATM    4  C5  UNL     1     -32.292   9.181   0.869  1.00 20.00     0.041 C 
HETATM    5  C6  UNL     1     -34.230   6.253   3.803  1.00 20.00     0.063 C 
HETATM    6  N7  UNL     1     -32.912   6.220   1.707  1.00 20.00    -0.330 N 
HETATM    7  O9  UNL     1     -33.098   8.175   2.913  1.00 20.00    -0.360 OA
ENDROOT
BRANCH   6   8
HETATM    8  C1  UNL     1     -33.248   5.088   1.004  1.00 20.00     0.352 C 
HETATM    9  O8  UNL     1     -32.547   4.476   0.206  1.00 20.00    -0.283 OA
ENDBRANCH   6   8
TORSDOF 1
ENDMDL
MODEL 7
REMARK VINA RESULT:       0.3      1.500      3.561
REMARK  1 active torsions:
REMARK  status: ('A' for Active; 'I' for Inactive)
REMARK    1  A    between atoms: C1_1  and  N7_7 
ROOT
HETATM    1  C2  UNL     1     -33.252   4.697   2.788  1.00 20.00     0.159 C 
HETATM    2  C3  UNL     1     -33.899   3.825   3.846  1.00 20.00     0.138 C 
HETATM    3  C4  UNL     1     -34.715   5.987   4.130  1.00 20.00     0.221 C 
HETATM    4  C5  UNL     1     -32.970   3.516   5.013  1.00 20.00     0.041 C 
HETATM    5  C6  UNL     1     -35.950   6.676   3.573  1.00 20.00     0.063 C 
HETATM    6  N7  UNL     1     -33.586   6.025   3.229  1.00 20.00    -0.330 N 
HETATM    7  O9  UNL     1     -35.021   4.593   4.325  1.00 20.00    -0.360 OA
ENDROOT
BRANCH   6   8
HETATM    8  C1  UNL     1     -32.871   7.152   2.902  1.00 20.00     0.352 C 
HETATM    9  O8  UNL     1     -32.329   7.400   1.831  1.00 20.00    -0.283 OA
ENDBRANCH   6   8
TORSDOF 1
ENDMDL
MODEL 8
REMARK VINA RESULT:       0.3      1.805      3.519
REMARK  1 active torsions:
REMARK  status: ('A' for Active; 'I' for Inactive)
REMARK    1  A    between atoms: C1_1  and  N7_7 
ROOT
HETATM    1  C2  UNL     1     -32.710   7.557   1.912  1.00 20.00     0.159 C 
HETATM    2  C3  UNL     1     -32.825   6.140   1.385  1.00 20.00     0.138 C 
HETATM    3  C4  UNL     1     -33.875   6.198   3.462  1.00 20.00     0.221 C 
HETATM    4  C5  UNL     1     -31.534   5.343   1.533  1.00 20.00     0.041 C 
HETATM    5  C6  UNL     1     -35.323   6.447   3.849  1.00 20.00     0.063 C 
HETATM    6  N7  UNL     1     -33.115   7.415   3.285  1.00 20.00    -0.330 N 
HETATM    7  O9  UNL     1     -33.853   5.527   2.188  1.00 20.00    -0.360 OA
ENDROOT
BRANCH   6   8
HETATM    8  C1  UNL     1     -32.750   8.274   4.293  1.00 20.00     0.352 C 
HETATM    9  O8  UNL     1     -33.118   8.244   5.461  1.00 20.00    -0.283 OA
ENDBRANCH   6   8
TORSDOF 1
ENDMDL
MODEL 9
REMARK VINA RESULT:       0.7      1.674      3.625
REMARK  1 active torsions:
REMARK  status: ('A' for Active; 'I' for Inactive)
REMARK    1  A    between atoms: C1_1  and  N7_7 
ROOT
HETATM    1  C2  UNL     1     -33.528   5.561   2.028  1.00 20.00     0.159 C 
HETATM    2  C3  UNL     1     -34.200   4.915   3.224  1.00 20.00     0.138 C 
HETATM    3  C4  UNL     1     -33.714   7.116   3.803  1.00 20.00     0.221 C 
HETATM    4  C5  UNL     1     -33.267   4.004   4.011  1.00 20.00     0.041 C 
HETATM    5  C6  UNL     1     -34.539   8.388   3.700  1.00 20.00     0.063 C 
HETATM    6  N7  UNL     1     -33.018   6.788   2.580  1.00 20.00    -0.330 N 
HETATM    7  O9  UNL     1     -34.605   6.015   4.062  1.00 20.00    -0.360 OA
ENDROOT
BRANCH   6   8
HETATM    8  C1  UNL     1     -31.960   7.491   2.057  1.00 20.00     0.352 C 
HETATM    9  O8  UNL     1     -32.009   8.400   1.236  1.00 20.00    -0.283 OA
ENDBRANCH   6   8
TORSDOF 1
ENDMDL
