MODEL 1
REMARK VINA RESULT:      -1.8      0.000      0.000
REMARK  2 active torsions:
REMARK  status: ('A' for Active; 'I' for Inactive)
REMARK    1  A    between atoms: C1_1  and  C4_4 
REMARK    2  A    between atoms: C1_1  and  C6_6 
ROOT
HETATM    1  C1  UNL     1     -33.156   6.456   2.289  1.00 20.00     0.145 C 
HETATM    2  O7  UNL     1     -32.810   5.592   1.492  1.00 20.00    -0.296 OA
ENDROOT
BRANCH   1   3
HETATM    3  C4  UNL     1     -32.411   7.749   2.348  1.00 20.00     0.057 A 
HETATM    4  C2  UNL     1     -31.194   7.909   1.501  1.00 20.00     0.013 A 
HETATM    5  C3  UNL     1     -32.452   8.648   1.159  1.00 20.00     0.013 A 
ENDBRANCH   1   3
BRANCH   1   6
HETATM    6  C6  UNL     1     -34.328   6.315   3.231  1.00 20.00     0.123 C 
HETATM    7  C5  UNL     1     -34.325   7.367   4.324  1.00 20.00     0.030 C 
HETATM    8 BR8  UNL     1     -34.149   4.546   4.025  1.00 20.00    -0.084 Br
ENDBRANCH   1   6
TORSDOF 2
ENDMDL
MODEL 2
REMARK VINA RESULT:      -1.7      2.026      3.602
REMARK  2 active torsions:
REMARK  status: ('A' for Active; 'I' for Inactive)
REMARK    1  A    between atoms: C1_1  and  C4_4 
REMARK    2  A    between atoms: C1_1  and  C6_6 
ROOT
HETATM    1  C1  UNL     1     -33.236   7.300   3.310  1.00 20.00     0.145 C 
HETATM    2  O7  UNL     1     -33.264   8.027   4.296  1.00 20.00    -0.296 OA
ENDROOT
BRANCH   1   3
HETATM    3  C4  UNL     1     -34.302   6.273   3.116  1.00 20.00     0.057 A 
HETATM    4  C2  UNL     1     -34.458   5.204   4.144  1.00 20.00     0.013 A 
HETATM    5  C3  UNL     1     -35.482   6.293   4.029  1.00 20.00     0.013 A 
ENDBRANCH   1   3
BRANCH   1   6
HETATM    6  C6  UNL     1     -32.179   7.380   2.233  1.00 20.00     0.123 C 
HETATM    7  C5  UNL     1     -32.341   8.601   1.350  1.00 20.00     0.030 C 
HETATM    8 BR8  UNL     1     -32.398   5.766   1.166  1.00 20.00    -0.084 Br
ENDBRANCH   1   6
TORSDOF 2
ENDMDL
MODEL 3
REMARK VINA RESULT:      -1.5      2.309      3.609
REMARK  2 active torsions:
REMARK  status: ('A' for Active; 'I' for Inactive)
REMARK    1  A    between atoms: C1_1  and  C4_4 
REMARK    2  A    between atoms: C1_1  and  C6_6 
ROOT
HETATM    1  C1  UNL     1     -33.484   5.760   2.644  1.00 20.00     0.145 C 
HETATM    2  O7  UNL     1     -33.323   4.728   3.285  1.00 20.00    -0.296 OA
ENDROOT
BRANCH   1   3
HETATM    3  C4  UNL     1     -34.455   6.787   3.125  1.00 20.00     0.057 A 
HETATM    4  C2  UNL     1     -35.387   6.423   4.232  1.00 20.00     0.013 A 
HETATM    5  C3  UNL     1     -34.255   7.373   4.482  1.00 20.00     0.013 A 
ENDBRANCH   1   3
BRANCH   1   6
HETATM    6  C6  UNL     1     -32.735   6.090   1.374  1.00 20.00     0.123 C 
HETATM    7  C5  UNL     1     -31.663   5.068   1.049  1.00 20.00     0.030 C 
HETATM    8 BR8  UNL     1     -31.912   7.826   1.688  1.00 20.00    -0.084 Br
ENDBRANCH   1   6
TORSDOF 2
ENDMDL
MODEL 4
REMARK VINA RESULT:      -1.4      1.701      2.251
REMARK  2 active torsions:
REMARK  status: ('A' for Active; 'I' for Inactive)
REMARK    1  A    between atoms: C1_1  and  C4_4 
REMARK    2  A    between atoms: C1_1  and  C6_6 
ROOT
HETATM    1  C1  UNL     1     -32.995   7.320   2.596  1.00 20.00     0.145 C 
HETATM    2  O7  UNL     1     -32.198   8.097   2.083  1.00 20.00    -0.296 OA
ENDROOT
BRANCH   1   3
HETATM    3  C4  UNL     1     -33.022   5.892   2.162  1.00 20.00     0.057 A 
HETATM    4  C2  UNL     1     -33.171   5.592   0.708  1.00 20.00     0.013 A 
HETATM    5  C3  UNL     1     -31.858   5.361   1.393  1.00 20.00     0.013 A 
ENDBRANCH   1   3
BRANCH   1   6
HETATM    6  C6  UNL     1     -33.970   7.707   3.683  1.00 20.00     0.123 C 
HETATM    7  C5  UNL     1     -33.278   8.094   4.974  1.00 20.00     0.030 C 
HETATM    8 BR8  UNL     1     -35.075   6.130   3.980  1.00 20.00    -0.084 Br
ENDBRANCH   1   6
TORSDOF 2
ENDMDL
MODEL 5
REMARK VINA RESULT:      -1.3      2.472      3.971
REMARK  2 active torsions:
REMARK  status: ('A' for Active; 'I' for Inactive)
REMARK    1  A    between atoms: C1_1  and  C4_4 
REMARK    2  A    between atoms: C1_1  and  C6_6 
ROOT
HETATM    1  C1  UNL     1     -33.663   6.629   3.047  1.00 20.00     0.145 C 
HETATM    2  O7  UNL     1     -33.520   7.478   3.919  1.00 20.00    -0.296 OA
ENDROOT
BRANCH   1   3
HETATM    3  C4  UNL     1     -34.590   5.481   3.277  1.00 20.00     0.057 A 
HETATM    4  C2  UNL     1     -34.224   4.466   4.307  1.00 20.00     0.013 A 
HETATM    5  C3  UNL     1     -35.347   5.426   4.562  1.00 20.00     0.013 A 
ENDBRANCH   1   3
BRANCH   1   6
HETATM    6  C6  UNL     1     -32.966   6.668   1.707  1.00 20.00     0.123 C 
HETATM    7  C5  UNL     1     -32.122   5.434   1.455  1.00 20.00     0.030 C 
HETATM    8 BR8  UNL     1     -31.823   8.244   1.759  1.00 20.00    -0.084 Br
ENDBRANCH   1   6
TORSDOF 2
ENDMDL
MODEL 6
REMARK VINA RESULT:      -1.2      2.995      4.343
REMARK  2 active torsions:
REMARK  status: ('A' for Active; 'I' for Inactive)
REMARK    1  A    between atoms: C1_1  and  C4_4 
REMARK    2  A    between atoms: C1_1  and  C6_6 
ROOT
HETATM    1  C1  UNL     1     -34.340   4.778   3.986  1.00 20.00     0.145 C 
HETATM    2  O7  UNL     1     -35.326   4.582   4.687  1.00 20.00    -0.296 OA
ENDROOT
BRANCH   1   3
HETATM    3  C4  UNL     1     -33.190   3.827   4.045  1.00 20.00     0.057 A 
HETATM    4  C2  UNL     1     -32.770   3.297   5.374  1.00 20.00     0.013 A 
HETATM    5  C3  UNL     1     -33.463   2.402   4.392  1.00 20.00     0.013 A 
ENDBRANCH   1   3
BRANCH   1   6
HETATM    6  C6  UNL     1     -34.204   5.934   3.025  1.00 20.00     0.123 C 
HETATM    7  C5  UNL     1     -32.986   5.806   2.131  1.00 20.00     0.030 C 
HETATM    8 BR8  UNL     1     -34.034   7.523   4.138  1.00 20.00    -0.084 Br
ENDBRANCH   1   6
TORSDOF 2
ENDMDL
MODEL 7
REMARK VINA RESULT:      -1.2      2.035      2.507
REMARK  2 active torsions:
REMARK  status: ('A' for Active; 'I' for Inactive)
REMARK    1  A    between atoms: C1_1  and  C4_4 
REMARK    2  A    between atoms: C1_1  and  C6_6 
ROOT
HETATM    1  C1  UNL     1     -32.028   8.240   1.941  1.00 20.00     0.145 C 
HETATM    2  O7  UNL     1     -31.370   8.444   2.954  1.00 20.00    -0.296 OA
ENDROOT
BRANCH   1   3
HETATM    3  C4  UNL     1     -31.739   9.021   0.701  1.00 20.00     0.057 A 
HETATM    4  C2  UNL     1     -32.788   9.092  -0.357  1.00 20.00     0.013 A 
HETATM    5  C3  UNL     1     -32.478  10.298   0.478  1.00 20.00     0.013 A 
ENDBRANCH   1   3
BRANCH   1   6
HETATM    6  C6  UNL     1     -33.130   7.212   1.843  1.00 20.00     0.123 C 
HETATM    7  C5  UNL     1     -33.840   6.994   3.165  1.00 20.00     0.030 C 
HETATM    8 BR8  UNL     1     -32.258   5.562   1.287  1.00 20.00    -0.084 Br
ENDBRANCH   1   6
TORSDOF 2
ENDMDL
MODEL 8
REMARK VINA RESULT:      -1.1      2.312      3.502
REMARK  2 active torsions:
REMARK  status: ('A' for Active; 'I' for Inactive)
REMARK    1  A    between atoms: C1_1  and  C4_4 
REMARK    2  A    between atoms: C1_1  and  C6_6 
ROOT
HETATM    1  C1  UNL     1     -32.905   6.988   2.087  1.00 20.00     0.145 C 
HETATM    2  O7  UNL     1     -32.913   5.822   1.709  1.00 20.00    -0.296 OA
ENDROOT
BRANCH   1   3
HETATM    3  C4  UNL     1     -34.042   7.511   2.900  1.00 20.00     0.057 A 
HETATM    4  C2  UNL     1     -34.848   6.546   3.703  1.00 20.00     0.013 A 
HETATM    5  C3  UNL     1     -33.917   7.502   4.387  1.00 20.00     0.013 A 
ENDBRANCH   1   3
BRANCH   1   6
HETATM    6  C6  UNL     1     -31.785   7.960   1.798  1.00 20.00     0.123 C 
HETATM    7  C5  UNL     1     -31.293   8.667   3.046  1.00 20.00     0.030 C 
HETATM    8 BR8  UNL     1     -32.532   9.265   0.559  1.00 20.00    -0.084 Br
ENDBRANCH   1   6
TORSDOF 2
ENDMDL
MODEL 9
REMARK VINA RESULT:      -1.1      1.999      2.600
REMARK  2 active torsions:
REMARK  status: ('A' for Active; 'I' for Inactive)
REMARK    1  A    between atoms: C1_1  and  C4_4 
REMARK    2  A    between atoms: C1_1  and  C6_6 
ROOT
HETATM    1  C1  UNL     1     -32.098   8.044   2.069  1.00 20.00     0.145 C 
HETATM    2  O7  UNL     1     -31.190   8.612   2.664  1.00 20.00    -0.296 OA
ENDROOT
BRANCH   1   3
HETATM    3  C4  UNL     1     -32.722   8.692   0.877  1.00 20.00     0.057 A 
HETATM    4  C2  UNL     1     -32.676  10.179   0.769  1.00 20.00     0.013 A 
HETATM    5  C3  UNL     1     -31.829   9.332  -0.132  1.00 20.00     0.013 A 
ENDBRANCH   1   3
BRANCH   1   6
HETATM    6  C6  UNL     1     -32.637   6.686   2.451  1.00 20.00     0.123 C 
HETATM    7  C5  UNL     1     -32.984   5.837   1.244  1.00 20.00     0.030 C 
HETATM    8 BR8  UNL     1     -34.247   7.037   3.490  1.00 20.00    -0.084 Br
ENDBRANCH   1   6
TORSDOF 2
ENDMDL
