MODEL 1
REMARK VINA RESULT:      -1.2      0.000      0.000
REMARK  2 active torsions:
REMARK  status: ('A' for Active; 'I' for Inactive)
REMARK    1  A    between atoms: C2_2  and  C5_5 
REMARK    2  A    between atoms: C2_2  and  C9_9 
ROOT
HETATM    1  C1  UNL     1     -33.005   5.822   1.609  1.00 20.00     0.225 C 
HETATM    2  C2  UNL     1     -33.256   6.720   2.523  1.00 20.00    -0.014 C 
HETATM    3  O10 UNL     1     -32.780   5.011   0.788  1.00 20.00    -0.284 OA
ENDROOT
BRANCH   2   4
HETATM    4  C5  UNL     1     -32.461   7.966   2.418  1.00 20.00     0.019 A 
HETATM    5  C3  UNL     1     -31.239   7.949   1.563  1.00 20.00     0.010 A 
HETATM    6  C4  UNL     1     -32.461   8.691   1.115  1.00 20.00     0.010 A 
ENDBRANCH   2   4
BRANCH   2   7
HETATM    7  C9  UNL     1     -34.320   6.583   3.617  1.00 20.00    -0.024 C 
HETATM    8  C6  UNL     1     -34.016   7.576   4.753  1.00 20.00     0.019 C 
HETATM    9  C7  UNL     1     -34.345   5.151   4.188  1.00 20.00     0.019 C 
HETATM   10  C8  UNL     1     -35.735   6.886   3.075  1.00 20.00     0.019 C 
ENDBRANCH   2   7
TORSDOF 2
ENDMDL
MODEL 2
REMARK VINA RESULT:      -0.9      1.592      3.651
REMARK  2 active torsions:
REMARK  status: ('A' for Active; 'I' for Inactive)
REMARK    1  A    between atoms: C2_2  and  C5_5 
REMARK    2  A    between atoms: C2_2  and  C9_9 
ROOT
HETATM    1  C1  UNL     1     -33.609   4.597   3.502  1.00 20.00     0.225 C 
HETATM    2  C2  UNL     1     -33.572   5.664   2.751  1.00 20.00    -0.014 C 
HETATM    3  O10 UNL     1     -33.641   3.634   4.177  1.00 20.00    -0.284 OA
ENDROOT
BRANCH   2   4
HETATM    4  C5  UNL     1     -34.466   6.766   3.177  1.00 20.00     0.019 A 
HETATM    5  C3  UNL     1     -35.398   6.515   4.315  1.00 20.00     0.010 A 
HETATM    6  C4  UNL     1     -34.208   7.409   4.498  1.00 20.00     0.010 A 
ENDBRANCH   2   4
BRANCH   2   7
HETATM    7  C9  UNL     1     -32.654   5.849   1.538  1.00 20.00    -0.024 C 
HETATM    8  C6  UNL     1     -33.467   5.648   0.247  1.00 20.00     0.019 C 
HETATM    9  C7  UNL     1     -31.489   4.839   1.567  1.00 20.00     0.019 C 
HETATM   10  C8  UNL     1     -32.035   7.265   1.505  1.00 20.00     0.019 C 
ENDBRANCH   2   7
TORSDOF 2
ENDMDL
MODEL 3
REMARK VINA RESULT:      -0.6      1.392      2.238
REMARK  2 active torsions:
REMARK  status: ('A' for Active; 'I' for Inactive)
REMARK    1  A    between atoms: C2_2  and  C5_5 
REMARK    2  A    between atoms: C2_2  and  C9_9 
ROOT
HETATM    1  C1  UNL     1     -32.694   7.619   2.105  1.00 20.00     0.225 C 
HETATM    2  C2  UNL     1     -33.347   6.573   2.532  1.00 20.00    -0.014 C 
HETATM    3  O10 UNL     1     -32.107   8.564   1.721  1.00 20.00    -0.284 OA
ENDROOT
BRANCH   2   4
HETATM    4  C5  UNL     1     -32.984   5.294   1.878  1.00 20.00     0.019 A 
HETATM    5  C3  UNL     1     -33.136   5.192   0.398  1.00 20.00     0.010 A 
HETATM    6  C4  UNL     1     -31.771   5.267   1.011  1.00 20.00     0.010 A 
ENDBRANCH   2   4
BRANCH   2   7
HETATM    7  C9  UNL     1     -34.384   6.588   3.659  1.00 20.00    -0.024 C 
HETATM    8  C6  UNL     1     -33.967   7.620   4.722  1.00 20.00     0.019 C 
HETATM    9  C7  UNL     1     -34.504   5.200   4.320  1.00 20.00     0.019 C 
HETATM   10  C8  UNL     1     -35.787   6.971   3.137  1.00 20.00     0.019 C 
ENDBRANCH   2   7
TORSDOF 2
ENDMDL
MODEL 4
REMARK VINA RESULT:      -0.6      1.880      4.080
REMARK  2 active torsions:
REMARK  status: ('A' for Active; 'I' for Inactive)
REMARK    1  A    between atoms: C2_2  and  C5_5 
REMARK    2  A    between atoms: C2_2  and  C9_9 
ROOT
HETATM    1  C1  UNL     1     -33.851   7.101   3.800  1.00 20.00     0.225 C 
HETATM    2  C2  UNL     1     -33.619   6.130   2.958  1.00 20.00    -0.014 C 
HETATM    3  O10 UNL     1     -34.058   7.977   4.557  1.00 20.00    -0.284 OA
ENDROOT
BRANCH   2   4
HETATM    4  C5  UNL     1     -34.288   4.847   3.276  1.00 20.00     0.019 A 
HETATM    5  C3  UNL     1     -33.712   4.005   4.365  1.00 20.00     0.010 A 
HETATM    6  C4  UNL     1     -35.005   4.733   4.579  1.00 20.00     0.010 A 
ENDBRANCH   2   4
BRANCH   2   7
HETATM    7  C9  UNL     1     -32.773   6.257   1.687  1.00 20.00    -0.024 C 
HETATM    8  C6  UNL     1     -32.082   7.632   1.669  1.00 20.00     0.019 C 
HETATM    9  C7  UNL     1     -33.647   6.113   0.424  1.00 20.00     0.019 C 
HETATM   10  C8  UNL     1     -31.682   5.165   1.618  1.00 20.00     0.019 C 
ENDBRANCH   2   7
TORSDOF 2
ENDMDL
MODEL 5
REMARK VINA RESULT:      -0.5      1.882      4.081
REMARK  2 active torsions:
REMARK  status: ('A' for Active; 'I' for Inactive)
REMARK    1  A    between atoms: C2_2  and  C5_5 
REMARK    2  A    between atoms: C2_2  and  C9_9 
ROOT
HETATM    1  C1  UNL     1     -33.846   7.107   3.815  1.00 20.00     0.225 C 
HETATM    2  C2  UNL     1     -33.608   6.148   2.961  1.00 20.00    -0.014 C 
HETATM    3  O10 UNL     1     -34.059   7.971   4.584  1.00 20.00    -0.284 OA
ENDROOT
BRANCH   2   4
HETATM    4  C5  UNL     1     -34.268   4.857   3.263  1.00 20.00     0.019 A 
HETATM    5  C3  UNL     1     -33.698   4.015   4.356  1.00 20.00     0.010 A 
HETATM    6  C4  UNL     1     -35.001   4.728   4.556  1.00 20.00     0.010 A 
ENDBRANCH   2   4
BRANCH   2   7
HETATM    7  C9  UNL     1     -32.765   6.298   1.691  1.00 20.00    -0.024 C 
HETATM    8  C6  UNL     1     -31.705   5.183   1.648  1.00 20.00     0.019 C 
HETATM    9  C7  UNL     1     -32.062   7.669   1.651  1.00 20.00     0.019 C 
HETATM   10  C8  UNL     1     -33.633   6.189   0.416  1.00 20.00     0.019 C 
ENDBRANCH   2   7
TORSDOF 2
ENDMDL
MODEL 6
REMARK VINA RESULT:       0.2      0.895      3.508
REMARK  2 active torsions:
REMARK  status: ('A' for Active; 'I' for Inactive)
REMARK    1  A    between atoms: C2_2  and  C5_5 
REMARK    2  A    between atoms: C2_2  and  C9_9 
ROOT
HETATM    1  C1  UNL     1     -32.829   6.010   1.731  1.00 20.00     0.225 C 
HETATM    2  C2  UNL     1     -33.008   7.260   2.064  1.00 20.00    -0.014 C 
HETATM    3  O10 UNL     1     -32.666   4.885   1.430  1.00 20.00    -0.284 OA
ENDROOT
BRANCH   2   4
HETATM    4  C5  UNL     1     -34.179   7.520   2.933  1.00 20.00     0.019 A 
HETATM    5  C3  UNL     1     -34.674   6.408   3.796  1.00 20.00     0.010 A 
HETATM    6  C4  UNL     1     -33.961   7.576   4.407  1.00 20.00     0.010 A 
ENDBRANCH   2   4
BRANCH   2   7
HETATM    7  C9  UNL     1     -32.081   8.414   1.666  1.00 20.00    -0.024 C 
HETATM    8  C6  UNL     1     -31.129   8.730   2.833  1.00 20.00     0.019 C 
HETATM    9  C7  UNL     1     -32.891   9.678   1.315  1.00 20.00     0.019 C 
HETATM   10  C8  UNL     1     -31.228   8.056   0.428  1.00 20.00     0.019 C 
ENDBRANCH   2   7
TORSDOF 2
ENDMDL
MODEL 7
REMARK VINA RESULT:       0.2      0.891      3.468
REMARK  2 active torsions:
REMARK  status: ('A' for Active; 'I' for Inactive)
REMARK    1  A    between atoms: C2_2  and  C5_5 
REMARK    2  A    between atoms: C2_2  and  C9_9 
ROOT
HETATM    1  C1  UNL     1     -32.834   5.992   1.730  1.00 20.00     0.225 C 
HETATM    2  C2  UNL     1     -33.016   7.238   2.075  1.00 20.00    -0.014 C 
HETATM    3  O10 UNL     1     -32.669   4.870   1.417  1.00 20.00    -0.284 OA
ENDROOT
BRANCH   2   4
HETATM    4  C5  UNL     1     -34.197   7.488   2.934  1.00 20.00     0.019 A 
HETATM    5  C3  UNL     1     -34.682   6.377   3.803  1.00 20.00     0.010 A 
HETATM    6  C4  UNL     1     -33.991   7.560   4.409  1.00 20.00     0.010 A 
ENDBRANCH   2   4
BRANCH   2   7
HETATM    7  C9  UNL     1     -32.085   8.395   1.701  1.00 20.00    -0.024 C 
HETATM    8  C6  UNL     1     -31.220   7.985   0.496  1.00 20.00     0.019 C 
HETATM    9  C7  UNL     1     -31.165   8.769   2.881  1.00 20.00     0.019 C 
HETATM   10  C8  UNL     1     -32.879   9.664   1.317  1.00 20.00     0.019 C 
ENDBRANCH   2   7
TORSDOF 2
ENDMDL
MODEL 8
REMARK VINA RESULT:       0.3      0.889      3.521
REMARK  2 active torsions:
REMARK  status: ('A' for Active; 'I' for Inactive)
REMARK    1  A    between atoms: C2_2  and  C5_5 
REMARK    2  A    between atoms: C2_2  and  C9_9 
ROOT
HETATM    1  C1  UNL     1     -32.842   5.993   1.726  1.00 20.00     0.225 C 
HETATM    2  C2  UNL     1     -33.014   7.241   2.070  1.00 20.00    -0.014 C 
HETATM    3  O10 UNL     1     -32.684   4.870   1.413  1.00 20.00    -0.284 OA
ENDROOT
BRANCH   2   4
HETATM    4  C5  UNL     1     -34.189   7.499   2.933  1.00 20.00     0.019 A 
HETATM    5  C3  UNL     1     -34.678   6.392   3.805  1.00 20.00     0.010 A 
HETATM    6  C4  UNL     1     -33.976   7.570   4.408  1.00 20.00     0.010 A 
ENDBRANCH   2   4
BRANCH   2   7
HETATM    7  C9  UNL     1     -32.077   8.391   1.689  1.00 20.00    -0.024 C 
HETATM    8  C6  UNL     1     -32.911   9.641   1.359  1.00 20.00     0.019 C 
HETATM    9  C7  UNL     1     -31.213   8.020   0.467  1.00 20.00     0.019 C 
HETATM   10  C8  UNL     1     -31.112   8.745   2.844  1.00 20.00     0.019 C 
ENDBRANCH   2   7
TORSDOF 2
ENDMDL
MODEL 9
REMARK VINA RESULT:       0.4      1.600      2.483
REMARK  2 active torsions:
REMARK  status: ('A' for Active; 'I' for Inactive)
REMARK    1  A    between atoms: C2_2  and  C5_5 
REMARK    2  A    between atoms: C2_2  and  C9_9 
ROOT
HETATM    1  C1  UNL     1     -33.526   4.286   3.614  1.00 20.00     0.225 C 
HETATM    2  C2  UNL     1     -33.878   5.451   3.142  1.00 20.00    -0.014 C 
HETATM    3  O10 UNL     1     -33.210   3.237   4.041  1.00 20.00    -0.284 OA
ENDROOT
BRANCH   2   4
HETATM    4  C5  UNL     1     -33.342   5.776   1.800  1.00 20.00     0.019 A 
HETATM    5  C3  UNL     1     -32.270   6.809   1.703  1.00 20.00     0.010 A 
HETATM    6  C4  UNL     1     -31.944   5.363   1.484  1.00 20.00     0.010 A 
ENDBRANCH   2   4
BRANCH   2   7
HETATM    7  C9  UNL     1     -34.819   6.433   3.848  1.00 20.00    -0.024 C 
HETATM    8  C6  UNL     1     -35.538   5.712   5.002  1.00 20.00     0.019 C 
HETATM    9  C7  UNL     1     -35.869   6.995   2.868  1.00 20.00     0.019 C 
HETATM   10  C8  UNL     1     -34.048   7.637   4.436  1.00 20.00     0.019 C 
ENDBRANCH   2   7
TORSDOF 2
ENDMDL
