MODEL 1
REMARK VINA RESULT:      -1.9      0.000      0.000
REMARK  0 active torsions:
REMARK  status: ('A' for Active; 'I' for Inactive)
ROOT
HETATM    1  C1  UNL     1     -32.528  10.146   0.066  1.00 20.00     0.017 C 
HETATM    2  C2  UNL     1     -32.269   9.296   0.871  1.00 20.00    -0.057 C 
HETATM    3  C3  UNL     1     -31.954   8.257   1.854  1.00 20.00     0.342 C 
HETATM    4  C4  UNL     1     -33.569   6.751   2.389  1.00 20.00     0.150 C 
HETATM    5  C5  UNL     1     -32.322   6.024   1.929  1.00 20.00     0.150 C 
HETATM    6  C6  UNL     1     -34.257   6.122   3.583  1.00 20.00     0.042 C 
HETATM    7  C7  UNL     1     -32.589   4.817   1.052  1.00 20.00     0.042 C 
HETATM    8  O8  UNL     1     -33.071   8.049   2.734  1.00 20.00    -0.343 OA
HETATM    9  O9  UNL     1     -31.628   7.031   1.185  1.00 20.00    -0.343 OA
ENDROOT
TORSDOF 0
ENDMDL
MODEL 2
REMARK VINA RESULT:      -1.3      2.229      4.339
REMARK  0 active torsions:
REMARK  status: ('A' for Active; 'I' for Inactive)
ROOT
HETATM    1  C1  UNL     1     -33.104   2.882   4.843  1.00 20.00     0.017 C 
HETATM    2  C2  UNL     1     -33.583   3.736   4.149  1.00 20.00    -0.057 C 
HETATM    3  C3  UNL     1     -34.166   4.779   3.304  1.00 20.00     0.342 C 
HETATM    4  C4  UNL     1     -33.653   6.947   3.756  1.00 20.00     0.150 C 
HETATM    5  C5  UNL     1     -33.319   6.631   2.312  1.00 20.00     0.150 C 
HETATM    6  C6  UNL     1     -34.300   8.300   3.968  1.00 20.00     0.042 C 
HETATM    7  C7  UNL     1     -32.026   7.249   1.819  1.00 20.00     0.042 C 
HETATM    8  O8  UNL     1     -34.568   5.902   4.106  1.00 20.00    -0.343 OA
HETATM    9  O9  UNL     1     -33.213   5.203   2.320  1.00 20.00    -0.343 OA
ENDROOT
TORSDOF 0
ENDMDL
MODEL 3
REMARK VINA RESULT:      -1.2      1.500      2.036
REMARK  0 active torsions:
REMARK  status: ('A' for Active; 'I' for Inactive)
ROOT
HETATM    1  C1  UNL     1     -32.378   9.540  -0.005  1.00 20.00     0.017 C 
HETATM    2  C2  UNL     1     -32.253   8.748   0.887  1.00 20.00    -0.057 C 
HETATM    3  C3  UNL     1     -32.102   7.782   1.977  1.00 20.00     0.342 C 
HETATM    4  C4  UNL     1     -33.257   8.135   3.902  1.00 20.00     0.150 C 
HETATM    5  C5  UNL     1     -33.572   6.755   3.361  1.00 20.00     0.150 C 
HETATM    6  C6  UNL     1     -33.071   8.192   5.404  1.00 20.00     0.042 C 
HETATM    7  C7  UNL     1     -35.027   6.351   3.487  1.00 20.00     0.042 C 
HETATM    8  O8  UNL     1     -32.030   8.464   3.240  1.00 20.00    -0.343 OA
HETATM    9  O9  UNL     1     -33.208   6.869   1.981  1.00 20.00    -0.343 OA
ENDROOT
TORSDOF 0
ENDMDL
MODEL 4
REMARK VINA RESULT:      -0.4      1.269      3.602
REMARK  0 active torsions:
REMARK  status: ('A' for Active; 'I' for Inactive)
ROOT
HETATM    1  C1  UNL     1     -36.021   6.498   3.828  1.00 20.00     0.017 C 
HETATM    2  C2  UNL     1     -34.832   6.496   3.663  1.00 20.00    -0.057 C 
HETATM    3  C3  UNL     1     -33.383   6.493   3.460  1.00 20.00     0.342 C 
HETATM    4  C4  UNL     1     -32.586   6.077   1.372  1.00 20.00     0.150 C 
HETATM    5  C5  UNL     1     -32.031   7.392   1.880  1.00 20.00     0.150 C 
HETATM    6  C6  UNL     1     -31.580   5.216   0.635  1.00 20.00     0.042 C 
HETATM    7  C7  UNL     1     -31.963   8.488   0.835  1.00 20.00     0.042 C 
HETATM    8  O8  UNL     1     -33.006   5.424   2.576  1.00 20.00    -0.343 OA
HETATM    9  O9  UNL     1     -32.961   7.748   2.909  1.00 20.00    -0.343 OA
ENDROOT
TORSDOF 0
ENDMDL
MODEL 5
REMARK VINA RESULT:       0.0      1.996      3.282
REMARK  0 active torsions:
REMARK  status: ('A' for Active; 'I' for Inactive)
ROOT
HETATM    1  C1  UNL     1     -31.179   4.789   1.033  1.00 20.00     0.017 C 
HETATM    2  C2  UNL     1     -32.054   5.559   1.315  1.00 20.00    -0.057 C 
HETATM    3  C3  UNL     1     -33.123   6.498   1.660  1.00 20.00     0.342 C 
HETATM    4  C4  UNL     1     -34.180   6.244   3.656  1.00 20.00     0.150 C 
HETATM    5  C5  UNL     1     -33.632   7.652   3.542  1.00 20.00     0.150 C 
HETATM    6  C6  UNL     1     -35.566   6.159   4.263  1.00 20.00     0.042 C 
HETATM    7  C7  UNL     1     -33.029   8.195   4.822  1.00 20.00     0.042 C 
HETATM    8  O8  UNL     1     -34.210   5.804   2.293  1.00 20.00    -0.343 OA
HETATM    9  O9  UNL     1     -32.619   7.514   2.539  1.00 20.00    -0.343 OA
ENDROOT
TORSDOF 0
ENDMDL
MODEL 6
REMARK VINA RESULT:       0.5      2.734      3.561
REMARK  0 active torsions:
REMARK  status: ('A' for Active; 'I' for Inactive)
ROOT
HETATM    1  C1  UNL     1     -33.464   8.592   5.285  1.00 20.00     0.017 C 
HETATM    2  C2  UNL     1     -33.886   7.766   4.525  1.00 20.00    -0.057 C 
HETATM    3  C3  UNL     1     -34.401   6.757   3.598  1.00 20.00     0.342 C 
HETATM    4  C4  UNL     1     -32.920   5.344   2.610  1.00 20.00     0.150 C 
HETATM    5  C5  UNL     1     -33.992   4.546   3.322  1.00 20.00     0.150 C 
HETATM    6  C6  UNL     1     -32.527   4.795   1.253  1.00 20.00     0.042 C 
HETATM    7  C7  UNL     1     -33.481   3.316   4.045  1.00 20.00     0.042 C 
HETATM    8  O8  UNL     1     -33.528   6.633   2.463  1.00 20.00    -0.343 OA
HETATM    9  O9  UNL     1     -34.514   5.491   4.263  1.00 20.00    -0.343 OA
ENDROOT
TORSDOF 0
ENDMDL
MODEL 7
REMARK VINA RESULT:       0.6      1.745      2.992
REMARK  0 active torsions:
REMARK  status: ('A' for Active; 'I' for Inactive)
ROOT
HETATM    1  C1  UNL     1     -31.236   8.080   1.747  1.00 20.00     0.017 C 
HETATM    2  C2  UNL     1     -32.124   7.274   1.777  1.00 20.00    -0.057 C 
HETATM    3  C3  UNL     1     -33.207   6.290   1.815  1.00 20.00     0.342 C 
HETATM    4  C4  UNL     1     -33.402   4.969   3.654  1.00 20.00     0.150 C 
HETATM    5  C5  UNL     1     -34.709   5.691   3.402  1.00 20.00     0.150 C 
HETATM    6  C6  UNL     1     -33.556   3.519   4.062  1.00 20.00     0.042 C 
HETATM    7  C7  UNL     1     -35.401   6.190   4.654  1.00 20.00     0.042 C 
HETATM    8  O8  UNL     1     -32.740   5.058   2.386  1.00 20.00    -0.343 OA
HETATM    9  O9  UNL     1     -34.305   6.798   2.588  1.00 20.00    -0.343 OA
ENDROOT
TORSDOF 0
ENDMDL
MODEL 8
REMARK VINA RESULT:       0.7      1.530      3.204
REMARK  0 active torsions:
REMARK  status: ('A' for Active; 'I' for Inactive)
ROOT
HETATM    1  C1  UNL     1     -33.473   8.055   5.585  1.00 20.00     0.017 C 
HETATM    2  C2  UNL     1     -33.618   7.870   4.409  1.00 20.00    -0.057 C 
HETATM    3  C3  UNL     1     -33.794   7.645   2.973  1.00 20.00     0.342 C 
HETATM    4  C4  UNL     1     -31.957   7.711   1.637  1.00 20.00     0.150 C 
HETATM    5  C5  UNL     1     -32.681   6.394   1.447  1.00 20.00     0.150 C 
HETATM    6  C6  UNL     1     -31.444   8.334   0.355  1.00 20.00     0.042 C 
HETATM    7  C7  UNL     1     -31.768   5.192   1.310  1.00 20.00     0.042 C 
HETATM    8  O8  UNL     1     -32.963   8.546   2.223  1.00 20.00    -0.343 OA
HETATM    9  O9  UNL     1     -33.459   6.289   2.644  1.00 20.00    -0.343 OA
ENDROOT
TORSDOF 0
ENDMDL
MODEL 9
REMARK VINA RESULT:       1.0      1.574      3.576
REMARK  0 active torsions:
REMARK  status: ('A' for Active; 'I' for Inactive)
ROOT
HETATM    1  C1  UNL     1     -34.096   4.660  -0.511  1.00 20.00     0.017 C 
HETATM    2  C2  UNL     1     -33.492   5.005   0.466  1.00 20.00    -0.057 C 
HETATM    3  C3  UNL     1     -32.754   5.426   1.658  1.00 20.00     0.342 C 
HETATM    4  C4  UNL     1     -32.618   7.649   2.114  1.00 20.00     0.150 C 
HETATM    5  C5  UNL     1     -33.188   6.914   3.310  1.00 20.00     0.150 C 
HETATM    6  C6  UNL     1     -31.616   8.730   2.461  1.00 20.00     0.042 C 
HETATM    7  C7  UNL     1     -34.319   7.641   4.010  1.00 20.00     0.042 C 
HETATM    8  O8  UNL     1     -31.979   6.602   1.373  1.00 20.00    -0.343 OA
HETATM    9  O9  UNL     1     -33.668   5.696   2.731  1.00 20.00    -0.343 OA
ENDROOT
TORSDOF 0
ENDMDL
