MODEL 1
REMARK VINA RESULT:       0.2      0.000      0.000
REMARK  0 active torsions:
REMARK  status: ('A' for Active; 'I' for Inactive)
ROOT
HETATM    1  C1  UNL     1     -33.758   4.331   3.916  1.00 20.00     0.095 C 
HETATM    2  C2  UNL     1     -34.678   7.199   4.843  1.00 20.00     0.005 C 
HETATM    3  C3  UNL     1     -31.738   6.784   1.053  1.00 20.00     0.032 C 
HETATM    4  C4  UNL     1     -35.421   6.169   3.980  1.00 20.00     0.051 C 
HETATM    5  C5  UNL     1     -33.722   8.044   3.998  1.00 20.00     0.036 C 
HETATM    6  C6  UNL     1     -31.991   7.856   2.115  1.00 20.00     0.037 C 
HETATM    7  C7  UNL     1     -32.688   5.634   1.388  1.00 20.00     0.275 C 
HETATM    8  C8  UNL     1     -34.478   5.325   3.097  1.00 20.00     0.329 C 
HETATM    9  C9  UNL     1     -32.816   7.138   3.173  1.00 20.00     0.224 C 
HETATM   10  N10 UNL     1     -33.191   3.550   4.560  1.00 20.00    -0.195 NA
HETATM   11  N11 UNL     1     -33.609   6.230   2.345  1.00 20.00     0.111 N 
ENDROOT
TORSDOF 0
ENDMDL
MODEL 2
REMARK VINA RESULT:       1.5      1.154      3.512
REMARK  0 active torsions:
REMARK  status: ('A' for Active; 'I' for Inactive)
ROOT
HETATM    1  C1  UNL     1     -33.537   5.396   0.527  1.00 20.00     0.095 C 
HETATM    2  C2  UNL     1     -31.826   7.892   1.408  1.00 20.00     0.005 C 
HETATM    3  C3  UNL     1     -35.089   6.084   4.453  1.00 20.00     0.032 C 
HETATM    4  C4  UNL     1     -31.454   6.402   1.420  1.00 20.00     0.051 C 
HETATM    5  C5  UNL     1     -32.599   8.280   2.670  1.00 20.00     0.036 C 
HETATM    6  C6  UNL     1     -34.475   7.466   4.218  1.00 20.00     0.037 C 
HETATM    7  C7  UNL     1     -34.445   5.161   3.417  1.00 20.00     0.275 C 
HETATM    8  C8  UNL     1     -32.657   5.479   1.708  1.00 20.00     0.329 C 
HETATM    9  C9  UNL     1     -33.777   7.335   2.873  1.00 20.00     0.224 C 
HETATM   10  N10 UNL     1     -34.230   5.331  -0.402  1.00 20.00    -0.195 NA
HETATM   11  N11 UNL     1     -33.322   5.946   2.924  1.00 20.00     0.111 N 
ENDROOT
TORSDOF 0
ENDMDL
MODEL 3
REMARK VINA RESULT:       2.0      1.825      3.648
REMARK  0 active torsions:
REMARK  status: ('A' for Active; 'I' for Inactive)
ROOT
HETATM    1  C1  UNL     1     -32.252   9.006   1.192  1.00 20.00     0.095 C 
HETATM    2  C2  UNL     1     -33.759   8.131   3.818  1.00 20.00     0.005 C 
HETATM    3  C3  UNL     1     -32.309   4.757   0.705  1.00 20.00     0.032 C 
HETATM    4  C4  UNL     1     -32.281   8.500   3.620  1.00 20.00     0.051 C 
HETATM    5  C5  UNL     1     -34.014   6.663   3.472  1.00 20.00     0.036 C 
HETATM    6  C6  UNL     1     -33.441   4.872   1.729  1.00 20.00     0.037 C 
HETATM    7  C7  UNL     1     -31.546   6.080   0.778  1.00 20.00     0.275 C 
HETATM    8  C8  UNL     1     -31.737   8.096   2.233  1.00 20.00     0.329 C 
HETATM    9  C9  UNL     1     -33.465   6.350   2.085  1.00 20.00     0.224 C 
HETATM   10  N10 UNL     1     -32.658   9.721   0.373  1.00 20.00    -0.195 NA
HETATM   11  N11 UNL     1     -32.043   6.684   2.006  1.00 20.00     0.111 N 
ENDROOT
TORSDOF 0
ENDMDL
MODEL 4
REMARK VINA RESULT:       2.4      1.507      3.833
REMARK  0 active torsions:
REMARK  status: ('A' for Active; 'I' for Inactive)
ROOT
HETATM    1  C1  UNL     1     -32.952   8.311   4.298  1.00 20.00     0.095 C 
HETATM    2  C2  UNL     1     -31.883   6.899   1.691  1.00 20.00     0.005 C 
HETATM    3  C3  UNL     1     -35.125   4.630   4.434  1.00 20.00     0.032 C 
HETATM    4  C4  UNL     1     -32.973   7.970   1.842  1.00 20.00     0.051 C 
HETATM    5  C5  UNL     1     -32.448   5.497   1.928  1.00 20.00     0.036 C 
HETATM    6  C6  UNL     1     -34.010   4.187   3.484  1.00 20.00     0.037 C 
HETATM    7  C7  UNL     1     -35.092   6.158   4.430  1.00 20.00     0.275 C 
HETATM    8  C8  UNL     1     -33.767   7.846   3.159  1.00 20.00     0.329 C 
HETATM    9  C9  UNL     1     -33.200   5.454   3.253  1.00 20.00     0.224 C 
HETATM   10  N10 UNL     1     -32.312   8.677   5.194  1.00 20.00    -0.195 NA
HETATM   11  N11 UNL     1     -34.250   6.471   3.285  1.00 20.00     0.111 N 
ENDROOT
TORSDOF 0
ENDMDL
