MODEL 1
REMARK VINA RESULT:      -2.2      0.000      0.000
REMARK  1 active torsions:
REMARK  status: ('A' for Active; 'I' for Inactive)
REMARK    1  A    between atoms: C3_3  and  C7_7 
ROOT
HETATM    1  C1  UNL     1     -31.870   7.263   1.387  1.00 20.00    -0.030 C 
HETATM    2  C2  UNL     1     -32.349   6.011   1.457  1.00 20.00    -0.025 C 
HETATM    3  C4  UNL     1     -32.482   8.376   2.190  1.00 20.00     0.027 C 
HETATM    4  C5  UNL     1     -33.128   7.895   3.498  1.00 20.00     0.010 C 
HETATM    5  C6  UNL     1     -33.515   5.640   2.265  1.00 20.00     0.025 A 
HETATM    6  C7  UNL     1     -33.358   5.308   3.725  1.00 20.00     0.085 A 
HETATM    7  C8  UNL     1     -33.942   6.643   3.313  1.00 20.00     0.007 A 
ENDROOT
BRANCH   6   8
HETATM    8  C3  UNL     1     -34.243   4.305   4.331  1.00 20.00     0.224 C 
HETATM    9  O9  UNL     1     -35.414   4.555   4.597  1.00 20.00    -0.279 OA
HETATM   10 CL10 UNL     1     -33.431   2.793   4.599  1.00 20.00    -0.043 Cl
ENDBRANCH   6   8
TORSDOF 1
ENDMDL
MODEL 2
REMARK VINA RESULT:      -1.7      3.859      4.770
REMARK  1 active torsions:
REMARK  status: ('A' for Active; 'I' for Inactive)
REMARK    1  A    between atoms: C3_3  and  C7_7 
ROOT
HETATM    1  C1  UNL     1     -33.734   5.299   2.666  1.00 20.00    -0.030 C 
HETATM    2  C2  UNL     1     -32.890   5.690   1.699  1.00 20.00    -0.025 C 
HETATM    3  C4  UNL     1     -34.035   6.187   3.840  1.00 20.00     0.027 C 
HETATM    4  C5  UNL     1     -33.912   7.682   3.517  1.00 20.00     0.010 C 
HETATM    5  C6  UNL     1     -32.166   6.966   1.729  1.00 20.00     0.025 A 
HETATM    6  C7  UNL     1     -32.815   8.223   1.215  1.00 20.00     0.085 A 
HETATM    7  C8  UNL     1     -32.684   7.998   2.706  1.00 20.00     0.007 A 
ENDROOT
BRANCH   6   8
HETATM    8  C3  UNL     1     -31.980   9.251   0.578  1.00 20.00     0.224 C 
HETATM    9  O9  UNL     1     -30.887   8.982   0.090  1.00 20.00    -0.279 OA
HETATM   10 CL10 UNL     1     -32.730  10.817   0.617  1.00 20.00    -0.043 Cl
ENDBRANCH   6   8
TORSDOF 1
ENDMDL
MODEL 3
REMARK VINA RESULT:      -1.4      1.215      1.215
REMARK  1 active torsions:
REMARK  status: ('A' for Active; 'I' for Inactive)
REMARK    1  A    between atoms: C3_3  and  C7_7 
ROOT
HETATM    1  C1  UNL     1     -31.771   7.319   1.284  1.00 20.00    -0.030 C 
HETATM    2  C2  UNL     1     -32.270   6.074   1.324  1.00 20.00    -0.025 C 
HETATM    3  C4  UNL     1     -32.357   8.419   2.123  1.00 20.00     0.027 C 
HETATM    4  C5  UNL     1     -32.998   7.914   3.424  1.00 20.00     0.010 C 
HETATM    5  C6  UNL     1     -33.435   5.700   2.133  1.00 20.00     0.025 A 
HETATM    6  C7  UNL     1     -33.269   5.325   3.582  1.00 20.00     0.085 A 
HETATM    7  C8  UNL     1     -33.835   6.681   3.213  1.00 20.00     0.007 A 
ENDROOT
BRANCH   6   8
HETATM    8  C3  UNL     1     -34.166   4.321   4.168  1.00 20.00     0.224 C 
HETATM    9  O9  UNL     1     -33.843   3.140   4.256  1.00 20.00    -0.279 OA
HETATM   10 CL10 UNL     1     -35.670   5.014   4.692  1.00 20.00    -0.043 Cl
ENDBRANCH   6   8
TORSDOF 1
ENDMDL
MODEL 4
REMARK VINA RESULT:      -0.9      3.683      4.821
REMARK  1 active torsions:
REMARK  status: ('A' for Active; 'I' for Inactive)
REMARK    1  A    between atoms: C3_3  and  C7_7 
ROOT
HETATM    1  C1  UNL     1     -34.192   6.319   4.207  1.00 20.00    -0.030 C 
HETATM    2  C2  UNL     1     -34.045   7.572   3.749  1.00 20.00    -0.025 C 
HETATM    3  C4  UNL     1     -33.937   5.133   3.322  1.00 20.00     0.027 C 
HETATM    4  C5  UNL     1     -32.902   5.408   2.222  1.00 20.00     0.010 C 
HETATM    5  C6  UNL     1     -33.681   7.885   2.363  1.00 20.00     0.025 A 
HETATM    6  C7  UNL     1     -32.235   7.914   1.942  1.00 20.00     0.085 A 
HETATM    7  C8  UNL     1     -33.111   6.741   1.554  1.00 20.00     0.007 A 
ENDROOT
BRANCH   6   8
HETATM    8  C3  UNL     1     -31.812   8.856   0.899  1.00 20.00     0.224 C 
HETATM    9  O9  UNL     1     -30.848   8.628   0.175  1.00 20.00    -0.279 OA
HETATM   10 CL10 UNL     1     -32.826  10.266   0.842  1.00 20.00    -0.043 Cl
ENDBRANCH   6   8
TORSDOF 1
ENDMDL
MODEL 5
REMARK VINA RESULT:      -0.8      0.691      1.740
REMARK  1 active torsions:
REMARK  status: ('A' for Active; 'I' for Inactive)
REMARK    1  A    between atoms: C3_3  and  C7_7 
ROOT
HETATM    1  C1  UNL     1     -32.461   8.380   1.882  1.00 20.00    -0.030 C 
HETATM    2  C2  UNL     1     -33.071   8.103   3.045  1.00 20.00    -0.025 C 
HETATM    3  C4  UNL     1     -31.840   7.292   1.052  1.00 20.00     0.027 C 
HETATM    4  C5  UNL     1     -32.522   5.928   1.232  1.00 20.00     0.010 C 
HETATM    5  C6  UNL     1     -33.137   6.755   3.618  1.00 20.00     0.025 A 
HETATM    6  C7  UNL     1     -34.226   5.801   3.201  1.00 20.00     0.085 A 
HETATM    7  C8  UNL     1     -32.818   5.617   2.674  1.00 20.00     0.007 A 
ENDROOT
BRANCH   6   8
HETATM    8  C3  UNL     1     -34.747   4.838   4.179  1.00 20.00     0.224 C 
HETATM    9  O9  UNL     1     -35.801   5.030   4.776  1.00 20.00    -0.279 OA
HETATM   10 CL10 UNL     1     -33.705   3.459   4.356  1.00 20.00    -0.043 Cl
ENDBRANCH   6   8
TORSDOF 1
ENDMDL
MODEL 6
REMARK VINA RESULT:      -0.7      3.247      4.492
REMARK  1 active torsions:
REMARK  status: ('A' for Active; 'I' for Inactive)
REMARK    1  A    between atoms: C3_3  and  C7_7 
ROOT
HETATM    1  C1  UNL     1     -35.212   5.817   4.491  1.00 20.00    -0.030 C 
HETATM    2  C2  UNL     1     -35.017   6.966   3.827  1.00 20.00    -0.025 C 
HETATM    3  C4  UNL     1     -34.534   4.547   4.064  1.00 20.00     0.027 C 
HETATM    4  C5  UNL     1     -33.188   4.784   3.363  1.00 20.00     0.010 C 
HETATM    5  C6  UNL     1     -34.185   7.069   2.623  1.00 20.00     0.025 A 
HETATM    6  C7  UNL     1     -32.697   7.268   2.739  1.00 20.00     0.085 A 
HETATM    7  C8  UNL     1     -33.249   5.909   2.364  1.00 20.00     0.007 A 
ENDROOT
BRANCH   6   8
HETATM    8  C3  UNL     1     -31.997   8.055   1.715  1.00 20.00     0.224 C 
HETATM    9  O9  UNL     1     -30.923   7.694   1.246  1.00 20.00    -0.279 OA
HETATM   10 CL10 UNL     1     -32.871   9.495   1.289  1.00 20.00    -0.043 Cl
ENDBRANCH   6   8
TORSDOF 1
ENDMDL
MODEL 7
REMARK VINA RESULT:      -0.1      2.423      3.315
REMARK  1 active torsions:
REMARK  status: ('A' for Active; 'I' for Inactive)
REMARK    1  A    between atoms: C3_3  and  C7_7 
ROOT
HETATM    1  C1  UNL     1     -32.236   9.756   0.068  1.00 20.00    -0.030 C 
HETATM    2  C2  UNL     1     -32.936   9.987   1.189  1.00 20.00    -0.025 C 
HETATM    3  C4  UNL     1     -31.254   8.623  -0.016  1.00 20.00     0.027 C 
HETATM    4  C5  UNL     1     -31.612   7.441   0.896  1.00 20.00     0.010 C 
HETATM    5  C6  UNL     1     -32.770   9.203   2.417  1.00 20.00     0.025 A 
HETATM    6  C7  UNL     1     -33.523   7.912   2.606  1.00 20.00     0.085 A 
HETATM    7  C8  UNL     1     -32.047   7.882   2.267  1.00 20.00     0.007 A 
ENDROOT
BRANCH   6   8
HETATM    8  C3  UNL     1     -33.947   7.522   3.957  1.00 20.00     0.224 C 
HETATM    9  O9  UNL     1     -33.466   8.042   4.959  1.00 20.00    -0.279 OA
HETATM   10 CL10 UNL     1     -35.164   6.283   3.927  1.00 20.00    -0.043 Cl
ENDBRANCH   6   8
TORSDOF 1
ENDMDL
MODEL 8
REMARK VINA RESULT:       0.0      2.845      3.991
REMARK  1 active torsions:
REMARK  status: ('A' for Active; 'I' for Inactive)
REMARK    1  A    between atoms: C3_3  and  C7_7 
ROOT
HETATM    1  C1  UNL     1     -35.213   4.669   4.560  1.00 20.00    -0.030 C 
HETATM    2  C2  UNL     1     -34.109   4.269   3.910  1.00 20.00    -0.025 C 
HETATM    3  C4  UNL     1     -35.512   6.128   4.759  1.00 20.00     0.027 C 
HETATM    4  C5  UNL     1     -34.930   7.022   3.654  1.00 20.00     0.010 C 
HETATM    5  C6  UNL     1     -33.097   5.197   3.394  1.00 20.00     0.025 A 
HETATM    6  C7  UNL     1     -33.264   5.832   2.039  1.00 20.00     0.085 A 
HETATM    7  C8  UNL     1     -33.519   6.646   3.290  1.00 20.00     0.007 A 
ENDROOT
BRANCH   6   8
HETATM    8  C3  UNL     1     -32.072   6.126   1.235  1.00 20.00     0.224 C 
HETATM    9  O9  UNL     1     -31.418   5.236   0.700  1.00 20.00    -0.279 OA
HETATM   10 CL10 UNL     1     -31.742   7.830   1.154  1.00 20.00    -0.043 Cl
ENDBRANCH   6   8
TORSDOF 1
ENDMDL
MODEL 9
REMARK VINA RESULT:       0.1      2.687      3.444
REMARK  1 active torsions:
REMARK  status: ('A' for Active; 'I' for Inactive)
REMARK    1  A    between atoms: C3_3  and  C7_7 
ROOT
HETATM    1  C1  UNL     1     -34.098   7.411   3.831  1.00 20.00    -0.030 C 
HETATM    2  C2  UNL     1     -34.192   6.149   3.384  1.00 20.00    -0.025 C 
HETATM    3  C4  UNL     1     -32.926   8.279   3.470  1.00 20.00     0.027 C 
HETATM    4  C5  UNL     1     -32.300   7.918   2.115  1.00 20.00     0.010 C 
HETATM    5  C6  UNL     1     -33.158   5.506   2.565  1.00 20.00     0.025 A 
HETATM    6  C7  UNL     1     -33.149   5.685   1.070  1.00 20.00     0.085 A 
HETATM    7  C8  UNL     1     -32.148   6.433   1.926  1.00 20.00     0.007 A 
ENDROOT
BRANCH   6   8
HETATM    8  C3  UNL     1     -32.672   4.587   0.220  1.00 20.00     0.224 C 
HETATM    9  O9  UNL     1     -31.484   4.285   0.162  1.00 20.00    -0.279 OA
HETATM   10 CL10 UNL     1     -33.969   3.819  -0.643  1.00 20.00    -0.043 Cl
ENDBRANCH   6   8
TORSDOF 1
ENDMDL
