MODEL 1
REMARK VINA RESULT:      -0.4      0.000      0.000
REMARK  2 active torsions:
REMARK  status: ('A' for Active; 'I' for Inactive)
REMARK    1  A    between atoms: C5_5  and  C8_8 
REMARK    2  A    between atoms: C8_8  and  N10_10 
ROOT
HETATM    1  C1  UNL     1     -35.290   5.931   4.456  1.00 20.00     0.135 A 
HETATM    2  C2  UNL     1     -34.653   6.701   3.512  1.00 20.00     0.112 A 
HETATM    3  C3  UNL     1     -33.929   4.620   3.477  1.00 20.00     0.210 A 
HETATM    4  N9  UNL     1     -34.835   4.637   4.429  1.00 20.00    -0.255 NA
HETATM    5  N10 UNL     1     -33.783   5.847   2.893  1.00 20.00    -0.338 N 
ENDROOT
BRANCH   5   6
HETATM    6  C8  UNL     1     -32.847   6.191   1.783  1.00 20.00     0.047 C 
HETATM    7  C6  UNL     1     -31.616   5.253   1.688  1.00 20.00     0.043 C 
HETATM    8  C7  UNL     1     -33.614   6.049   0.445  1.00 20.00     0.043 C 
BRANCH   6   9
HETATM    9  C5  UNL     1     -32.271   7.585   2.034  1.00 20.00    -0.007 C 
HETATM   10  C4  UNL     1     -31.986   8.525   1.124  1.00 20.00     0.009 C 
ENDBRANCH   6   9
ENDBRANCH   5   6
TORSDOF 2
ENDMDL
MODEL 2
REMARK VINA RESULT:      -0.2      0.642      1.176
REMARK  2 active torsions:
REMARK  status: ('A' for Active; 'I' for Inactive)
REMARK    1  A    between atoms: C5_5  and  C8_8 
REMARK    2  A    between atoms: C8_8  and  N10_10 
ROOT
HETATM    1  C1  UNL     1     -34.904   4.972   4.399  1.00 20.00     0.135 A 
HETATM    2  C2  UNL     1     -33.957   4.729   3.431  1.00 20.00     0.112 A 
HETATM    3  C3  UNL     1     -34.552   6.851   3.463  1.00 20.00     0.210 A 
HETATM    4  N9  UNL     1     -35.270   6.294   4.414  1.00 20.00    -0.255 NA
HETATM    5  N10 UNL     1     -33.743   5.943   2.840  1.00 20.00    -0.338 N 
ENDROOT
BRANCH   5   6
HETATM    6  C8  UNL     1     -32.797   6.226   1.720  1.00 20.00     0.047 C 
HETATM    7  C6  UNL     1     -31.611   5.231   1.637  1.00 20.00     0.043 C 
HETATM    8  C7  UNL     1     -33.577   6.096   0.388  1.00 20.00     0.043 C 
BRANCH   6   9
HETATM    9  C5  UNL     1     -32.158   7.596   1.945  1.00 20.00    -0.007 C 
HETATM   10  C4  UNL     1     -31.992   8.575   1.047  1.00 20.00     0.009 C 
ENDBRANCH   6   9
ENDBRANCH   5   6
TORSDOF 2
ENDMDL
MODEL 3
REMARK VINA RESULT:      -0.1      1.539      2.209
REMARK  2 active torsions:
REMARK  status: ('A' for Active; 'I' for Inactive)
REMARK    1  A    between atoms: C5_5  and  C8_8 
REMARK    2  A    between atoms: C8_8  and  N10_10 
ROOT
HETATM    1  C1  UNL     1     -34.741   6.043   3.768  1.00 20.00     0.135 A 
HETATM    2  C2  UNL     1     -33.839   6.123   2.733  1.00 20.00     0.112 A 
HETATM    3  C3  UNL     1     -33.814   7.949   3.967  1.00 20.00     0.210 A 
HETATM    4  N9  UNL     1     -34.721   7.182   4.533  1.00 20.00    -0.255 NA
HETATM    5  N10 UNL     1     -33.253   7.350   2.874  1.00 20.00    -0.338 N 
ENDROOT
BRANCH   5   6
HETATM    6  C8  UNL     1     -32.194   7.929   1.996  1.00 20.00     0.047 C 
HETATM    7  C6  UNL     1     -30.971   8.482   2.771  1.00 20.00     0.043 C 
HETATM    8  C7  UNL     1     -31.662   6.802   1.077  1.00 20.00     0.043 C 
BRANCH   6   9
HETATM    9  C5  UNL     1     -32.773   9.131   1.249  1.00 20.00    -0.007 C 
HETATM   10  C4  UNL     1     -32.352   9.649   0.089  1.00 20.00     0.009 C 
ENDBRANCH   6   9
ENDBRANCH   5   6
TORSDOF 2
ENDMDL
MODEL 4
REMARK VINA RESULT:      -0.0      1.378      1.914
REMARK  2 active torsions:
REMARK  status: ('A' for Active; 'I' for Inactive)
REMARK    1  A    between atoms: C5_5  and  C8_8 
REMARK    2  A    between atoms: C8_8  and  N10_10 
ROOT
HETATM    1  C1  UNL     1     -34.761   6.998   4.399  1.00 20.00     0.135 A 
HETATM    2  C2  UNL     1     -33.867   7.928   3.921  1.00 20.00     0.112 A 
HETATM    3  C3  UNL     1     -33.816   6.073   2.731  1.00 20.00     0.210 A 
HETATM    4  N9  UNL     1     -34.724   5.846   3.655  1.00 20.00    -0.255 NA
HETATM    5  N10 UNL     1     -33.269   7.320   2.852  1.00 20.00    -0.338 N 
ENDROOT
BRANCH   5   6
HETATM    6  C8  UNL     1     -32.213   7.909   1.977  1.00 20.00     0.047 C 
HETATM    7  C6  UNL     1     -31.000   8.478   2.757  1.00 20.00     0.043 C 
HETATM    8  C7  UNL     1     -31.664   6.786   1.063  1.00 20.00     0.043 C 
BRANCH   6   9
HETATM    9  C5  UNL     1     -32.802   9.102   1.224  1.00 20.00    -0.007 C 
HETATM   10  C4  UNL     1     -32.306   9.706   0.138  1.00 20.00     0.009 C 
ENDBRANCH   6   9
ENDBRANCH   5   6
TORSDOF 2
ENDMDL
MODEL 5
REMARK VINA RESULT:       0.6      1.547      3.787
REMARK  2 active torsions:
REMARK  status: ('A' for Active; 'I' for Inactive)
REMARK    1  A    between atoms: C5_5  and  C8_8 
REMARK    2  A    between atoms: C8_8  and  N10_10 
ROOT
HETATM    1  C1  UNL     1     -31.974   6.058   1.111  1.00 20.00     0.135 A 
HETATM    2  C2  UNL     1     -32.974   5.536   1.897  1.00 20.00     0.112 A 
HETATM    3  C3  UNL     1     -32.681   7.685   2.288  1.00 20.00     0.210 A 
HETATM    4  N9  UNL     1     -31.796   7.396   1.359  1.00 20.00    -0.255 NA
HETATM    5  N10 UNL     1     -33.418   6.591   2.646  1.00 20.00    -0.338 N 
ENDROOT
BRANCH   5   6
HETATM    6  C8  UNL     1     -34.506   6.554   3.666  1.00 20.00     0.047 C 
HETATM    7  C6  UNL     1     -35.921   6.799   3.081  1.00 20.00     0.043 C 
HETATM    8  C7  UNL     1     -34.527   5.140   4.296  1.00 20.00     0.043 C 
BRANCH   6   9
HETATM    9  C5  UNL     1     -34.284   7.687   4.668  1.00 20.00    -0.007 C 
HETATM   10  C4  UNL     1     -33.127   8.073   5.218  1.00 20.00     0.009 C 
ENDBRANCH   6   9
ENDBRANCH   5   6
TORSDOF 2
ENDMDL
MODEL 6
REMARK VINA RESULT:       0.6      0.462      1.914
REMARK  2 active torsions:
REMARK  status: ('A' for Active; 'I' for Inactive)
REMARK    1  A    between atoms: C5_5  and  C8_8 
REMARK    2  A    between atoms: C8_8  and  N10_10 
ROOT
HETATM    1  C1  UNL     1     -35.301   5.886   4.468  1.00 20.00     0.135 A 
HETATM    2  C2  UNL     1     -34.698   6.706   3.542  1.00 20.00     0.112 A 
HETATM    3  C3  UNL     1     -33.885   4.659   3.458  1.00 20.00     0.210 A 
HETATM    4  N9  UNL     1     -34.790   4.614   4.410  1.00 20.00    -0.255 NA
HETATM    5  N10 UNL     1     -33.793   5.904   2.903  1.00 20.00    -0.338 N 
ENDROOT
BRANCH   5   6
HETATM    6  C8  UNL     1     -32.873   6.314   1.801  1.00 20.00     0.047 C 
HETATM    7  C6  UNL     1     -33.564   6.429   0.419  1.00 20.00     0.043 C 
HETATM    8  C7  UNL     1     -32.319   7.722   2.136  1.00 20.00     0.043 C 
BRANCH   6   9
HETATM    9  C5  UNL     1     -31.799   5.240   1.626  1.00 20.00    -0.007 C 
HETATM   10  C4  UNL     1     -31.542   4.516   0.530  1.00 20.00     0.009 C 
ENDBRANCH   6   9
ENDBRANCH   5   6
TORSDOF 2
ENDMDL
MODEL 7
REMARK VINA RESULT:       0.6      1.360      3.948
REMARK  2 active torsions:
REMARK  status: ('A' for Active; 'I' for Inactive)
REMARK    1  A    between atoms: C5_5  and  C8_8 
REMARK    2  A    between atoms: C8_8  and  N10_10 
ROOT
HETATM    1  C1  UNL     1     -32.120   6.025   1.033  1.00 20.00     0.135 A 
HETATM    2  C2  UNL     1     -33.174   5.542   1.773  1.00 20.00     0.112 A 
HETATM    3  C3  UNL     1     -32.568   7.550   2.448  1.00 20.00     0.210 A 
HETATM    4  N9  UNL     1     -31.748   7.275   1.458  1.00 20.00    -0.255 NA
HETATM    5  N10 UNL     1     -33.450   6.531   2.676  1.00 20.00    -0.338 N 
ENDROOT
BRANCH   5   6
HETATM    6  C8  UNL     1     -34.517   6.503   3.719  1.00 20.00     0.047 C 
HETATM    7  C6  UNL     1     -34.293   7.515   4.871  1.00 20.00     0.043 C 
HETATM    8  C7  UNL     1     -35.857   6.889   3.046  1.00 20.00     0.043 C 
BRANCH   6   9
HETATM    9  C5  UNL     1     -34.521   5.128   4.387  1.00 20.00    -0.007 C 
HETATM   10  C4  UNL     1     -33.844   4.036   4.010  1.00 20.00     0.009 C 
ENDBRANCH   6   9
ENDBRANCH   5   6
TORSDOF 2
ENDMDL
MODEL 8
REMARK VINA RESULT:       0.7      2.701      4.651
REMARK  2 active torsions:
REMARK  status: ('A' for Active; 'I' for Inactive)
REMARK    1  A    between atoms: C5_5  and  C8_8 
REMARK    2  A    between atoms: C8_8  and  N10_10 
ROOT
HETATM    1  C1  UNL     1     -32.855  10.822   0.075  1.00 20.00     0.135 A 
HETATM    2  C2  UNL     1     -32.735  10.239   1.315  1.00 20.00     0.112 A 
HETATM    3  C3  UNL     1     -32.545   8.749  -0.298  1.00 20.00     0.210 A 
HETATM    4  N9  UNL     1     -32.736   9.888  -0.925  1.00 20.00    -0.255 NA
HETATM    5  N10 UNL     1     -32.537   8.911   1.059  1.00 20.00    -0.338 N 
ENDROOT
BRANCH   5   6
HETATM    6  C8  UNL     1     -32.346   7.835   2.076  1.00 20.00     0.047 C 
HETATM    7  C6  UNL     1     -31.898   6.478   1.475  1.00 20.00     0.043 C 
HETATM    8  C7  UNL     1     -31.223   8.281   3.044  1.00 20.00     0.043 C 
BRANCH   6   9
HETATM    9  C5  UNL     1     -33.686   7.551   2.754  1.00 20.00    -0.007 C 
HETATM   10  C4  UNL     1     -33.958   7.577   4.065  1.00 20.00     0.009 C 
ENDBRANCH   6   9
ENDBRANCH   5   6
TORSDOF 2
ENDMDL
MODEL 9
REMARK VINA RESULT:       0.8      1.368      3.804
REMARK  2 active torsions:
REMARK  status: ('A' for Active; 'I' for Inactive)
REMARK    1  A    between atoms: C5_5  and  C8_8 
REMARK    2  A    between atoms: C8_8  and  N10_10 
ROOT
HETATM    1  C1  UNL     1     -31.766   7.154   1.430  1.00 20.00     0.135 A 
HETATM    2  C2  UNL     1     -32.564   7.584   2.464  1.00 20.00     0.112 A 
HETATM    3  C3  UNL     1     -33.130   5.562   1.795  1.00 20.00     0.210 A 
HETATM    4  N9  UNL     1     -32.123   5.895   1.018  1.00 20.00    -0.255 NA
HETATM    5  N10 UNL     1     -33.434   6.553   2.686  1.00 20.00    -0.338 N 
ENDROOT
BRANCH   5   6
HETATM    6  C8  UNL     1     -34.515   6.515   3.714  1.00 20.00     0.047 C 
HETATM    7  C6  UNL     1     -34.307   7.517   4.878  1.00 20.00     0.043 C 
HETATM    8  C7  UNL     1     -35.846   6.909   3.026  1.00 20.00     0.043 C 
BRANCH   6   9
HETATM    9  C5  UNL     1     -34.529   5.134   4.369  1.00 20.00    -0.007 C 
HETATM   10  C4  UNL     1     -33.831   4.052   4.004  1.00 20.00     0.009 C 
ENDBRANCH   6   9
ENDBRANCH   5   6
TORSDOF 2
ENDMDL
