MODEL 1
REMARK VINA RESULT:       2.1      0.000      0.000
REMARK  1 active torsions:
REMARK  status: ('A' for Active; 'I' for Inactive)
REMARK    1  A    between atoms: C2_2  and  C3_3 
ROOT
HETATM    1  C1  UNL     1     -35.215   5.176   4.051  1.00 20.00    -0.015 C 
HETATM    2  C2  UNL     1     -33.909   4.863   4.128  1.00 20.00    -0.012 C 
HETATM    3  C4  UNL     1     -35.639   6.557   3.595  1.00 20.00     0.033 C 
HETATM    4  C5  UNL     1     -33.365   7.291   4.474  1.00 20.00     0.016 C 
HETATM    5  C6  UNL     1     -32.934   5.947   3.777  1.00 20.00     0.030 C 
HETATM    6  C7  UNL     1     -34.384   7.405   3.291  1.00 20.00    -0.002 C 
HETATM    7  C8  UNL     1     -33.270   6.691   2.406  1.00 20.00    -0.036 C 
HETATM    8  C10 UNL     1     -32.154   7.618   1.882  1.00 20.00     0.016 C 
HETATM    9  C11 UNL     1     -33.750   5.841   1.222  1.00 20.00     0.016 C 
ENDROOT
BRANCH   2  10
HETATM   10  C3  UNL     1     -33.491   3.529   4.547  1.00 20.00     0.151 C 
HETATM   11  C9  UNL     1     -32.663   3.401   5.805  1.00 20.00     0.096 C 
HETATM   12  O12 UNL     1     -33.800   2.531   3.887  1.00 20.00    -0.293 OA
ENDBRANCH   2  10
TORSDOF 1
ENDMDL
MODEL 2
REMARK VINA RESULT:       2.5      2.204      3.445
REMARK  1 active torsions:
REMARK  status: ('A' for Active; 'I' for Inactive)
REMARK    1  A    between atoms: C2_2  and  C3_3 
ROOT
HETATM    1  C1  UNL     1     -32.788   5.426   2.850  1.00 20.00    -0.015 C 
HETATM    2  C2  UNL     1     -33.628   6.473   2.925  1.00 20.00    -0.012 C 
HETATM    3  C4  UNL     1     -31.816   5.313   1.691  1.00 20.00     0.033 C 
HETATM    4  C5  UNL     1     -33.527   6.712   0.426  1.00 20.00     0.016 C 
HETATM    5  C6  UNL     1     -33.567   7.469   1.806  1.00 20.00     0.030 C 
HETATM    6  C7  UNL     1     -32.007   6.519   0.743  1.00 20.00    -0.002 C 
HETATM    7  C8  UNL     1     -32.085   7.944   1.451  1.00 20.00    -0.036 C 
HETATM    8  C10 UNL     1     -32.004   9.154   0.499  1.00 20.00     0.016 C 
HETATM    9  C11 UNL     1     -31.115   8.208   2.610  1.00 20.00     0.016 C 
ENDROOT
BRANCH   2  10
HETATM   10  C3  UNL     1     -34.553   6.600   4.046  1.00 20.00     0.151 C 
HETATM   11  C9  UNL     1     -35.453   5.430   4.368  1.00 20.00     0.096 C 
HETATM   12  O12 UNL     1     -34.604   7.641   4.711  1.00 20.00    -0.293 OA
ENDBRANCH   2  10
TORSDOF 1
ENDMDL
MODEL 3
REMARK VINA RESULT:       2.7      2.358      3.642
REMARK  1 active torsions:
REMARK  status: ('A' for Active; 'I' for Inactive)
REMARK    1  A    between atoms: C2_2  and  C3_3 
ROOT
HETATM    1  C1  UNL     1     -32.661   7.820   2.388  1.00 20.00    -0.015 C 
HETATM    2  C2  UNL     1     -33.376   6.784   2.863  1.00 20.00    -0.012 C 
HETATM    3  C4  UNL     1     -31.696   7.613   1.238  1.00 20.00     0.033 C 
HETATM    4  C5  UNL     1     -31.587   5.208   2.069  1.00 20.00     0.016 C 
HETATM    5  C6  UNL     1     -33.135   5.449   2.223  1.00 20.00     0.030 C 
HETATM    6  C7  UNL     1     -31.720   6.128   0.809  1.00 20.00    -0.002 C 
HETATM    7  C8  UNL     1     -33.167   5.488   0.629  1.00 20.00    -0.036 C 
HETATM    8  C10 UNL     1     -33.191   4.104  -0.052  1.00 20.00     0.016 C 
HETATM    9  C11 UNL     1     -34.237   6.351  -0.052  1.00 20.00     0.016 C 
ENDROOT
BRANCH   2  10
HETATM   10  C3  UNL     1     -34.322   6.977   3.957  1.00 20.00     0.151 C 
HETATM   11  C9  UNL     1     -35.454   5.989   4.107  1.00 20.00     0.096 C 
HETATM   12  O12 UNL     1     -34.203   7.930   4.736  1.00 20.00    -0.293 OA
ENDBRANCH   2  10
TORSDOF 1
ENDMDL
MODEL 4
REMARK VINA RESULT:       3.1      2.060      3.469
REMARK  1 active torsions:
REMARK  status: ('A' for Active; 'I' for Inactive)
REMARK    1  A    between atoms: C2_2  and  C3_3 
ROOT
HETATM    1  C1  UNL     1     -32.829   7.921   4.088  1.00 20.00    -0.015 C 
HETATM    2  C2  UNL     1     -33.513   7.248   3.145  1.00 20.00    -0.012 C 
HETATM    3  C4  UNL     1     -31.590   8.708   3.711  1.00 20.00     0.033 C 
HETATM    4  C5  UNL     1     -31.410   7.053   1.785  1.00 20.00     0.016 C 
HETATM    5  C6  UNL     1     -32.964   7.298   1.751  1.00 20.00     0.030 C 
HETATM    6  C7  UNL     1     -31.330   8.561   2.195  1.00 20.00    -0.002 C 
HETATM    7  C8  UNL     1     -32.600   8.771   1.257  1.00 20.00    -0.036 C 
HETATM    8  C10 UNL     1     -32.290   8.891  -0.249  1.00 20.00     0.016 C 
HETATM    9  C11 UNL     1     -33.561   9.911   1.618  1.00 20.00     0.016 C 
ENDROOT
BRANCH   2  10
HETATM   10  C3  UNL     1     -34.718   6.504   3.495  1.00 20.00     0.151 C 
HETATM   11  C9  UNL     1     -34.561   5.118   4.074  1.00 20.00     0.096 C 
HETATM   12  O12 UNL     1     -35.839   6.993   3.314  1.00 20.00    -0.293 OA
ENDBRANCH   2  10
TORSDOF 1
ENDMDL
MODEL 5
REMARK VINA RESULT:       3.3      1.726      3.115
REMARK  1 active torsions:
REMARK  status: ('A' for Active; 'I' for Inactive)
REMARK    1  A    between atoms: C2_2  and  C3_3 
ROOT
HETATM    1  C1  UNL     1     -32.356   4.828   2.503  1.00 20.00    -0.015 C 
HETATM    2  C2  UNL     1     -33.436   5.599   2.720  1.00 20.00    -0.012 C 
HETATM    3  C4  UNL     1     -31.378   5.184   1.400  1.00 20.00     0.033 C 
HETATM    4  C5  UNL     1     -33.378   6.328   0.317  1.00 20.00     0.016 C 
HETATM    5  C6  UNL     1     -33.621   6.774   1.807  1.00 20.00     0.030 C 
HETATM    6  C7  UNL     1     -31.862   6.463   0.680  1.00 20.00    -0.002 C 
HETATM    7  C8  UNL     1     -32.306   7.661   1.630  1.00 20.00    -0.036 C 
HETATM    8  C10 UNL     1     -32.528   9.012   0.921  1.00 20.00     0.016 C 
HETATM    9  C11 UNL     1     -31.445   7.931   2.871  1.00 20.00     0.016 C 
ENDROOT
BRANCH   2  10
HETATM   10  C3  UNL     1     -34.372   5.275   3.792  1.00 20.00     0.151 C 
HETATM   11  C9  UNL     1     -34.142   4.012   4.587  1.00 20.00     0.096 C 
HETATM   12  O12 UNL     1     -35.333   6.013   4.037  1.00 20.00    -0.293 OA
ENDBRANCH   2  10
TORSDOF 1
ENDMDL
MODEL 6
REMARK VINA RESULT:       3.3      2.412      4.469
REMARK  1 active torsions:
REMARK  status: ('A' for Active; 'I' for Inactive)
REMARK    1  A    between atoms: C2_2  and  C3_3 
ROOT
HETATM    1  C1  UNL     1     -31.936   8.403   3.583  1.00 20.00    -0.015 C 
HETATM    2  C2  UNL     1     -32.646   8.216   2.457  1.00 20.00    -0.012 C 
HETATM    3  C4  UNL     1     -32.576   8.157   4.935  1.00 20.00     0.033 C 
HETATM    4  C5  UNL     1     -34.760   8.680   3.734  1.00 20.00     0.016 C 
HETATM    5  C6  UNL     1     -34.076   7.797   2.623  1.00 20.00     0.030 C 
HETATM    6  C7  UNL     1     -34.043   7.713   4.734  1.00 20.00    -0.002 C 
HETATM    7  C8  UNL     1     -34.274   6.582   3.637  1.00 20.00    -0.036 C 
HETATM    8  C10 UNL     1     -35.683   5.954   3.629  1.00 20.00     0.016 C 
HETATM    9  C11 UNL     1     -33.261   5.430   3.590  1.00 20.00     0.016 C 
ENDROOT
BRANCH   2  10
HETATM   10  C3  UNL     1     -32.033   8.432   1.150  1.00 20.00     0.151 C 
HETATM   11  C9  UNL     1     -32.437   9.656   0.362  1.00 20.00     0.096 C 
HETATM   12  O12 UNL     1     -31.209   7.629   0.697  1.00 20.00    -0.293 OA
ENDBRANCH   2  10
TORSDOF 1
ENDMDL
MODEL 7
REMARK VINA RESULT:       3.8      3.274      5.151
REMARK  1 active torsions:
REMARK  status: ('A' for Active; 'I' for Inactive)
REMARK    1  A    between atoms: C2_2  and  C3_3 
ROOT
HETATM    1  C1  UNL     1     -32.821   7.320   0.500  1.00 20.00    -0.015 C 
HETATM    2  C2  UNL     1     -32.654   8.539   1.043  1.00 20.00    -0.012 C 
HETATM    3  C4  UNL     1     -32.756   6.084   1.375  1.00 20.00     0.033 C 
HETATM    4  C5  UNL     1     -31.286   7.514   2.884  1.00 20.00     0.016 C 
HETATM    5  C6  UNL     1     -32.375   8.590   2.515  1.00 20.00     0.030 C 
HETATM    6  C7  UNL     1     -32.481   6.505   2.837  1.00 20.00    -0.002 C 
HETATM    7  C8  UNL     1     -33.374   7.703   3.387  1.00 20.00    -0.036 C 
HETATM    8  C10 UNL     1     -33.288   7.939   4.909  1.00 20.00     0.016 C 
HETATM    9  C11 UNL     1     -34.860   7.704   3.007  1.00 20.00     0.016 C 
ENDROOT
BRANCH   2  10
HETATM   10  C3  UNL     1     -32.733   9.736   0.212  1.00 20.00     0.151 C 
HETATM   11  C9  UNL     1     -32.583  11.083   0.879  1.00 20.00     0.096 C 
HETATM   12  O12 UNL     1     -32.926   9.650  -1.006  1.00 20.00    -0.293 OA
ENDBRANCH   2  10
TORSDOF 1
ENDMDL
MODEL 8
REMARK VINA RESULT:       4.1      2.333      4.018
REMARK  1 active torsions:
REMARK  status: ('A' for Active; 'I' for Inactive)
REMARK    1  A    between atoms: C2_2  and  C3_3 
ROOT
HETATM    1  C1  UNL     1     -32.185   7.987   3.628  1.00 20.00    -0.015 C 
HETATM    2  C2  UNL     1     -32.754   7.392   2.565  1.00 20.00    -0.012 C 
HETATM    3  C4  UNL     1     -32.959   8.129   4.924  1.00 20.00     0.033 C 
HETATM    4  C5  UNL     1     -35.019   8.053   3.428  1.00 20.00     0.016 C 
HETATM    5  C6  UNL     1     -34.169   6.926   2.730  1.00 20.00     0.030 C 
HETATM    6  C7  UNL     1     -34.369   7.520   4.748  1.00 20.00    -0.002 C 
HETATM    7  C8  UNL     1     -34.415   6.083   4.062  1.00 20.00    -0.036 C 
HETATM    8  C10 UNL     1     -35.780   5.367   4.132  1.00 20.00     0.016 C 
HETATM    9  C11 UNL     1     -33.344   5.068   4.482  1.00 20.00     0.016 C 
ENDROOT
BRANCH   2  10
HETATM   10  C3  UNL     1     -32.009   7.233   1.320  1.00 20.00     0.151 C 
HETATM   11  C9  UNL     1     -31.810   5.837   0.777  1.00 20.00     0.096 C 
HETATM   12  O12 UNL     1     -31.547   8.216   0.729  1.00 20.00    -0.293 OA
ENDBRANCH   2  10
TORSDOF 1
ENDMDL
MODEL 9
REMARK VINA RESULT:       4.6      3.088      4.928
REMARK  1 active torsions:
REMARK  status: ('A' for Active; 'I' for Inactive)
REMARK    1  A    between atoms: C2_2  and  C3_3 
ROOT
HETATM    1  C1  UNL     1     -32.235   8.367   2.760  1.00 20.00    -0.015 C 
HETATM    2  C2  UNL     1     -32.485   8.283   1.441  1.00 20.00    -0.012 C 
HETATM    3  C4  UNL     1     -32.730   7.284   3.697  1.00 20.00     0.033 C 
HETATM    4  C5  UNL     1     -34.527   6.906   1.934  1.00 20.00     0.016 C 
HETATM    5  C6  UNL     1     -33.290   7.105   0.981  1.00 20.00     0.030 C 
HETATM    6  C7  UNL     1     -33.496   6.214   2.886  1.00 20.00    -0.002 C 
HETATM    7  C8  UNL     1     -32.773   5.711   1.559  1.00 20.00    -0.036 C 
HETATM    8  C10 UNL     1     -33.402   4.465   0.902  1.00 20.00     0.016 C 
HETATM    9  C11 UNL     1     -31.258   5.475   1.629  1.00 20.00     0.016 C 
ENDROOT
BRANCH   2  10
HETATM   10  C3  UNL     1     -31.995   9.311   0.528  1.00 20.00     0.151 C 
HETATM   11  C9  UNL     1     -32.750  10.618   0.451  1.00 20.00     0.096 C 
HETATM   12  O12 UNL     1     -30.994   9.114  -0.169  1.00 20.00    -0.293 OA
ENDBRANCH   2  10
TORSDOF 1
ENDMDL
