MODEL 1
REMARK VINA RESULT:      -0.4      0.000      0.000
REMARK  1 active torsions:
REMARK  status: ('A' for Active; 'I' for Inactive)
REMARK    1  A    between atoms: C2_2  and  C3_3 
ROOT
HETATM    1  C1  UNL     1     -33.213   7.677   2.758  1.00 20.00    -0.007 C 
HETATM    2  C2  UNL     1     -33.310   6.346   2.674  1.00 20.00    -0.012 C 
HETATM    3  C4  UNL     1     -31.890   6.997   0.916  1.00 20.00     0.022 C 
HETATM    4  C5  UNL     1     -32.344   5.751   1.703  1.00 20.00     0.019 C 
HETATM    5  C6  UNL     1     -32.145   8.210   1.841  1.00 20.00    -0.029 C 
HETATM    6  C8  UNL     1     -32.931   4.691   0.778  1.00 20.00     0.015 C 
HETATM    7  C9  UNL     1     -30.889   8.581   2.641  1.00 20.00     0.019 C 
HETATM    8  C10 UNL     1     -32.637   9.418   1.043  1.00 20.00     0.019 C 
ENDROOT
BRANCH   2   9
HETATM    9  C3  UNL     1     -34.230   5.591   3.509  1.00 20.00     0.151 C 
HETATM   10  C7  UNL     1     -35.497   6.270   3.985  1.00 20.00     0.096 C 
HETATM   11  O11 UNL     1     -33.987   4.420   3.832  1.00 20.00    -0.293 OA
ENDBRANCH   2   9
TORSDOF 1
ENDMDL
MODEL 2
REMARK VINA RESULT:       0.3      1.537      2.999
REMARK  1 active torsions:
REMARK  status: ('A' for Active; 'I' for Inactive)
REMARK    1  A    between atoms: C2_2  and  C3_3 
ROOT
HETATM    1  C1  UNL     1     -33.148   5.100   2.349  1.00 20.00    -0.007 C 
HETATM    2  C2  UNL     1     -33.907   5.477   3.384  1.00 20.00    -0.012 C 
HETATM    3  C4  UNL     1     -33.153   7.467   2.384  1.00 20.00     0.022 C 
HETATM    4  C5  UNL     1     -34.193   6.943   3.394  1.00 20.00     0.019 C 
HETATM    5  C6  UNL     1     -32.791   6.271   1.473  1.00 20.00    -0.029 C 
HETATM    6  C8  UNL     1     -34.042   7.619   4.752  1.00 20.00     0.015 C 
HETATM    7  C9  UNL     1     -33.640   6.260   0.195  1.00 20.00     0.019 C 
HETATM    8  C10 UNL     1     -31.304   6.278   1.117  1.00 20.00     0.019 C 
ENDROOT
BRANCH   2   9
HETATM    9  C3  UNL     1     -34.429   4.514   4.340  1.00 20.00     0.151 C 
HETATM   10  C7  UNL     1     -33.569   3.327   4.714  1.00 20.00     0.096 C 
HETATM   11  O11 UNL     1     -35.556   4.654   4.837  1.00 20.00    -0.293 OA
ENDBRANCH   2   9
TORSDOF 1
ENDMDL
MODEL 3
REMARK VINA RESULT:       0.4      1.473      2.740
REMARK  1 active torsions:
REMARK  status: ('A' for Active; 'I' for Inactive)
REMARK    1  A    between atoms: C2_2  and  C3_3 
ROOT
HETATM    1  C1  UNL     1     -33.112   6.751   2.121  1.00 20.00    -0.007 C 
HETATM    2  C2  UNL     1     -33.779   6.905   3.269  1.00 20.00    -0.012 C 
HETATM    3  C4  UNL     1     -32.165   8.615   3.232  1.00 20.00     0.022 C 
HETATM    4  C5  UNL     1     -33.449   8.182   3.969  1.00 20.00     0.019 C 
HETATM    5  C6  UNL     1     -32.204   7.922   1.850  1.00 20.00    -0.029 C 
HETATM    6  C8  UNL     1     -33.213   8.051   5.470  1.00 20.00     0.015 C 
HETATM    7  C9  UNL     1     -32.814   8.835   0.780  1.00 20.00     0.019 C 
HETATM    8  C10 UNL     1     -30.808   7.466   1.422  1.00 20.00     0.019 C 
ENDROOT
BRANCH   2   9
HETATM    9  C3  UNL     1     -34.764   5.934   3.718  1.00 20.00     0.151 C 
HETATM   10  C7  UNL     1     -34.293   4.540   4.073  1.00 20.00     0.096 C 
HETATM   11  O11 UNL     1     -35.963   6.233   3.805  1.00 20.00    -0.293 OA
ENDBRANCH   2   9
TORSDOF 1
ENDMDL
MODEL 4
REMARK VINA RESULT:       0.8      1.827      3.883
REMARK  1 active torsions:
REMARK  status: ('A' for Active; 'I' for Inactive)
REMARK    1  A    between atoms: C2_2  and  C3_3 
ROOT
HETATM    1  C1  UNL     1     -33.810   7.376   3.548  1.00 20.00    -0.007 C 
HETATM    2  C2  UNL     1     -32.957   7.310   2.520  1.00 20.00    -0.012 C 
HETATM    3  C4  UNL     1     -34.050   5.229   2.580  1.00 20.00     0.022 C 
HETATM    4  C5  UNL     1     -33.161   6.099   1.669  1.00 20.00     0.019 C 
HETATM    5  C6  UNL     1     -34.749   6.199   3.560  1.00 20.00    -0.029 C 
HETATM    6  C8  UNL     1     -31.883   5.368   1.273  1.00 20.00     0.015 C 
HETATM    7  C9  UNL     1     -36.134   6.616   3.048  1.00 20.00     0.019 C 
HETATM    8  C10 UNL     1     -34.866   5.585   4.956  1.00 20.00     0.019 C 
ENDROOT
BRANCH   2   9
HETATM    9  C3  UNL     1     -31.989   8.363   2.259  1.00 20.00     0.151 C 
HETATM   10  C7  UNL     1     -32.033   9.069   0.921  1.00 20.00     0.096 C 
HETATM   11  O11 UNL     1     -31.142   8.678   3.108  1.00 20.00    -0.293 OA
ENDBRANCH   2   9
TORSDOF 1
ENDMDL
MODEL 5
REMARK VINA RESULT:       0.9      1.469      3.122
REMARK  1 active torsions:
REMARK  status: ('A' for Active; 'I' for Inactive)
REMARK    1  A    between atoms: C2_2  and  C3_3 
ROOT
HETATM    1  C1  UNL     1     -33.313   5.480   2.419  1.00 20.00    -0.007 C 
HETATM    2  C2  UNL     1     -33.465   6.725   2.881  1.00 20.00    -0.012 C 
HETATM    3  C4  UNL     1     -31.859   6.868   1.169  1.00 20.00     0.022 C 
HETATM    4  C5  UNL     1     -32.784   7.749   2.032  1.00 20.00     0.019 C 
HETATM    5  C6  UNL     1     -32.490   5.456   1.158  1.00 20.00    -0.029 C 
HETATM    6  C8  UNL     1     -31.993   8.800   2.802  1.00 20.00     0.015 C 
HETATM    7  C9  UNL     1     -33.392   5.252  -0.065  1.00 20.00     0.019 C 
HETATM    8  C10 UNL     1     -31.414   4.370   1.207  1.00 20.00     0.019 C 
ENDROOT
BRANCH   2   9
HETATM    9  C3  UNL     1     -34.272   7.013   4.055  1.00 20.00     0.151 C 
HETATM   10  C7  UNL     1     -35.470   6.133   4.341  1.00 20.00     0.096 C 
HETATM   11  O11 UNL     1     -33.995   7.960   4.804  1.00 20.00    -0.293 OA
ENDBRANCH   2   9
TORSDOF 1
ENDMDL
MODEL 6
REMARK VINA RESULT:       0.9      2.184      3.829
REMARK  1 active torsions:
REMARK  status: ('A' for Active; 'I' for Inactive)
REMARK    1  A    between atoms: C2_2  and  C3_3 
ROOT
HETATM    1  C1  UNL     1     -33.165   8.407   2.820  1.00 20.00    -0.007 C 
HETATM    2  C2  UNL     1     -32.638   7.867   1.716  1.00 20.00    -0.012 C 
HETATM    3  C4  UNL     1     -33.311   6.056   3.058  1.00 20.00     0.022 C 
HETATM    4  C5  UNL     1     -32.872   6.394   1.619  1.00 20.00     0.019 C 
HETATM    5  C6  UNL     1     -33.855   7.370   3.666  1.00 20.00    -0.029 C 
HETATM    6  C8  UNL     1     -31.656   5.576   1.200  1.00 20.00     0.015 C 
HETATM    7  C9  UNL     1     -35.377   7.476   3.506  1.00 20.00     0.019 C 
HETATM    8  C10 UNL     1     -33.470   7.497   5.141  1.00 20.00     0.019 C 
ENDROOT
BRANCH   2   9
HETATM    9  C3  UNL     1     -31.972   8.677   0.710  1.00 20.00     0.151 C 
HETATM   10  C7  UNL     1     -32.639   9.957   0.256  1.00 20.00     0.096 C 
HETATM   11  O11 UNL     1     -30.885   8.330   0.227  1.00 20.00    -0.293 OA
ENDBRANCH   2   9
TORSDOF 1
ENDMDL
MODEL 7
REMARK VINA RESULT:       1.6      1.374      1.419
REMARK  1 active torsions:
REMARK  status: ('A' for Active; 'I' for Inactive)
REMARK    1  A    between atoms: C2_2  and  C3_3 
ROOT
HETATM    1  C1  UNL     1     -32.957   8.478   2.543  1.00 20.00    -0.007 C 
HETATM    2  C2  UNL     1     -33.372   7.285   2.981  1.00 20.00    -0.012 C 
HETATM    3  C4  UNL     1     -32.127   6.856   1.032  1.00 20.00     0.022 C 
HETATM    4  C5  UNL     1     -32.731   6.144   2.260  1.00 20.00     0.019 C 
HETATM    5  C6  UNL     1     -31.949   8.338   1.434  1.00 20.00    -0.029 C 
HETATM    6  C8  UNL     1     -33.683   5.028   1.846  1.00 20.00     0.015 C 
HETATM    7  C9  UNL     1     -30.534   8.612   1.960  1.00 20.00     0.019 C 
HETATM    8  C10 UNL     1     -32.265   9.269   0.262  1.00 20.00     0.019 C 
ENDROOT
BRANCH   2   9
HETATM    9  C3  UNL     1     -34.303   7.158   4.091  1.00 20.00     0.151 C 
HETATM   10  C7  UNL     1     -35.426   6.150   3.979  1.00 20.00     0.096 C 
HETATM   11  O11 UNL     1     -34.187   7.860   5.105  1.00 20.00    -0.293 OA
ENDBRANCH   2   9
TORSDOF 1
ENDMDL
MODEL 8
REMARK VINA RESULT:       1.9      2.141      3.668
REMARK  1 active torsions:
REMARK  status: ('A' for Active; 'I' for Inactive)
REMARK    1  A    between atoms: C2_2  and  C3_3 
ROOT
HETATM    1  C1  UNL     1     -33.579   6.667   2.671  1.00 20.00    -0.007 C 
HETATM    2  C2  UNL     1     -33.306   5.377   2.445  1.00 20.00    -0.012 C 
HETATM    3  C4  UNL     1     -34.526   5.431   4.454  1.00 20.00     0.022 C 
HETATM    4  C5  UNL     1     -34.040   4.456   3.363  1.00 20.00     0.019 C 
HETATM    5  C6  UNL     1     -34.561   6.832   3.800  1.00 20.00    -0.029 C 
HETATM    6  C8  UNL     1     -33.197   3.332   3.955  1.00 20.00     0.015 C 
HETATM    7  C9  UNL     1     -35.955   7.162   3.251  1.00 20.00     0.019 C 
HETATM    8  C10 UNL     1     -34.112   7.913   4.785  1.00 20.00     0.019 C 
ENDROOT
BRANCH   2   9
HETATM    9  C3  UNL     1     -32.429   4.959   1.363  1.00 20.00     0.151 C 
HETATM   10  C7  UNL     1     -33.053   4.396   0.104  1.00 20.00     0.096 C 
HETATM   11  O11 UNL     1     -31.198   5.053   1.466  1.00 20.00    -0.293 OA
ENDBRANCH   2   9
TORSDOF 1
ENDMDL
MODEL 9
REMARK VINA RESULT:       2.0      1.987      3.973
REMARK  1 active torsions:
REMARK  status: ('A' for Active; 'I' for Inactive)
REMARK    1  A    between atoms: C2_2  and  C3_3 
ROOT
HETATM    1  C1  UNL     1     -32.257   6.699   0.848  1.00 20.00    -0.007 C 
HETATM    2  C2  UNL     1     -32.461   7.511   1.891  1.00 20.00    -0.012 C 
HETATM    3  C4  UNL     1     -33.480   5.469   2.460  1.00 20.00     0.022 C 
HETATM    4  C5  UNL     1     -33.018   6.802   3.082  1.00 20.00     0.019 C 
HETATM    5  C6  UNL     1     -32.649   5.281   1.170  1.00 20.00    -0.029 C 
HETATM    6  C8  UNL     1     -34.167   7.521   3.780  1.00 20.00     0.015 C 
HETATM    7  C9  UNL     1     -31.400   4.428   1.425  1.00 20.00     0.019 C 
HETATM    8  C10 UNL     1     -33.492   4.662   0.054  1.00 20.00     0.019 C 
ENDROOT
BRANCH   2   9
HETATM    9  C3  UNL     1     -32.103   8.920   1.846  1.00 20.00     0.151 C 
HETATM   10  C7  UNL     1     -32.444   9.712   0.602  1.00 20.00     0.096 C 
HETATM   11  O11 UNL     1     -31.527   9.464   2.798  1.00 20.00    -0.293 OA
ENDBRANCH   2   9
TORSDOF 1
ENDMDL
