MODEL 1
REMARK VINA RESULT:      -0.5      0.000      0.000
REMARK  1 active torsions:
REMARK  status: ('A' for Active; 'I' for Inactive)
REMARK    1  A    between atoms: C1_1  and  C7_7 
ROOT
HETATM    1  C2  UNL     1     -33.302   8.456   3.761  1.00 20.00     0.004 C 
HETATM    2  C3  UNL     1     -32.281   7.913   2.769  1.00 20.00     0.037 C 
HETATM    3  C4  UNL     1     -33.969   7.331   4.555  1.00 20.00     0.016 C 
HETATM    4  C5  UNL     1     -33.547   5.735   2.636  1.00 20.00     0.053 C 
HETATM    5  C6  UNL     1     -32.892   6.866   1.850  1.00 20.00     0.171 C 
HETATM    6  C7  UNL     1     -34.581   6.233   3.662  1.00 20.00     0.012 C 
HETATM    7  C8  UNL     1     -35.862   6.723   2.973  1.00 20.00     0.023 C 
HETATM    8  F10 UNL     1     -31.902   6.337   1.079  1.00 20.00    -0.249 F 
ENDROOT
BRANCH   6   9
HETATM    9  C1  UNL     1     -34.975   5.073   4.540  1.00 20.00     0.240 C 
HETATM   10  O9  UNL     1     -34.434   3.973   4.490  1.00 20.00    -0.306 OA
ENDBRANCH   6   9
TORSDOF 1
ENDMDL
MODEL 2
REMARK VINA RESULT:      -0.2      2.745      3.967
REMARK  1 active torsions:
REMARK  status: ('A' for Active; 'I' for Inactive)
REMARK    1  A    between atoms: C1_1  and  C7_7 
ROOT
HETATM    1  C2  UNL     1     -33.777   7.013   3.594  1.00 20.00     0.004 C 
HETATM    2  C3  UNL     1     -33.783   5.817   2.651  1.00 20.00     0.037 C 
HETATM    3  C4  UNL     1     -33.589   8.328   2.835  1.00 20.00     0.016 C 
HETATM    4  C5  UNL     1     -32.354   7.088   1.005  1.00 20.00     0.053 C 
HETATM    5  C6  UNL     1     -32.539   5.785   1.776  1.00 20.00     0.171 C 
HETATM    6  C7  UNL     1     -32.352   8.330   1.914  1.00 20.00     0.012 C 
HETATM    7  C8  UNL     1     -31.053   8.429   2.725  1.00 20.00     0.023 C 
HETATM    8  F10 UNL     1     -32.668   4.769   0.878  1.00 20.00    -0.249 F 
ENDROOT
BRANCH   6   9
HETATM    9  C1  UNL     1     -32.413   9.557   1.041  1.00 20.00     0.240 C 
HETATM   10  O9  UNL     1     -32.427   9.514  -0.185  1.00 20.00    -0.306 OA
ENDBRANCH   6   9
TORSDOF 1
ENDMDL
MODEL 3
REMARK VINA RESULT:      -0.1      0.899      1.013
REMARK  1 active torsions:
REMARK  status: ('A' for Active; 'I' for Inactive)
REMARK    1  A    between atoms: C1_1  and  C7_7 
ROOT
HETATM    1  C2  UNL     1     -32.756   8.145   2.626  1.00 20.00     0.004 C 
HETATM    2  C3  UNL     1     -31.995   7.097   1.823  1.00 20.00     0.037 C 
HETATM    3  C4  UNL     1     -33.486   7.521   3.816  1.00 20.00     0.016 C 
HETATM    4  C5  UNL     1     -33.621   5.320   2.572  1.00 20.00     0.053 C 
HETATM    5  C6  UNL     1     -32.901   5.955   1.388  1.00 20.00     0.171 C 
HETATM    6  C7  UNL     1     -34.398   6.341   3.424  1.00 20.00     0.012 C 
HETATM    7  C8  UNL     1     -35.660   6.827   2.700  1.00 20.00     0.023 C 
HETATM    8  F10 UNL     1     -32.136   5.001   0.788  1.00 20.00    -0.249 F 
ENDROOT
BRANCH   6   9
HETATM    9  C1  UNL     1     -34.856   5.655   4.685  1.00 20.00     0.240 C 
HETATM   10  O9  UNL     1     -35.720   4.786   4.707  1.00 20.00    -0.306 OA
ENDBRANCH   6   9
TORSDOF 1
ENDMDL
MODEL 4
REMARK VINA RESULT:       0.4      2.698      3.956
REMARK  1 active torsions:
REMARK  status: ('A' for Active; 'I' for Inactive)
REMARK    1  A    between atoms: C1_1  and  C7_7 
ROOT
HETATM    1  C2  UNL     1     -33.537   3.984   3.272  1.00 20.00     0.004 C 
HETATM    2  C3  UNL     1     -34.370   4.716   4.317  1.00 20.00     0.037 C 
HETATM    3  C4  UNL     1     -32.470   4.896   2.663  1.00 20.00     0.016 C 
HETATM    4  C5  UNL     1     -33.917   6.913   3.161  1.00 20.00     0.053 C 
HETATM    5  C6  UNL     1     -34.978   5.994   3.757  1.00 20.00     0.171 C 
HETATM    6  C7  UNL     1     -33.040   6.216   2.105  1.00 20.00     0.012 C 
HETATM    7  C8  UNL     1     -33.813   5.983   0.801  1.00 20.00     0.023 C 
HETATM    8  F10 UNL     1     -35.601   6.656   4.771  1.00 20.00    -0.249 F 
ENDROOT
BRANCH   6   9
HETATM    9  C1  UNL     1     -31.886   7.127   1.771  1.00 20.00     0.240 C 
HETATM   10  O9  UNL     1     -32.024   8.302   1.448  1.00 20.00    -0.306 OA
ENDBRANCH   6   9
TORSDOF 1
ENDMDL
MODEL 5
REMARK VINA RESULT:       0.5      2.456      3.607
REMARK  1 active torsions:
REMARK  status: ('A' for Active; 'I' for Inactive)
REMARK    1  A    between atoms: C1_1  and  C7_7 
ROOT
HETATM    1  C2  UNL     1     -35.612   6.376   4.250  1.00 20.00     0.004 C 
HETATM    2  C3  UNL     1     -35.283   4.889   4.282  1.00 20.00     0.037 C 
HETATM    3  C4  UNL     1     -34.913   7.083   3.087  1.00 20.00     0.016 C 
HETATM    4  C5  UNL     1     -33.079   5.337   3.137  1.00 20.00     0.053 C 
HETATM    5  C6  UNL     1     -33.781   4.646   4.301  1.00 20.00     0.171 C 
HETATM    6  C7  UNL     1     -33.390   6.843   3.054  1.00 20.00     0.012 C 
HETATM    7  C8  UNL     1     -32.677   7.624   4.166  1.00 20.00     0.023 C 
HETATM    8  F10 UNL     1     -33.558   3.306   4.204  1.00 20.00    -0.249 F 
ENDROOT
BRANCH   6   9
HETATM    9  C1  UNL     1     -32.856   7.366   1.744  1.00 20.00     0.240 C 
HETATM   10  O9  UNL     1     -31.733   7.841   1.613  1.00 20.00    -0.306 OA
ENDBRANCH   6   9
TORSDOF 1
ENDMDL
MODEL 6
REMARK VINA RESULT:       0.5      1.646      2.517
REMARK  1 active torsions:
REMARK  status: ('A' for Active; 'I' for Inactive)
REMARK    1  A    between atoms: C1_1  and  C7_7 
ROOT
HETATM    1  C2  UNL     1     -31.923   5.918   1.935  1.00 20.00     0.004 C 
HETATM    2  C3  UNL     1     -31.877   7.120   1.000  1.00 20.00     0.037 C 
HETATM    3  C4  UNL     1     -33.292   5.777   2.604  1.00 20.00     0.016 C 
HETATM    4  C5  UNL     1     -33.656   8.272   2.368  1.00 20.00     0.053 C 
HETATM    5  C6  UNL     1     -32.286   8.401   1.711  1.00 20.00     0.171 C 
HETATM    6  C7  UNL     1     -33.758   7.063   3.316  1.00 20.00     0.012 C 
HETATM    7  C8  UNL     1     -32.971   7.300   4.612  1.00 20.00     0.023 C 
HETATM    8  F10 UNL     1     -32.343   9.405   0.792  1.00 20.00    -0.249 F 
ENDROOT
BRANCH   6   9
HETATM    9  C1  UNL     1     -35.203   6.890   3.710  1.00 20.00     0.240 C 
HETATM   10  O9  UNL     1     -35.629   5.904   4.302  1.00 20.00    -0.306 OA
ENDBRANCH   6   9
TORSDOF 1
ENDMDL
MODEL 7
REMARK VINA RESULT:       0.6      2.904      3.948
REMARK  1 active torsions:
REMARK  status: ('A' for Active; 'I' for Inactive)
REMARK    1  A    between atoms: C1_1  and  C7_7 
ROOT
HETATM    1  C2  UNL     1     -32.543   8.097   4.544  1.00 20.00     0.004 C 
HETATM    2  C3  UNL     1     -34.002   7.664   4.608  1.00 20.00     0.037 C 
HETATM    3  C4  UNL     1     -32.184   8.667   3.171  1.00 20.00     0.016 C 
HETATM    4  C5  UNL     1     -34.006   7.259   2.118  1.00 20.00     0.053 C 
HETATM    5  C6  UNL     1     -34.349   6.691   3.491  1.00 20.00     0.171 C 
HETATM    6  C7  UNL     1     -32.542   7.722   2.005  1.00 20.00     0.012 C 
HETATM    7  C8  UNL     1     -31.581   6.529   1.939  1.00 20.00     0.023 C 
HETATM    8  F10 UNL     1     -35.688   6.445   3.533  1.00 20.00    -0.249 F 
ENDROOT
BRANCH   6   9
HETATM    9  C1  UNL     1     -32.383   8.482   0.713  1.00 20.00     0.240 C 
HETATM   10  O9  UNL     1     -32.432   9.705   0.638  1.00 20.00    -0.306 OA
ENDBRANCH   6   9
TORSDOF 1
ENDMDL
MODEL 8
REMARK VINA RESULT:       0.7      1.603      2.460
REMARK  1 active torsions:
REMARK  status: ('A' for Active; 'I' for Inactive)
REMARK    1  A    between atoms: C1_1  and  C7_7 
ROOT
HETATM    1  C2  UNL     1     -32.558   6.635   1.215  1.00 20.00     0.004 C 
HETATM    2  C3  UNL     1     -32.003   7.915   1.828  1.00 20.00     0.037 C 
HETATM    3  C4  UNL     1     -33.926   6.278   1.799  1.00 20.00     0.016 C 
HETATM    4  C5  UNL     1     -33.323   7.494   3.937  1.00 20.00     0.053 C 
HETATM    5  C6  UNL     1     -31.959   7.837   3.347  1.00 20.00     0.171 C 
HETATM    6  C7  UNL     1     -33.933   6.213   3.340  1.00 20.00     0.012 C 
HETATM    7  C8  UNL     1     -33.210   4.959   3.849  1.00 20.00     0.023 C 
HETATM    8  F10 UNL     1     -31.573   9.050   3.831  1.00 20.00    -0.249 F 
ENDROOT
BRANCH   6   9
HETATM    9  C1  UNL     1     -35.363   6.108   3.804  1.00 20.00     0.240 C 
HETATM   10  O9  UNL     1     -35.767   5.230   4.559  1.00 20.00    -0.306 OA
ENDBRANCH   6   9
TORSDOF 1
ENDMDL
MODEL 9
REMARK VINA RESULT:       0.8      2.296      3.194
REMARK  1 active torsions:
REMARK  status: ('A' for Active; 'I' for Inactive)
REMARK    1  A    between atoms: C1_1  and  C7_7 
ROOT
HETATM    1  C2  UNL     1     -34.283   6.428   3.467  1.00 20.00     0.004 C 
HETATM    2  C3  UNL     1     -33.435   7.675   3.684  1.00 20.00     0.037 C 
HETATM    3  C4  UNL     1     -33.467   5.293   2.847  1.00 20.00     0.016 C 
HETATM    4  C5  UNL     1     -31.920   6.993   1.785  1.00 20.00     0.053 C 
HETATM    5  C6  UNL     1     -32.747   8.117   2.401  1.00 20.00     0.171 C 
HETATM    6  C7  UNL     1     -32.731   5.704   1.556  1.00 20.00     0.012 C 
HETATM    7  C8  UNL     1     -33.707   5.858   0.382  1.00 20.00     0.023 C 
HETATM    8  F10 UNL     1     -31.913   9.154   2.692  1.00 20.00    -0.249 F 
ENDROOT
BRANCH   6   9
HETATM    9  C1  UNL     1     -31.774   4.601   1.184  1.00 20.00     0.240 C 
HETATM   10  O9  UNL     1     -31.604   4.213   0.033  1.00 20.00    -0.306 OA
ENDBRANCH   6   9
TORSDOF 1
ENDMDL
