MODEL 1
REMARK VINA RESULT:      -2.2      0.000      0.000
REMARK  2 active torsions:
REMARK  status: ('A' for Active; 'I' for Inactive)
REMARK    1  A    between atoms: C4_4  and  O11_11 
REMARK    2  A    between atoms: C10_10  and  O11_11 
ROOT
HETATM    1  C1  UNL     1     -33.216   7.519   3.043  1.00 20.00    -0.075 C 
HETATM    2  C2  UNL     1     -33.238   6.350   2.415  1.00 20.00    -0.049 C 
HETATM    3  C5  UNL     1     -32.271   8.482   2.448  1.00 20.00     0.034 C 
HETATM    4  C6  UNL     1     -34.213   7.623   4.123  1.00 20.00     0.037 C 
HETATM    5  C7  UNL     1     -32.313   6.286   1.268  1.00 20.00     0.037 C 
HETATM    6  C8  UNL     1     -31.499   7.582   1.460  1.00 20.00     0.009 C 
HETATM    7  C9  UNL     1     -34.698   6.162   4.232  1.00 20.00     0.041 C 
HETATM    8  C10 UNL     1     -34.264   5.430   2.943  1.00 20.00     0.157 C 
ENDROOT
BRANCH   8   9
HETATM    9  O11 UNL     1     -33.703   4.166   3.237  1.00 20.00    -0.354 OA
BRANCH   9  10
HETATM   10  C4  UNL     1     -33.828   3.769   4.499  1.00 20.00     0.125 C 
HETATM   11  C3  UNL     1     -33.042   2.873   5.101  1.00 20.00     0.037 C 
ENDBRANCH   9  10
ENDBRANCH   8   9
TORSDOF 2
ENDMDL
MODEL 2
REMARK VINA RESULT:      -1.0      1.864      4.681
REMARK  2 active torsions:
REMARK  status: ('A' for Active; 'I' for Inactive)
REMARK    1  A    between atoms: C4_4  and  O11_11 
REMARK    2  A    between atoms: C10_10  and  O11_11 
ROOT
HETATM    1  C1  UNL     1     -33.419   5.237   2.822  1.00 20.00    -0.075 C 
HETATM    2  C2  UNL     1     -33.695   6.527   2.668  1.00 20.00    -0.049 C 
HETATM    3  C5  UNL     1     -34.261   4.579   3.837  1.00 20.00     0.034 C 
HETATM    4  C6  UNL     1     -32.408   4.737   1.873  1.00 20.00     0.037 C 
HETATM    5  C7  UNL     1     -34.780   7.000   3.548  1.00 20.00     0.037 C 
HETATM    6  C8  UNL     1     -34.960   5.791   4.489  1.00 20.00     0.009 C 
HETATM    7  C9  UNL     1     -31.894   6.054   1.253  1.00 20.00     0.041 C 
HETATM    8  C10 UNL     1     -32.929   7.155   1.575  1.00 20.00     0.157 C 
ENDROOT
BRANCH   8   9
HETATM    9  O11 UNL     1     -32.294   8.338   2.021  1.00 20.00    -0.354 OA
BRANCH   9  10
HETATM   10  C4  UNL     1     -31.804   9.116   1.061  1.00 20.00     0.125 C 
HETATM   11  C3  UNL     1     -32.538   9.853   0.225  1.00 20.00     0.037 C 
ENDBRANCH   9  10
ENDBRANCH   8   9
TORSDOF 2
ENDMDL
MODEL 3
REMARK VINA RESULT:      -0.1      2.306      4.544
REMARK  2 active torsions:
REMARK  status: ('A' for Active; 'I' for Inactive)
REMARK    1  A    between atoms: C4_4  and  O11_11 
REMARK    2  A    between atoms: C10_10  and  O11_11 
ROOT
HETATM    1  C1  UNL     1     -33.329   7.710   3.986  1.00 20.00    -0.075 C 
HETATM    2  C2  UNL     1     -33.093   7.177   2.793  1.00 20.00    -0.049 C 
HETATM    3  C5  UNL     1     -34.495   7.118   4.668  1.00 20.00     0.034 C 
HETATM    4  C6  UNL     1     -32.315   8.696   4.398  1.00 20.00     0.037 C 
HETATM    5  C7  UNL     1     -34.050   6.116   2.429  1.00 20.00     0.037 C 
HETATM    6  C8  UNL     1     -35.112   6.268   3.537  1.00 20.00     0.009 C 
HETATM    7  C9  UNL     1     -31.520   8.882   3.087  1.00 20.00     0.041 C 
HETATM    8  C10 UNL     1     -31.863   7.693   2.163  1.00 20.00     0.157 C 
ENDROOT
BRANCH   8   9
HETATM    9  O11 UNL     1     -32.119   8.130   0.843  1.00 20.00    -0.354 OA
BRANCH   9  10
HETATM   10  C4  UNL     1     -32.288   9.441   0.700  1.00 20.00     0.125 C 
HETATM   11  C3  UNL     1     -32.681  10.045  -0.423  1.00 20.00     0.037 C 
ENDBRANCH   9  10
ENDBRANCH   8   9
TORSDOF 2
ENDMDL
MODEL 4
REMARK VINA RESULT:      -0.0      2.248      4.538
REMARK  2 active torsions:
REMARK  status: ('A' for Active; 'I' for Inactive)
REMARK    1  A    between atoms: C4_4  and  O11_11 
REMARK    2  A    between atoms: C10_10  and  O11_11 
ROOT
HETATM    1  C1  UNL     1     -33.284   6.533   2.742  1.00 20.00    -0.075 C 
HETATM    2  C2  UNL     1     -32.317   6.725   1.853  1.00 20.00    -0.049 C 
HETATM    3  C5  UNL     1     -33.867   5.180   2.685  1.00 20.00     0.034 C 
HETATM    4  C6  UNL     1     -33.482   7.678   3.649  1.00 20.00     0.037 C 
HETATM    5  C7  UNL     1     -32.050   5.541   1.016  1.00 20.00     0.037 C 
HETATM    6  C8  UNL     1     -33.240   4.631   1.386  1.00 20.00     0.009 C 
HETATM    7  C9  UNL     1     -32.612   8.758   2.971  1.00 20.00     0.041 C 
HETATM    8  C10 UNL     1     -31.661   8.040   1.988  1.00 20.00     0.157 C 
ENDROOT
BRANCH   8   9
HETATM    9  O11 UNL     1     -31.614   8.709   0.743  1.00 20.00    -0.354 OA
BRANCH   9  10
HETATM   10  C4  UNL     1     -32.445   9.739   0.619  1.00 20.00     0.125 C 
HETATM   11  C3  UNL     1     -32.852  10.258  -0.541  1.00 20.00     0.037 C 
ENDBRANCH   9  10
ENDBRANCH   8   9
TORSDOF 2
ENDMDL
MODEL 5
REMARK VINA RESULT:       0.0      1.523      3.454
REMARK  2 active torsions:
REMARK  status: ('A' for Active; 'I' for Inactive)
REMARK    1  A    between atoms: C4_4  and  O11_11 
REMARK    2  A    between atoms: C10_10  and  O11_11 
ROOT
HETATM    1  C1  UNL     1     -33.426   7.509   3.249  1.00 20.00    -0.075 C 
HETATM    2  C2  UNL     1     -33.366   6.280   2.750  1.00 20.00    -0.049 C 
HETATM    3  C5  UNL     1     -34.410   7.649   4.337  1.00 20.00     0.034 C 
HETATM    4  C6  UNL     1     -32.424   8.425   2.673  1.00 20.00     0.037 C 
HETATM    5  C7  UNL     1     -34.297   5.341   3.402  1.00 20.00     0.037 C 
HETATM    6  C8  UNL     1     -35.157   6.301   4.250  1.00 20.00     0.009 C 
HETATM    7  C9  UNL     1     -31.886   7.585   1.495  1.00 20.00     0.041 C 
HETATM    8  C10 UNL     1     -32.303   6.118   1.740  1.00 20.00     0.157 C 
ENDROOT
BRANCH   8   9
HETATM    9  O11 UNL     1     -32.816   5.530   0.561  1.00 20.00    -0.354 OA
BRANCH   9  10
HETATM   10  C4  UNL     1     -32.376   4.303   0.300  1.00 20.00     0.125 C 
HETATM   11  C3  UNL     1     -31.114   3.991  -0.004  1.00 20.00     0.037 C 
ENDBRANCH   9  10
ENDBRANCH   8   9
TORSDOF 2
ENDMDL
MODEL 6
REMARK VINA RESULT:       0.0      1.521      3.572
REMARK  2 active torsions:
REMARK  status: ('A' for Active; 'I' for Inactive)
REMARK    1  A    between atoms: C4_4  and  O11_11 
REMARK    2  A    between atoms: C10_10  and  O11_11 
ROOT
HETATM    1  C1  UNL     1     -33.428   7.326   3.075  1.00 20.00    -0.075 C 
HETATM    2  C2  UNL     1     -33.315   6.042   2.757  1.00 20.00    -0.049 C 
HETATM    3  C5  UNL     1     -34.448   7.583   4.108  1.00 20.00     0.034 C 
HETATM    4  C6  UNL     1     -32.439   8.186   2.400  1.00 20.00     0.037 C 
HETATM    5  C7  UNL     1     -34.236   5.172   3.512  1.00 20.00     0.037 C 
HETATM    6  C8  UNL     1     -35.149   6.211   4.194  1.00 20.00     0.009 C 
HETATM    7  C9  UNL     1     -31.840   7.208   1.366  1.00 20.00     0.041 C 
HETATM    8  C10 UNL     1     -32.219   5.777   1.806  1.00 20.00     0.157 C 
ENDROOT
BRANCH   8   9
HETATM    9  O11 UNL     1     -32.678   5.011   0.710  1.00 20.00    -0.354 OA
BRANCH   9  10
HETATM   10  C4  UNL     1     -33.780   5.464   0.122  1.00 20.00     0.125 C 
HETATM   11  C3  UNL     1     -34.560   4.752  -0.695  1.00 20.00     0.037 C 
ENDBRANCH   9  10
ENDBRANCH   8   9
TORSDOF 2
ENDMDL
MODEL 7
REMARK VINA RESULT:       0.1      2.085      3.394
REMARK  2 active torsions:
REMARK  status: ('A' for Active; 'I' for Inactive)
REMARK    1  A    between atoms: C4_4  and  O11_11 
REMARK    2  A    between atoms: C10_10  and  O11_11 
ROOT
HETATM    1  C1  UNL     1     -32.054   8.181   0.691  1.00 20.00    -0.075 C 
HETATM    2  C2  UNL     1     -32.602   8.785   1.738  1.00 20.00    -0.049 C 
HETATM    3  C5  UNL     1     -31.780   9.095  -0.433  1.00 20.00     0.034 C 
HETATM    4  C6  UNL     1     -31.751   6.758   0.928  1.00 20.00     0.037 C 
HETATM    5  C7  UNL     1     -32.808  10.231   1.534  1.00 20.00     0.037 C 
HETATM    6  C8  UNL     1     -32.515  10.372   0.026  1.00 20.00     0.009 C 
HETATM    7  C9  UNL     1     -32.476   6.511   2.269  1.00 20.00     0.041 C 
HETATM    8  C10 UNL     1     -32.771   7.890   2.898  1.00 20.00     0.157 C 
ENDROOT
BRANCH   8   9
HETATM    9  O11 UNL     1     -34.095   7.953   3.393  1.00 20.00    -0.354 OA
BRANCH   9  10
HETATM   10  C4  UNL     1     -34.439   6.973   4.222  1.00 20.00     0.125 C 
HETATM   11  C3  UNL     1     -35.444   6.118   4.021  1.00 20.00     0.037 C 
ENDBRANCH   9  10
ENDBRANCH   8   9
TORSDOF 2
ENDMDL
MODEL 8
REMARK VINA RESULT:       0.7      1.556      2.606
REMARK  2 active torsions:
REMARK  status: ('A' for Active; 'I' for Inactive)
REMARK    1  A    between atoms: C4_4  and  O11_11 
REMARK    2  A    between atoms: C10_10  and  O11_11 
ROOT
HETATM    1  C1  UNL     1     -32.138   7.129   1.232  1.00 20.00    -0.075 C 
HETATM    2  C2  UNL     1     -32.797   7.685   2.241  1.00 20.00    -0.049 C 
HETATM    3  C5  UNL     1     -31.468   8.112   0.362  1.00 20.00     0.034 C 
HETATM    4  C6  UNL     1     -32.142   5.656   1.271  1.00 20.00     0.037 C 
HETATM    5  C7  UNL     1     -32.704   9.157   2.258  1.00 20.00     0.037 C 
HETATM    6  C8  UNL     1     -32.059   9.438   0.885  1.00 20.00     0.009 C 
HETATM    7  C9  UNL     1     -33.182   5.383   2.379  1.00 20.00     0.041 C 
HETATM    8  C10 UNL     1     -33.373   6.695   3.171  1.00 20.00     0.157 C 
ENDROOT
BRANCH   8   9
HETATM    9  O11 UNL     1     -34.743   6.957   3.401  1.00 20.00    -0.354 OA
BRANCH   9  10
HETATM   10  C4  UNL     1     -35.376   6.060   4.149  1.00 20.00     0.125 C 
HETATM   11  C3  UNL     1     -34.892   4.861   4.480  1.00 20.00     0.037 C 
ENDBRANCH   9  10
ENDBRANCH   8   9
TORSDOF 2
ENDMDL
