MODEL 1
REMARK VINA RESULT:      -0.5      0.000      0.000
REMARK  2 active torsions:
REMARK  status: ('A' for Active; 'I' for Inactive)
REMARK    1  A    between atoms: C3_3  and  C4_4 
REMARK    2  A    between atoms: C5_5  and  C7_7 
ROOT
HETATM    1  C1  UNL     1     -32.811   5.437   1.462  1.00 20.00    -0.007 C 
HETATM    2  C2  UNL     1     -31.973   6.468   1.317  1.00 20.00     0.042 C 
HETATM    3  C4  UNL     1     -33.849   5.597   2.535  1.00 20.00     0.084 C 
HETATM    4  C5  UNL     1     -33.923   7.099   2.862  1.00 20.00     0.065 C 
HETATM    5  S9  UNL     1     -32.282   7.784   2.400  1.00 20.00    -0.136 SA
ENDROOT
BRANCH   3   6
HETATM    6  C3  UNL     1     -33.408   4.723   3.671  1.00 20.00     0.240 C 
HETATM    7  O8  UNL     1     -34.100   3.829   4.146  1.00 20.00    -0.306 OA
ENDBRANCH   3   6
BRANCH   4   8
HETATM    8  C7  UNL     1     -34.305   7.457   4.289  1.00 20.00     0.012 C 
HETATM    9  C6  UNL     1     -33.211   8.198   4.992  1.00 20.00     0.006 C 
ENDBRANCH   4   8
TORSDOF 2
ENDMDL
MODEL 2
REMARK VINA RESULT:      -0.4      2.241      3.287
REMARK  2 active torsions:
REMARK  status: ('A' for Active; 'I' for Inactive)
REMARK    1  A    between atoms: C3_3  and  C4_4 
REMARK    2  A    between atoms: C5_5  and  C7_7 
ROOT
HETATM    1  C1  UNL     1     -34.358   6.281   3.683  1.00 20.00    -0.007 C 
HETATM    2  C2  UNL     1     -33.852   5.223   3.043  1.00 20.00     0.042 C 
HETATM    3  C4  UNL     1     -33.792   7.611   3.274  1.00 20.00     0.084 C 
HETATM    4  C5  UNL     1     -33.105   7.402   1.913  1.00 20.00     0.065 C 
HETATM    5  S9  UNL     1     -32.655   5.622   1.858  1.00 20.00    -0.136 SA
ENDROOT
BRANCH   3   6
HETATM    6  C3  UNL     1     -32.878   8.032   4.387  1.00 20.00     0.240 C 
HETATM    7  O8  UNL     1     -33.275   8.371   5.496  1.00 20.00    -0.306 OA
ENDBRANCH   3   6
BRANCH   4   8
HETATM    8  C7  UNL     1     -31.912   8.298   1.620  1.00 20.00     0.012 C 
HETATM    9  C6  UNL     1     -32.248   9.371   0.632  1.00 20.00     0.006 C 
ENDBRANCH   4   8
TORSDOF 2
ENDMDL
MODEL 3
REMARK VINA RESULT:      -0.4      2.784      3.354
REMARK  2 active torsions:
REMARK  status: ('A' for Active; 'I' for Inactive)
REMARK    1  A    between atoms: C3_3  and  C4_4 
REMARK    2  A    between atoms: C5_5  and  C7_7 
ROOT
HETATM    1  C1  UNL     1     -31.420   7.102   1.256  1.00 20.00    -0.007 C 
HETATM    2  C2  UNL     1     -31.960   5.892   1.082  1.00 20.00     0.042 C 
HETATM    3  C4  UNL     1     -32.091   7.963   2.288  1.00 20.00     0.084 C 
HETATM    4  C5  UNL     1     -32.940   7.026   3.165  1.00 20.00     0.065 C 
HETATM    5  S9  UNL     1     -33.317   5.571   2.109  1.00 20.00    -0.136 SA
ENDROOT
BRANCH   3   6
HETATM    6  C3  UNL     1     -32.869   8.994   1.525  1.00 20.00     0.240 C 
HETATM    7  O8  UNL     1     -32.421   9.603   0.560  1.00 20.00    -0.306 OA
ENDBRANCH   3   6
BRANCH   4   8
HETATM    8  C7  UNL     1     -34.198   7.629   3.769  1.00 20.00     0.012 C 
HETATM    9  C6  UNL     1     -35.262   6.600   3.988  1.00 20.00     0.006 C 
ENDBRANCH   4   8
TORSDOF 2
ENDMDL
MODEL 4
REMARK VINA RESULT:      -0.2      2.189      3.704
REMARK  2 active torsions:
REMARK  status: ('A' for Active; 'I' for Inactive)
REMARK    1  A    between atoms: C3_3  and  C4_4 
REMARK    2  A    between atoms: C5_5  and  C7_7 
ROOT
HETATM    1  C1  UNL     1     -35.343   6.162   4.295  1.00 20.00    -0.007 C 
HETATM    2  C2  UNL     1     -34.979   4.896   4.523  1.00 20.00     0.042 C 
HETATM    3  C4  UNL     1     -34.545   6.881   3.246  1.00 20.00     0.084 C 
HETATM    4  C5  UNL     1     -33.821   5.803   2.420  1.00 20.00     0.065 C 
HETATM    5  S9  UNL     1     -33.664   4.352   3.536  1.00 20.00    -0.136 SA
ENDROOT
BRANCH   3   6
HETATM    6  C3  UNL     1     -33.643   7.824   3.986  1.00 20.00     0.240 C 
HETATM    7  O8  UNL     1     -33.746   8.060   5.184  1.00 20.00    -0.306 OA
ENDBRANCH   3   6
BRANCH   4   8
HETATM    8  C7  UNL     1     -32.483   6.204   1.819  1.00 20.00     0.012 C 
HETATM    9  C6  UNL     1     -31.903   5.116   0.971  1.00 20.00     0.006 C 
ENDBRANCH   4   8
TORSDOF 2
ENDMDL
MODEL 5
REMARK VINA RESULT:       0.1      2.010      2.558
REMARK  2 active torsions:
REMARK  status: ('A' for Active; 'I' for Inactive)
REMARK    1  A    between atoms: C3_3  and  C4_4 
REMARK    2  A    between atoms: C5_5  and  C7_7 
ROOT
HETATM    1  C1  UNL     1     -31.987   7.820   1.520  1.00 20.00    -0.007 C 
HETATM    2  C2  UNL     1     -31.900   8.532   2.648  1.00 20.00     0.042 C 
HETATM    3  C4  UNL     1     -32.897   6.627   1.582  1.00 20.00     0.084 C 
HETATM    4  C5  UNL     1     -33.812   6.827   2.803  1.00 20.00     0.065 C 
HETATM    5  S9  UNL     1     -32.878   7.925   3.942  1.00 20.00    -0.136 SA
ENDROOT
BRANCH   3   6
HETATM    6  C3  UNL     1     -32.001   5.426   1.652  1.00 20.00     0.240 C 
HETATM    7  O8  UNL     1     -31.684   4.760   0.673  1.00 20.00    -0.306 OA
ENDBRANCH   3   6
BRANCH   4   8
HETATM    8  C7  UNL     1     -34.289   5.562   3.499  1.00 20.00     0.012 C 
HETATM    9  C6  UNL     1     -35.487   5.815   4.358  1.00 20.00     0.006 C 
ENDBRANCH   4   8
TORSDOF 2
ENDMDL
MODEL 6
REMARK VINA RESULT:       0.1      1.728      2.865
REMARK  2 active torsions:
REMARK  status: ('A' for Active; 'I' for Inactive)
REMARK    1  A    between atoms: C3_3  and  C4_4 
REMARK    2  A    between atoms: C5_5  and  C7_7 
ROOT
HETATM    1  C1  UNL     1     -32.972   7.644   2.798  1.00 20.00    -0.007 C 
HETATM    2  C2  UNL     1     -32.513   7.135   1.651  1.00 20.00     0.042 C 
HETATM    3  C4  UNL     1     -33.539   6.643   3.764  1.00 20.00     0.084 C 
HETATM    4  C5  UNL     1     -33.019   5.261   3.330  1.00 20.00     0.065 C 
HETATM    5  S9  UNL     1     -32.659   5.413   1.535  1.00 20.00    -0.136 SA
ENDROOT
BRANCH   3   6
HETATM    6  C3  UNL     1     -35.029   6.807   3.702  1.00 20.00     0.240 C 
HETATM    7  O8  UNL     1     -35.816   6.074   4.292  1.00 20.00    -0.306 OA
ENDBRANCH   3   6
BRANCH   4   8
HETATM    8  C7  UNL     1     -33.927   4.078   3.628  1.00 20.00     0.012 C 
HETATM    9  C6  UNL     1     -33.315   3.139   4.619  1.00 20.00     0.006 C 
ENDBRANCH   4   8
TORSDOF 2
ENDMDL
MODEL 7
REMARK VINA RESULT:       0.7      2.031      3.025
REMARK  2 active torsions:
REMARK  status: ('A' for Active; 'I' for Inactive)
REMARK    1  A    between atoms: C3_3  and  C4_4 
REMARK    2  A    between atoms: C5_5  and  C7_7 
ROOT
HETATM    1  C1  UNL     1     -33.923   5.613   3.255  1.00 20.00    -0.007 C 
HETATM    2  C2  UNL     1     -34.561   6.688   3.727  1.00 20.00     0.042 C 
HETATM    3  C4  UNL     1     -32.761   5.902   2.349  1.00 20.00     0.084 C 
HETATM    4  C5  UNL     1     -32.368   7.371   2.582  1.00 20.00     0.065 C 
HETATM    5  S9  UNL     1     -33.890   8.195   3.199  1.00 20.00    -0.136 SA
ENDROOT
BRANCH   3   6
HETATM    6  C3  UNL     1     -33.231   5.585   0.960  1.00 20.00     0.240 C 
HETATM    7  O8  UNL     1     -32.810   4.640   0.302  1.00 20.00    -0.306 OA
ENDBRANCH   3   6
BRANCH   4   8
HETATM    8  C7  UNL     1     -31.769   8.103   1.392  1.00 20.00     0.012 C 
HETATM    9  C6  UNL     1     -32.598   9.280   0.986  1.00 20.00     0.006 C 
ENDBRANCH   4   8
TORSDOF 2
ENDMDL
MODEL 8
REMARK VINA RESULT:       0.9      1.469      3.164
REMARK  2 active torsions:
REMARK  status: ('A' for Active; 'I' for Inactive)
REMARK    1  A    between atoms: C3_3  and  C4_4 
REMARK    2  A    between atoms: C5_5  and  C7_7 
ROOT
HETATM    1  C1  UNL     1     -32.980   7.891   4.072  1.00 20.00    -0.007 C 
HETATM    2  C2  UNL     1     -32.352   8.697   3.210  1.00 20.00     0.042 C 
HETATM    3  C4  UNL     1     -33.377   6.549   3.525  1.00 20.00     0.084 C 
HETATM    4  C5  UNL     1     -32.545   6.324   2.250  1.00 20.00     0.065 C 
HETATM    5  S9  UNL     1     -32.115   8.004   1.641  1.00 20.00    -0.136 SA
ENDROOT
BRANCH   3   6
HETATM    6  C3  UNL     1     -34.860   6.612   3.310  1.00 20.00     0.240 C 
HETATM    7  O8  UNL     1     -35.678   6.124   4.082  1.00 20.00    -0.306 OA
ENDBRANCH   3   6
BRANCH   4   8
HETATM    8  C7  UNL     1     -33.193   5.477   1.166  1.00 20.00     0.012 C 
HETATM    9  C6  UNL     1     -32.194   4.616   0.459  1.00 20.00     0.006 C 
ENDBRANCH   4   8
TORSDOF 2
ENDMDL
MODEL 9
REMARK VINA RESULT:       1.6      2.709      3.156
REMARK  2 active torsions:
REMARK  status: ('A' for Active; 'I' for Inactive)
REMARK    1  A    between atoms: C3_3  and  C4_4 
REMARK    2  A    between atoms: C5_5  and  C7_7 
ROOT
HETATM    1  C1  UNL     1     -32.298   6.069   1.041  1.00 20.00    -0.007 C 
HETATM    2  C2  UNL     1     -33.341   5.295   1.359  1.00 20.00     0.042 C 
HETATM    3  C4  UNL     1     -32.113   7.284   1.904  1.00 20.00     0.084 C 
HETATM    4  C5  UNL     1     -32.926   7.047   3.189  1.00 20.00     0.065 C 
HETATM    5  S9  UNL     1     -34.249   5.861   2.721  1.00 20.00    -0.136 SA
ENDROOT
BRANCH   3   6
HETATM    6  C3  UNL     1     -32.563   8.452   1.077  1.00 20.00     0.240 C 
HETATM    7  O8  UNL     1     -31.820   9.363   0.731  1.00 20.00    -0.306 OA
ENDBRANCH   3   6
BRANCH   4   8
HETATM    8  C7  UNL     1     -33.488   8.286   3.866  1.00 20.00     0.012 C 
HETATM    9  C6  UNL     1     -33.015   8.414   5.280  1.00 20.00     0.006 C 
ENDBRANCH   4   8
TORSDOF 2
ENDMDL
