MODEL 1
REMARK VINA RESULT:      -2.1      0.000      0.000
REMARK  1 active torsions:
REMARK  status: ('A' for Active; 'I' for Inactive)
REMARK    1  A    between atoms: C2_2  and  C3_3 
ROOT
HETATM    1  C1  UNL     1     -32.932   4.995   2.119  1.00 20.00    -0.015 C 
HETATM    2  C2  UNL     1     -33.727   5.411   3.108  1.00 20.00    -0.012 C 
HETATM    3  C4  UNL     1     -32.608   6.115   1.184  1.00 20.00     0.032 C 
HETATM    4  C5  UNL     1     -34.070   6.866   3.000  1.00 20.00     0.022 C 
HETATM    5  C6  UNL     1     -32.993   7.367   1.999  1.00 20.00    -0.007 C 
HETATM    6  C8  UNL     1     -34.123   7.618   4.324  1.00 20.00     0.015 C 
HETATM    7  C9  UNL     1     -31.746   7.982   2.647  1.00 20.00     0.011 C 
ENDROOT
BRANCH   2   8
HETATM    8  C3  UNL     1     -34.230   4.497   4.120  1.00 20.00     0.151 C 
HETATM    9  C7  UNL     1     -33.366   3.320   4.522  1.00 20.00     0.096 C 
HETATM   10  O10 UNL     1     -35.342   4.666   4.640  1.00 20.00    -0.293 OA
ENDBRANCH   2   8
TORSDOF 1
ENDMDL
MODEL 2
REMARK VINA RESULT:      -1.9      2.147      4.197
REMARK  1 active torsions:
REMARK  status: ('A' for Active; 'I' for Inactive)
REMARK    1  A    between atoms: C2_2  and  C3_3 
ROOT
HETATM    1  C1  UNL     1     -33.873   7.623   3.780  1.00 20.00    -0.015 C 
HETATM    2  C2  UNL     1     -33.127   7.353   2.706  1.00 20.00    -0.012 C 
HETATM    3  C4  UNL     1     -34.892   6.555   4.008  1.00 20.00     0.032 C 
HETATM    4  C5  UNL     1     -33.521   6.071   2.037  1.00 20.00     0.022 C 
HETATM    5  C6  UNL     1     -34.367   5.388   3.146  1.00 20.00    -0.007 C 
HETATM    6  C8  UNL     1     -32.363   5.239   1.501  1.00 20.00     0.015 C 
HETATM    7  C9  UNL     1     -33.599   4.387   4.019  1.00 20.00     0.011 C 
ENDROOT
BRANCH   2   8
HETATM    8  C3  UNL     1     -32.098   8.269   2.239  1.00 20.00     0.151 C 
HETATM    9  C7  UNL     1     -32.288   8.942   0.897  1.00 20.00     0.096 C 
HETATM   10  O10 UNL     1     -31.083   8.490   2.915  1.00 20.00    -0.293 OA
ENDBRANCH   2   8
TORSDOF 1
ENDMDL
MODEL 3
REMARK VINA RESULT:      -1.7      1.138      2.401
REMARK  1 active torsions:
REMARK  status: ('A' for Active; 'I' for Inactive)
REMARK    1  A    between atoms: C2_2  and  C3_3 
ROOT
HETATM    1  C1  UNL     1     -33.246   7.918   3.890  1.00 20.00    -0.015 C 
HETATM    2  C2  UNL     1     -33.507   6.762   3.276  1.00 20.00    -0.012 C 
HETATM    3  C4  UNL     1     -32.043   8.580   3.299  1.00 20.00     0.032 C 
HETATM    4  C5  UNL     1     -32.529   6.455   2.183  1.00 20.00     0.022 C 
HETATM    5  C6  UNL     1     -31.869   7.843   1.955  1.00 20.00    -0.007 C 
HETATM    6  C8  UNL     1     -33.130   5.812   0.939  1.00 20.00     0.015 C 
HETATM    7  C9  UNL     1     -32.479   8.668   0.815  1.00 20.00     0.011 C 
ENDROOT
BRANCH   2   8
HETATM    8  C3  UNL     1     -34.596   5.899   3.702  1.00 20.00     0.151 C 
HETATM    9  C7  UNL     1     -34.277   4.466   4.074  1.00 20.00     0.096 C 
HETATM   10  O10 UNL     1     -35.762   6.316   3.754  1.00 20.00    -0.293 OA
ENDBRANCH   2   8
TORSDOF 1
ENDMDL
MODEL 4
REMARK VINA RESULT:      -0.3      2.347      3.892
REMARK  1 active torsions:
REMARK  status: ('A' for Active; 'I' for Inactive)
REMARK    1  A    between atoms: C2_2  and  C3_3 
ROOT
HETATM    1  C1  UNL     1     -33.028   6.116   1.716  1.00 20.00    -0.015 C 
HETATM    2  C2  UNL     1     -32.730   7.190   2.451  1.00 20.00    -0.012 C 
HETATM    3  C4  UNL     1     -33.760   5.096   2.526  1.00 20.00     0.032 C 
HETATM    4  C5  UNL     1     -33.204   7.068   3.868  1.00 20.00     0.022 C 
HETATM    5  C6  UNL     1     -34.225   5.902   3.757  1.00 20.00    -0.007 C 
HETATM    6  C8  UNL     1     -33.753   8.352   4.479  1.00 20.00     0.015 C 
HETATM    7  C9  UNL     1     -35.686   6.337   3.585  1.00 20.00     0.011 C 
ENDROOT
BRANCH   2   8
HETATM    8  C3  UNL     1     -31.970   8.303   1.907  1.00 20.00     0.151 C 
HETATM    9  C7  UNL     1     -32.534   9.047   0.716  1.00 20.00     0.096 C 
HETATM   10  O10 UNL     1     -30.881   8.635   2.397  1.00 20.00    -0.293 OA
ENDBRANCH   2   8
TORSDOF 1
ENDMDL
MODEL 5
REMARK VINA RESULT:       0.4      1.994      3.092
REMARK  1 active torsions:
REMARK  status: ('A' for Active; 'I' for Inactive)
REMARK    1  A    between atoms: C2_2  and  C3_3 
ROOT
HETATM    1  C1  UNL     1     -32.049   7.705   1.858  1.00 20.00    -0.015 C 
HETATM    2  C2  UNL     1     -32.778   6.590   1.954  1.00 20.00    -0.012 C 
HETATM    3  C4  UNL     1     -32.663   8.816   2.646  1.00 20.00     0.032 C 
HETATM    4  C5  UNL     1     -33.994   6.767   2.811  1.00 20.00     0.022 C 
HETATM    5  C6  UNL     1     -33.652   8.078   3.572  1.00 20.00    -0.007 C 
HETATM    6  C8  UNL     1     -34.340   5.576   3.697  1.00 20.00     0.015 C 
HETATM    7  C9  UNL     1     -33.029   7.875   4.959  1.00 20.00     0.011 C 
ENDROOT
BRANCH   2   8
HETATM    8  C3  UNL     1     -32.421   5.379   1.233  1.00 20.00     0.151 C 
HETATM    9  C7  UNL     1     -33.430   4.790   0.270  1.00 20.00     0.096 C 
HETATM   10  O10 UNL     1     -31.322   4.831   1.403  1.00 20.00    -0.293 OA
ENDBRANCH   2   8
TORSDOF 1
ENDMDL
MODEL 6
REMARK VINA RESULT:       0.5      1.170      2.907
REMARK  1 active torsions:
REMARK  status: ('A' for Active; 'I' for Inactive)
REMARK    1  A    between atoms: C2_2  and  C3_3 
ROOT
HETATM    1  C1  UNL     1     -32.891   7.638   2.128  1.00 20.00    -0.015 C 
HETATM    2  C2  UNL     1     -33.367   6.790   3.042  1.00 20.00    -0.012 C 
HETATM    3  C4  UNL     1     -31.936   6.953   1.205  1.00 20.00     0.032 C 
HETATM    4  C5  UNL     1     -32.812   5.406   2.890  1.00 20.00     0.022 C 
HETATM    5  C6  UNL     1     -32.233   5.459   1.449  1.00 20.00    -0.007 C 
HETATM    6  C8  UNL     1     -33.805   4.279   3.147  1.00 20.00     0.015 C 
HETATM    7  C9  UNL     1     -33.166   4.919   0.358  1.00 20.00     0.011 C 
ENDROOT
BRANCH   2   8
HETATM    8  C3  UNL     1     -34.275   7.225   4.091  1.00 20.00     0.151 C 
HETATM    9  C7  UNL     1     -33.777   8.237   5.100  1.00 20.00     0.096 C 
HETATM   10  O10 UNL     1     -35.427   6.776   4.169  1.00 20.00    -0.293 OA
ENDBRANCH   2   8
TORSDOF 1
ENDMDL
