MODEL 1
REMARK VINA RESULT:       0.4      0.000      0.000
REMARK  1 active torsions:
REMARK  status: ('A' for Active; 'I' for Inactive)
REMARK    1  A    between atoms: C8_8  and  O11_11 
ROOT
HETATM    1  C1  UNL     1     -31.202   7.102   1.984  1.00 20.00    -0.023 C 
HETATM    2  C2  UNL     1     -32.113   6.304   1.402  1.00 20.00    -0.022 C 
HETATM    3  C3  UNL     1     -35.175   6.735   3.668  1.00 20.00     0.011 A 
HETATM    4  C4  UNL     1     -34.240   5.565   3.802  1.00 20.00     0.011 A 
HETATM    5  C5  UNL     1     -32.740   7.760   3.831  1.00 20.00     0.021 C 
HETATM    6  C6  UNL     1     -31.943   8.278   2.595  1.00 20.00     0.038 C 
HETATM    7  C7  UNL     1     -33.473   6.926   1.656  1.00 20.00     0.046 C 
HETATM    8  C8  UNL     1     -33.083   8.417   1.570  1.00 20.00     0.136 C 
HETATM    9  C9  UNL     1     -33.764   6.837   3.152  1.00 20.00    -0.030 A 
ENDROOT
BRANCH   8  10
HETATM   10  O11 UNL     1     -32.653   8.839   0.291  1.00 20.00    -0.389 OA
HETATM   11  C10 UNL     1     -32.528  10.256   0.216  1.00 20.00     0.202 C 
ENDBRANCH   8  10
TORSDOF 1
ENDMDL
MODEL 2
REMARK VINA RESULT:       1.1      2.116      4.196
REMARK  1 active torsions:
REMARK  status: ('A' for Active; 'I' for Inactive)
REMARK    1  A    between atoms: C8_8  and  O11_11 
ROOT
HETATM    1  C1  UNL     1     -35.358   6.924   3.682  1.00 20.00    -0.023 C 
HETATM    2  C2  UNL     1     -35.131   6.544   2.413  1.00 20.00    -0.022 C 
HETATM    3  C3  UNL     1     -31.481   7.582   1.869  1.00 20.00     0.011 A 
HETATM    4  C4  UNL     1     -32.631   8.432   1.405  1.00 20.00     0.011 A 
HETATM    5  C5  UNL     1     -33.071   7.870   3.966  1.00 20.00     0.021 C 
HETATM    6  C6  UNL     1     -34.059   6.765   4.450  1.00 20.00     0.038 C 
HETATM    7  C7  UNL     1     -33.665   6.166   2.320  1.00 20.00     0.046 C 
HETATM    8  C8  UNL     1     -33.483   5.539   3.719  1.00 20.00     0.136 C 
HETATM    9  C9  UNL     1     -32.835   7.432   2.512  1.00 20.00    -0.030 A 
ENDROOT
BRANCH   8  10
HETATM   10  O11 UNL     1     -34.218   4.350   3.930  1.00 20.00    -0.389 OA
HETATM   11  C10 UNL     1     -33.412   3.326   4.507  1.00 20.00     0.202 C 
ENDBRANCH   8  10
TORSDOF 1
ENDMDL
MODEL 3
REMARK VINA RESULT:       1.5      1.108      2.115
REMARK  1 active torsions:
REMARK  status: ('A' for Active; 'I' for Inactive)
REMARK    1  A    between atoms: C8_8  and  O11_11 
ROOT
HETATM    1  C1  UNL     1     -31.698   8.415   3.238  1.00 20.00    -0.023 C 
HETATM    2  C2  UNL     1     -30.931   8.016   2.210  1.00 20.00    -0.022 C 
HETATM    3  C3  UNL     1     -33.039   5.235   0.621  1.00 20.00     0.011 A 
HETATM    4  C4  UNL     1     -31.912   4.939   1.572  1.00 20.00     0.011 A 
HETATM    5  C5  UNL     1     -33.474   6.734   2.759  1.00 20.00     0.021 C 
HETATM    6  C6  UNL     1     -33.148   8.258   2.818  1.00 20.00     0.038 C 
HETATM    7  C7  UNL     1     -31.869   7.553   1.111  1.00 20.00     0.046 C 
HETATM    8  C8  UNL     1     -33.012   8.570   1.317  1.00 20.00     0.136 C 
HETATM    9  C9  UNL     1     -32.578   6.290   1.592  1.00 20.00    -0.030 A 
ENDROOT
BRANCH   8  10
HETATM   10  O11 UNL     1     -32.660   9.912   1.042  1.00 20.00    -0.389 OA
HETATM   11  C10 UNL     1     -32.596  10.165  -0.358  1.00 20.00     0.202 C 
ENDBRANCH   8  10
TORSDOF 1
ENDMDL
MODEL 4
REMARK VINA RESULT:       2.1      1.485      3.798
REMARK  1 active torsions:
REMARK  status: ('A' for Active; 'I' for Inactive)
REMARK    1  A    between atoms: C8_8  and  O11_11 
ROOT
HETATM    1  C1  UNL     1     -31.913   6.123   1.693  1.00 20.00    -0.023 C 
HETATM    2  C2  UNL     1     -31.233   7.158   2.212  1.00 20.00    -0.022 C 
HETATM    3  C3  UNL     1     -32.695  10.154   0.319  1.00 20.00     0.011 A 
HETATM    4  C4  UNL     1     -31.398   9.510  -0.085  1.00 20.00     0.011 A 
HETATM    5  C5  UNL     1     -33.198   7.563   0.117  1.00 20.00     0.021 C 
HETATM    6  C6  UNL     1     -33.307   6.613   1.349  1.00 20.00     0.038 C 
HETATM    7  C7  UNL     1     -32.161   8.358   2.181  1.00 20.00     0.046 C 
HETATM    8  C8  UNL     1     -33.498   7.643   2.477  1.00 20.00     0.136 C 
HETATM    9  C9  UNL     1     -32.405   8.732   0.722  1.00 20.00    -0.030 A 
ENDROOT
BRANCH   8  10
HETATM   10  O11 UNL     1     -33.584   7.069   3.766  1.00 20.00    -0.389 OA
HETATM   11  C10 UNL     1     -34.871   6.510   4.010  1.00 20.00     0.202 C 
ENDBRANCH   8  10
TORSDOF 1
ENDMDL
MODEL 5
REMARK VINA RESULT:       2.6      1.879      3.842
REMARK  1 active torsions:
REMARK  status: ('A' for Active; 'I' for Inactive)
REMARK    1  A    between atoms: C8_8  and  O11_11 
ROOT
HETATM    1  C1  UNL     1     -31.696   8.076   3.029  1.00 20.00    -0.023 C 
HETATM    2  C2  UNL     1     -32.962   8.484   2.841  1.00 20.00    -0.022 C 
HETATM    3  C3  UNL     1     -32.843   9.975  -0.689  1.00 20.00     0.011 A 
HETATM    4  C4  UNL     1     -32.755  10.832   0.543  1.00 20.00     0.011 A 
HETATM    5  C5  UNL     1     -30.938   8.909   0.807  1.00 20.00     0.021 C 
HETATM    6  C6  UNL     1     -31.148   7.636   1.684  1.00 20.00     0.038 C 
HETATM    7  C7  UNL     1     -33.252   8.355   1.357  1.00 20.00     0.046 C 
HETATM    8  C8  UNL     1     -32.438   7.078   1.056  1.00 20.00     0.136 C 
HETATM    9  C9  UNL     1     -32.390   9.373   0.615  1.00 20.00    -0.030 A 
ENDROOT
BRANCH   8  10
HETATM   10  O11 UNL     1     -32.923   5.910   1.689  1.00 20.00    -0.389 OA
HETATM   11  C10 UNL     1     -32.258   4.741   1.221  1.00 20.00     0.202 C 
ENDBRANCH   8  10
TORSDOF 1
ENDMDL
MODEL 6
REMARK VINA RESULT:       2.7      1.425      2.814
REMARK  1 active torsions:
REMARK  status: ('A' for Active; 'I' for Inactive)
REMARK    1  A    between atoms: C8_8  and  O11_11 
ROOT
HETATM    1  C1  UNL     1     -34.212   7.994   4.626  1.00 20.00    -0.023 C 
HETATM    2  C2  UNL     1     -33.060   7.319   4.777  1.00 20.00    -0.022 C 
HETATM    3  C3  UNL     1     -33.967   3.820   3.499  1.00 20.00     0.011 A 
HETATM    4  C4  UNL     1     -33.957   4.158   4.964  1.00 20.00     0.011 A 
HETATM    5  C5  UNL     1     -35.437   6.006   3.755  1.00 20.00     0.021 C 
HETATM    6  C6  UNL     1     -34.917   7.434   3.404  1.00 20.00     0.038 C 
HETATM    7  C7  UNL     1     -33.010   6.276   3.676  1.00 20.00     0.046 C 
HETATM    8  C8  UNL     1     -33.690   7.078   2.546  1.00 20.00     0.136 C 
HETATM    9  C9  UNL     1     -34.111   5.252   3.942  1.00 20.00    -0.030 A 
ENDROOT
BRANCH   8  10
HETATM   10  O11 UNL     1     -32.957   8.203   2.102  1.00 20.00    -0.389 OA
HETATM   11  C10 UNL     1     -31.734   7.825   1.477  1.00 20.00     0.202 C 
ENDBRANCH   8  10
TORSDOF 1
ENDMDL
