MODEL 1
REMARK VINA RESULT:       1.4      0.000      0.000
REMARK  1 active torsions:
REMARK  status: ('A' for Active; 'I' for Inactive)
REMARK    1  A    between atoms: C9_9  and  O10_10 
ROOT
HETATM    1  C1  UNL     1     -33.030   2.862   4.989  1.00 20.00     0.012 C 
HETATM    2  C2  UNL     1     -33.567   3.697   4.313  1.00 20.00    -0.112 C 
HETATM    3  C3  UNL     1     -34.745   7.420   2.480  1.00 20.00     0.007 C 
HETATM    4  C4  UNL     1     -35.708   6.733   3.460  1.00 20.00     0.009 C 
HETATM    5  C5  UNL     1     -33.225   5.427   2.541  1.00 20.00     0.024 C 
HETATM    6  C6  UNL     1     -34.223   4.719   3.485  1.00 20.00     0.071 C 
HETATM    7  C7  UNL     1     -33.365   6.910   2.936  1.00 20.00     0.016 C 
HETATM    8  C8  UNL     1     -34.759   5.892   4.341  1.00 20.00     0.030 C 
HETATM    9  C9  UNL     1     -33.529   6.802   4.452  1.00 20.00     0.127 C 
ENDROOT
BRANCH   9  10
HETATM   10  O10 UNL     1     -33.796   8.043   5.069  1.00 20.00    -0.395 OA
HETATM   11  H22 UNL     1     -34.369   8.549   4.467  1.00 20.00     0.210 HD
ENDBRANCH   9  10
TORSDOF 1
ENDMDL
MODEL 2
REMARK VINA RESULT:       1.5      2.082      3.106
REMARK  1 active torsions:
REMARK  status: ('A' for Active; 'I' for Inactive)
REMARK    1  A    between atoms: C9_9  and  O10_10 
ROOT
HETATM    1  C1  UNL     1     -35.176   5.902   4.293  1.00 20.00     0.012 C 
HETATM    2  C2  UNL     1     -34.615   6.412   3.361  1.00 20.00    -0.112 C 
HETATM    3  C3  UNL     1     -31.677   8.244   0.787  1.00 20.00     0.007 C 
HETATM    4  C4  UNL     1     -32.826   9.102   1.339  1.00 20.00     0.009 C 
HETATM    5  C5  UNL     1     -32.748   6.175   1.716  1.00 20.00     0.024 C 
HETATM    6  C6  UNL     1     -33.928   7.036   2.222  1.00 20.00     0.071 C 
HETATM    7  C7  UNL     1     -31.543   7.127   1.841  1.00 20.00     0.016 C 
HETATM    8  C8  UNL     1     -33.225   8.354   2.629  1.00 20.00     0.030 C 
HETATM    9  C9  UNL     1     -31.870   7.853   3.146  1.00 20.00     0.127 C 
ENDROOT
BRANCH   9  10
HETATM   10  O10 UNL     1     -30.959   8.891   3.444  1.00 20.00    -0.395 OA
HETATM   11  H22 UNL     1     -31.385   9.471   4.099  1.00 20.00     0.210 HD
ENDBRANCH   9  10
TORSDOF 1
ENDMDL
MODEL 3
REMARK VINA RESULT:       1.7      1.904      3.890
REMARK  1 active torsions:
REMARK  status: ('A' for Active; 'I' for Inactive)
REMARK    1  A    between atoms: C9_9  and  O10_10 
ROOT
HETATM    1  C1  UNL     1     -32.361   9.488   0.424  1.00 20.00     0.012 C 
HETATM    2  C2  UNL     1     -32.371   8.651   1.285  1.00 20.00    -0.112 C 
HETATM    3  C3  UNL     1     -33.525   5.478   3.971  1.00 20.00     0.007 C 
HETATM    4  C4  UNL     1     -33.375   6.905   4.521  1.00 20.00     0.009 C 
HETATM    5  C5  UNL     1     -32.582   6.207   1.764  1.00 20.00     0.024 C 
HETATM    6  C6  UNL     1     -32.384   7.628   2.340  1.00 20.00     0.071 C 
HETATM    7  C7  UNL     1     -33.853   5.714   2.484  1.00 20.00     0.016 C 
HETATM    8  C8  UNL     1     -33.610   7.781   3.272  1.00 20.00     0.030 C 
HETATM    9  C9  UNL     1     -34.690   6.992   2.521  1.00 20.00     0.127 C 
ENDROOT
BRANCH   9  10
HETATM   10  O10 UNL     1     -35.892   6.844   3.248  1.00 20.00    -0.395 OA
HETATM   11  H22 UNL     1     -36.334   7.711   3.256  1.00 20.00     0.210 HD
ENDBRANCH   9  10
TORSDOF 1
ENDMDL
MODEL 4
REMARK VINA RESULT:       1.9      2.821      4.687
REMARK  1 active torsions:
REMARK  status: ('A' for Active; 'I' for Inactive)
REMARK    1  A    between atoms: C9_9  and  O10_10 
ROOT
HETATM    1  C1  UNL     1     -32.405  10.075   0.153  1.00 20.00     0.012 C 
HETATM    2  C2  UNL     1     -32.429   9.164   0.936  1.00 20.00    -0.112 C 
HETATM    3  C3  UNL     1     -32.585   5.249   2.739  1.00 20.00     0.007 C 
HETATM    4  C4  UNL     1     -33.805   6.174   2.857  1.00 20.00     0.009 C 
HETATM    5  C5  UNL     1     -31.244   7.109   1.724  1.00 20.00     0.024 C 
HETATM    6  C6  UNL     1     -32.459   8.051   1.894  1.00 20.00     0.071 C 
HETATM    7  C7  UNL     1     -31.900   5.742   1.449  1.00 20.00     0.016 C 
HETATM    8  C8  UNL     1     -33.653   7.101   1.632  1.00 20.00     0.030 C 
HETATM    9  C9  UNL     1     -33.084   6.148   0.573  1.00 20.00     0.127 C 
ENDROOT
BRANCH   9  10
HETATM   10  O10 UNL     1     -33.940   5.068   0.264  1.00 20.00    -0.395 OA
HETATM   11  H22 UNL     1     -34.007   5.019  -0.705  1.00 20.00     0.210 HD
ENDBRANCH   9  10
TORSDOF 1
ENDMDL
MODEL 5
REMARK VINA RESULT:       2.2      1.389      2.001
REMARK  1 active torsions:
REMARK  status: ('A' for Active; 'I' for Inactive)
REMARK    1  A    between atoms: C9_9  and  O10_10 
ROOT
HETATM    1  C1  UNL     1     -33.473   2.768   4.339  1.00 20.00     0.012 C 
HETATM    2  C2  UNL     1     -33.785   3.921   4.461  1.00 20.00    -0.112 C 
HETATM    3  C3  UNL     1     -34.686   8.074   3.721  1.00 20.00     0.007 C 
HETATM    4  C4  UNL     1     -33.407   7.713   4.491  1.00 20.00     0.009 C 
HETATM    5  C5  UNL     1     -35.429   5.680   3.790  1.00 20.00     0.024 C 
HETATM    6  C6  UNL     1     -34.166   5.332   4.611  1.00 20.00     0.071 C 
HETATM    7  C7  UNL     1     -34.943   6.816   2.869  1.00 20.00     0.016 C 
HETATM    8  C8  UNL     1     -33.104   6.280   4.004  1.00 20.00     0.030 C 
HETATM    9  C9  UNL     1     -33.530   6.343   2.531  1.00 20.00     0.127 C 
ENDROOT
BRANCH   9  10
HETATM   10  O10 UNL     1     -32.800   7.282   1.770  1.00 20.00    -0.395 OA
HETATM   11  H22 UNL     1     -33.322   8.103   1.743  1.00 20.00     0.210 HD
ENDBRANCH   9  10
TORSDOF 1
ENDMDL
MODEL 6
REMARK VINA RESULT:       2.3      2.523      3.702
REMARK  1 active torsions:
REMARK  status: ('A' for Active; 'I' for Inactive)
REMARK    1  A    between atoms: C9_9  and  O10_10 
ROOT
HETATM    1  C1  UNL     1     -35.774   6.498   3.801  1.00 20.00     0.012 C 
HETATM    2  C2  UNL     1     -34.609   6.591   3.522  1.00 20.00    -0.112 C 
HETATM    3  C3  UNL     1     -30.806   7.940   1.998  1.00 20.00     0.007 C 
HETATM    4  C4  UNL     1     -31.485   6.727   1.344  1.00 20.00     0.009 C 
HETATM    5  C5  UNL     1     -32.537   7.959   3.812  1.00 20.00     0.024 C 
HETATM    6  C6  UNL     1     -33.185   6.705   3.180  1.00 20.00     0.071 C 
HETATM    7  C7  UNL     1     -31.994   8.724   2.590  1.00 20.00     0.016 C 
HETATM    8  C8  UNL     1     -32.977   6.953   1.666  1.00 20.00     0.030 C 
HETATM    9  C9  UNL     1     -33.103   8.479   1.567  1.00 20.00     0.127 C 
ENDROOT
BRANCH   9  10
HETATM   10  O10 UNL     1     -32.796   8.990   0.286  1.00 20.00    -0.395 OA
HETATM   11  H22 UNL     1     -32.594   9.936   0.393  1.00 20.00     0.210 HD
ENDBRANCH   9  10
TORSDOF 1
ENDMDL
MODEL 7
REMARK VINA RESULT:       2.4      1.906      3.457
REMARK  1 active torsions:
REMARK  status: ('A' for Active; 'I' for Inactive)
REMARK    1  A    between atoms: C9_9  and  O10_10 
ROOT
HETATM    1  C1  UNL     1     -31.226   8.014   1.270  1.00 20.00     0.012 C 
HETATM    2  C2  UNL     1     -32.273   7.889   1.844  1.00 20.00    -0.112 C 
HETATM    3  C3  UNL     1     -35.469   6.497   4.385  1.00 20.00     0.007 C 
HETATM    4  C4  UNL     1     -35.593   6.319   2.865  1.00 20.00     0.009 C 
HETATM    5  C5  UNL     1     -33.396   7.874   4.077  1.00 20.00     0.024 C 
HETATM    6  C6  UNL     1     -33.555   7.736   2.546  1.00 20.00     0.071 C 
HETATM    7  C7  UNL     1     -33.945   6.535   4.606  1.00 20.00     0.016 C 
HETATM    8  C8  UNL     1     -34.121   6.303   2.400  1.00 20.00     0.030 C 
HETATM    9  C9  UNL     1     -33.426   5.561   3.549  1.00 20.00     0.127 C 
ENDROOT
BRANCH   9  10
HETATM   10  O10 UNL     1     -33.894   4.241   3.736  1.00 20.00    -0.395 OA
HETATM   11  H22 UNL     1     -33.904   3.811   2.863  1.00 20.00     0.210 HD
ENDBRANCH   9  10
TORSDOF 1
ENDMDL
MODEL 8
REMARK VINA RESULT:       2.5      2.646      4.828
REMARK  1 active torsions:
REMARK  status: ('A' for Active; 'I' for Inactive)
REMARK    1  A    between atoms: C9_9  and  O10_10 
ROOT
HETATM    1  C1  UNL     1     -32.636  10.873   0.295  1.00 20.00     0.012 C 
HETATM    2  C2  UNL     1     -32.380   9.706   0.420  1.00 20.00    -0.112 C 
HETATM    3  C3  UNL     1     -32.403   5.560   1.610  1.00 20.00     0.007 C 
HETATM    4  C4  UNL     1     -31.285   6.479   2.125  1.00 20.00     0.009 C 
HETATM    5  C5  UNL     1     -33.225   7.377   0.090  1.00 20.00     0.024 C 
HETATM    6  C6  UNL     1     -32.066   8.279   0.573  1.00 20.00     0.071 C 
HETATM    7  C7  UNL     1     -33.560   6.541   1.340  1.00 20.00     0.016 C 
HETATM    8  C8  UNL     1     -31.933   7.878   2.062  1.00 20.00     0.030 C 
HETATM    9  C9  UNL     1     -33.387   7.579   2.449  1.00 20.00     0.127 C 
ENDROOT
BRANCH   9  10
HETATM   10  O10 UNL     1     -33.528   7.033   3.744  1.00 20.00    -0.395 OA
HETATM   11  H22 UNL     1     -34.186   7.572   4.216  1.00 20.00     0.210 HD
ENDBRANCH   9  10
TORSDOF 1
ENDMDL
MODEL 9
REMARK VINA RESULT:       2.6      2.712      3.785
REMARK  1 active torsions:
REMARK  status: ('A' for Active; 'I' for Inactive)
REMARK    1  A    between atoms: C9_9  and  O10_10 
ROOT
HETATM    1  C1  UNL     1     -33.270   4.606   0.078  1.00 20.00     0.012 C 
HETATM    2  C2  UNL     1     -32.865   5.319   0.956  1.00 20.00    -0.112 C 
HETATM    3  C3  UNL     1     -32.054   8.698   3.511  1.00 20.00     0.007 C 
HETATM    4  C4  UNL     1     -30.932   8.154   2.614  1.00 20.00     0.009 C 
HETATM    5  C5  UNL     1     -33.521   6.762   2.888  1.00 20.00     0.024 C 
HETATM    6  C6  UNL     1     -32.370   6.191   2.029  1.00 20.00     0.071 C 
HETATM    7  C7  UNL     1     -33.332   8.286   2.754  1.00 20.00     0.016 C 
HETATM    8  C8  UNL     1     -31.708   7.472   1.467  1.00 20.00     0.030 C 
HETATM    9  C9  UNL     1     -32.912   8.408   1.290  1.00 20.00     0.127 C 
ENDROOT
BRANCH   9  10
HETATM   10  O10 UNL     1     -32.556   9.725   0.925  1.00 20.00    -0.395 OA
HETATM   11  H22 UNL     1     -32.760   9.829  -0.021  1.00 20.00     0.210 HD
ENDBRANCH   9  10
TORSDOF 1
ENDMDL
