MODEL 1
REMARK VINA RESULT:       6.0      0.000      0.000
REMARK  1 active torsions:
REMARK  status: ('A' for Active; 'I' for Inactive)
REMARK    1  A    between atoms: C3_3  and  C9_9 
ROOT
HETATM    1  C1  UNL     1     -33.760   7.245   0.474  1.00 20.00    -0.030 C 
HETATM    2  C2  UNL     1     -33.678   5.977   0.902  1.00 20.00    -0.026 C 
HETATM    3  C4  UNL     1     -32.748   8.294   0.845  1.00 20.00     0.031 C 
HETATM    4  C5  UNL     1     -32.948   5.527   3.260  1.00 20.00     0.022 C 
HETATM    5  C6  UNL     1     -31.302   6.369   1.567  1.00 20.00     0.013 C 
HETATM    6  C7  UNL     1     -32.109   7.966   3.328  1.00 20.00     0.018 C 
HETATM    7  C8  UNL     1     -32.546   5.496   1.774  1.00 20.00     0.009 C 
HETATM    8  C9  UNL     1     -33.134   6.942   3.826  1.00 20.00     0.073 C 
HETATM    9  C10 UNL     1     -31.675   7.825   1.853  1.00 20.00    -0.010 C 
ENDROOT
BRANCH   8  10
HETATM   10  C3  UNL     1     -34.539   7.435   3.617  1.00 20.00     0.223 C 
HETATM   11  O11 UNL     1     -34.780   8.614   3.375  1.00 20.00    -0.279 OA
HETATM   12 CL12 UNL     1     -35.709   6.158   3.760  1.00 20.00    -0.043 Cl
ENDBRANCH   8  10
TORSDOF 1
ENDMDL
MODEL 2
REMARK VINA RESULT:       6.5      2.132      2.918
REMARK  1 active torsions:
REMARK  status: ('A' for Active; 'I' for Inactive)
REMARK    1  A    between atoms: C3_3  and  C9_9 
ROOT
HETATM    1  C1  UNL     1     -34.316   6.291   0.757  1.00 20.00    -0.030 C 
HETATM    2  C2  UNL     1     -34.689   6.767   1.955  1.00 20.00    -0.026 C 
HETATM    3  C4  UNL     1     -33.021   5.559   0.541  1.00 20.00     0.031 C 
HETATM    4  C5  UNL     1     -32.964   7.819   3.442  1.00 20.00     0.022 C 
HETATM    5  C6  UNL     1     -32.947   5.344   3.045  1.00 20.00     0.013 C 
HETATM    6  C7  UNL     1     -31.182   6.734   1.926  1.00 20.00     0.018 C 
HETATM    7  C8  UNL     1     -33.844   6.581   3.190  1.00 20.00     0.009 C 
HETATM    8  C9  UNL     1     -31.860   8.024   2.396  1.00 20.00     0.073 C 
HETATM    9  C10 UNL     1     -32.100   5.502   1.781  1.00 20.00    -0.010 C 
ENDROOT
BRANCH   8  10
HETATM   10  C3  UNL     1     -32.356   8.832   1.228  1.00 20.00     0.223 C 
HETATM   11  O11 UNL     1     -33.318   9.588   1.327  1.00 20.00    -0.279 OA
HETATM   12 CL12 UNL     1     -31.415   8.554  -0.207  1.00 20.00    -0.043 Cl
ENDBRANCH   8  10
TORSDOF 1
ENDMDL
MODEL 3
REMARK VINA RESULT:       6.8      1.843      3.196
REMARK  1 active torsions:
REMARK  status: ('A' for Active; 'I' for Inactive)
REMARK    1  A    between atoms: C3_3  and  C9_9 
ROOT
HETATM    1  C1  UNL     1     -32.792   7.809   4.803  1.00 20.00    -0.030 C 
HETATM    2  C2  UNL     1     -34.117   7.929   4.630  1.00 20.00    -0.026 C 
HETATM    3  C4  UNL     1     -31.823   7.772   3.653  1.00 20.00     0.031 C 
HETATM    4  C5  UNL     1     -35.221   6.694   2.747  1.00 20.00     0.022 C 
HETATM    5  C6  UNL     1     -33.729   8.651   2.270  1.00 20.00     0.013 C 
HETATM    6  C7  UNL     1     -32.862   6.351   1.760  1.00 20.00     0.018 C 
HETATM    7  C8  UNL     1     -34.739   8.061   3.263  1.00 20.00     0.009 C 
HETATM    8  C9  UNL     1     -34.085   5.712   2.425  1.00 20.00     0.073 C 
HETATM    9  C10 UNL     1     -32.484   7.763   2.256  1.00 20.00    -0.010 C 
ENDROOT
BRANCH   8  10
HETATM   10  C3  UNL     1     -33.689   4.917   3.639  1.00 20.00     0.223 C 
HETATM   11  O11 UNL     1     -32.553   4.473   3.777  1.00 20.00    -0.279 OA
HETATM   12 CL12 UNL     1     -35.006   4.730   4.757  1.00 20.00    -0.043 Cl
ENDBRANCH   8  10
TORSDOF 1
ENDMDL
MODEL 4
REMARK VINA RESULT:       7.0      2.122      3.527
REMARK  1 active torsions:
REMARK  status: ('A' for Active; 'I' for Inactive)
REMARK    1  A    between atoms: C3_3  and  C9_9 
ROOT
HETATM    1  C1  UNL     1     -33.699   8.140   4.429  1.00 20.00    -0.030 C 
HETATM    2  C2  UNL     1     -33.043   6.993   4.662  1.00 20.00    -0.026 C 
HETATM    3  C4  UNL     1     -34.879   8.226   3.502  1.00 20.00     0.031 C 
HETATM    4  C5  UNL     1     -32.630   5.413   2.758  1.00 20.00     0.022 C 
HETATM    5  C6  UNL     1     -34.947   5.718   3.665  1.00 20.00     0.013 C 
HETATM    6  C7  UNL     1     -34.403   6.743   1.439  1.00 20.00     0.018 C 
HETATM    7  C8  UNL     1     -33.456   5.689   4.027  1.00 20.00     0.009 C 
HETATM    8  C9  UNL     1     -32.925   6.375   1.599  1.00 20.00     0.073 C 
HETATM    9  C10 UNL     1     -35.202   6.916   2.748  1.00 20.00    -0.010 C 
ENDROOT
BRANCH   8  10
HETATM   10  C3  UNL     1     -32.065   7.607   1.678  1.00 20.00     0.223 C 
HETATM   11  O11 UNL     1     -31.009   7.618   2.303  1.00 20.00    -0.279 OA
HETATM   12 CL12 UNL     1     -32.751   8.940   0.799  1.00 20.00    -0.043 Cl
ENDBRANCH   8  10
TORSDOF 1
ENDMDL
