MODEL 1
REMARK VINA RESULT:      -1.4      0.000      0.000
REMARK  1 active torsions:
REMARK  status: ('A' for Active; 'I' for Inactive)
REMARK    1  A    between atoms: C1_1  and  C4_4 
ROOT
HETATM    1  C2  UNL     1     -31.482   7.827   2.151  1.00 20.00     0.225 A 
HETATM    2  C3  UNL     1     -32.648   8.289   1.349  1.00 20.00     0.225 A 
HETATM    3  C4  UNL     1     -32.813   7.127   2.302  1.00 20.00     0.099 A 
HETATM    4  C5  UNL     1     -32.933   5.755   1.687  1.00 20.00     0.031 C 
HETATM    5  F7  UNL     1     -31.051   8.645   3.182  1.00 20.00    -0.245 F 
HETATM    6  F8  UNL     1     -33.218   9.502   1.691  1.00 20.00    -0.245 F 
ENDROOT
BRANCH   3   7
HETATM    7  C1  UNL     1     -33.574   7.372   3.550  1.00 20.00     0.233 C 
HETATM    8  O6  UNL     1     -33.138   8.098   4.439  1.00 20.00    -0.279 OA
HETATM    9 CL9  UNL     1     -35.093   6.529   3.569  1.00 20.00    -0.043 Cl
ENDBRANCH   3   7
TORSDOF 1
ENDMDL
MODEL 2
REMARK VINA RESULT:      -1.0      3.035      3.291
REMARK  1 active torsions:
REMARK  status: ('A' for Active; 'I' for Inactive)
REMARK    1  A    between atoms: C1_1  and  C4_4 
ROOT
HETATM    1  C2  UNL     1     -33.999   7.253   3.795  1.00 20.00     0.225 A 
HETATM    2  C3  UNL     1     -35.057   6.870   2.820  1.00 20.00     0.225 A 
HETATM    3  C4  UNL     1     -34.034   5.844   3.249  1.00 20.00     0.099 A 
HETATM    4  C5  UNL     1     -32.973   5.479   2.242  1.00 20.00     0.031 C 
HETATM    5  F7  UNL     1     -34.385   7.457   5.109  1.00 20.00    -0.245 F 
HETATM    6  F8  UNL     1     -36.350   6.745   3.297  1.00 20.00    -0.245 F 
ENDROOT
BRANCH   3   7
HETATM    7  C1  UNL     1     -34.489   4.771   4.165  1.00 20.00     0.233 C 
HETATM    8  O6  UNL     1     -35.561   4.841   4.759  1.00 20.00    -0.279 OA
HETATM    9 CL9  UNL     1     -33.343   3.468   4.268  1.00 20.00    -0.043 Cl
ENDBRANCH   3   7
TORSDOF 1
ENDMDL
MODEL 3
REMARK VINA RESULT:      -1.0      2.977      3.673
REMARK  1 active torsions:
REMARK  status: ('A' for Active; 'I' for Inactive)
REMARK    1  A    between atoms: C1_1  and  C4_4 
ROOT
HETATM    1  C2  UNL     1     -34.368   5.815   4.376  1.00 20.00     0.225 A 
HETATM    2  C3  UNL     1     -35.253   6.861   3.794  1.00 20.00     0.225 A 
HETATM    3  C4  UNL     1     -33.753   7.027   3.714  1.00 20.00     0.099 A 
HETATM    4  C5  UNL     1     -33.133   8.058   4.623  1.00 20.00     0.031 C 
HETATM    5  F7  UNL     1     -34.294   4.600   3.717  1.00 20.00    -0.245 F 
HETATM    6  F8  UNL     1     -35.940   6.543   2.635  1.00 20.00    -0.245 F 
ENDROOT
BRANCH   3   7
HETATM    7  C1  UNL     1     -33.115   6.829   2.390  1.00 20.00     0.233 C 
HETATM    8  O6  UNL     1     -33.199   5.764   1.787  1.00 20.00    -0.279 OA
HETATM    9 CL9  UNL     1     -32.279   8.252   1.846  1.00 20.00    -0.043 Cl
ENDBRANCH   3   7
TORSDOF 1
ENDMDL
MODEL 4
REMARK VINA RESULT:      -0.8      2.602      3.460
REMARK  1 active torsions:
REMARK  status: ('A' for Active; 'I' for Inactive)
REMARK    1  A    between atoms: C1_1  and  C4_4 
ROOT
HETATM    1  C2  UNL     1     -35.524   6.176   3.690  1.00 20.00     0.225 A 
HETATM    2  C3  UNL     1     -34.533   6.698   4.671  1.00 20.00     0.225 A 
HETATM    3  C4  UNL     1     -34.065   5.808   3.542  1.00 20.00     0.099 A 
HETATM    4  C5  UNL     1     -33.680   4.396   3.903  1.00 20.00     0.031 C 
HETATM    5  F7  UNL     1     -36.067   7.078   2.790  1.00 20.00    -0.245 F 
HETATM    6  F8  UNL     1     -34.226   8.046   4.613  1.00 20.00    -0.245 F 
ENDROOT
BRANCH   3   7
HETATM    7  C1  UNL     1     -33.310   6.449   2.438  1.00 20.00     0.233 C 
HETATM    8  O6  UNL     1     -32.898   7.602   2.524  1.00 20.00    -0.279 OA
HETATM    9 CL9  UNL     1     -33.105   5.385   1.081  1.00 20.00    -0.043 Cl
ENDBRANCH   3   7
TORSDOF 1
ENDMDL
MODEL 5
REMARK VINA RESULT:      -0.7      1.853      2.165
REMARK  1 active torsions:
REMARK  status: ('A' for Active; 'I' for Inactive)
REMARK    1  A    between atoms: C1_1  and  C4_4 
ROOT
HETATM    1  C2  UNL     1     -32.038   5.745   1.838  1.00 20.00     0.225 A 
HETATM    2  C3  UNL     1     -33.324   5.359   1.195  1.00 20.00     0.225 A 
HETATM    3  C4  UNL     1     -33.263   5.525   2.696  1.00 20.00     0.099 A 
HETATM    4  C5  UNL     1     -33.296   4.264   3.522  1.00 20.00     0.031 C 
HETATM    5  F7  UNL     1     -31.593   7.043   1.650  1.00 20.00    -0.245 F 
HETATM    6  F8  UNL     1     -33.983   6.325   0.455  1.00 20.00    -0.245 F 
ENDROOT
BRANCH   3   7
HETATM    7  C1  UNL     1     -33.912   6.725   3.275  1.00 20.00     0.233 C 
HETATM    8  O6  UNL     1     -33.349   7.815   3.300  1.00 20.00    -0.279 OA
HETATM    9 CL9  UNL     1     -35.504   6.380   3.880  1.00 20.00    -0.043 Cl
ENDBRANCH   3   7
TORSDOF 1
ENDMDL
MODEL 6
REMARK VINA RESULT:      -0.5      2.210      2.943
REMARK  1 active torsions:
REMARK  status: ('A' for Active; 'I' for Inactive)
REMARK    1  A    between atoms: C1_1  and  C4_4 
ROOT
HETATM    1  C2  UNL     1     -33.996   8.011   3.003  1.00 20.00     0.225 A 
HETATM    2  C3  UNL     1     -33.850   7.695   4.450  1.00 20.00     0.225 A 
HETATM    3  C4  UNL     1     -34.428   6.656   3.516  1.00 20.00     0.099 A 
HETATM    4  C5  UNL     1     -35.912   6.406   3.611  1.00 20.00     0.031 C 
HETATM    5  F7  UNL     1     -32.839   8.087   2.245  1.00 20.00    -0.245 F 
HETATM    6  F8  UNL     1     -32.569   7.500   4.935  1.00 20.00    -0.245 F 
ENDROOT
BRANCH   3   7
HETATM    7  C1  UNL     1     -33.571   5.495   3.177  1.00 20.00     0.233 C 
HETATM    8  O6  UNL     1     -32.763   5.537   2.253  1.00 20.00    -0.279 OA
HETATM    9 CL9  UNL     1     -33.861   4.138   4.223  1.00 20.00    -0.043 Cl
ENDBRANCH   3   7
TORSDOF 1
ENDMDL
MODEL 7
REMARK VINA RESULT:      -0.3      2.659      3.120
REMARK  1 active torsions:
REMARK  status: ('A' for Active; 'I' for Inactive)
REMARK    1  A    between atoms: C1_1  and  C4_4 
ROOT
HETATM    1  C2  UNL     1     -32.717   5.530   2.115  1.00 20.00     0.225 A 
HETATM    2  C3  UNL     1     -33.824   6.163   1.346  1.00 20.00     0.225 A 
HETATM    3  C4  UNL     1     -32.988   7.008   2.281  1.00 20.00     0.099 A 
HETATM    4  C5  UNL     1     -33.638   7.439   3.572  1.00 20.00     0.031 C 
HETATM    5  F7  UNL     1     -31.588   5.145   1.411  1.00 20.00    -0.245 F 
HETATM    6  F8  UNL     1     -33.645   6.323  -0.017  1.00 20.00    -0.245 F 
ENDROOT
BRANCH   3   7
HETATM    7  C1  UNL     1     -32.022   7.950   1.667  1.00 20.00     0.233 C 
HETATM    8  O6  UNL     1     -30.810   7.769   1.740  1.00 20.00    -0.279 OA
HETATM    9 CL9  UNL     1     -32.815   9.275   0.871  1.00 20.00    -0.043 Cl
ENDBRANCH   3   7
TORSDOF 1
ENDMDL
MODEL 8
REMARK VINA RESULT:      -0.2      1.821      2.635
REMARK  1 active torsions:
REMARK  status: ('A' for Active; 'I' for Inactive)
REMARK    1  A    between atoms: C1_1  and  C4_4 
ROOT
HETATM    1  C2  UNL     1     -32.917   8.505   1.707  1.00 20.00     0.225 A 
HETATM    2  C3  UNL     1     -31.778   8.131   2.590  1.00 20.00     0.225 A 
HETATM    3  C4  UNL     1     -33.097   7.405   2.730  1.00 20.00     0.099 A 
HETATM    4  C5  UNL     1     -33.929   7.735   3.943  1.00 20.00     0.031 C 
HETATM    5  F7  UNL     1     -32.834   8.150   0.371  1.00 20.00    -0.245 F 
HETATM    6  F8  UNL     1     -30.717   7.457   2.012  1.00 20.00    -0.245 F 
ENDROOT
BRANCH   3   7
HETATM    7  C1  UNL     1     -33.163   6.012   2.226  1.00 20.00     0.233 C 
HETATM    8  O6  UNL     1     -32.829   5.723   1.082  1.00 20.00    -0.279 OA
HETATM    9 CL9  UNL     1     -33.752   4.908   3.432  1.00 20.00    -0.043 Cl
ENDBRANCH   3   7
TORSDOF 1
ENDMDL
MODEL 9
REMARK VINA RESULT:      -0.0      2.484      3.050
REMARK  1 active torsions:
REMARK  status: ('A' for Active; 'I' for Inactive)
REMARK    1  A    between atoms: C1_1  and  C4_4 
ROOT
HETATM    1  C2  UNL     1     -33.203   6.721   1.071  1.00 20.00     0.225 A 
HETATM    2  C3  UNL     1     -31.964   6.209   1.719  1.00 20.00     0.225 A 
HETATM    3  C4  UNL     1     -33.105   6.702   2.580  1.00 20.00     0.099 A 
HETATM    4  C5  UNL     1     -32.915   8.032   3.265  1.00 20.00     0.031 C 
HETATM    5  F7  UNL     1     -34.031   5.797   0.456  1.00 20.00    -0.245 F 
HETATM    6  F8  UNL     1     -31.729   4.847   1.661  1.00 20.00    -0.245 F 
ENDROOT
BRANCH   3   7
HETATM    7  C1  UNL     1     -33.904   5.682   3.301  1.00 20.00     0.233 C 
HETATM    8  O6  UNL     1     -33.501   4.532   3.446  1.00 20.00    -0.279 OA
HETATM    9 CL9  UNL     1     -35.411   6.321   3.881  1.00 20.00    -0.043 Cl
ENDBRANCH   3   7
TORSDOF 1
ENDMDL
