MODEL 1
REMARK VINA RESULT:      -2.4      0.000      0.000
REMARK  1 active torsions:
REMARK  status: ('A' for Active; 'I' for Inactive)
REMARK    1  A    between atoms: C1_1  and  C4_4 
ROOT
HETATM    1  C2  UNL     1     -32.804   5.553   2.070  1.00 20.00     0.016 C 
HETATM    2  C3  UNL     1     -31.898   6.323   1.091  1.00 20.00     0.022 C 
HETATM    3  C4  UNL     1     -33.552   6.889   2.322  1.00 20.00     0.090 C 
HETATM    4  C5  UNL     1     -32.228   7.595   1.904  1.00 20.00     0.094 C 
HETATM    5 CL8  UNL     1     -32.322   9.156   1.042  1.00 20.00    -0.124 Cl
ENDROOT
BRANCH   3   6
HETATM    6  C1  UNL     1     -34.082   7.153   3.733  1.00 20.00     0.224 C 
HETATM    7  O6  UNL     1     -33.552   7.972   4.480  1.00 20.00    -0.279 OA
HETATM    8 CL7  UNL     1     -35.471   6.175   4.105  1.00 20.00    -0.043 Cl
ENDBRANCH   3   6
TORSDOF 1
ENDMDL
MODEL 2
REMARK VINA RESULT:      -2.1      2.110      2.373
REMARK  1 active torsions:
REMARK  status: ('A' for Active; 'I' for Inactive)
REMARK    1  A    between atoms: C1_1  and  C4_4 
ROOT
HETATM    1  C2  UNL     1     -33.225   7.986   3.110  1.00 20.00     0.016 C 
HETATM    2  C3  UNL     1     -32.325   7.813   1.872  1.00 20.00     0.022 C 
HETATM    3  C4  UNL     1     -33.205   6.442   3.257  1.00 20.00     0.090 C 
HETATM    4  C5  UNL     1     -32.929   6.398   1.724  1.00 20.00     0.094 C 
HETATM    5 CL8  UNL     1     -31.897   5.095   1.074  1.00 20.00    -0.124 Cl
ENDROOT
BRANCH   3   6
HETATM    6  C1  UNL     1     -34.476   5.759   3.769  1.00 20.00     0.224 C 
HETATM    7  O6  UNL     1     -35.545   6.359   3.847  1.00 20.00    -0.279 OA
HETATM    8 CL7  UNL     1     -34.198   4.098   4.199  1.00 20.00    -0.043 Cl
ENDBRANCH   3   6
TORSDOF 1
ENDMDL
MODEL 3
REMARK VINA RESULT:      -2.0      1.343      1.343
REMARK  1 active torsions:
REMARK  status: ('A' for Active; 'I' for Inactive)
REMARK    1  A    between atoms: C1_1  and  C4_4 
ROOT
HETATM    1  C2  UNL     1     -32.892   5.395   2.089  1.00 20.00     0.016 C 
HETATM    2  C3  UNL     1     -31.915   6.184   1.197  1.00 20.00     0.022 C 
HETATM    3  C4  UNL     1     -33.657   6.726   2.312  1.00 20.00     0.090 C 
HETATM    4  C5  UNL     1     -32.305   7.439   2.009  1.00 20.00     0.094 C 
HETATM    5 CL8  UNL     1     -32.335   9.018   1.176  1.00 20.00    -0.124 Cl
ENDROOT
BRANCH   3   6
HETATM    6  C1  UNL     1     -34.291   6.961   3.685  1.00 20.00     0.224 C 
HETATM    7  O6  UNL     1     -35.328   6.397   4.024  1.00 20.00    -0.279 OA
HETATM    8 CL7  UNL     1     -33.374   8.084   4.645  1.00 20.00    -0.043 Cl
ENDBRANCH   3   6
TORSDOF 1
ENDMDL
MODEL 4
REMARK VINA RESULT:      -1.9      2.202      4.004
REMARK  1 active torsions:
REMARK  status: ('A' for Active; 'I' for Inactive)
REMARK    1  A    between atoms: C1_1  and  C4_4 
ROOT
HETATM    1  C2  UNL     1     -34.644   7.165   3.190  1.00 20.00     0.016 C 
HETATM    2  C3  UNL     1     -35.077   6.180   4.293  1.00 20.00     0.022 C 
HETATM    3  C4  UNL     1     -33.870   5.990   2.538  1.00 20.00     0.090 C 
HETATM    4  C5  UNL     1     -33.800   5.372   3.966  1.00 20.00     0.094 C 
HETATM    5 CL8  UNL     1     -33.849   3.596   4.137  1.00 20.00    -0.124 Cl
ENDROOT
BRANCH   3   6
HETATM    6  C1  UNL     1     -32.546   6.310   1.839  1.00 20.00     0.224 C 
HETATM    7  O6  UNL     1     -31.889   5.443   1.269  1.00 20.00    -0.279 OA
HETATM    8 CL7  UNL     1     -32.131   7.994   1.963  1.00 20.00    -0.043 Cl
ENDBRANCH   3   6
TORSDOF 1
ENDMDL
MODEL 5
REMARK VINA RESULT:      -1.5      2.252      3.572
REMARK  1 active torsions:
REMARK  status: ('A' for Active; 'I' for Inactive)
REMARK    1  A    between atoms: C1_1  and  C4_4 
ROOT
HETATM    1  C2  UNL     1     -34.207   4.593   3.383  1.00 20.00     0.016 C 
HETATM    2  C3  UNL     1     -34.989   5.420   4.421  1.00 20.00     0.022 C 
HETATM    3  C4  UNL     1     -33.282   5.825   3.198  1.00 20.00     0.090 C 
HETATM    4  C5  UNL     1     -34.492   6.681   3.679  1.00 20.00     0.094 C 
HETATM    5 CL8  UNL     1     -34.175   8.159   4.629  1.00 20.00    -0.124 Cl
ENDROOT
BRANCH   3   6
HETATM    6  C1  UNL     1     -32.733   6.099   1.795  1.00 20.00     0.224 C 
HETATM    7  O6  UNL     1     -32.833   5.275   0.890  1.00 20.00    -0.279 OA
HETATM    8 CL7  UNL     1     -31.988   7.665   1.678  1.00 20.00    -0.043 Cl
ENDBRANCH   3   6
TORSDOF 1
ENDMDL
MODEL 6
REMARK VINA RESULT:      -1.3      2.293      3.353
REMARK  1 active torsions:
REMARK  status: ('A' for Active; 'I' for Inactive)
REMARK    1  A    between atoms: C1_1  and  C4_4 
ROOT
HETATM    1  C2  UNL     1     -34.596   5.736   2.965  1.00 20.00     0.016 C 
HETATM    2  C3  UNL     1     -35.080   6.503   4.211  1.00 20.00     0.022 C 
HETATM    3  C4  UNL     1     -33.219   6.424   3.161  1.00 20.00     0.090 C 
HETATM    4  C5  UNL     1     -34.000   7.560   3.887  1.00 20.00     0.094 C 
HETATM    5 CL8  UNL     1     -33.211   8.413   5.242  1.00 20.00    -0.124 Cl
ENDROOT
BRANCH   3   6
HETATM    6  C1  UNL     1     -32.426   6.800   1.906  1.00 20.00     0.224 C 
HETATM    7  O6  UNL     1     -32.173   7.969   1.627  1.00 20.00    -0.279 OA
HETATM    8 CL7  UNL     1     -31.961   5.402   0.983  1.00 20.00    -0.043 Cl
ENDBRANCH   3   6
TORSDOF 1
ENDMDL
MODEL 7
REMARK VINA RESULT:      -1.3      1.986      3.346
REMARK  1 active torsions:
REMARK  status: ('A' for Active; 'I' for Inactive)
REMARK    1  A    between atoms: C1_1  and  C4_4 
ROOT
HETATM    1  C2  UNL     1     -33.840   7.346   3.628  1.00 20.00     0.016 C 
HETATM    2  C3  UNL     1     -34.132   5.872   3.289  1.00 20.00     0.022 C 
HETATM    3  C4  UNL     1     -33.283   7.496   2.187  1.00 20.00     0.090 C 
HETATM    4  C5  UNL     1     -32.997   5.966   2.244  1.00 20.00     0.094 C 
HETATM    5 CL8  UNL     1     -33.140   5.010   0.744  1.00 20.00    -0.124 Cl
ENDROOT
BRANCH   3   6
HETATM    6  C1  UNL     1     -32.091   8.434   1.979  1.00 20.00     0.224 C 
HETATM    7  O6  UNL     1     -31.149   8.466   2.767  1.00 20.00    -0.279 OA
HETATM    8 CL7  UNL     1     -32.257   9.394   0.540  1.00 20.00    -0.043 Cl
ENDBRANCH   3   6
TORSDOF 1
ENDMDL
MODEL 8
REMARK VINA RESULT:      -1.2      2.107      3.606
REMARK  1 active torsions:
REMARK  status: ('A' for Active; 'I' for Inactive)
REMARK    1  A    between atoms: C1_1  and  C4_4 
ROOT
HETATM    1  C2  UNL     1     -32.595   8.423   4.243  1.00 20.00     0.016 C 
HETATM    2  C3  UNL     1     -33.784   7.893   5.067  1.00 20.00     0.022 C 
HETATM    3  C4  UNL     1     -33.313   7.877   2.981  1.00 20.00     0.090 C 
HETATM    4  C5  UNL     1     -34.011   6.863   3.936  1.00 20.00     0.094 C 
HETATM    5 CL8  UNL     1     -35.682   6.351   3.572  1.00 20.00    -0.124 Cl
ENDROOT
BRANCH   3   6
HETATM    6  C1  UNL     1     -32.443   7.309   1.857  1.00 20.00     0.224 C 
HETATM    7  O6  UNL     1     -31.608   7.997   1.275  1.00 20.00    -0.279 OA
HETATM    8 CL7  UNL     1     -32.789   5.634   1.544  1.00 20.00    -0.043 Cl
ENDBRANCH   3   6
TORSDOF 1
ENDMDL
MODEL 9
REMARK VINA RESULT:      -1.1      2.385      2.680
REMARK  1 active torsions:
REMARK  status: ('A' for Active; 'I' for Inactive)
REMARK    1  A    between atoms: C1_1  and  C4_4 
ROOT
HETATM    1  C2  UNL     1     -33.323   5.920   2.055  1.00 20.00     0.016 C 
HETATM    2  C3  UNL     1     -32.733   7.307   2.369  1.00 20.00     0.022 C 
HETATM    3  C4  UNL     1     -34.273   6.124   3.265  1.00 20.00     0.090 C 
HETATM    4  C5  UNL     1     -33.185   7.086   3.830  1.00 20.00     0.094 C 
HETATM    5 CL8  UNL     1     -33.702   8.501   4.786  1.00 20.00    -0.124 Cl
ENDROOT
BRANCH   3   6
HETATM    6  C1  UNL     1     -34.636   4.894   4.101  1.00 20.00     0.224 C 
HETATM    7  O6  UNL     1     -35.678   4.838   4.748  1.00 20.00    -0.279 OA
HETATM    8 CL7  UNL     1     -33.421   3.655   4.003  1.00 20.00    -0.043 Cl
ENDBRANCH   3   6
TORSDOF 1
ENDMDL
