MODEL 1
REMARK VINA RESULT:       0.8      0.000      0.000
REMARK  1 active torsions:
REMARK  status: ('A' for Active; 'I' for Inactive)
REMARK    1  A    between atoms: C3_3  and  C9_9 
ROOT
HETATM    1  C1  UNL     1     -33.348   6.141   1.138  1.00 20.00    -0.067 A 
HETATM    2  C2  UNL     1     -33.930   6.118  -0.042  1.00 20.00     0.016 C 
HETATM    3  C4  UNL     1     -35.090   4.819   4.837  1.00 20.00     0.000 C 
HETATM    4  C5  UNL     1     -35.555   5.972   3.944  1.00 20.00     0.001 C 
HETATM    5  C6  UNL     1     -33.726   4.250   4.436  1.00 20.00     0.001 C 
HETATM    6  C7  UNL     1     -34.380   6.751   3.360  1.00 20.00     0.015 C 
HETATM    7  C8  UNL     1     -33.469   4.391   2.939  1.00 20.00     0.015 C 
HETATM    8  C9  UNL     1     -32.179   6.457   1.857  1.00 20.00     0.096 A 
HETATM    9  C10 UNL     1     -33.496   5.848   2.519  1.00 20.00    -0.003 A 
ENDROOT
BRANCH   8  10
HETATM   10  C3  UNL     1     -31.879   7.884   1.987  1.00 20.00     0.132 C 
HETATM   11  C11 UNL     1     -32.070   8.730   0.757  1.00 20.00     0.091 C 
HETATM   12  O12 UNL     1     -31.492   8.369   3.049  1.00 20.00    -0.298 OA
ENDBRANCH   8  10
TORSDOF 1
ENDMDL
MODEL 2
REMARK VINA RESULT:       1.6      1.927      4.404
REMARK  1 active torsions:
REMARK  status: ('A' for Active; 'I' for Inactive)
REMARK    1  A    between atoms: C3_3  and  C9_9 
ROOT
HETATM    1  C1  UNL     1     -34.959   6.078   3.676  1.00 20.00    -0.067 A 
HETATM    2  C2  UNL     1     -36.244   6.203   3.419  1.00 20.00     0.016 C 
HETATM    3  C4  UNL     1     -31.771   8.164   1.689  1.00 20.00     0.000 C 
HETATM    4  C5  UNL     1     -32.758   7.166   1.079  1.00 20.00     0.001 C 
HETATM    5  C6  UNL     1     -31.831   8.223   3.217  1.00 20.00     0.001 C 
HETATM    6  C7  UNL     1     -33.051   6.004   2.024  1.00 20.00     0.015 C 
HETATM    7  C8  UNL     1     -33.225   7.897   3.745  1.00 20.00     0.015 C 
HETATM    8  C9  UNL     1     -33.985   5.449   4.476  1.00 20.00     0.096 A 
HETATM    9  C10 UNL     1     -33.650   6.503   3.326  1.00 20.00    -0.003 A 
ENDROOT
BRANCH   8  10
HETATM   10  C3  UNL     1     -33.798   4.016   4.240  1.00 20.00     0.132 C 
HETATM   11  C11 UNL     1     -32.951   3.272   5.238  1.00 20.00     0.091 C 
HETATM   12  O12 UNL     1     -34.309   3.447   3.277  1.00 20.00    -0.298 OA
ENDBRANCH   8  10
TORSDOF 1
ENDMDL
MODEL 3
REMARK VINA RESULT:       2.2      1.516      2.986
REMARK  1 active torsions:
REMARK  status: ('A' for Active; 'I' for Inactive)
REMARK    1  A    between atoms: C3_3  and  C9_9 
ROOT
HETATM    1  C1  UNL     1     -31.450   8.416   2.549  1.00 20.00    -0.067 A 
HETATM    2  C2  UNL     1     -30.196   8.343   2.943  1.00 20.00     0.016 C 
HETATM    3  C4  UNL     1     -34.530   5.539   3.383  1.00 20.00     0.000 C 
HETATM    4  C5  UNL     1     -33.251   5.330   2.569  1.00 20.00     0.001 C 
HETATM    5  C6  UNL     1     -34.799   7.006   3.729  1.00 20.00     0.001 C 
HETATM    6  C7  UNL     1     -32.918   6.544   1.707  1.00 20.00     0.015 C 
HETATM    7  C8  UNL     1     -33.506   7.805   3.861  1.00 20.00     0.015 C 
HETATM    8  C9  UNL     1     -32.412   9.173   1.852  1.00 20.00     0.096 A 
HETATM    9  C10 UNL     1     -32.719   7.779   2.565  1.00 20.00    -0.003 A 
ENDROOT
BRANCH   8  10
HETATM   10  C3  UNL     1     -32.239   9.237   0.399  1.00 20.00     0.132 C 
HETATM   11  C11 UNL     1     -33.147  10.175  -0.349  1.00 20.00     0.091 C 
HETATM   12  O12 UNL     1     -31.393   8.559  -0.181  1.00 20.00    -0.298 OA
ENDBRANCH   8  10
TORSDOF 1
ENDMDL
MODEL 4
REMARK VINA RESULT:       2.6      2.247      2.735
REMARK  1 active torsions:
REMARK  status: ('A' for Active; 'I' for Inactive)
REMARK    1  A    between atoms: C3_3  and  C9_9 
ROOT
HETATM    1  C1  UNL     1     -31.981   7.217   1.455  1.00 20.00    -0.067 A 
HETATM    2  C2  UNL     1     -31.686   6.072   0.878  1.00 20.00     0.016 C 
HETATM    3  C4  UNL     1     -34.319   7.716   5.026  1.00 20.00     0.000 C 
HETATM    4  C5  UNL     1     -34.775   7.142   3.682  1.00 20.00     0.001 C 
HETATM    5  C6  UNL     1     -32.935   8.369   4.971  1.00 20.00     0.001 C 
HETATM    6  C7  UNL     1     -34.173   7.901   2.504  1.00 20.00     0.015 C 
HETATM    7  C8  UNL     1     -32.041   7.721   3.918  1.00 20.00     0.015 C 
HETATM    8  C9  UNL     1     -31.829   8.617   1.417  1.00 20.00     0.096 A 
HETATM    9  C10 UNL     1     -32.657   7.841   2.537  1.00 20.00    -0.003 A 
ENDROOT
BRANCH   8  10
HETATM   10  C3  UNL     1     -32.525   9.302   0.326  1.00 20.00     0.132 C 
HETATM   11  C11 UNL     1     -32.816  10.765   0.524  1.00 20.00     0.091 C 
HETATM   12  O12 UNL     1     -32.853   8.713  -0.702  1.00 20.00    -0.298 OA
ENDBRANCH   8  10
TORSDOF 1
ENDMDL
MODEL 5
REMARK VINA RESULT:       2.6      1.774      4.313
REMARK  1 active torsions:
REMARK  status: ('A' for Active; 'I' for Inactive)
REMARK    1  A    between atoms: C3_3  and  C9_9 
ROOT
HETATM    1  C1  UNL     1     -32.421   5.667   1.424  1.00 20.00    -0.067 A 
HETATM    2  C2  UNL     1     -31.517   4.734   1.215  1.00 20.00     0.016 C 
HETATM    3  C4  UNL     1     -31.860   9.894   0.902  1.00 20.00     0.000 C 
HETATM    4  C5  UNL     1     -31.145   8.972   1.893  1.00 20.00     0.001 C 
HETATM    5  C6  UNL     1     -33.045   9.231   0.198  1.00 20.00     0.001 C 
HETATM    6  C7  UNL     1     -32.091   7.932   2.488  1.00 20.00     0.015 C 
HETATM    7  C8  UNL     1     -32.848   7.725   0.046  1.00 20.00     0.015 C 
HETATM    8  C9  UNL     1     -33.750   5.939   1.805  1.00 20.00     0.096 A 
HETATM    9  C10 UNL     1     -32.691   7.061   1.400  1.00 20.00    -0.003 A 
ENDROOT
BRANCH   8  10
HETATM   10  C3  UNL     1     -34.068   5.699   3.215  1.00 20.00     0.132 C 
HETATM   11  C11 UNL     1     -34.932   6.726   3.896  1.00 20.00     0.091 C 
HETATM   12  O12 UNL     1     -33.653   4.708   3.812  1.00 20.00    -0.298 OA
ENDBRANCH   8  10
TORSDOF 1
ENDMDL
