MODEL 1
REMARK VINA RESULT:      -1.6      0.000      0.000
REMARK  3 active torsions:
REMARK  status: ('A' for Active; 'I' for Inactive)
REMARK    1  A    between atoms: C1_1  and  C2_2 
REMARK    2  A    between atoms: C4_4  and  C9_9 
REMARK    3  A    between atoms: C5_5  and  C9_9 
ROOT
HETATM    1  C2  UNL     1     -31.995   7.671   1.644  1.00 20.00    -0.004 C 
HETATM    2  C4  UNL     1     -32.956   7.066   2.358  1.00 20.00    -0.015 C 
ENDROOT
BRANCH   2   3
HETATM    3  C9  UNL     1     -32.946   5.597   2.689  1.00 20.00     0.073 C 
HETATM    4  C8  UNL     1     -33.002   4.745   1.426  1.00 20.00     0.022 C 
BRANCH   3   5
HETATM    5  C5  UNL     1     -34.140   5.274   3.584  1.00 20.00     0.130 C 
HETATM    6  C7  UNL     1     -35.087   6.411   3.881  1.00 20.00     0.091 C 
HETATM    7  O10 UNL     1     -34.320   4.162   4.079  1.00 20.00    -0.298 OA
ENDBRANCH   3   5
ENDBRANCH   2   3
BRANCH   1   8
HETATM    8  C1  UNL     1     -32.011   9.083   1.332  1.00 20.00    -0.005 C 
HETATM    9  C3  UNL     1     -32.467   9.570   0.169  1.00 20.00    -0.031 C 
HETATM   10  C6  UNL     1     -32.489  11.026  -0.166  1.00 20.00     0.036 C 
ENDBRANCH   1   8
TORSDOF 3
ENDMDL
MODEL 2
REMARK VINA RESULT:      -0.9      1.247      2.078
REMARK  3 active torsions:
REMARK  status: ('A' for Active; 'I' for Inactive)
REMARK    1  A    between atoms: C1_1  and  C2_2 
REMARK    2  A    between atoms: C4_4  and  C9_9 
REMARK    3  A    between atoms: C5_5  and  C9_9 
ROOT
HETATM    1  C2  UNL     1     -32.573   8.082   2.543  1.00 20.00    -0.004 C 
HETATM    2  C4  UNL     1     -33.857   7.737   2.723  1.00 20.00    -0.015 C 
ENDROOT
BRANCH   2   3
HETATM    3  C9  UNL     1     -34.419   7.291   4.047  1.00 20.00     0.073 C 
HETATM    4  C8  UNL     1     -33.503   7.686   5.200  1.00 20.00     0.022 C 
BRANCH   3   5
HETATM    5  C5  UNL     1     -34.605   5.776   4.030  1.00 20.00     0.130 C 
HETATM    6  C7  UNL     1     -33.550   4.975   3.309  1.00 20.00     0.091 C 
HETATM    7  O10 UNL     1     -35.577   5.218   4.540  1.00 20.00    -0.298 OA
ENDBRANCH   3   5
ENDBRANCH   2   3
BRANCH   1   8
HETATM    8  C1  UNL     1     -32.041   8.510   1.268  1.00 20.00    -0.005 C 
HETATM    9  C3  UNL     1     -32.522   9.561   0.589  1.00 20.00    -0.031 C 
HETATM   10  C6  UNL     1     -31.983  10.013  -0.729  1.00 20.00     0.036 C 
ENDBRANCH   1   8
TORSDOF 3
ENDMDL
MODEL 3
REMARK VINA RESULT:      -0.8      1.396      1.946
REMARK  3 active torsions:
REMARK  status: ('A' for Active; 'I' for Inactive)
REMARK    1  A    between atoms: C1_1  and  C2_2 
REMARK    2  A    between atoms: C4_4  and  C9_9 
REMARK    3  A    between atoms: C5_5  and  C9_9 
ROOT
HETATM    1  C2  UNL     1     -32.403   8.102   2.357  1.00 20.00    -0.004 C 
HETATM    2  C4  UNL     1     -33.709   7.930   2.608  1.00 20.00    -0.015 C 
ENDROOT
BRANCH   2   3
HETATM    3  C9  UNL     1     -34.240   7.366   3.899  1.00 20.00     0.073 C 
HETATM    4  C8  UNL     1     -33.358   7.758   5.079  1.00 20.00     0.022 C 
BRANCH   3   5
HETATM    5  C5  UNL     1     -34.315   5.845   3.792  1.00 20.00     0.130 C 
HETATM    6  C7  UNL     1     -35.397   5.165   4.593  1.00 20.00     0.091 C 
HETATM    7  O10 UNL     1     -33.520   5.184   3.122  1.00 20.00    -0.298 OA
ENDBRANCH   3   5
ENDBRANCH   2   3
BRANCH   1   8
HETATM    8  C1  UNL     1     -31.901   8.645   1.114  1.00 20.00    -0.005 C 
HETATM    9  C3  UNL     1     -32.479   9.674   0.478  1.00 20.00    -0.031 C 
HETATM   10  C6  UNL     1     -31.972  10.243  -0.807  1.00 20.00     0.036 C 
ENDBRANCH   1   8
TORSDOF 3
ENDMDL
MODEL 4
REMARK VINA RESULT:      -0.6      2.668      5.155
REMARK  3 active torsions:
REMARK  status: ('A' for Active; 'I' for Inactive)
REMARK    1  A    between atoms: C1_1  and  C2_2 
REMARK    2  A    between atoms: C4_4  and  C9_9 
REMARK    3  A    between atoms: C5_5  and  C9_9 
ROOT
HETATM    1  C2  UNL     1     -33.146   7.777   3.136  1.00 20.00    -0.004 C 
HETATM    2  C4  UNL     1     -32.986   7.571   1.820  1.00 20.00    -0.015 C 
ENDROOT
BRANCH   2   3
HETATM    3  C9  UNL     1     -31.905   8.226   1.002  1.00 20.00     0.073 C 
HETATM    4  C8  UNL     1     -30.743   8.679   1.880  1.00 20.00     0.022 C 
BRANCH   3   5
HETATM    5  C5  UNL     1     -32.491   9.424   0.260  1.00 20.00     0.130 C 
HETATM    6  C7  UNL     1     -32.673  10.690   1.060  1.00 20.00     0.091 C 
HETATM    7  O10 UNL     1     -32.841   9.372  -0.920  1.00 20.00    -0.298 OA
ENDBRANCH   3   5
ENDBRANCH   2   3
BRANCH   1   8
HETATM    8  C1  UNL     1     -34.187   7.143   3.915  1.00 20.00    -0.005 C 
HETATM    9  C3  UNL     1     -34.513   5.849   3.786  1.00 20.00    -0.031 C 
HETATM   10  C6  UNL     1     -35.586   5.182   4.583  1.00 20.00     0.036 C 
ENDBRANCH   1   8
TORSDOF 3
ENDMDL
MODEL 5
REMARK VINA RESULT:      -0.3      2.628      5.244
REMARK  3 active torsions:
REMARK  status: ('A' for Active; 'I' for Inactive)
REMARK    1  A    between atoms: C1_1  and  C2_2 
REMARK    2  A    between atoms: C4_4  and  C9_9 
REMARK    3  A    between atoms: C5_5  and  C9_9 
ROOT
HETATM    1  C2  UNL     1     -33.332   7.765   3.290  1.00 20.00    -0.004 C 
HETATM    2  C4  UNL     1     -33.018   7.558   2.002  1.00 20.00    -0.015 C 
ENDROOT
BRANCH   2   3
HETATM    3  C9  UNL     1     -31.906   8.283   1.292  1.00 20.00     0.073 C 
HETATM    4  C8  UNL     1     -30.786   8.662   2.255  1.00 20.00     0.022 C 
BRANCH   3   5
HETATM    5  C5  UNL     1     -32.466   9.539   0.630  1.00 20.00     0.130 C 
HETATM    6  C7  UNL     1     -32.559   9.524  -0.876  1.00 20.00     0.091 C 
HETATM    7  O10 UNL     1     -32.796  10.539   1.269  1.00 20.00    -0.298 OA
ENDBRANCH   3   5
ENDBRANCH   2   3
BRANCH   1   8
HETATM    8  C1  UNL     1     -34.401   7.064   3.966  1.00 20.00    -0.005 C 
HETATM    9  C3  UNL     1     -34.513   5.728   3.970  1.00 20.00    -0.031 C 
HETATM   10  C6  UNL     1     -35.613   4.992   4.663  1.00 20.00     0.036 C 
ENDBRANCH   1   8
TORSDOF 3
ENDMDL
MODEL 6
REMARK VINA RESULT:       0.0      1.696      2.863
REMARK  3 active torsions:
REMARK  status: ('A' for Active; 'I' for Inactive)
REMARK    1  A    between atoms: C1_1  and  C2_2 
REMARK    2  A    between atoms: C4_4  and  C9_9 
REMARK    3  A    between atoms: C5_5  and  C9_9 
ROOT
HETATM    1  C2  UNL     1     -33.814   6.644   3.352  1.00 20.00    -0.004 C 
HETATM    2  C4  UNL     1     -33.472   5.347   3.356  1.00 20.00    -0.015 C 
ENDROOT
BRANCH   2   3
HETATM    3  C9  UNL     1     -34.351   4.257   3.912  1.00 20.00     0.073 C 
HETATM    4  C8  UNL     1     -35.359   4.814   4.911  1.00 20.00     0.022 C 
BRANCH   3   5
HETATM    5  C5  UNL     1     -33.478   3.203   4.589  1.00 20.00     0.130 C 
HETATM    6  C7  UNL     1     -32.542   3.693   5.665  1.00 20.00     0.091 C 
HETATM    7  O10 UNL     1     -33.495   2.016   4.264  1.00 20.00    -0.298 OA
ENDBRANCH   3   5
ENDBRANCH   2   3
BRANCH   1   8
HETATM    8  C1  UNL     1     -32.964   7.684   2.816  1.00 20.00    -0.005 C 
HETATM    9  C3  UNL     1     -32.341   7.584   1.633  1.00 20.00    -0.031 C 
HETATM   10  C6  UNL     1     -31.461   8.650   1.068  1.00 20.00     0.036 C 
ENDBRANCH   1   8
TORSDOF 3
ENDMDL
MODEL 7
REMARK VINA RESULT:       0.2      2.556      5.554
REMARK  3 active torsions:
REMARK  status: ('A' for Active; 'I' for Inactive)
REMARK    1  A    between atoms: C1_1  and  C2_2 
REMARK    2  A    between atoms: C4_4  and  C9_9 
REMARK    3  A    between atoms: C5_5  and  C9_9 
ROOT
HETATM    1  C2  UNL     1     -34.338   5.478   3.956  1.00 20.00    -0.004 C 
HETATM    2  C4  UNL     1     -33.232   6.124   3.557  1.00 20.00    -0.015 C 
ENDROOT
BRANCH   2   3
HETATM    3  C9  UNL     1     -33.188   7.602   3.276  1.00 20.00     0.073 C 
HETATM    4  C8  UNL     1     -34.588   8.206   3.264  1.00 20.00     0.022 C 
BRANCH   3   5
HETATM    5  C5  UNL     1     -32.510   7.839   1.929  1.00 20.00     0.130 C 
HETATM    6  C7  UNL     1     -32.021   6.615   1.196  1.00 20.00     0.091 C 
HETATM    7  O10 UNL     1     -32.328   8.964   1.463  1.00 20.00    -0.298 OA
ENDBRANCH   3   5
ENDBRANCH   2   3
BRANCH   1   8
HETATM    8  C1  UNL     1     -34.371   4.058   4.225  1.00 20.00    -0.005 C 
HETATM    9  C3  UNL     1     -33.269   3.328   4.447  1.00 20.00    -0.031 C 
HETATM   10  C6  UNL     1     -33.289   1.861   4.725  1.00 20.00     0.036 C 
ENDBRANCH   1   8
TORSDOF 3
ENDMDL
MODEL 8
REMARK VINA RESULT:       0.3      2.599      3.785
REMARK  3 active torsions:
REMARK  status: ('A' for Active; 'I' for Inactive)
REMARK    1  A    between atoms: C1_1  and  C2_2 
REMARK    2  A    between atoms: C4_4  and  C9_9 
REMARK    3  A    between atoms: C5_5  and  C9_9 
ROOT
HETATM    1  C2  UNL     1     -32.938   6.249   1.633  1.00 20.00    -0.004 C 
HETATM    2  C4  UNL     1     -32.960   6.621   2.922  1.00 20.00    -0.015 C 
ENDROOT
BRANCH   2   3
HETATM    3  C9  UNL     1     -34.119   7.340   3.560  1.00 20.00     0.073 C 
HETATM    4  C8  UNL     1     -33.719   7.963   4.893  1.00 20.00     0.022 C 
BRANCH   3   5
HETATM    5  C5  UNL     1     -35.267   6.356   3.772  1.00 20.00     0.130 C 
HETATM    6  C7  UNL     1     -34.925   5.061   4.465  1.00 20.00     0.091 C 
HETATM    7  O10 UNL     1     -36.412   6.572   3.373  1.00 20.00    -0.298 OA
ENDBRANCH   3   5
ENDBRANCH   2   3
BRANCH   1   8
HETATM    8  C1  UNL     1     -31.821   5.557   1.028  1.00 20.00    -0.005 C 
HETATM    9  C3  UNL     1     -31.949   4.401   0.363  1.00 20.00    -0.031 C 
HETATM   10  C6  UNL     1     -30.804   3.676  -0.266  1.00 20.00     0.036 C 
ENDBRANCH   1   8
TORSDOF 3
ENDMDL
MODEL 9
REMARK VINA RESULT:       0.3      2.392      5.232
REMARK  3 active torsions:
REMARK  status: ('A' for Active; 'I' for Inactive)
REMARK    1  A    between atoms: C1_1  and  C2_2 
REMARK    2  A    between atoms: C4_4  and  C9_9 
REMARK    3  A    between atoms: C5_5  and  C9_9 
ROOT
HETATM    1  C2  UNL     1     -34.014   5.433   3.585  1.00 20.00    -0.004 C 
HETATM    2  C4  UNL     1     -33.194   5.876   2.620  1.00 20.00    -0.015 C 
ENDROOT
BRANCH   2   3
HETATM    3  C9  UNL     1     -33.032   7.331   2.269  1.00 20.00     0.073 C 
HETATM    4  C8  UNL     1     -31.907   7.537   1.261  1.00 20.00     0.022 C 
BRANCH   3   5
HETATM    5  C5  UNL     1     -32.741   8.126   3.539  1.00 20.00     0.130 C 
HETATM    6  C7  UNL     1     -33.842   8.178   4.569  1.00 20.00     0.091 C 
HETATM    7  O10 UNL     1     -31.684   8.732   3.719  1.00 20.00    -0.298 OA
ENDBRANCH   3   5
ENDBRANCH   2   3
BRANCH   1   8
HETATM    8  C1  UNL     1     -34.163   4.034   3.916  1.00 20.00    -0.005 C 
HETATM    9  C3  UNL     1     -33.163   3.287   4.406  1.00 20.00    -0.031 C 
HETATM   10  C6  UNL     1     -33.303   1.840   4.751  1.00 20.00     0.036 C 
ENDBRANCH   1   8
TORSDOF 3
ENDMDL
