MODEL 1
REMARK VINA RESULT:      -2.1      0.000      0.000
REMARK  1 active torsions:
REMARK  status: ('A' for Active; 'I' for Inactive)
REMARK    1  A    between atoms: C3_3  and  C6_6 
ROOT
HETATM    1  C1  UNL     1     -32.266   7.734   1.946  1.00 20.00    -0.030 A 
HETATM    2  C2  UNL     1     -33.121   7.856   2.975  1.00 20.00    -0.025 A 
HETATM    3  C4  UNL     1     -32.389   6.354   1.350  1.00 20.00     0.033 A 
HETATM    4  C5  UNL     1     -33.929   6.649   3.220  1.00 20.00     0.024 A 
HETATM    5  C6  UNL     1     -33.270   5.358   3.636  1.00 20.00     0.068 A 
HETATM    6  C7  UNL     1     -33.460   5.662   2.169  1.00 20.00     0.009 A 
ENDROOT
BRANCH   5   7
HETATM    7  C3  UNL     1     -34.090   4.310   4.256  1.00 20.00     0.128 C 
HETATM    8  C8  UNL     1     -33.412   2.997   4.536  1.00 20.00     0.091 C 
HETATM    9  O9  UNL     1     -35.274   4.498   4.534  1.00 20.00    -0.298 OA
ENDBRANCH   5   7
TORSDOF 1
ENDMDL
MODEL 2
REMARK VINA RESULT:      -1.8      1.943      3.763
REMARK  1 active torsions:
REMARK  status: ('A' for Active; 'I' for Inactive)
REMARK    1  A    between atoms: C3_3  and  C6_6 
ROOT
HETATM    1  C1  UNL     1     -35.566   5.316   4.440  1.00 20.00    -0.030 A 
HETATM    2  C2  UNL     1     -35.236   6.550   4.025  1.00 20.00    -0.025 A 
HETATM    3  C4  UNL     1     -34.407   4.379   4.209  1.00 20.00     0.033 A 
HETATM    4  C5  UNL     1     -33.869   6.648   3.486  1.00 20.00     0.024 A 
HETATM    5  C6  UNL     1     -33.479   5.888   2.244  1.00 20.00     0.068 A 
HETATM    6  C7  UNL     1     -33.318   5.240   3.599  1.00 20.00     0.009 A 
ENDROOT
BRANCH   5   7
HETATM    7  C3  UNL     1     -32.278   6.300   1.507  1.00 20.00     0.128 C 
HETATM    8  C8  UNL     1     -31.927   7.763   1.552  1.00 20.00     0.091 C 
HETATM    9  O9  UNL     1     -31.592   5.490   0.887  1.00 20.00    -0.298 OA
ENDBRANCH   5   7
TORSDOF 1
ENDMDL
MODEL 3
REMARK VINA RESULT:      -1.8      2.914      4.769
REMARK  1 active torsions:
REMARK  status: ('A' for Active; 'I' for Inactive)
REMARK    1  A    between atoms: C3_3  and  C6_6 
ROOT
HETATM    1  C1  UNL     1     -34.010   6.207   3.339  1.00 20.00    -0.030 A 
HETATM    2  C2  UNL     1     -33.657   7.462   3.663  1.00 20.00    -0.025 A 
HETATM    3  C4  UNL     1     -33.232   5.762   2.126  1.00 20.00     0.033 A 
HETATM    4  C5  UNL     1     -32.629   8.036   2.778  1.00 20.00     0.024 A 
HETATM    5  C6  UNL     1     -32.916   8.260   1.315  1.00 20.00     0.068 A 
HETATM    6  C7  UNL     1     -32.344   6.938   1.771  1.00 20.00     0.009 A 
ENDROOT
BRANCH   5   7
HETATM    7  C3  UNL     1     -32.059   9.180   0.557  1.00 20.00     0.128 C 
HETATM    8  C8  UNL     1     -32.619  10.548   0.274  1.00 20.00     0.091 C 
HETATM    9  O9  UNL     1     -30.939   8.849   0.173  1.00 20.00    -0.298 OA
ENDBRANCH   5   7
TORSDOF 1
ENDMDL
MODEL 4
REMARK VINA RESULT:      -1.8      2.483      4.217
REMARK  1 active torsions:
REMARK  status: ('A' for Active; 'I' for Inactive)
REMARK    1  A    between atoms: C3_3  and  C6_6 
ROOT
HETATM    1  C1  UNL     1     -35.148   6.202   4.086  1.00 20.00    -0.030 A 
HETATM    2  C2  UNL     1     -34.627   7.425   4.282  1.00 20.00    -0.025 A 
HETATM    3  C4  UNL     1     -34.236   5.403   3.190  1.00 20.00     0.033 A 
HETATM    4  C5  UNL     1     -33.341   7.637   3.598  1.00 20.00     0.024 A 
HETATM    5  C6  UNL     1     -33.259   7.603   2.093  1.00 20.00     0.068 A 
HETATM    6  C7  UNL     1     -33.075   6.328   2.881  1.00 20.00     0.009 A 
ENDROOT
BRANCH   5   7
HETATM    7  C3  UNL     1     -32.093   8.203   1.432  1.00 20.00     0.128 C 
HETATM    8  C8  UNL     1     -32.346   9.432   0.601  1.00 20.00     0.091 C 
HETATM    9  O9  UNL     1     -30.967   7.726   1.552  1.00 20.00    -0.298 OA
ENDBRANCH   5   7
TORSDOF 1
ENDMDL
MODEL 5
REMARK VINA RESULT:      -1.6      0.984      1.296
REMARK  1 active torsions:
REMARK  status: ('A' for Active; 'I' for Inactive)
REMARK    1  A    between atoms: C3_3  and  C6_6 
ROOT
HETATM    1  C1  UNL     1     -31.701   7.629   1.584  1.00 20.00    -0.030 A 
HETATM    2  C2  UNL     1     -32.581   7.984   2.536  1.00 20.00    -0.025 A 
HETATM    3  C4  UNL     1     -32.029   6.244   1.086  1.00 20.00     0.033 A 
HETATM    4  C5  UNL     1     -33.601   6.959   2.812  1.00 20.00     0.024 A 
HETATM    5  C6  UNL     1     -33.204   5.616   3.372  1.00 20.00     0.068 A 
HETATM    6  C7  UNL     1     -33.252   5.819   1.876  1.00 20.00     0.009 A 
ENDROOT
BRANCH   5   7
HETATM    7  C3  UNL     1     -34.231   4.781   4.008  1.00 20.00     0.128 C 
HETATM    8  C8  UNL     1     -35.520   5.462   4.381  1.00 20.00     0.091 C 
HETATM    9  O9  UNL     1     -34.047   3.585   4.223  1.00 20.00    -0.298 OA
ENDBRANCH   5   7
TORSDOF 1
ENDMDL
MODEL 6
REMARK VINA RESULT:      -1.2      2.128      3.586
REMARK  1 active torsions:
REMARK  status: ('A' for Active; 'I' for Inactive)
REMARK    1  A    between atoms: C3_3  and  C6_6 
ROOT
HETATM    1  C1  UNL     1     -35.579   5.728   4.376  1.00 20.00    -0.030 A 
HETATM    2  C2  UNL     1     -35.066   6.914   4.006  1.00 20.00    -0.025 A 
HETATM    3  C4  UNL     1     -34.575   4.637   4.098  1.00 20.00     0.033 A 
HETATM    4  C5  UNL     1     -33.702   6.825   3.460  1.00 20.00     0.024 A 
HETATM    5  C6  UNL     1     -33.435   6.064   2.186  1.00 20.00     0.068 A 
HETATM    6  C7  UNL     1     -33.370   5.346   3.513  1.00 20.00     0.009 A 
ENDROOT
BRANCH   5   7
HETATM    7  C3  UNL     1     -32.187   6.319   1.455  1.00 20.00     0.128 C 
HETATM    8  C8  UNL     1     -31.563   5.144   0.752  1.00 20.00     0.091 C 
HETATM    9  O9  UNL     1     -31.678   7.438   1.418  1.00 20.00    -0.298 OA
ENDBRANCH   5   7
TORSDOF 1
ENDMDL
MODEL 7
REMARK VINA RESULT:      -1.1      1.019      1.799
REMARK  1 active torsions:
REMARK  status: ('A' for Active; 'I' for Inactive)
REMARK    1  A    between atoms: C3_3  and  C6_6 
ROOT
HETATM    1  C1  UNL     1     -31.943   8.017   1.195  1.00 20.00    -0.030 A 
HETATM    2  C2  UNL     1     -32.132   6.689   1.129  1.00 20.00    -0.025 A 
HETATM    3  C4  UNL     1     -32.369   8.519   2.553  1.00 20.00     0.033 A 
HETATM    4  C5  UNL     1     -32.674   6.104   2.366  1.00 20.00     0.024 A 
HETATM    5  C6  UNL     1     -34.043   6.495   2.862  1.00 20.00     0.068 A 
HETATM    6  C7  UNL     1     -32.835   7.287   3.302  1.00 20.00     0.009 A 
ENDROOT
BRANCH   5   7
HETATM    7  C3  UNL     1     -34.719   5.630   3.837  1.00 20.00     0.128 C 
HETATM    8  C8  UNL     1     -34.096   4.284   4.093  1.00 20.00     0.091 C 
HETATM    9  O9  UNL     1     -35.742   5.988   4.417  1.00 20.00    -0.298 OA
ENDBRANCH   5   7
TORSDOF 1
ENDMDL
MODEL 8
REMARK VINA RESULT:      -0.8      2.235      4.183
REMARK  1 active torsions:
REMARK  status: ('A' for Active; 'I' for Inactive)
REMARK    1  A    between atoms: C3_3  and  C6_6 
ROOT
HETATM    1  C1  UNL     1     -34.870   5.169   4.374  1.00 20.00    -0.030 A 
HETATM    2  C2  UNL     1     -33.886   4.747   3.561  1.00 20.00    -0.025 A 
HETATM    3  C4  UNL     1     -35.281   6.567   3.983  1.00 20.00     0.033 A 
HETATM    4  C5  UNL     1     -33.502   5.731   2.535  1.00 20.00     0.024 A 
HETATM    5  C6  UNL     1     -32.904   7.057   2.931  1.00 20.00     0.068 A 
HETATM    6  C7  UNL     1     -34.403   6.923   2.800  1.00 20.00     0.009 A 
ENDROOT
BRANCH   5   7
HETATM    7  C3  UNL     1     -32.170   7.834   1.925  1.00 20.00     0.128 C 
HETATM    8  C8  UNL     1     -32.746   9.174   1.553  1.00 20.00     0.091 C 
HETATM    9  O9  UNL     1     -31.136   7.411   1.412  1.00 20.00    -0.298 OA
ENDBRANCH   5   7
TORSDOF 1
ENDMDL
MODEL 9
REMARK VINA RESULT:      -0.4      2.332      3.234
REMARK  1 active torsions:
REMARK  status: ('A' for Active; 'I' for Inactive)
REMARK    1  A    between atoms: C3_3  and  C6_6 
ROOT
HETATM    1  C1  UNL     1     -31.929   8.968  -0.034  1.00 20.00    -0.030 A 
HETATM    2  C2  UNL     1     -31.543   7.878   0.649  1.00 20.00    -0.025 A 
HETATM    3  C4  UNL     1     -32.713   9.881   0.875  1.00 20.00     0.033 A 
HETATM    4  C5  UNL     1     -31.968   7.880   2.058  1.00 20.00     0.024 A 
HETATM    5  C6  UNL     1     -33.432   7.856   2.417  1.00 20.00     0.068 A 
HETATM    6  C7  UNL     1     -32.733   9.180   2.219  1.00 20.00     0.009 A 
ENDROOT
BRANCH   5   7
HETATM    7  C3  UNL     1     -33.823   7.456   3.775  1.00 20.00     0.128 C 
HETATM    8  C8  UNL     1     -34.918   6.430   3.888  1.00 20.00     0.091 C 
HETATM    9  O9  UNL     1     -33.282   7.935   4.769  1.00 20.00    -0.298 OA
ENDBRANCH   5   7
TORSDOF 1
ENDMDL
