MODEL 1
REMARK VINA RESULT:      -2.2      0.000      0.000
REMARK  2 active torsions:
REMARK  status: ('A' for Active; 'I' for Inactive)
REMARK    1  A    between atoms: C3_3  and  C6_6 
REMARK    2  A    between atoms: C3_3  and  O10_10 
ROOT
HETATM    1  C1  UNL     1     -35.124   5.030   4.564  1.00 20.00    -0.023 C 
HETATM    2  C2  UNL     1     -34.025   4.423   4.102  1.00 20.00    -0.087 C 
HETATM    3  C4  UNL     1     -35.403   6.310   3.848  1.00 20.00     0.042 C 
HETATM    4  C5  UNL     1     -33.382   5.204   2.996  1.00 20.00     0.048 C 
HETATM    5  C6  UNL     1     -34.127   6.543   3.032  1.00 20.00     0.093 C 
HETATM    6  C7  UNL     1     -33.465   3.124   4.553  1.00 20.00     0.043 C 
ENDROOT
BRANCH   5   7
HETATM    7  C3  UNL     1     -33.285   7.602   3.684  1.00 20.00     0.263 C 
HETATM    8  O9  UNL     1     -33.578   8.162   4.731  1.00 20.00    -0.265 OA
BRANCH   7   9
HETATM    9  O10 UNL     1     -32.171   7.825   2.930  1.00 20.00    -0.326 OA
HETATM   10  C8  UNL     1     -32.411   8.318   1.609  1.00 20.00     0.213 C 
ENDBRANCH   7   9
ENDBRANCH   5   7
TORSDOF 2
ENDMDL
MODEL 2
REMARK VINA RESULT:      -1.3      2.213      3.477
REMARK  2 active torsions:
REMARK  status: ('A' for Active; 'I' for Inactive)
REMARK    1  A    between atoms: C3_3  and  C6_6 
REMARK    2  A    between atoms: C3_3  and  O10_10 
ROOT
HETATM    1  C1  UNL     1     -33.328   5.884   2.040  1.00 20.00    -0.023 C 
HETATM    2  C2  UNL     1     -33.693   6.798   2.945  1.00 20.00    -0.087 C 
HETATM    3  C4  UNL     1     -31.975   6.163   1.474  1.00 20.00     0.042 C 
HETATM    4  C5  UNL     1     -32.640   7.848   3.133  1.00 20.00     0.048 C 
HETATM    5  C6  UNL     1     -31.663   7.573   1.985  1.00 20.00     0.093 C 
HETATM    6  C7  UNL     1     -34.954   6.823   3.731  1.00 20.00     0.043 C 
ENDROOT
BRANCH   5   7
HETATM    7  C3  UNL     1     -31.847   8.574   0.880  1.00 20.00     0.263 C 
HETATM    8  O9  UNL     1     -31.248   8.535  -0.186  1.00 20.00    -0.265 OA
BRANCH   7   9
HETATM    9  O10 UNL     1     -32.768   9.505   1.258  1.00 20.00    -0.326 OA
HETATM   10  C8  UNL     1     -32.794  10.699   0.470  1.00 20.00     0.213 C 
ENDBRANCH   7   9
ENDBRANCH   5   7
TORSDOF 2
ENDMDL
MODEL 3
REMARK VINA RESULT:      -0.6      1.478      1.900
REMARK  2 active torsions:
REMARK  status: ('A' for Active; 'I' for Inactive)
REMARK    1  A    between atoms: C3_3  and  C6_6 
REMARK    2  A    between atoms: C3_3  and  O10_10 
ROOT
HETATM    1  C1  UNL     1     -34.280   6.333   4.078  1.00 20.00    -0.023 C 
HETATM    2  C2  UNL     1     -33.869   5.211   3.478  1.00 20.00    -0.087 C 
HETATM    3  C4  UNL     1     -34.328   7.490   3.134  1.00 20.00     0.042 C 
HETATM    4  C5  UNL     1     -33.568   5.433   2.027  1.00 20.00     0.048 C 
HETATM    5  C6  UNL     1     -33.610   6.959   1.889  1.00 20.00     0.093 C 
HETATM    6  C7  UNL     1     -33.729   3.867   4.096  1.00 20.00     0.043 C 
ENDROOT
BRANCH   5   7
HETATM    7  C3  UNL     1     -32.220   7.524   1.816  1.00 20.00     0.263 C 
HETATM    8  O9  UNL     1     -31.205   6.841   1.770  1.00 20.00    -0.265 OA
BRANCH   7   9
HETATM    9  O10 UNL     1     -32.280   8.885   1.810  1.00 20.00    -0.326 OA
HETATM   10  C8  UNL     1     -32.308   9.494   0.515  1.00 20.00     0.213 C 
ENDBRANCH   7   9
ENDBRANCH   5   7
TORSDOF 2
ENDMDL
MODEL 4
REMARK VINA RESULT:      -0.5      1.802      4.876
REMARK  2 active torsions:
REMARK  status: ('A' for Active; 'I' for Inactive)
REMARK    1  A    between atoms: C3_3  and  C6_6 
REMARK    2  A    between atoms: C3_3  and  O10_10 
ROOT
HETATM    1  C1  UNL     1     -32.398   9.785   1.826  1.00 20.00    -0.023 C 
HETATM    2  C2  UNL     1     -32.348   9.393   0.548  1.00 20.00    -0.087 C 
HETATM    3  C4  UNL     1     -31.891   8.734   2.757  1.00 20.00     0.042 C 
HETATM    4  C5  UNL     1     -31.799   8.005   0.413  1.00 20.00     0.048 C 
HETATM    5  C6  UNL     1     -31.765   7.499   1.859  1.00 20.00     0.093 C 
HETATM    6  C7  UNL     1     -32.739  10.185  -0.646  1.00 20.00     0.043 C 
ENDROOT
BRANCH   5   7
HETATM    7  C3  UNL     1     -32.905   6.555   2.118  1.00 20.00     0.263 C 
HETATM    8  O9  UNL     1     -33.085   5.514   1.501  1.00 20.00    -0.265 OA
BRANCH   7   9
HETATM    9  O10 UNL     1     -33.680   7.043   3.127  1.00 20.00    -0.326 OA
HETATM   10  C8  UNL     1     -34.605   6.112   3.697  1.00 20.00     0.213 C 
ENDBRANCH   7   9
ENDBRANCH   5   7
TORSDOF 2
ENDMDL
MODEL 5
REMARK VINA RESULT:      -0.4      2.014      3.908
REMARK  2 active torsions:
REMARK  status: ('A' for Active; 'I' for Inactive)
REMARK    1  A    between atoms: C3_3  and  C6_6 
REMARK    2  A    between atoms: C3_3  and  O10_10 
ROOT
HETATM    1  C1  UNL     1     -32.462   6.773   2.286  1.00 20.00    -0.023 C 
HETATM    2  C2  UNL     1     -32.818   7.613   3.264  1.00 20.00    -0.087 C 
HETATM    3  C4  UNL     1     -33.563   5.832   1.925  1.00 20.00     0.042 C 
HETATM    4  C5  UNL     1     -34.223   7.369   3.723  1.00 20.00     0.048 C 
HETATM    5  C6  UNL     1     -34.592   6.048   3.040  1.00 20.00     0.093 C 
HETATM    6  C7  UNL     1     -31.992   8.697   3.854  1.00 20.00     0.043 C 
ENDROOT
BRANCH   5   7
HETATM    7  C3  UNL     1     -34.536   4.910   4.019  1.00 20.00     0.263 C 
HETATM    8  O9  UNL     1     -35.382   4.705   4.879  1.00 20.00    -0.265 OA
BRANCH   7   9
HETATM    9  O10 UNL     1     -33.416   4.168   3.793  1.00 20.00    -0.326 OA
HETATM   10  C8  UNL     1     -33.239   3.042   4.657  1.00 20.00     0.213 C 
ENDBRANCH   7   9
ENDBRANCH   5   7
TORSDOF 2
ENDMDL
MODEL 6
REMARK VINA RESULT:       0.1      1.705      3.936
REMARK  2 active torsions:
REMARK  status: ('A' for Active; 'I' for Inactive)
REMARK    1  A    between atoms: C3_3  and  C6_6 
REMARK    2  A    between atoms: C3_3  and  O10_10 
ROOT
HETATM    1  C1  UNL     1     -32.764   8.531   3.261  1.00 20.00    -0.023 C 
HETATM    2  C2  UNL     1     -32.690   7.901   2.084  1.00 20.00    -0.087 C 
HETATM    3  C4  UNL     1     -33.040   7.589   4.386  1.00 20.00     0.042 C 
HETATM    4  C5  UNL     1     -32.909   6.425   2.227  1.00 20.00     0.048 C 
HETATM    5  C6  UNL     1     -33.399   6.282   3.672  1.00 20.00     0.093 C 
HETATM    6  C7  UNL     1     -32.400   8.511   0.761  1.00 20.00     0.043 C 
ENDROOT
BRANCH   5   7
HETATM    7  C3  UNL     1     -34.885   6.067   3.709  1.00 20.00     0.263 C 
HETATM    8  O9  UNL     1     -35.704   6.866   3.276  1.00 20.00    -0.265 OA
BRANCH   7   9
HETATM    9  O10 UNL     1     -35.157   4.864   4.291  1.00 20.00    -0.326 OA
HETATM   10  C8  UNL     1     -34.064   3.942   4.336  1.00 20.00     0.213 C 
ENDBRANCH   7   9
ENDBRANCH   5   7
TORSDOF 2
ENDMDL
MODEL 7
REMARK VINA RESULT:       0.3      1.669      4.614
REMARK  2 active torsions:
REMARK  status: ('A' for Active; 'I' for Inactive)
REMARK    1  A    between atoms: C3_3  and  C6_6 
REMARK    2  A    between atoms: C3_3  and  O10_10 
ROOT
HETATM    1  C1  UNL     1     -31.242   8.786   1.423  1.00 20.00    -0.023 C 
HETATM    2  C2  UNL     1     -32.361   9.003   0.723  1.00 20.00    -0.087 C 
HETATM    3  C4  UNL     1     -31.230   7.435   2.058  1.00 20.00     0.042 C 
HETATM    4  C5  UNL     1     -33.288   7.827   0.776  1.00 20.00     0.048 C 
HETATM    5  C6  UNL     1     -32.665   6.938   1.858  1.00 20.00     0.093 C 
HETATM    6  C7  UNL     1     -32.702  10.218  -0.062  1.00 20.00     0.043 C 
ENDROOT
BRANCH   5   7
HETATM    7  C3  UNL     1     -33.433   7.050   3.144  1.00 20.00     0.263 C 
HETATM    8  O9  UNL     1     -33.383   8.019   3.889  1.00 20.00    -0.265 OA
BRANCH   7   9
HETATM    9  O10 UNL     1     -34.173   5.921   3.333  1.00 20.00    -0.326 OA
HETATM   10  C8  UNL     1     -35.360   6.087   4.115  1.00 20.00     0.213 C 
ENDBRANCH   7   9
ENDBRANCH   5   7
TORSDOF 2
ENDMDL
MODEL 8
REMARK VINA RESULT:       0.4      2.041      4.022
REMARK  2 active torsions:
REMARK  status: ('A' for Active; 'I' for Inactive)
REMARK    1  A    between atoms: C3_3  and  C6_6 
REMARK    2  A    between atoms: C3_3  and  O10_10 
ROOT
HETATM    1  C1  UNL     1     -32.892   7.753   2.989  1.00 20.00    -0.023 C 
HETATM    2  C2  UNL     1     -33.683   7.639   4.063  1.00 20.00    -0.087 C 
HETATM    3  C4  UNL     1     -33.177   6.702   1.968  1.00 20.00     0.042 C 
HETATM    4  C5  UNL     1     -34.630   6.485   3.937  1.00 20.00     0.048 C 
HETATM    5  C6  UNL     1     -34.106   5.734   2.707  1.00 20.00     0.093 C 
HETATM    6  C7  UNL     1     -33.702   8.524   5.256  1.00 20.00     0.043 C 
ENDROOT
BRANCH   5   7
HETATM    7  C3  UNL     1     -33.348   4.505   3.119  1.00 20.00     0.263 C 
HETATM    8  O9  UNL     1     -32.287   4.155   2.620  1.00 20.00    -0.265 OA
BRANCH   7   9
HETATM    9  O10 UNL     1     -34.024   3.865   4.115  1.00 20.00    -0.326 OA
HETATM   10  C8  UNL     1     -33.268   2.895   4.846  1.00 20.00     0.213 C 
ENDBRANCH   7   9
ENDBRANCH   5   7
TORSDOF 2
ENDMDL
MODEL 9
REMARK VINA RESULT:       0.5      1.843      4.121
REMARK  2 active torsions:
REMARK  status: ('A' for Active; 'I' for Inactive)
REMARK    1  A    between atoms: C3_3  and  C6_6 
REMARK    2  A    between atoms: C3_3  and  O10_10 
ROOT
HETATM    1  C1  UNL     1     -31.314   7.201   1.653  1.00 20.00    -0.023 C 
HETATM    2  C2  UNL     1     -32.350   7.913   1.197  1.00 20.00    -0.087 C 
HETATM    3  C4  UNL     1     -31.665   5.763   1.851  1.00 20.00     0.042 C 
HETATM    4  C5  UNL     1     -33.572   7.065   1.016  1.00 20.00     0.048 C 
HETATM    5  C6  UNL     1     -33.189   5.747   1.697  1.00 20.00     0.093 C 
HETATM    6  C7  UNL     1     -32.360   9.360   0.858  1.00 20.00     0.043 C 
ENDROOT
BRANCH   5   7
HETATM    7  C3  UNL     1     -33.842   5.636   3.045  1.00 20.00     0.263 C 
HETATM    8  O9  UNL     1     -33.756   4.654   3.769  1.00 20.00    -0.265 OA
BRANCH   7   9
HETATM    9  O10 UNL     1     -34.527   6.783   3.314  1.00 20.00    -0.326 OA
HETATM   10  C8  UNL     1     -34.055   7.532   4.439  1.00 20.00     0.213 C 
ENDBRANCH   7   9
ENDBRANCH   5   7
TORSDOF 2
ENDMDL
