MODEL 1
REMARK VINA RESULT:      -1.9      0.000      0.000
REMARK  0 active torsions:
REMARK  status: ('A' for Active; 'I' for Inactive)
ROOT
HETATM    1  C1  UNL     1     -33.522   7.391   3.666  1.00 20.00     0.352 C 
HETATM    2  C2  UNL     1     -32.957   6.308   1.778  1.00 20.00     0.451 C 
HETATM    3  C3  UNL     1     -32.242   7.616   1.830  1.00 20.00     0.451 C 
HETATM    4  O4  UNL     1     -34.018   6.444   2.711  1.00 20.00    -0.294 OA
HETATM    5  O5  UNL     1     -32.317   8.008   3.191  1.00 20.00    -0.294 OA
HETATM    6  F6  UNL     1     -32.165   5.292   2.186  1.00 20.00    -0.166 F 
HETATM    7  F7  UNL     1     -33.434   6.015   0.554  1.00 20.00    -0.166 F 
HETATM    8  F8  UNL     1     -32.868   8.553   1.085  1.00 20.00    -0.166 F 
HETATM    9  F9  UNL     1     -30.962   7.533   1.429  1.00 20.00    -0.166 F 
ENDROOT
TORSDOF 0
ENDMDL
MODEL 2
REMARK VINA RESULT:      -1.9      0.015      2.553
REMARK  0 active torsions:
REMARK  status: ('A' for Active; 'I' for Inactive)
ROOT
HETATM    1  C1  UNL     1     -33.512   7.393   3.658  1.00 20.00     0.352 C 
HETATM    2  C2  UNL     1     -32.236   7.618   1.821  1.00 20.00     0.451 C 
HETATM    3  C3  UNL     1     -32.943   6.306   1.772  1.00 20.00     0.451 C 
HETATM    4  O4  UNL     1     -32.312   8.015   3.181  1.00 20.00    -0.294 OA
HETATM    5  O5  UNL     1     -34.004   6.440   2.705  1.00 20.00    -0.294 OA
HETATM    6  F6  UNL     1     -32.867   8.551   1.073  1.00 20.00    -0.166 F 
HETATM    7  F7  UNL     1     -30.954   7.542   1.418  1.00 20.00    -0.166 F 
HETATM    8  F8  UNL     1     -32.145   5.297   2.183  1.00 20.00    -0.166 F 
HETATM    9  F9  UNL     1     -33.419   6.008   0.551  1.00 20.00    -0.166 F 
ENDROOT
TORSDOF 0
ENDMDL
MODEL 3
REMARK VINA RESULT:      -1.8      2.675      3.333
REMARK  0 active torsions:
REMARK  status: ('A' for Active; 'I' for Inactive)
ROOT
HETATM    1  C1  UNL     1     -33.144   6.094   2.525  1.00 20.00     0.352 C 
HETATM    2  C2  UNL     1     -34.934   6.457   3.837  1.00 20.00     0.451 C 
HETATM    3  C3  UNL     1     -34.047   7.656   3.869  1.00 20.00     0.451 C 
HETATM    4  O4  UNL     1     -34.109   5.416   3.340  1.00 20.00    -0.294 OA
HETATM    5  O5  UNL     1     -33.214   7.513   2.730  1.00 20.00    -0.294 OA
HETATM    6  F6  UNL     1     -35.964   6.625   2.977  1.00 20.00    -0.166 F 
HETATM    7  F7  UNL     1     -35.431   6.136   5.045  1.00 20.00    -0.166 F 
HETATM    8  F8  UNL     1     -33.261   7.661   4.968  1.00 20.00    -0.166 F 
HETATM    9  F9  UNL     1     -34.724   8.816   3.820  1.00 20.00    -0.166 F 
ENDROOT
TORSDOF 0
ENDMDL
MODEL 4
REMARK VINA RESULT:      -1.8      2.675      3.674
REMARK  0 active torsions:
REMARK  status: ('A' for Active; 'I' for Inactive)
ROOT
HETATM    1  C1  UNL     1     -33.143   6.096   2.525  1.00 20.00     0.352 C 
HETATM    2  C2  UNL     1     -34.047   7.656   3.869  1.00 20.00     0.451 C 
HETATM    3  C3  UNL     1     -34.934   6.458   3.837  1.00 20.00     0.451 C 
HETATM    4  O4  UNL     1     -33.213   7.513   2.729  1.00 20.00    -0.294 OA
HETATM    5  O5  UNL     1     -34.108   5.416   3.341  1.00 20.00    -0.294 OA
HETATM    6  F6  UNL     1     -33.261   7.663   4.968  1.00 20.00    -0.166 F 
HETATM    7  F7  UNL     1     -34.726   8.817   3.819  1.00 20.00    -0.166 F 
HETATM    8  F8  UNL     1     -35.963   6.625   2.977  1.00 20.00    -0.166 F 
HETATM    9  F9  UNL     1     -35.430   6.137   5.044  1.00 20.00    -0.166 F 
ENDROOT
TORSDOF 0
ENDMDL
MODEL 5
REMARK VINA RESULT:      -1.5      1.730      2.600
REMARK  0 active torsions:
REMARK  status: ('A' for Active; 'I' for Inactive)
ROOT
HETATM    1  C1  UNL     1     -33.119   5.741   1.942  1.00 20.00     0.352 C 
HETATM    2  C2  UNL     1     -33.267   7.522   3.308  1.00 20.00     0.451 C 
HETATM    3  C3  UNL     1     -32.407   7.866   2.139  1.00 20.00     0.451 C 
HETATM    4  O4  UNL     1     -33.306   6.103   3.317  1.00 20.00    -0.294 OA
HETATM    5  O5  UNL     1     -32.715   6.879   1.167  1.00 20.00    -0.294 OA
HETATM    6  F6  UNL     1     -34.530   7.977   3.146  1.00 20.00    -0.166 F 
HETATM    7  F7  UNL     1     -32.787   7.992   4.473  1.00 20.00    -0.166 F 
HETATM    8  F8  UNL     1     -31.094   7.763   2.442  1.00 20.00    -0.166 F 
HETATM    9  F9  UNL     1     -32.641   9.098   1.656  1.00 20.00    -0.166 F 
ENDROOT
TORSDOF 0
ENDMDL
MODEL 6
REMARK VINA RESULT:      -1.5      1.705      2.549
REMARK  0 active torsions:
REMARK  status: ('A' for Active; 'I' for Inactive)
ROOT
HETATM    1  C1  UNL     1     -33.158   5.720   1.915  1.00 20.00     0.352 C 
HETATM    2  C2  UNL     1     -32.432   7.843   2.075  1.00 20.00     0.451 C 
HETATM    3  C3  UNL     1     -33.268   7.515   3.266  1.00 20.00     0.451 C 
HETATM    4  O4  UNL     1     -32.766   6.847   1.120  1.00 20.00    -0.294 OA
HETATM    5  O5  UNL     1     -33.313   6.097   3.290  1.00 20.00    -0.294 OA
HETATM    6  F6  UNL     1     -31.113   7.737   2.349  1.00 20.00    -0.166 F 
HETATM    7  F7  UNL     1     -32.672   9.072   1.584  1.00 20.00    -0.166 F 
HETATM    8  F8  UNL     1     -34.531   7.975   3.127  1.00 20.00    -0.166 F 
HETATM    9  F9  UNL     1     -32.760   7.995   4.415  1.00 20.00    -0.166 F 
ENDROOT
TORSDOF 0
ENDMDL
MODEL 7
REMARK VINA RESULT:      -1.1      1.705      2.521
REMARK  0 active torsions:
REMARK  status: ('A' for Active; 'I' for Inactive)
ROOT
HETATM    1  C1  UNL     1     -31.976   7.988   1.824  1.00 20.00     0.352 C 
HETATM    2  C2  UNL     1     -33.646   6.986   2.948  1.00 20.00     0.451 C 
HETATM    3  C3  UNL     1     -33.028   6.008   2.006  1.00 20.00     0.451 C 
HETATM    4  O4  UNL     1     -33.228   8.255   2.471  1.00 20.00    -0.294 OA
HETATM    5  O5  UNL     1     -31.770   6.576   1.679  1.00 20.00    -0.294 OA
HETATM    6  F6  UNL     1     -33.173   6.831   4.205  1.00 20.00    -0.166 F 
HETATM    7  F7  UNL     1     -34.989   6.909   2.982  1.00 20.00    -0.166 F 
HETATM    8  F8  UNL     1     -33.747   5.894   0.868  1.00 20.00    -0.166 F 
HETATM    9  F9  UNL     1     -32.873   4.785   2.541  1.00 20.00    -0.166 F 
ENDROOT
TORSDOF 0
ENDMDL
MODEL 8
REMARK VINA RESULT:      -1.1      1.707      2.570
REMARK  0 active torsions:
REMARK  status: ('A' for Active; 'I' for Inactive)
ROOT
HETATM    1  C1  UNL     1     -31.958   7.980   1.808  1.00 20.00     0.352 C 
HETATM    2  C2  UNL     1     -33.018   6.007   2.007  1.00 20.00     0.451 C 
HETATM    3  C3  UNL     1     -33.637   6.996   2.936  1.00 20.00     0.451 C 
HETATM    4  O4  UNL     1     -31.756   6.567   1.679  1.00 20.00    -0.294 OA
HETATM    5  O5  UNL     1     -33.212   8.258   2.446  1.00 20.00    -0.294 OA
HETATM    6  F6  UNL     1     -33.733   5.882   0.866  1.00 20.00    -0.166 F 
HETATM    7  F7  UNL     1     -32.870   4.788   2.556  1.00 20.00    -0.166 F 
HETATM    8  F8  UNL     1     -33.169   6.854   4.196  1.00 20.00    -0.166 F 
HETATM    9  F9  UNL     1     -34.979   6.925   2.965  1.00 20.00    -0.166 F 
ENDROOT
TORSDOF 0
ENDMDL
MODEL 9
REMARK VINA RESULT:      -0.7      1.846      2.711
REMARK  0 active torsions:
REMARK  status: ('A' for Active; 'I' for Inactive)
ROOT
HETATM    1  C1  UNL     1     -32.194   9.317   0.630  1.00 20.00     0.352 C 
HETATM    2  C2  UNL     1     -32.462   8.166   2.543  1.00 20.00     0.451 C 
HETATM    3  C3  UNL     1     -32.088   7.224   1.448  1.00 20.00     0.451 C 
HETATM    4  O4  UNL     1     -32.910   9.333   1.873  1.00 20.00    -0.294 OA
HETATM    5  O5  UNL     1     -31.540   8.056   0.436  1.00 20.00    -0.294 OA
HETATM    6  F6  UNL     1     -31.392   8.498   3.299  1.00 20.00    -0.166 F 
HETATM    7  F7  UNL     1     -33.424   7.681   3.349  1.00 20.00    -0.166 F 
HETATM    8  F8  UNL     1     -33.172   6.600   0.938  1.00 20.00    -0.166 F 
HETATM    9  F9  UNL     1     -31.197   6.295   1.833  1.00 20.00    -0.166 F 
ENDROOT
TORSDOF 0
ENDMDL
