MODEL 1
REMARK VINA RESULT:      -0.1      0.000      0.000
REMARK  2 active torsions:
REMARK  status: ('A' for Active; 'I' for Inactive)
REMARK    1  A    between atoms: C7_7  and  O10_10 
REMARK    2  A    between atoms: C9_9  and  O10_10 
ROOT
HETATM    1  C1  UNL     1     -33.019   8.265   5.229  1.00 20.00     0.015 C 
HETATM    2  C2  UNL     1     -33.426   7.553   4.352  1.00 20.00    -0.079 C 
HETATM    3  C3  UNL     1     -34.218   4.555   4.405  1.00 20.00     0.004 C 
HETATM    4  C4  UNL     1     -35.554   5.301   4.425  1.00 20.00     0.004 C 
HETATM    5  C5  UNL     1     -33.351   5.268   3.369  1.00 20.00     0.051 C 
HETATM    6  C6  UNL     1     -35.426   6.428   3.402  1.00 20.00     0.051 C 
HETATM    7  C7  UNL     1     -33.926   6.680   3.278  1.00 20.00     0.122 C 
ENDROOT
BRANCH   7   8
HETATM    8  O10 UNL     1     -33.635   7.262   2.017  1.00 20.00    -0.368 OA
BRANCH   8   9
HETATM    9  C9  UNL     1     -32.238   7.463   1.842  1.00 20.00     0.165 C 
HETATM   10  C8  UNL     1     -32.017   8.760   1.093  1.00 20.00     0.033 C 
ENDBRANCH   8   9
ENDBRANCH   7   8
TORSDOF 2
ENDMDL
MODEL 2
REMARK VINA RESULT:       0.1      1.710      2.723
REMARK  2 active torsions:
REMARK  status: ('A' for Active; 'I' for Inactive)
REMARK    1  A    between atoms: C7_7  and  O10_10 
REMARK    2  A    between atoms: C9_9  and  O10_10 
ROOT
HETATM    1  C1  UNL     1     -34.272   7.181   4.082  1.00 20.00     0.015 C 
HETATM    2  C2  UNL     1     -33.587   7.288   3.102  1.00 20.00    -0.079 C 
HETATM    3  C3  UNL     1     -32.015   5.143   1.507  1.00 20.00     0.004 C 
HETATM    4  C4  UNL     1     -33.267   5.400   0.665  1.00 20.00     0.004 C 
HETATM    5  C5  UNL     1     -31.517   6.515   1.955  1.00 20.00     0.051 C 
HETATM    6  C6  UNL     1     -33.464   6.914   0.650  1.00 20.00     0.051 C 
HETATM    7  C7  UNL     1     -32.748   7.418   1.900  1.00 20.00     0.122 C 
ENDROOT
BRANCH   7   8
HETATM    8  O10 UNL     1     -32.370   8.775   1.727  1.00 20.00    -0.368 OA
BRANCH   8   9
HETATM    9  C9  UNL     1     -32.065   9.066   0.369  1.00 20.00     0.165 C 
HETATM   10  C8  UNL     1     -32.630  10.425   0.017  1.00 20.00     0.033 C 
ENDBRANCH   8   9
ENDBRANCH   7   8
TORSDOF 2
ENDMDL
MODEL 3
REMARK VINA RESULT:       0.4      1.444      4.326
REMARK  2 active torsions:
REMARK  status: ('A' for Active; 'I' for Inactive)
REMARK    1  A    between atoms: C7_7  and  O10_10 
REMARK    2  A    between atoms: C9_9  and  O10_10 
ROOT
HETATM    1  C1  UNL     1     -32.811   5.358   0.894  1.00 20.00     0.015 C 
HETATM    2  C2  UNL     1     -32.680   6.394   1.487  1.00 20.00    -0.079 C 
HETATM    3  C3  UNL     1     -31.105   8.956   0.730  1.00 20.00     0.004 C 
HETATM    4  C4  UNL     1     -32.565   9.306   0.432  1.00 20.00     0.004 C 
HETATM    5  C5  UNL     1     -31.109   8.234   2.075  1.00 20.00     0.051 C 
HETATM    6  C6  UNL     1     -33.377   8.775   1.611  1.00 20.00     0.051 C 
HETATM    7  C7  UNL     1     -32.519   7.665   2.212  1.00 20.00     0.122 C 
ENDROOT
BRANCH   7   8
HETATM    8  O10 UNL     1     -32.857   7.479   3.579  1.00 20.00    -0.368 OA
BRANCH   8   9
HETATM    9  C9  UNL     1     -34.244   7.693   3.809  1.00 20.00     0.165 C 
HETATM   10  C8  UNL     1     -34.923   6.355   4.010  1.00 20.00     0.033 C 
ENDBRANCH   8   9
ENDBRANCH   7   8
TORSDOF 2
ENDMDL
MODEL 4
REMARK VINA RESULT:       0.5      1.676      3.040
REMARK  2 active torsions:
REMARK  status: ('A' for Active; 'I' for Inactive)
REMARK    1  A    between atoms: C7_7  and  O10_10 
REMARK    2  A    between atoms: C9_9  and  O10_10 
ROOT
HETATM    1  C1  UNL     1     -31.960   5.134   1.618  1.00 20.00     0.015 C 
HETATM    2  C2  UNL     1     -32.414   6.231   1.796  1.00 20.00    -0.079 C 
HETATM    3  C3  UNL     1     -34.128   7.344   4.129  1.00 20.00     0.004 C 
HETATM    4  C4  UNL     1     -32.720   7.877   4.404  1.00 20.00     0.004 C 
HETATM    5  C5  UNL     1     -34.366   7.531   2.632  1.00 20.00     0.051 C 
HETATM    6  C6  UNL     1     -32.178   8.356   3.060  1.00 20.00     0.051 C 
HETATM    7  C7  UNL     1     -32.970   7.577   2.014  1.00 20.00     0.122 C 
ENDROOT
BRANCH   7   8
HETATM    8  O10 UNL     1     -32.985   8.291   0.787  1.00 20.00    -0.368 OA
BRANCH   8   9
HETATM    9  C9  UNL     1     -32.019   9.334   0.776  1.00 20.00     0.165 C 
HETATM   10  C8  UNL     1     -32.597  10.534   0.057  1.00 20.00     0.033 C 
ENDBRANCH   8   9
ENDBRANCH   7   8
TORSDOF 2
ENDMDL
MODEL 5
REMARK VINA RESULT:       0.6      1.513      3.847
REMARK  2 active torsions:
REMARK  status: ('A' for Active; 'I' for Inactive)
REMARK    1  A    between atoms: C7_7  and  O10_10 
REMARK    2  A    between atoms: C9_9  and  O10_10 
ROOT
HETATM    1  C1  UNL     1     -36.501   6.909   2.971  1.00 20.00     0.015 C 
HETATM    2  C2  UNL     1     -35.371   6.585   3.216  1.00 20.00    -0.079 C 
HETATM    3  C3  UNL     1     -32.761   7.031   1.600  1.00 20.00     0.004 C 
HETATM    4  C4  UNL     1     -32.704   8.083   2.710  1.00 20.00     0.004 C 
HETATM    5  C5  UNL     1     -33.231   5.739   2.265  1.00 20.00     0.051 C 
HETATM    6  C6  UNL     1     -33.146   7.374   3.989  1.00 20.00     0.051 C 
HETATM    7  C7  UNL     1     -33.985   6.190   3.514  1.00 20.00     0.122 C 
ENDROOT
BRANCH   7   8
HETATM    8  O10 UNL     1     -33.982   5.169   4.501  1.00 20.00    -0.368 OA
BRANCH   8   9
HETATM    9  C9  UNL     1     -33.912   3.875   3.915  1.00 20.00     0.165 C 
HETATM   10  C8  UNL     1     -33.157   2.952   4.847  1.00 20.00     0.033 C 
ENDBRANCH   8   9
ENDBRANCH   7   8
TORSDOF 2
ENDMDL
MODEL 6
REMARK VINA RESULT:       0.8      1.631      2.811
REMARK  2 active torsions:
REMARK  status: ('A' for Active; 'I' for Inactive)
REMARK    1  A    between atoms: C7_7  and  O10_10 
REMARK    2  A    between atoms: C9_9  and  O10_10 
ROOT
HETATM    1  C1  UNL     1     -34.273   5.353  -0.124  1.00 20.00     0.015 C 
HETATM    2  C2  UNL     1     -33.748   5.710   0.895  1.00 20.00    -0.079 C 
HETATM    3  C3  UNL     1     -34.927   6.078   3.740  1.00 20.00     0.004 C 
HETATM    4  C4  UNL     1     -34.172   4.749   3.811  1.00 20.00     0.004 C 
HETATM    5  C5  UNL     1     -34.018   7.042   2.981  1.00 20.00     0.051 C 
HETATM    6  C6  UNL     1     -32.845   4.977   3.090  1.00 20.00     0.051 C 
HETATM    7  C7  UNL     1     -33.105   6.147   2.145  1.00 20.00     0.122 C 
ENDROOT
BRANCH   7   8
HETATM    8  O10 UNL     1     -31.885   6.809   1.847  1.00 20.00    -0.368 OA
BRANCH   8   9
HETATM    9  C9  UNL     1     -31.990   8.214   2.042  1.00 20.00     0.165 C 
HETATM   10  C8  UNL     1     -31.990   8.900   0.693  1.00 20.00     0.033 C 
ENDBRANCH   8   9
ENDBRANCH   7   8
TORSDOF 2
ENDMDL
MODEL 7
REMARK VINA RESULT:       0.8      0.679      1.012
REMARK  2 active torsions:
REMARK  status: ('A' for Active; 'I' for Inactive)
REMARK    1  A    between atoms: C7_7  and  O10_10 
REMARK    2  A    between atoms: C9_9  and  O10_10 
ROOT
HETATM    1  C1  UNL     1     -33.075   8.230   5.193  1.00 20.00     0.015 C 
HETATM    2  C2  UNL     1     -33.482   7.472   4.356  1.00 20.00    -0.079 C 
HETATM    3  C3  UNL     1     -34.323   4.495   4.579  1.00 20.00     0.004 C 
HETATM    4  C4  UNL     1     -35.647   5.261   4.534  1.00 20.00     0.004 C 
HETATM    5  C5  UNL     1     -33.431   5.129   3.515  1.00 20.00     0.051 C 
HETATM    6  C6  UNL     1     -35.487   6.321   3.447  1.00 20.00     0.051 C 
HETATM    7  C7  UNL     1     -33.981   6.542   3.330  1.00 20.00     0.122 C 
ENDROOT
BRANCH   7   8
HETATM    8  O10 UNL     1     -33.664   7.041   2.039  1.00 20.00    -0.368 OA
BRANCH   8   9
HETATM    9  C9  UNL     1     -32.275   6.921   1.757  1.00 20.00     0.165 C 
HETATM   10  C8  UNL     1     -32.040   5.646   0.975  1.00 20.00     0.033 C 
ENDBRANCH   8   9
ENDBRANCH   7   8
TORSDOF 2
ENDMDL
MODEL 8
REMARK VINA RESULT:       0.9      1.873      3.336
REMARK  2 active torsions:
REMARK  status: ('A' for Active; 'I' for Inactive)
REMARK    1  A    between atoms: C7_7  and  O10_10 
REMARK    2  A    between atoms: C9_9  and  O10_10 
ROOT
HETATM    1  C1  UNL     1     -32.718   9.795   0.527  1.00 20.00     0.015 C 
HETATM    2  C2  UNL     1     -32.549   8.821   1.208  1.00 20.00    -0.079 C 
HETATM    3  C3  UNL     1     -32.781   8.451   4.278  1.00 20.00     0.004 C 
HETATM    4  C4  UNL     1     -34.072   7.845   3.725  1.00 20.00     0.004 C 
HETATM    5  C5  UNL     1     -31.658   7.960   3.367  1.00 20.00     0.051 C 
HETATM    6  C6  UNL     1     -33.665   7.021   2.506  1.00 20.00     0.051 C 
HETATM    7  C7  UNL     1     -32.343   7.627   2.044  1.00 20.00     0.122 C 
ENDROOT
BRANCH   7   8
HETATM    8  O10 UNL     1     -31.595   6.661   1.319  1.00 20.00    -0.368 OA
BRANCH   8   9
HETATM    9  C9  UNL     1     -32.172   5.365   1.424  1.00 20.00     0.165 C 
HETATM   10  C8  UNL     1     -31.554   4.465   0.376  1.00 20.00     0.033 C 
ENDBRANCH   8   9
ENDBRANCH   7   8
TORSDOF 2
ENDMDL
MODEL 9
REMARK VINA RESULT:       1.1      1.449      2.899
REMARK  2 active torsions:
REMARK  status: ('A' for Active; 'I' for Inactive)
REMARK    1  A    between atoms: C7_7  and  O10_10 
REMARK    2  A    between atoms: C9_9  and  O10_10 
ROOT
HETATM    1  C1  UNL     1     -33.618   3.660   4.392  1.00 20.00     0.015 C 
HETATM    2  C2  UNL     1     -33.715   4.658   3.733  1.00 20.00    -0.079 C 
HETATM    3  C3  UNL     1     -35.164   7.332   4.340  1.00 20.00     0.004 C 
HETATM    4  C4  UNL     1     -33.686   7.637   4.590  1.00 20.00     0.004 C 
HETATM    5  C5  UNL     1     -35.217   6.522   3.047  1.00 20.00     0.051 C 
HETATM    6  C6  UNL     1     -32.920   6.993   3.437  1.00 20.00     0.051 C 
HETATM    7  C7  UNL     1     -33.835   5.883   2.926  1.00 20.00     0.122 C 
ENDROOT
BRANCH   7   8
HETATM    8  O10 UNL     1     -33.532   5.592   1.570  1.00 20.00    -0.368 OA
BRANCH   8   9
HETATM    9  C9  UNL     1     -32.185   5.922   1.251  1.00 20.00     0.165 C 
HETATM   10  C8  UNL     1     -31.465   4.672   0.795  1.00 20.00     0.033 C 
ENDBRANCH   8   9
ENDBRANCH   7   8
TORSDOF 2
ENDMDL
