MODEL 1
REMARK VINA RESULT:      -1.4      0.000      0.000
REMARK  0 active torsions:
REMARK  status: ('A' for Active; 'I' for Inactive)
ROOT
HETATM    1  C1  UNL     1     -32.524   9.874   0.098  1.00 20.00     0.013 C 
HETATM    2  C2  UNL     1     -32.458   8.995   0.914  1.00 20.00    -0.104 C 
HETATM    3  C3  UNL     1     -33.999   7.522   3.819  1.00 20.00     0.048 C 
HETATM    4  C4  UNL     1     -33.181   8.330   3.130  1.00 20.00    -0.001 C 
HETATM    5  C5  UNL     1     -34.126   6.092   3.450  1.00 20.00     0.149 C 
HETATM    6  C6  UNL     1     -33.251   5.551   2.343  1.00 20.00     0.085 C 
HETATM    7  C7  UNL     1     -32.955   6.623   1.301  1.00 20.00     0.034 C 
HETATM    8  C8  UNL     1     -32.379   7.914   1.919  1.00 20.00     0.037 C 
HETATM    9  C9  UNL     1     -30.910   7.725   2.328  1.00 20.00     0.034 C 
HETATM   10  O10 UNL     1     -34.887   5.365   4.086  1.00 20.00    -0.293 OA
ENDROOT
TORSDOF 0
ENDMDL
MODEL 2
REMARK VINA RESULT:       0.5      2.080      4.155
REMARK  0 active torsions:
REMARK  status: ('A' for Active; 'I' for Inactive)
ROOT
HETATM    1  C1  UNL     1     -33.853   3.757   4.777  1.00 20.00     0.013 C 
HETATM    2  C2  UNL     1     -33.947   4.754   4.113  1.00 20.00    -0.104 C 
HETATM    3  C3  UNL     1     -32.512   7.976   3.379  1.00 20.00     0.048 C 
HETATM    4  C4  UNL     1     -33.305   7.089   3.994  1.00 20.00    -0.001 C 
HETATM    5  C5  UNL     1     -32.369   7.958   1.904  1.00 20.00     0.149 C 
HETATM    6  C6  UNL     1     -33.202   6.978   1.109  1.00 20.00     0.085 C 
HETATM    7  C7  UNL     1     -33.461   5.704   1.903  1.00 20.00     0.034 C 
HETATM    8  C8  UNL     1     -34.061   5.982   3.297  1.00 20.00     0.037 C 
HETATM    9  C9  UNL     1     -35.545   6.371   3.194  1.00 20.00     0.034 C 
HETATM   10  O10 UNL     1     -31.631   8.773   1.353  1.00 20.00    -0.293 OA
ENDROOT
TORSDOF 0
ENDMDL
MODEL 3
REMARK VINA RESULT:       1.1      1.410      2.568
REMARK  0 active torsions:
REMARK  status: ('A' for Active; 'I' for Inactive)
ROOT
HETATM    1  C1  UNL     1     -31.182   8.061   1.799  1.00 20.00     0.013 C 
HETATM    2  C2  UNL     1     -32.161   7.385   1.961  1.00 20.00    -0.104 C 
HETATM    3  C3  UNL     1     -33.520   4.472   3.588  1.00 20.00     0.048 C 
HETATM    4  C4  UNL     1     -32.926   5.180   2.619  1.00 20.00    -0.001 C 
HETATM    5  C5  UNL     1     -34.735   4.991   4.260  1.00 20.00     0.149 C 
HETATM    6  C6  UNL     1     -35.333   6.288   3.768  1.00 20.00     0.085 C 
HETATM    7  C7  UNL     1     -34.257   7.222   3.228  1.00 20.00     0.034 C 
HETATM    8  C8  UNL     1     -33.366   6.551   2.162  1.00 20.00     0.037 C 
HETATM    9  C9  UNL     1     -34.107   6.422   0.821  1.00 20.00     0.034 C 
HETATM   10  O10 UNL     1     -35.265   4.333   5.154  1.00 20.00    -0.293 OA
ENDROOT
TORSDOF 0
ENDMDL
MODEL 4
REMARK VINA RESULT:       1.2      1.621      3.193
REMARK  0 active torsions:
REMARK  status: ('A' for Active; 'I' for Inactive)
ROOT
HETATM    1  C1  UNL     1     -31.092   4.131   0.593  1.00 20.00     0.013 C 
HETATM    2  C2  UNL     1     -31.882   4.963   0.946  1.00 20.00    -0.104 C 
HETATM    3  C3  UNL     1     -34.023   6.077   3.621  1.00 20.00     0.048 C 
HETATM    4  C4  UNL     1     -33.680   5.413   2.510  1.00 20.00    -0.001 C 
HETATM    5  C5  UNL     1     -33.647   7.501   3.790  1.00 20.00     0.149 C 
HETATM    6  C6  UNL     1     -32.947   8.203   2.649  1.00 20.00     0.085 C 
HETATM    7  C7  UNL     1     -32.079   7.235   1.856  1.00 20.00     0.034 C 
HETATM    8  C8  UNL     1     -32.855   5.988   1.382  1.00 20.00     0.037 C 
HETATM    9  C9  UNL     1     -33.780   6.326   0.202  1.00 20.00     0.034 C 
HETATM   10  O10 UNL     1     -33.962   8.096   4.819  1.00 20.00    -0.293 OA
ENDROOT
TORSDOF 0
ENDMDL
MODEL 5
REMARK VINA RESULT:       1.4      2.323      4.099
REMARK  0 active torsions:
REMARK  status: ('A' for Active; 'I' for Inactive)
ROOT
HETATM    1  C1  UNL     1     -35.408   6.013   4.087  1.00 20.00     0.013 C 
HETATM    2  C2  UNL     1     -34.532   6.769   3.767  1.00 20.00    -0.104 C 
HETATM    3  C3  UNL     1     -31.940   7.463   1.363  1.00 20.00     0.048 C 
HETATM    4  C4  UNL     1     -32.489   6.959   2.476  1.00 20.00    -0.001 C 
HETATM    5  C5  UNL     1     -32.215   8.862   0.957  1.00 20.00     0.149 C 
HETATM    6  C6  UNL     1     -33.053   9.727   1.871  1.00 20.00     0.085 C 
HETATM    7  C7  UNL     1     -34.083   8.896   2.626  1.00 20.00     0.034 C 
HETATM    8  C8  UNL     1     -33.453   7.701   3.372  1.00 20.00     0.037 C 
HETATM    9  C9  UNL     1     -32.712   8.165   4.636  1.00 20.00     0.034 C 
HETATM   10  O10 UNL     1     -31.711   9.308  -0.072  1.00 20.00    -0.293 OA
ENDROOT
TORSDOF 0
ENDMDL
