MODEL 1
REMARK VINA RESULT:      -0.9      0.000      0.000
REMARK  0 active torsions:
REMARK  status: ('A' for Active; 'I' for Inactive)
ROOT
HETATM    1  C1  UNL     1     -31.991   6.982   1.204  1.00 20.00     0.057 C 
HETATM    2  C2  UNL     1     -33.911   4.681   3.364  1.00 20.00    -0.019 C 
HETATM    3  C3  UNL     1     -33.469   5.731   2.661  1.00 20.00    -0.051 C 
HETATM    4  C4  UNL     1     -32.466   5.796   1.621  1.00 20.00    -0.052 C 
HETATM    5  C5  UNL     1     -32.411   8.258   1.850  1.00 20.00     0.150 C 
HETATM    6  C6  UNL     1     -34.959   5.084   4.352  1.00 20.00     0.028 C 
HETATM    7  C7  UNL     1     -33.257   8.185   3.108  1.00 20.00     0.092 C 
HETATM    8  C8  UNL     1     -34.811   6.607   4.396  1.00 20.00     0.013 C 
HETATM    9  C9  UNL     1     -34.194   6.988   3.048  1.00 20.00     0.026 C 
HETATM   10  C10 UNL     1     -31.989   4.511   1.007  1.00 20.00     0.049 C 
HETATM   11  O11 UNL     1     -32.011   9.331   1.402  1.00 20.00    -0.293 OA
ENDROOT
TORSDOF 0
ENDMDL
MODEL 2
REMARK VINA RESULT:       0.3      2.216      4.360
REMARK  0 active torsions:
REMARK  status: ('A' for Active; 'I' for Inactive)
ROOT
HETATM    1  C1  UNL     1     -34.531   6.236   4.355  1.00 20.00     0.057 C 
HETATM    2  C2  UNL     1     -32.294   8.157   2.128  1.00 20.00    -0.019 C 
HETATM    3  C3  UNL     1     -33.106   7.241   2.672  1.00 20.00    -0.051 C 
HETATM    4  C4  UNL     1     -33.978   7.339   3.821  1.00 20.00    -0.052 C 
HETATM    5  C5  UNL     1     -34.201   4.876   3.842  1.00 20.00     0.150 C 
HETATM    6  C6  UNL     1     -31.566   7.610   0.942  1.00 20.00     0.028 C 
HETATM    7  C7  UNL     1     -33.092   4.742   2.814  1.00 20.00     0.092 C 
HETATM    8  C8  UNL     1     -31.782   6.101   1.082  1.00 20.00     0.013 C 
HETATM    9  C9  UNL     1     -33.070   5.955   1.897  1.00 20.00     0.026 C 
HETATM   10  C10 UNL     1     -34.266   8.701   4.386  1.00 20.00     0.049 C 
HETATM   11  O11 UNL     1     -34.775   3.891   4.305  1.00 20.00    -0.293 OA
ENDROOT
TORSDOF 0
ENDMDL
MODEL 3
REMARK VINA RESULT:       0.3      1.890      3.509
REMARK  0 active torsions:
REMARK  status: ('A' for Active; 'I' for Inactive)
ROOT
HETATM    1  C1  UNL     1     -33.639   5.197   2.702  1.00 20.00     0.057 C 
HETATM    2  C2  UNL     1     -31.780   7.730   0.756  1.00 20.00    -0.019 C 
HETATM    3  C3  UNL     1     -32.444   7.055   1.704  1.00 20.00    -0.051 C 
HETATM    4  C4  UNL     1     -32.755   5.645   1.793  1.00 20.00    -0.052 C 
HETATM    5  C5  UNL     1     -34.389   6.136   3.584  1.00 20.00     0.150 C 
HETATM    6  C6  UNL     1     -31.704   9.188   1.075  1.00 20.00     0.028 C 
HETATM    7  C7  UNL     1     -34.268   7.625   3.321  1.00 20.00     0.092 C 
HETATM    8  C8  UNL     1     -32.754   9.347   2.177  1.00 20.00     0.013 C 
HETATM    9  C9  UNL     1     -32.872   7.963   2.820  1.00 20.00     0.026 C 
HETATM   10  C10 UNL     1     -32.051   4.697   0.865  1.00 20.00     0.049 C 
HETATM   11  O11 UNL     1     -35.140   5.692   4.451  1.00 20.00    -0.293 OA
ENDROOT
TORSDOF 0
ENDMDL
MODEL 4
REMARK VINA RESULT:       0.7      1.664      2.870
REMARK  0 active torsions:
REMARK  status: ('A' for Active; 'I' for Inactive)
ROOT
HETATM    1  C1  UNL     1     -31.761   6.755   1.073  1.00 20.00     0.057 C 
HETATM    2  C2  UNL     1     -34.183   7.758   3.678  1.00 20.00    -0.019 C 
HETATM    3  C3  UNL     1     -33.318   7.094   2.899  1.00 20.00    -0.051 C 
HETATM    4  C4  UNL     1     -32.371   7.595   1.928  1.00 20.00    -0.052 C 
HETATM    5  C5  UNL     1     -32.099   5.304   1.036  1.00 20.00     0.150 C 
HETATM    6  C6  UNL     1     -34.980   6.824   4.531  1.00 20.00     0.028 C 
HETATM    7  C7  UNL     1     -33.273   4.815   1.864  1.00 20.00     0.092 C 
HETATM    8  C8  UNL     1     -34.726   5.466   3.872  1.00 20.00     0.013 C 
HETATM    9  C9  UNL     1     -33.382   5.615   3.153  1.00 20.00     0.026 C 
HETATM   10  C10 UNL     1     -32.071   9.067   1.915  1.00 20.00     0.049 C 
HETATM   11  O11 UNL     1     -31.475   4.550   0.291  1.00 20.00    -0.293 OA
ENDROOT
TORSDOF 0
ENDMDL
MODEL 5
REMARK VINA RESULT:       1.6      1.032      2.677
REMARK  0 active torsions:
REMARK  status: ('A' for Active; 'I' for Inactive)
ROOT
HETATM    1  C1  UNL     1     -32.761   8.299   2.774  1.00 20.00     0.057 C 
HETATM    2  C2  UNL     1     -34.500   5.446   4.352  1.00 20.00    -0.019 C 
HETATM    3  C3  UNL     1     -33.662   6.233   3.664  1.00 20.00    -0.051 C 
HETATM    4  C4  UNL     1     -33.483   7.666   3.716  1.00 20.00    -0.052 C 
HETATM    5  C5  UNL     1     -32.198   7.566   1.605  1.00 20.00     0.150 C 
HETATM    6  C6  UNL     1     -34.347   4.010   3.964  1.00 20.00     0.028 C 
HETATM    7  C7  UNL     1     -32.599   6.117   1.401  1.00 20.00     0.092 C 
HETATM    8  C8  UNL     1     -33.550   4.098   2.661  1.00 20.00     0.013 C 
HETATM    9  C9  UNL     1     -32.793   5.426   2.742  1.00 20.00     0.026 C 
HETATM   10  C10 UNL     1     -34.100   8.424   4.857  1.00 20.00     0.049 C 
HETATM   11  O11 UNL     1     -31.485   8.159   0.796  1.00 20.00    -0.293 OA
ENDROOT
TORSDOF 0
ENDMDL
MODEL 6
REMARK VINA RESULT:       1.8      1.790      3.534
REMARK  0 active torsions:
REMARK  status: ('A' for Active; 'I' for Inactive)
ROOT
HETATM    1  C1  UNL     1     -34.031   5.386   2.248  1.00 20.00     0.057 C 
HETATM    2  C2  UNL     1     -33.124   8.075   4.615  1.00 20.00    -0.019 C 
HETATM    3  C3  UNL     1     -33.289   7.303   3.533  1.00 20.00    -0.051 C 
HETATM    4  C4  UNL     1     -34.183   6.186   3.319  1.00 20.00    -0.052 C 
HETATM    5  C5  UNL     1     -32.895   5.565   1.300  1.00 20.00     0.150 C 
HETATM    6  C6  UNL     1     -32.072   9.114   4.391  1.00 20.00     0.028 C 
HETATM    7  C7  UNL     1     -31.807   6.561   1.657  1.00 20.00     0.092 C 
HETATM    8  C8  UNL     1     -31.362   8.608   3.134  1.00 20.00     0.013 C 
HETATM    9  C9  UNL     1     -32.398   7.744   2.409  1.00 20.00     0.026 C 
HETATM   10  C10 UNL     1     -35.293   5.959   4.304  1.00 20.00     0.049 C 
HETATM   11  O11 UNL     1     -32.821   4.861   0.294  1.00 20.00    -0.293 OA
ENDROOT
TORSDOF 0
ENDMDL
