MODEL 1
REMARK VINA RESULT:      -1.9      0.000      0.000
REMARK  2 active torsions:
REMARK  status: ('A' for Active; 'I' for Inactive)
REMARK    1  A    between atoms: C2_2  and  C3_3 
REMARK    2  A    between atoms: C3_3  and  C6_6 
ROOT
HETATM    1  C3  UNL     1     -33.166   6.329   2.356  1.00 20.00     0.170 C 
HETATM    2  O7  UNL     1     -32.837   5.598   1.428  1.00 20.00    -0.291 OA
ENDROOT
BRANCH   1   3
HETATM    3  C2  UNL     1     -34.109   5.885   3.428  1.00 20.00     0.047 C 
HETATM    4  C1  UNL     1     -35.046   6.694   3.940  1.00 20.00     0.035 C 
HETATM    5 BR8  UNL     1     -33.909   4.132   4.060  1.00 20.00    -0.048 Br
ENDBRANCH   1   3
BRANCH   1   6
HETATM    6  C6  UNL     1     -32.598   7.707   2.439  1.00 20.00     0.061 A 
HETATM    7  C4  UNL     1     -31.270   7.969   1.811  1.00 20.00     0.013 A 
HETATM    8  C5  UNL     1     -32.518   8.519   1.190  1.00 20.00     0.013 A 
ENDBRANCH   1   6
TORSDOF 2
ENDMDL
MODEL 2
REMARK VINA RESULT:      -1.9      1.422      1.426
REMARK  2 active torsions:
REMARK  status: ('A' for Active; 'I' for Inactive)
REMARK    1  A    between atoms: C2_2  and  C3_3 
REMARK    2  A    between atoms: C3_3  and  C6_6 
ROOT
HETATM    1  C3  UNL     1     -32.979   7.064   2.422  1.00 20.00     0.170 C 
HETATM    2  O7  UNL     1     -33.054   6.051   1.737  1.00 20.00    -0.291 OA
ENDROOT
BRANCH   1   3
HETATM    3  C2  UNL     1     -33.785   7.249   3.668  1.00 20.00     0.047 C 
HETATM    4  C1  UNL     1     -33.482   8.174   4.588  1.00 20.00     0.035 C 
HETATM    5 BR8  UNL     1     -35.244   6.099   3.911  1.00 20.00    -0.048 Br
ENDBRANCH   1   3
BRANCH   1   6
HETATM    6  C6  UNL     1     -32.041   8.153   2.018  1.00 20.00     0.061 A 
HETATM    7  C4  UNL     1     -31.482   8.135   0.634  1.00 20.00     0.013 A 
HETATM    8  C5  UNL     1     -32.507   9.159   1.019  1.00 20.00     0.013 A 
ENDBRANCH   1   6
TORSDOF 2
ENDMDL
MODEL 3
REMARK VINA RESULT:      -1.8      2.012      3.709
REMARK  2 active torsions:
REMARK  status: ('A' for Active; 'I' for Inactive)
REMARK    1  A    between atoms: C2_2  and  C3_3 
REMARK    2  A    between atoms: C3_3  and  C6_6 
ROOT
HETATM    1  C3  UNL     1     -33.613   6.983   3.264  1.00 20.00     0.170 C 
HETATM    2  O7  UNL     1     -33.660   7.804   4.172  1.00 20.00    -0.291 OA
ENDROOT
BRANCH   1   3
HETATM    3  C2  UNL     1     -32.620   7.079   2.149  1.00 20.00     0.047 C 
HETATM    4  C1  UNL     1     -31.975   8.216   1.858  1.00 20.00     0.035 C 
HETATM    5 BR8  UNL     1     -32.331   5.528   1.137  1.00 20.00    -0.048 Br
ENDBRANCH   1   3
BRANCH   1   6
HETATM    6  C6  UNL     1     -34.562   5.831   3.268  1.00 20.00     0.061 A 
HETATM    7  C4  UNL     1     -34.299   4.693   4.197  1.00 20.00     0.013 A 
HETATM    8  C5  UNL     1     -35.436   5.634   4.461  1.00 20.00     0.013 A 
ENDBRANCH   1   6
TORSDOF 2
ENDMDL
MODEL 4
REMARK VINA RESULT:      -1.7      2.523      3.953
REMARK  2 active torsions:
REMARK  status: ('A' for Active; 'I' for Inactive)
REMARK    1  A    between atoms: C2_2  and  C3_3 
REMARK    2  A    between atoms: C3_3  and  C6_6 
ROOT
HETATM    1  C3  UNL     1     -33.622   6.759   3.139  1.00 20.00     0.170 C 
HETATM    2  O7  UNL     1     -33.605   7.646   3.983  1.00 20.00    -0.291 OA
ENDROOT
BRANCH   1   3
HETATM    3  C2  UNL     1     -32.682   6.743   1.975  1.00 20.00     0.047 C 
HETATM    4  C1  UNL     1     -32.416   5.629   1.281  1.00 20.00     0.035 C 
HETATM    5 BR8  UNL     1     -31.854   8.366   1.534  1.00 20.00    -0.048 Br
ENDBRANCH   1   3
BRANCH   1   6
HETATM    6  C6  UNL     1     -34.599   5.638   3.273  1.00 20.00     0.061 A 
HETATM    7  C4  UNL     1     -34.301   4.545   4.245  1.00 20.00     0.013 A 
HETATM    8  C5  UNL     1     -35.391   5.533   4.533  1.00 20.00     0.013 A 
ENDBRANCH   1   6
TORSDOF 2
ENDMDL
MODEL 5
REMARK VINA RESULT:      -1.7      2.049      2.668
REMARK  2 active torsions:
REMARK  status: ('A' for Active; 'I' for Inactive)
REMARK    1  A    between atoms: C2_2  and  C3_3 
REMARK    2  A    between atoms: C3_3  and  C6_6 
ROOT
HETATM    1  C3  UNL     1     -32.240   8.083   1.820  1.00 20.00     0.170 C 
HETATM    2  O7  UNL     1     -31.269   8.475   2.456  1.00 20.00    -0.291 OA
ENDROOT
BRANCH   1   3
HETATM    3  C2  UNL     1     -32.992   6.844   2.190  1.00 20.00     0.047 C 
HETATM    4  C1  UNL     1     -32.840   5.688   1.530  1.00 20.00     0.035 C 
HETATM    5 BR8  UNL     1     -34.197   6.980   3.619  1.00 20.00    -0.048 Br
ENDBRANCH   1   3
BRANCH   1   6
HETATM    6  C6  UNL     1     -32.710   8.869   0.641  1.00 20.00     0.061 A 
HETATM    7  C4  UNL     1     -32.658  10.359   0.713  1.00 20.00     0.013 A 
HETATM    8  C5  UNL     1     -31.699   9.614  -0.165  1.00 20.00     0.013 A 
ENDBRANCH   1   6
TORSDOF 2
ENDMDL
MODEL 6
REMARK VINA RESULT:      -1.6      1.659      1.659
REMARK  2 active torsions:
REMARK  status: ('A' for Active; 'I' for Inactive)
REMARK    1  A    between atoms: C2_2  and  C3_3 
REMARK    2  A    between atoms: C3_3  and  C6_6 
ROOT
HETATM    1  C3  UNL     1     -33.032   6.906   2.385  1.00 20.00     0.170 C 
HETATM    2  O7  UNL     1     -33.052   5.916   1.663  1.00 20.00    -0.291 OA
ENDROOT
BRANCH   1   3
HETATM    3  C2  UNL     1     -33.907   7.036   3.591  1.00 20.00     0.047 C 
HETATM    4  C1  UNL     1     -35.052   6.353   3.724  1.00 20.00     0.035 C 
HETATM    5 BR8  UNL     1     -33.348   8.234   4.918  1.00 20.00    -0.048 Br
ENDBRANCH   1   3
BRANCH   1   6
HETATM    6  C6  UNL     1     -32.092   8.023   2.070  1.00 20.00     0.061 A 
HETATM    7  C4  UNL     1     -31.464   8.065   0.717  1.00 20.00     0.013 A 
HETATM    8  C5  UNL     1     -32.523   9.059   1.086  1.00 20.00     0.013 A 
ENDBRANCH   1   6
TORSDOF 2
ENDMDL
MODEL 7
REMARK VINA RESULT:      -1.6      2.784      4.176
REMARK  2 active torsions:
REMARK  status: ('A' for Active; 'I' for Inactive)
REMARK    1  A    between atoms: C2_2  and  C3_3 
REMARK    2  A    between atoms: C3_3  and  C6_6 
ROOT
HETATM    1  C3  UNL     1     -34.203   4.789   4.038  1.00 20.00     0.170 C 
HETATM    2  O7  UNL     1     -35.277   4.561   4.581  1.00 20.00    -0.291 OA
ENDROOT
BRANCH   1   3
HETATM    3  C2  UNL     1     -33.904   6.094   3.371  1.00 20.00     0.047 C 
HETATM    4  C1  UNL     1     -34.330   7.265   3.862  1.00 20.00     0.035 C 
HETATM    5 BR8  UNL     1     -32.919   6.025   1.779  1.00 20.00    -0.048 Br
ENDBRANCH   1   3
BRANCH   1   6
HETATM    6  C6  UNL     1     -33.139   3.742   4.050  1.00 20.00     0.061 A 
HETATM    7  C4  UNL     1     -32.676   3.211   5.367  1.00 20.00     0.013 A 
HETATM    8  C5  UNL     1     -33.510   2.356   4.462  1.00 20.00     0.013 A 
ENDBRANCH   1   6
TORSDOF 2
ENDMDL
MODEL 8
REMARK VINA RESULT:      -1.6      2.374      3.577
REMARK  2 active torsions:
REMARK  status: ('A' for Active; 'I' for Inactive)
REMARK    1  A    between atoms: C2_2  and  C3_3 
REMARK    2  A    between atoms: C3_3  and  C6_6 
ROOT
HETATM    1  C3  UNL     1     -33.441   5.727   2.753  1.00 20.00     0.170 C 
HETATM    2  O7  UNL     1     -33.463   4.624   3.286  1.00 20.00    -0.291 OA
ENDROOT
BRANCH   1   3
HETATM    3  C2  UNL     1     -32.446   6.083   1.694  1.00 20.00     0.047 C 
HETATM    4  C1  UNL     1     -31.920   5.170   0.867  1.00 20.00     0.035 C 
HETATM    5 BR8  UNL     1     -31.933   7.882   1.585  1.00 20.00    -0.048 Br
ENDBRANCH   1   3
BRANCH   1   6
HETATM    6  C6  UNL     1     -34.446   6.755   3.153  1.00 20.00     0.061 A 
HETATM    7  C4  UNL     1     -35.404   6.426   4.250  1.00 20.00     0.013 A 
HETATM    8  C5  UNL     1     -34.300   7.411   4.485  1.00 20.00     0.013 A 
ENDBRANCH   1   6
TORSDOF 2
ENDMDL
MODEL 9
REMARK VINA RESULT:      -1.5      2.445      3.688
REMARK  2 active torsions:
REMARK  status: ('A' for Active; 'I' for Inactive)
REMARK    1  A    between atoms: C2_2  and  C3_3 
REMARK    2  A    between atoms: C3_3  and  C6_6 
ROOT
HETATM    1  C3  UNL     1     -32.994   6.928   2.006  1.00 20.00     0.170 C 
HETATM    2  O7  UNL     1     -32.739   5.834   1.517  1.00 20.00    -0.291 OA
ENDROOT
BRANCH   1   3
HETATM    3  C2  UNL     1     -32.094   8.111   1.836  1.00 20.00     0.047 C 
HETATM    4  C1  UNL     1     -31.062   8.352   2.655  1.00 20.00     0.035 C 
HETATM    5 BR8  UNL     1     -32.489   9.279   0.424  1.00 20.00    -0.048 Br
ENDBRANCH   1   3
BRANCH   1   6
HETATM    6  C6  UNL     1     -34.252   7.105   2.789  1.00 20.00     0.061 A 
HETATM    7  C4  UNL     1     -34.573   6.111   3.856  1.00 20.00     0.013 A 
HETATM    8  C5  UNL     1     -34.148   7.500   4.224  1.00 20.00     0.013 A 
ENDBRANCH   1   6
TORSDOF 2
ENDMDL
