MODEL 1
REMARK VINA RESULT:      -1.6      0.000      0.000
REMARK  3 active torsions:
REMARK  status: ('A' for Active; 'I' for Inactive)
REMARK    1  A    between atoms: C1_1  and  C3_3 
REMARK    2  A    between atoms: C2_2  and  N8_8 
REMARK    3  A    between atoms: C4_4  and  C5_5 
ROOT
HETATM    1  C1  UNL     1     -34.134   6.972   3.340  1.00 20.00    -0.056 C 
HETATM    2  C2  UNL     1     -33.261   7.467   2.680  1.00 20.00     0.012 C 
ENDROOT
BRANCH   1   3
HETATM    3  C3  UNL     1     -35.170   6.387   4.115  1.00 20.00     0.069 C 
HETATM    4  C4  UNL     1     -35.128   5.098   4.470  1.00 20.00     0.050 C 
BRANCH   4   5
HETATM    5  C5  UNL     1     -33.980   4.277   4.041  1.00 20.00     0.259 C 
HETATM    6  O9  UNL     1     -33.789   3.151   4.486  1.00 20.00    -0.302 OA
ENDBRANCH   4   5
ENDBRANCH   1   3
BRANCH   2   7
HETATM    7  N8  UNL     1     -32.217   8.061   1.890  1.00 20.00    -0.350 N 
HETATM    8  C6  UNL     1     -32.546   9.235   1.095  1.00 20.00     0.159 C 
HETATM    9  C7  UNL     1     -31.150   7.197   1.408  1.00 20.00     0.159 C 
ENDBRANCH   2   7
TORSDOF 3
ENDMDL
MODEL 2
REMARK VINA RESULT:      -1.3      0.647      1.099
REMARK  3 active torsions:
REMARK  status: ('A' for Active; 'I' for Inactive)
REMARK    1  A    between atoms: C1_1  and  C3_3 
REMARK    2  A    between atoms: C2_2  and  N8_8 
REMARK    3  A    between atoms: C4_4  and  C5_5 
ROOT
HETATM    1  C1  UNL     1     -34.141   6.939   3.354  1.00 20.00    -0.056 C 
HETATM    2  C2  UNL     1     -33.238   7.457   2.755  1.00 20.00     0.012 C 
ENDROOT
BRANCH   1   3
HETATM    3  C3  UNL     1     -35.206   6.326   4.068  1.00 20.00     0.069 C 
HETATM    4  C4  UNL     1     -35.160   5.033   4.406  1.00 20.00     0.050 C 
BRANCH   4   5
HETATM    5  C5  UNL     1     -33.978   4.236   4.026  1.00 20.00     0.259 C 
HETATM    6  O9  UNL     1     -33.742   3.147   4.534  1.00 20.00    -0.302 OA
ENDBRANCH   4   5
ENDBRANCH   1   3
BRANCH   2   7
HETATM    7  N8  UNL     1     -32.157   8.075   2.038  1.00 20.00    -0.350 N 
HETATM    8  C6  UNL     1     -30.966   8.449   2.787  1.00 20.00     0.159 C 
HETATM    9  C7  UNL     1     -32.481   8.855   0.852  1.00 20.00     0.159 C 
ENDBRANCH   2   7
TORSDOF 3
ENDMDL
MODEL 3
REMARK VINA RESULT:      -1.2      3.271      5.317
REMARK  3 active torsions:
REMARK  status: ('A' for Active; 'I' for Inactive)
REMARK    1  A    between atoms: C1_1  and  C3_3 
REMARK    2  A    between atoms: C2_2  and  N8_8 
REMARK    3  A    between atoms: C4_4  and  C5_5 
ROOT
HETATM    1  C1  UNL     1     -32.347   7.733   2.032  1.00 20.00    -0.056 C 
HETATM    2  C2  UNL     1     -33.169   7.616   2.899  1.00 20.00     0.012 C 
ENDROOT
BRANCH   1   3
HETATM    3  C3  UNL     1     -31.369   7.872   1.010  1.00 20.00     0.069 C 
HETATM    4  C4  UNL     1     -31.424   8.876   0.129  1.00 20.00     0.050 C 
BRANCH   4   5
HETATM    5  C5  UNL     1     -32.525   9.854   0.227  1.00 20.00     0.259 C 
HETATM    6  O9  UNL     1     -33.181  10.189  -0.752  1.00 20.00    -0.302 OA
ENDBRANCH   4   5
ENDBRANCH   1   3
BRANCH   2   7
HETATM    7  N8  UNL     1     -34.154   7.477   3.937  1.00 20.00    -0.350 N 
HETATM    8  C6  UNL     1     -33.853   8.042   5.244  1.00 20.00     0.159 C 
HETATM    9  C7  UNL     1     -35.040   6.323   3.889  1.00 20.00     0.159 C 
ENDBRANCH   2   7
TORSDOF 3
ENDMDL
MODEL 4
REMARK VINA RESULT:      -0.8      3.159      5.192
REMARK  3 active torsions:
REMARK  status: ('A' for Active; 'I' for Inactive)
REMARK    1  A    between atoms: C1_1  and  C3_3 
REMARK    2  A    between atoms: C2_2  and  N8_8 
REMARK    3  A    between atoms: C4_4  and  C5_5 
ROOT
HETATM    1  C1  UNL     1     -32.223   7.296   2.040  1.00 20.00    -0.056 C 
HETATM    2  C2  UNL     1     -33.121   6.706   2.577  1.00 20.00     0.012 C 
ENDROOT
BRANCH   1   3
HETATM    3  C3  UNL     1     -31.156   7.990   1.409  1.00 20.00     0.069 C 
HETATM    4  C4  UNL     1     -31.387   9.038   0.611  1.00 20.00     0.050 C 
BRANCH   4   5
HETATM    5  C5  UNL     1     -32.779   9.473   0.387  1.00 20.00     0.259 C 
HETATM    6  O9  UNL     1     -33.133   9.993  -0.665  1.00 20.00    -0.302 OA
ENDBRANCH   4   5
ENDBRANCH   1   3
BRANCH   2   7
HETATM    7  N8  UNL     1     -34.196   6.001   3.220  1.00 20.00    -0.350 N 
HETATM    8  C6  UNL     1     -35.180   6.780   3.956  1.00 20.00     0.159 C 
HETATM    9  C7  UNL     1     -33.951   4.635   3.659  1.00 20.00     0.159 C 
ENDBRANCH   2   7
TORSDOF 3
ENDMDL
MODEL 5
REMARK VINA RESULT:      -0.5      1.927      2.719
REMARK  3 active torsions:
REMARK  status: ('A' for Active; 'I' for Inactive)
REMARK    1  A    between atoms: C1_1  and  C3_3 
REMARK    2  A    between atoms: C2_2  and  N8_8 
REMARK    3  A    between atoms: C4_4  and  C5_5 
ROOT
HETATM    1  C1  UNL     1     -32.513   7.199   1.515  1.00 20.00    -0.056 C 
HETATM    2  C2  UNL     1     -32.437   8.316   1.081  1.00 20.00     0.012 C 
ENDROOT
BRANCH   1   3
HETATM    3  C3  UNL     1     -32.608   5.876   2.023  1.00 20.00     0.069 C 
HETATM    4  C4  UNL     1     -33.458   5.571   3.009  1.00 20.00     0.050 C 
BRANCH   4   5
HETATM    5  C5  UNL     1     -34.311   6.635   3.572  1.00 20.00     0.259 C 
HETATM    6  O9  UNL     1     -35.439   6.406   3.992  1.00 20.00    -0.302 OA
ENDBRANCH   4   5
ENDBRANCH   1   3
BRANCH   2   7
HETATM    7  N8  UNL     1     -32.346   9.653   0.561  1.00 20.00    -0.350 N 
HETATM    8  C6  UNL     1     -32.739  10.752   1.430  1.00 20.00     0.159 C 
HETATM    9  C7  UNL     1     -32.499   9.841  -0.874  1.00 20.00     0.159 C 
ENDBRANCH   2   7
TORSDOF 3
ENDMDL
MODEL 6
REMARK VINA RESULT:      -0.4      2.100      2.610
REMARK  3 active torsions:
REMARK  status: ('A' for Active; 'I' for Inactive)
REMARK    1  A    between atoms: C1_1  and  C3_3 
REMARK    2  A    between atoms: C2_2  and  N8_8 
REMARK    3  A    between atoms: C4_4  and  C5_5 
ROOT
HETATM    1  C1  UNL     1     -32.764   7.078   1.822  1.00 20.00    -0.056 C 
HETATM    2  C2  UNL     1     -32.362   8.067   1.273  1.00 20.00     0.012 C 
ENDROOT
BRANCH   1   3
HETATM    3  C3  UNL     1     -33.237   5.903   2.466  1.00 20.00     0.069 C 
HETATM    4  C4  UNL     1     -34.080   5.972   3.503  1.00 20.00     0.050 C 
BRANCH   4   5
HETATM    5  C5  UNL     1     -34.520   7.298   3.979  1.00 20.00     0.259 C 
HETATM    6  O9  UNL     1     -33.874   7.937   4.802  1.00 20.00    -0.302 OA
ENDBRANCH   4   5
ENDBRANCH   1   3
BRANCH   2   7
HETATM    7  N8  UNL     1     -31.880   9.251   0.616  1.00 20.00    -0.350 N 
HETATM    8  C6  UNL     1     -32.746  10.422   0.597  1.00 20.00     0.159 C 
HETATM    9  C7  UNL     1     -30.941   9.089  -0.484  1.00 20.00     0.159 C 
ENDBRANCH   2   7
TORSDOF 3
ENDMDL
MODEL 7
REMARK VINA RESULT:      -0.2      2.816      4.775
REMARK  3 active torsions:
REMARK  status: ('A' for Active; 'I' for Inactive)
REMARK    1  A    between atoms: C1_1  and  C3_3 
REMARK    2  A    between atoms: C2_2  and  N8_8 
REMARK    3  A    between atoms: C4_4  and  C5_5 
ROOT
HETATM    1  C1  UNL     1     -32.862   5.740   2.117  1.00 20.00    -0.056 C 
HETATM    2  C2  UNL     1     -33.469   5.104   2.933  1.00 20.00     0.012 C 
ENDROOT
BRANCH   1   3
HETATM    3  C3  UNL     1     -32.140   6.496   1.154  1.00 20.00     0.069 C 
HETATM    4  C4  UNL     1     -31.866   7.790   1.352  1.00 20.00     0.050 C 
BRANCH   4   5
HETATM    5  C5  UNL     1     -32.327   8.436   2.595  1.00 20.00     0.259 C 
HETATM    6  O9  UNL     1     -31.563   8.669   3.525  1.00 20.00    -0.302 OA
ENDBRANCH   4   5
ENDBRANCH   1   3
BRANCH   2   7
HETATM    7  N8  UNL     1     -34.196   4.342   3.912  1.00 20.00    -0.350 N 
HETATM    8  C6  UNL     1     -35.281   5.003   4.623  1.00 20.00     0.159 C 
HETATM    9  C7  UNL     1     -33.498   3.265   4.597  1.00 20.00     0.159 C 
ENDBRANCH   2   7
TORSDOF 3
ENDMDL
MODEL 8
REMARK VINA RESULT:       0.4      3.063      4.795
REMARK  3 active torsions:
REMARK  status: ('A' for Active; 'I' for Inactive)
REMARK    1  A    between atoms: C1_1  and  C3_3 
REMARK    2  A    between atoms: C2_2  and  N8_8 
REMARK    3  A    between atoms: C4_4  and  C5_5 
ROOT
HETATM    1  C1  UNL     1     -34.632   5.036   4.228  1.00 20.00    -0.056 C 
HETATM    2  C2  UNL     1     -33.922   4.126   4.558  1.00 20.00     0.012 C 
ENDROOT
BRANCH   1   3
HETATM    3  C3  UNL     1     -35.472   6.115   3.843  1.00 20.00     0.069 C 
HETATM    4  C4  UNL     1     -34.971   7.328   3.590  1.00 20.00     0.050 C 
BRANCH   4   5
HETATM    5  C5  UNL     1     -33.517   7.541   3.715  1.00 20.00     0.259 C 
HETATM    6  O9  UNL     1     -32.795   7.672   2.733  1.00 20.00    -0.302 OA
ENDBRANCH   4   5
ENDBRANCH   1   3
BRANCH   2   7
HETATM    7  N8  UNL     1     -33.072   3.036   4.954  1.00 20.00    -0.350 N 
HETATM    8  C6  UNL     1     -33.378   1.709   4.439  1.00 20.00     0.159 C 
HETATM    9  C7  UNL     1     -32.408   3.121   6.246  1.00 20.00     0.159 C 
ENDBRANCH   2   7
TORSDOF 3
ENDMDL
MODEL 9
REMARK VINA RESULT:       0.6      1.965      2.736
REMARK  3 active torsions:
REMARK  status: ('A' for Active; 'I' for Inactive)
REMARK    1  A    between atoms: C1_1  and  C3_3 
REMARK    2  A    between atoms: C2_2  and  N8_8 
REMARK    3  A    between atoms: C4_4  and  C5_5 
ROOT
HETATM    1  C1  UNL     1     -32.541   8.461   2.876  1.00 20.00    -0.056 C 
HETATM    2  C2  UNL     1     -32.361   8.722   1.718  1.00 20.00     0.012 C 
ENDROOT
BRANCH   1   3
HETATM    3  C3  UNL     1     -32.759   8.156   4.246  1.00 20.00     0.069 C 
HETATM    4  C4  UNL     1     -33.774   7.375   4.630  1.00 20.00     0.050 C 
BRANCH   4   5
HETATM    5  C5  UNL     1     -34.680   6.825   3.604  1.00 20.00     0.259 C 
HETATM    6  O9  UNL     1     -35.678   6.178   3.901  1.00 20.00    -0.302 OA
ENDBRANCH   4   5
ENDBRANCH   1   3
BRANCH   2   7
HETATM    7  N8  UNL     1     -32.146   9.034   0.331  1.00 20.00    -0.350 N 
HETATM    8  C6  UNL     1     -30.915   8.570  -0.291  1.00 20.00     0.159 C 
HETATM    9  C7  UNL     1     -32.755  10.246  -0.199  1.00 20.00     0.159 C 
ENDBRANCH   2   7
TORSDOF 3
ENDMDL
