MODEL 1
REMARK VINA RESULT:      -0.3      0.000      0.000
REMARK  0 active torsions:
REMARK  status: ('A' for Active; 'I' for Inactive)
ROOT
HETATM    1  C1  UNL     1     -33.858   3.637   4.108  1.00 20.00     0.015 C 
HETATM    2  C2  UNL     1     -33.654   4.695   3.581  1.00 20.00    -0.076 C 
HETATM    3  C3  UNL     1     -32.915   8.377   3.504  1.00 20.00     0.004 C 
HETATM    4  C4  UNL     1     -32.612   8.600   2.028  1.00 20.00     0.003 C 
HETATM    5  C5  UNL     1     -33.858   7.192   3.700  1.00 20.00     0.055 C 
HETATM    6  C6  UNL     1     -31.839   7.420   1.445  1.00 20.00     0.042 C 
HETATM    7  C7  UNL     1     -33.411   5.962   2.952  1.00 20.00     0.154 A 
HETATM    8  C8  UNL     1     -32.431   6.078   1.785  1.00 20.00     0.102 A 
HETATM    9  C9  UNL     1     -31.664   4.887   1.290  1.00 20.00     0.050 C 
HETATM   10  O10 UNL     1     -33.839   5.974   1.573  1.00 20.00    -0.350 OA
ENDROOT
TORSDOF 0
ENDMDL
MODEL 2
REMARK VINA RESULT:       0.3      1.342      3.377
REMARK  0 active torsions:
REMARK  status: ('A' for Active; 'I' for Inactive)
ROOT
HETATM    1  C1  UNL     1     -32.031   9.351   0.330  1.00 20.00     0.015 C 
HETATM    2  C2  UNL     1     -32.379   8.564   1.166  1.00 20.00    -0.076 C 
HETATM    3  C3  UNL     1     -34.469   7.342   4.038  1.00 20.00     0.004 C 
HETATM    4  C4  UNL     1     -34.073   5.872   4.105  1.00 20.00     0.003 C 
HETATM    5  C5  UNL     1     -33.343   8.190   3.451  1.00 20.00     0.055 C 
HETATM    6  C6  UNL     1     -33.875   5.297   2.705  1.00 20.00     0.042 C 
HETATM    7  C7  UNL     1     -32.795   7.623   2.167  1.00 20.00     0.154 A 
HETATM    8  C8  UNL     1     -33.020   6.154   1.809  1.00 20.00     0.102 A 
HETATM    9  C9  UNL     1     -32.857   5.659   0.402  1.00 20.00     0.050 C 
HETATM   10  O10 UNL     1     -31.799   6.602   2.399  1.00 20.00    -0.350 OA
ENDROOT
TORSDOF 0
ENDMDL
MODEL 3
REMARK VINA RESULT:       0.4      0.972      2.813
REMARK  0 active torsions:
REMARK  status: ('A' for Active; 'I' for Inactive)
ROOT
HETATM    1  C1  UNL     1     -31.275   4.526   0.473  1.00 20.00     0.015 C 
HETATM    2  C2  UNL     1     -32.083   5.080   1.166  1.00 20.00    -0.076 C 
HETATM    3  C3  UNL     1     -34.302   5.465   4.172  1.00 20.00     0.004 C 
HETATM    4  C4  UNL     1     -34.757   6.912   4.036  1.00 20.00     0.003 C 
HETATM    5  C5  UNL     1     -33.965   4.863   2.809  1.00 20.00     0.055 C 
HETATM    6  C6  UNL     1     -33.623   7.794   3.519  1.00 20.00     0.042 C 
HETATM    7  C7  UNL     1     -33.049   5.741   1.995  1.00 20.00     0.154 A 
HETATM    8  C8  UNL     1     -32.911   7.228   2.320  1.00 20.00     0.102 A 
HETATM    9  C9  UNL     1     -31.745   8.031   1.821  1.00 20.00     0.050 C 
HETATM   10  O10 UNL     1     -33.770   6.767   1.277  1.00 20.00    -0.350 OA
ENDROOT
TORSDOF 0
ENDMDL
MODEL 4
REMARK VINA RESULT:       1.1      1.243      3.043
REMARK  0 active torsions:
REMARK  status: ('A' for Active; 'I' for Inactive)
ROOT
HETATM    1  C1  UNL     1     -33.805   8.496   5.684  1.00 20.00     0.015 C 
HETATM    2  C2  UNL     1     -33.654   7.940   4.631  1.00 20.00    -0.076 C 
HETATM    3  C3  UNL     1     -31.747   6.904   1.566  1.00 20.00     0.004 C 
HETATM    4  C4  UNL     1     -32.670   5.848   0.970  1.00 20.00     0.003 C 
HETATM    5  C5  UNL     1     -32.533   7.922   2.388  1.00 20.00     0.055 C 
HETATM    6  C6  UNL     1     -33.318   5.008   2.067  1.00 20.00     0.042 C 
HETATM    7  C7  UNL     1     -33.474   7.276   3.372  1.00 20.00     0.154 A 
HETATM    8  C8  UNL     1     -33.910   5.823   3.188  1.00 20.00     0.102 A 
HETATM    9  C9  UNL     1     -34.497   5.034   4.321  1.00 20.00     0.050 C 
HETATM   10  O10 UNL     1     -34.733   6.910   2.766  1.00 20.00    -0.350 OA
ENDROOT
TORSDOF 0
ENDMDL
MODEL 5
REMARK VINA RESULT:       1.2      1.165      3.934
REMARK  0 active torsions:
REMARK  status: ('A' for Active; 'I' for Inactive)
ROOT
HETATM    1  C1  UNL     1     -31.618   7.978   1.531  1.00 20.00     0.015 C 
HETATM    2  C2  UNL     1     -32.425   7.276   2.073  1.00 20.00    -0.076 C 
HETATM    3  C3  UNL     1     -33.632   4.147   3.765  1.00 20.00     0.004 C 
HETATM    4  C4  UNL     1     -34.987   4.590   4.302  1.00 20.00     0.003 C 
HETATM    5  C5  UNL     1     -33.243   4.949   2.525  1.00 20.00     0.055 C 
HETATM    6  C6  UNL     1     -34.931   6.031   4.803  1.00 20.00     0.042 C 
HETATM    7  C7  UNL     1     -33.391   6.436   2.722  1.00 20.00     0.154 A 
HETATM    8  C8  UNL     1     -34.278   6.985   3.838  1.00 20.00     0.102 A 
HETATM    9  C9  UNL     1     -34.140   8.400   4.320  1.00 20.00     0.050 C 
HETATM   10  O10 UNL     1     -34.744   6.886   2.492  1.00 20.00    -0.350 OA
ENDROOT
TORSDOF 0
ENDMDL
MODEL 6
REMARK VINA RESULT:       1.6      1.948      3.337
REMARK  0 active torsions:
REMARK  status: ('A' for Active; 'I' for Inactive)
ROOT
HETATM    1  C1  UNL     1     -31.874   4.987   1.397  1.00 20.00     0.015 C 
HETATM    2  C2  UNL     1     -31.956   6.184   1.375  1.00 20.00    -0.076 C 
HETATM    3  C3  UNL     1     -32.427   9.539  -0.246  1.00 20.00     0.004 C 
HETATM    4  C4  UNL     1     -32.582  10.449   0.967  1.00 20.00     0.003 C 
HETATM    5  C5  UNL     1     -31.591   8.308   0.093  1.00 20.00     0.055 C 
HETATM    6  C6  UNL     1     -33.381   9.757   2.069  1.00 20.00     0.042 C 
HETATM    7  C7  UNL     1     -32.054   7.615   1.348  1.00 20.00     0.154 A 
HETATM    8  C8  UNL     1     -32.917   8.356   2.369  1.00 20.00     0.102 A 
HETATM    9  C9  UNL     1     -33.718   7.615   3.399  1.00 20.00     0.050 C 
HETATM   10  O10 UNL     1     -31.506   8.219   2.541  1.00 20.00    -0.350 OA
ENDROOT
TORSDOF 0
ENDMDL
MODEL 7
REMARK VINA RESULT:       1.9      1.516      2.782
REMARK  0 active torsions:
REMARK  status: ('A' for Active; 'I' for Inactive)
ROOT
HETATM    1  C1  UNL     1     -33.892   4.718   0.162  1.00 20.00     0.015 C 
HETATM    2  C2  UNL     1     -33.540   5.449   1.046  1.00 20.00    -0.076 C 
HETATM    3  C3  UNL     1     -32.102   8.604   2.490  1.00 20.00     0.004 C 
HETATM    4  C4  UNL     1     -32.427   8.442   3.970  1.00 20.00     0.003 C 
HETATM    5  C5  UNL     1     -31.965   7.246   1.805  1.00 20.00     0.055 C 
HETATM    6  C6  UNL     1     -33.798   7.798   4.160  1.00 20.00     0.042 C 
HETATM    7  C7  UNL     1     -33.119   6.324   2.102  1.00 20.00     0.154 A 
HETATM    8  C8  UNL     1     -34.016   6.570   3.315  1.00 20.00     0.102 A 
HETATM    9  C9  UNL     1     -35.376   5.944   3.420  1.00 20.00     0.050 C 
HETATM   10  O10 UNL     1     -32.950   5.621   3.353  1.00 20.00    -0.350 OA
ENDROOT
TORSDOF 0
ENDMDL
MODEL 8
REMARK VINA RESULT:       2.0      1.481      2.740
REMARK  0 active torsions:
REMARK  status: ('A' for Active; 'I' for Inactive)
ROOT
HETATM    1  C1  UNL     1     -35.642   5.386   4.468  1.00 20.00     0.015 C 
HETATM    2  C2  UNL     1     -34.706   5.857   3.885  1.00 20.00    -0.076 C 
HETATM    3  C3  UNL     1     -32.228   6.132   1.076  1.00 20.00     0.004 C 
HETATM    4  C4  UNL     1     -31.561   7.468   1.382  1.00 20.00     0.003 C 
HETATM    5  C5  UNL     1     -32.761   5.478   2.349  1.00 20.00     0.055 C 
HETATM    6  C6  UNL     1     -32.578   8.476   1.912  1.00 20.00     0.042 C 
HETATM    7  C7  UNL     1     -33.586   6.420   3.187  1.00 20.00     0.154 A 
HETATM    8  C8  UNL     1     -33.462   7.932   3.003  1.00 20.00     0.102 A 
HETATM    9  C9  UNL     1     -34.522   8.869   3.505  1.00 20.00     0.050 C 
HETATM   10  O10 UNL     1     -32.770   7.246   4.047  1.00 20.00    -0.350 OA
ENDROOT
TORSDOF 0
ENDMDL
MODEL 9
REMARK VINA RESULT:       2.5      1.324      2.546
REMARK  0 active torsions:
REMARK  status: ('A' for Active; 'I' for Inactive)
ROOT
HETATM    1  C1  UNL     1     -33.747   3.052   4.364  1.00 20.00     0.015 C 
HETATM    2  C2  UNL     1     -33.479   4.114   3.874  1.00 20.00    -0.076 C 
HETATM    3  C3  UNL     1     -32.289   6.406   1.147  1.00 20.00     0.004 C 
HETATM    4  C4  UNL     1     -32.676   7.772   1.700  1.00 20.00     0.003 C 
HETATM    5  C5  UNL     1     -32.044   5.404   2.273  1.00 20.00     0.055 C 
HETATM    6  C6  UNL     1     -34.017   7.705   2.427  1.00 20.00     0.042 C 
HETATM    7  C7  UNL     1     -33.158   5.383   3.287  1.00 20.00     0.154 A 
HETATM    8  C8  UNL     1     -34.126   6.561   3.401  1.00 20.00     0.102 A 
HETATM    9  C9  UNL     1     -35.453   6.418   4.087  1.00 20.00     0.050 C 
HETATM   10  O10 UNL     1     -33.012   6.420   4.283  1.00 20.00    -0.350 OA
ENDROOT
TORSDOF 0
ENDMDL
