MODEL 1
REMARK VINA RESULT:      -2.5      0.000      0.000
REMARK  4 active torsions:
REMARK  status: ('A' for Active; 'I' for Inactive)
REMARK    1  A    between atoms: C1_1  and  C3_3 
REMARK    2  A    between atoms: C1_1  and  O10_10 
REMARK    3  A    between atoms: C4_4  and  C7_7 
REMARK    4  A    between atoms: C7_7  and  C8_8 
ROOT
HETATM    1  C2  UNL     1     -33.991   7.170   3.670  1.00 20.00     0.020 A 
HETATM    2  C3  UNL     1     -33.553   5.733   3.777  1.00 20.00     0.090 A 
HETATM    3  C4  UNL     1     -33.702   6.384   2.417  1.00 20.00    -0.000 A 
ENDROOT
BRANCH   2   4
HETATM    4  C1  UNL     1     -34.525   4.714   4.189  1.00 20.00     0.263 C 
HETATM    5  O9  UNL     1     -35.636   4.968   4.638  1.00 20.00    -0.265 OA
BRANCH   4   6
HETATM    6  O10 UNL     1     -33.996   3.473   3.992  1.00 20.00    -0.326 OA
HETATM    7  C6  UNL     1     -33.052   3.042   4.977  1.00 20.00     0.213 C 
ENDBRANCH   4   6
ENDBRANCH   2   4
BRANCH   3   8
HETATM    8  C7  UNL     1     -32.495   6.694   1.600  1.00 20.00     0.005 C 
BRANCH   8   9
HETATM    9  C8  UNL     1     -31.950   8.108   1.867  1.00 20.00    -0.004 C 
HETATM   10  C5  UNL     1     -32.326   9.094   0.772  1.00 20.00     0.005 C 
ENDBRANCH   8   9
ENDBRANCH   3   8
TORSDOF 4
ENDMDL
MODEL 2
REMARK VINA RESULT:      -2.2      2.593      4.902
REMARK  4 active torsions:
REMARK  status: ('A' for Active; 'I' for Inactive)
REMARK    1  A    between atoms: C1_1  and  C3_3 
REMARK    2  A    between atoms: C1_1  and  O10_10 
REMARK    3  A    between atoms: C4_4  and  C7_7 
REMARK    4  A    between atoms: C7_7  and  C8_8 
ROOT
HETATM    1  C2  UNL     1     -33.518   8.122   4.080  1.00 20.00     0.020 A 
HETATM    2  C3  UNL     1     -33.598   7.719   2.631  1.00 20.00     0.090 A 
HETATM    3  C4  UNL     1     -33.838   6.694   3.721  1.00 20.00    -0.000 A 
ENDROOT
BRANCH   2   4
HETATM    4  C1  UNL     1     -32.366   7.640   1.838  1.00 20.00     0.263 C 
HETATM    5  O9  UNL     1     -31.862   6.591   1.458  1.00 20.00    -0.265 OA
BRANCH   4   6
HETATM    6  O10 UNL     1     -31.893   8.897   1.603  1.00 20.00    -0.326 OA
HETATM    7  C6  UNL     1     -32.322   9.497   0.377  1.00 20.00     0.213 C 
ENDBRANCH   4   6
ENDBRANCH   2   4
BRANCH   3   8
HETATM    8  C7  UNL     1     -35.206   6.152   3.950  1.00 20.00     0.005 C 
BRANCH   8   9
HETATM    9  C8  UNL     1     -35.187   4.756   4.597  1.00 20.00    -0.004 C 
HETATM   10  C5  UNL     1     -33.949   3.958   4.225  1.00 20.00     0.005 C 
ENDBRANCH   8   9
ENDBRANCH   3   8
TORSDOF 4
ENDMDL
MODEL 3
REMARK VINA RESULT:      -2.1      1.432      2.329
REMARK  4 active torsions:
REMARK  status: ('A' for Active; 'I' for Inactive)
REMARK    1  A    between atoms: C1_1  and  C3_3 
REMARK    2  A    between atoms: C1_1  and  O10_10 
REMARK    3  A    between atoms: C4_4  and  C7_7 
REMARK    4  A    between atoms: C7_7  and  C8_8 
ROOT
HETATM    1  C2  UNL     1     -32.336   5.871   1.584  1.00 20.00     0.020 A 
HETATM    2  C3  UNL     1     -33.416   6.818   2.037  1.00 20.00     0.090 A 
HETATM    3  C4  UNL     1     -31.993   7.312   1.865  1.00 20.00    -0.000 A 
ENDROOT
BRANCH   2   4
HETATM    4  C1  UNL     1     -33.965   6.688   3.391  1.00 20.00     0.263 C 
HETATM    5  O9  UNL     1     -34.230   7.637   4.117  1.00 20.00    -0.265 OA
BRANCH   4   6
HETATM    6  O10 UNL     1     -34.127   5.368   3.693  1.00 20.00    -0.326 OA
HETATM    7  C6  UNL     1     -35.262   5.057   4.507  1.00 20.00     0.213 C 
ENDBRANCH   4   6
ENDBRANCH   2   4
BRANCH   3   8
HETATM    8  C7  UNL     1     -31.651   8.233   0.745  1.00 20.00     0.005 C 
BRANCH   8   9
HETATM    9  C8  UNL     1     -32.353   9.597   0.868  1.00 20.00    -0.004 C 
HETATM   10  C5  UNL     1     -32.760  10.166  -0.481  1.00 20.00     0.005 C 
ENDBRANCH   8   9
ENDBRANCH   3   8
TORSDOF 4
ENDMDL
MODEL 4
REMARK VINA RESULT:      -2.1      3.263      5.480
REMARK  4 active torsions:
REMARK  status: ('A' for Active; 'I' for Inactive)
REMARK    1  A    between atoms: C1_1  and  C3_3 
REMARK    2  A    between atoms: C1_1  and  O10_10 
REMARK    3  A    between atoms: C4_4  and  C7_7 
REMARK    4  A    between atoms: C7_7  and  C8_8 
ROOT
HETATM    1  C2  UNL     1     -32.494   6.411   1.856  1.00 20.00     0.020 A 
HETATM    2  C3  UNL     1     -32.086   7.838   2.109  1.00 20.00     0.090 A 
HETATM    3  C4  UNL     1     -33.502   7.387   2.406  1.00 20.00    -0.000 A 
ENDROOT
BRANCH   2   4
HETATM    4  C1  UNL     1     -31.848   8.731   0.970  1.00 20.00     0.263 C 
HETATM    5  O9  UNL     1     -31.041   8.503   0.078  1.00 20.00    -0.265 OA
BRANCH   4   6
HETATM    6  O10 UNL     1     -32.654   9.826   1.071  1.00 20.00    -0.326 OA
HETATM    7  C6  UNL     1     -32.805  10.593  -0.128  1.00 20.00     0.213 C 
ENDBRANCH   4   6
ENDBRANCH   2   4
BRANCH   3   8
HETATM    8  C7  UNL     1     -33.969   7.267   3.815  1.00 20.00     0.005 C 
BRANCH   8   9
HETATM    9  C8  UNL     1     -35.219   6.380   3.949  1.00 20.00    -0.004 C 
HETATM   10  C5  UNL     1     -34.881   4.952   4.349  1.00 20.00     0.005 C 
ENDBRANCH   8   9
ENDBRANCH   3   8
TORSDOF 4
ENDMDL
MODEL 5
REMARK VINA RESULT:      -1.9      1.575      2.627
REMARK  4 active torsions:
REMARK  status: ('A' for Active; 'I' for Inactive)
REMARK    1  A    between atoms: C1_1  and  C3_3 
REMARK    2  A    between atoms: C1_1  and  O10_10 
REMARK    3  A    between atoms: C4_4  and  C7_7 
REMARK    4  A    between atoms: C7_7  and  C8_8 
ROOT
HETATM    1  C2  UNL     1     -32.044   5.514   1.450  1.00 20.00     0.020 A 
HETATM    2  C3  UNL     1     -33.324   6.192   1.862  1.00 20.00     0.090 A 
HETATM    3  C4  UNL     1     -32.024   6.971   1.837  1.00 20.00    -0.000 A 
ENDROOT
BRANCH   2   4
HETATM    4  C1  UNL     1     -33.930   5.860   3.156  1.00 20.00     0.263 C 
HETATM    5  O9  UNL     1     -33.796   4.781   3.719  1.00 20.00    -0.265 OA
BRANCH   4   6
HETATM    6  O10 UNL     1     -34.648   6.926   3.612  1.00 20.00    -0.326 OA
HETATM    7  C6  UNL     1     -33.966   7.775   4.540  1.00 20.00     0.213 C 
ENDBRANCH   4   6
ENDBRANCH   2   4
BRANCH   3   8
HETATM    8  C7  UNL     1     -31.799   8.017   0.802  1.00 20.00     0.005 C 
BRANCH   8   9
HETATM    9  C8  UNL     1     -32.380   9.383   1.208  1.00 20.00    -0.004 C 
HETATM   10  C5  UNL     1     -32.619  10.294   0.014  1.00 20.00     0.005 C 
ENDBRANCH   8   9
ENDBRANCH   3   8
TORSDOF 4
ENDMDL
MODEL 6
REMARK VINA RESULT:      -1.7      1.247      1.785
REMARK  4 active torsions:
REMARK  status: ('A' for Active; 'I' for Inactive)
REMARK    1  A    between atoms: C1_1  and  C3_3 
REMARK    2  A    between atoms: C1_1  and  O10_10 
REMARK    3  A    between atoms: C4_4  and  C7_7 
REMARK    4  A    between atoms: C7_7  and  C8_8 
ROOT
HETATM    1  C2  UNL     1     -33.889   8.048   4.512  1.00 20.00     0.020 A 
HETATM    2  C3  UNL     1     -33.944   6.608   4.073  1.00 20.00     0.090 A 
HETATM    3  C4  UNL     1     -33.588   7.695   3.079  1.00 20.00    -0.000 A 
ENDROOT
BRANCH   2   4
HETATM    4  C1  UNL     1     -35.245   5.940   3.961  1.00 20.00     0.263 C 
HETATM    5  O9  UNL     1     -36.236   6.449   3.453  1.00 20.00    -0.265 OA
BRANCH   4   6
HETATM    6  O10 UNL     1     -35.166   4.692   4.504  1.00 20.00    -0.326 OA
HETATM    7  C6  UNL     1     -33.949   3.984   4.247  1.00 20.00     0.213 C 
ENDBRANCH   4   6
ENDBRANCH   2   4
BRANCH   3   8
HETATM    8  C7  UNL     1     -32.197   7.804   2.557  1.00 20.00     0.005 C 
BRANCH   8   9
HETATM    9  C8  UNL     1     -32.023   7.113   1.193  1.00 20.00    -0.004 C 
HETATM   10  C5  UNL     1     -32.404   5.642   1.231  1.00 20.00     0.005 C 
ENDBRANCH   8   9
ENDBRANCH   3   8
TORSDOF 4
ENDMDL
MODEL 7
REMARK VINA RESULT:      -1.6      2.141      4.418
REMARK  4 active torsions:
REMARK  status: ('A' for Active; 'I' for Inactive)
REMARK    1  A    between atoms: C1_1  and  C3_3 
REMARK    2  A    between atoms: C1_1  and  O10_10 
REMARK    3  A    between atoms: C4_4  and  C7_7 
REMARK    4  A    between atoms: C7_7  and  C8_8 
ROOT
HETATM    1  C2  UNL     1     -35.379   5.848   4.119  1.00 20.00     0.020 A 
HETATM    2  C3  UNL     1     -34.176   6.344   3.362  1.00 20.00     0.090 A 
HETATM    3  C4  UNL     1     -34.068   5.115   4.242  1.00 20.00    -0.000 A 
ENDROOT
BRANCH   2   4
HETATM    4  C1  UNL     1     -33.519   7.584   3.788  1.00 20.00     0.263 C 
HETATM    5  O9  UNL     1     -33.703   8.119   4.874  1.00 20.00    -0.265 OA
BRANCH   4   6
HETATM    6  O10 UNL     1     -32.693   8.027   2.798  1.00 20.00    -0.326 OA
HETATM    7  C6  UNL     1     -32.390   7.073   1.776  1.00 20.00     0.213 C 
ENDBRANCH   4   6
ENDBRANCH   2   4
BRANCH   3   8
HETATM    8  C7  UNL     1     -33.903   3.768   3.629  1.00 20.00     0.005 C 
BRANCH   8   9
HETATM    9  C8  UNL     1     -33.405   2.718   4.638  1.00 20.00    -0.004 C 
HETATM   10  C5  UNL     1     -32.529   3.321   5.723  1.00 20.00     0.005 C 
ENDBRANCH   8   9
ENDBRANCH   3   8
TORSDOF 4
ENDMDL
MODEL 8
REMARK VINA RESULT:      -1.6      2.331      4.369
REMARK  4 active torsions:
REMARK  status: ('A' for Active; 'I' for Inactive)
REMARK    1  A    between atoms: C1_1  and  C3_3 
REMARK    2  A    between atoms: C1_1  and  O10_10 
REMARK    3  A    between atoms: C4_4  and  C7_7 
REMARK    4  A    between atoms: C7_7  and  C8_8 
ROOT
HETATM    1  C2  UNL     1     -34.376   7.345   3.817  1.00 20.00     0.020 A 
HETATM    2  C3  UNL     1     -33.761   6.687   2.611  1.00 20.00     0.090 A 
HETATM    3  C4  UNL     1     -33.720   5.996   3.959  1.00 20.00    -0.000 A 
ENDROOT
BRANCH   2   4
HETATM    4  C1  UNL     1     -32.519   7.230   2.051  1.00 20.00     0.263 C 
HETATM    5  O9  UNL     1     -32.201   8.411   2.105  1.00 20.00    -0.265 OA
BRANCH   4   6
HETATM    6  O10 UNL     1     -31.799   6.225   1.477  1.00 20.00    -0.326 OA
HETATM    7  C6  UNL     1     -32.569   5.199   0.842  1.00 20.00     0.213 C 
ENDBRANCH   4   6
ENDBRANCH   2   4
BRANCH   3   8
HETATM    8  C7  UNL     1     -34.547   4.782   4.203  1.00 20.00     0.005 C 
BRANCH   8   9
HETATM    9  C8  UNL     1     -33.762   3.478   3.976  1.00 20.00    -0.004 C 
HETATM   10  C5  UNL     1     -32.957   3.061   5.196  1.00 20.00     0.005 C 
ENDBRANCH   8   9
ENDBRANCH   3   8
TORSDOF 4
ENDMDL
MODEL 9
REMARK VINA RESULT:      -1.6      2.823      4.889
REMARK  4 active torsions:
REMARK  status: ('A' for Active; 'I' for Inactive)
REMARK    1  A    between atoms: C1_1  and  C3_3 
REMARK    2  A    between atoms: C1_1  and  O10_10 
REMARK    3  A    between atoms: C4_4  and  C7_7 
REMARK    4  A    between atoms: C7_7  and  C8_8 
ROOT
HETATM    1  C2  UNL     1     -32.954   5.866   0.909  1.00 20.00     0.020 A 
HETATM    2  C3  UNL     1     -32.088   6.545   1.936  1.00 20.00     0.090 A 
HETATM    3  C4  UNL     1     -33.445   5.996   2.327  1.00 20.00    -0.000 A 
ENDROOT
BRANCH   2   4
HETATM    4  C1  UNL     1     -31.900   7.998   1.871  1.00 20.00     0.263 C 
HETATM    5  O9  UNL     1     -31.707   8.709   2.850  1.00 20.00    -0.265 OA
BRANCH   4   6
HETATM    6  O10 UNL     1     -31.974   8.411   0.574  1.00 20.00    -0.326 OA
HETATM    7  C6  UNL     1     -32.397   9.764   0.381  1.00 20.00     0.213 C 
ENDBRANCH   4   6
ENDBRANCH   2   4
BRANCH   3   8
HETATM    8  C7  UNL     1     -33.542   4.793   3.200  1.00 20.00     0.005 C 
BRANCH   8   9
HETATM    9  C8  UNL     1     -34.667   4.910   4.243  1.00 20.00    -0.004 C 
HETATM   10  C5  UNL     1     -35.409   6.234   4.154  1.00 20.00     0.005 C 
ENDBRANCH   8   9
ENDBRANCH   3   8
TORSDOF 4
ENDMDL
