MODEL 1
REMARK VINA RESULT:      -1.0      0.000      0.000
REMARK  0 active torsions:
REMARK  status: ('A' for Active; 'I' for Inactive)
ROOT
HETATM    1  C1  UNL     1     -32.276   9.111   0.944  1.00 20.00     0.095 C 
HETATM    2  C2  UNL     1     -33.176   5.294   2.978  1.00 20.00     0.007 C 
HETATM    3  C3  UNL     1     -32.528   5.316   1.589  1.00 20.00     0.008 C 
HETATM    4  C4  UNL     1     -33.437   7.830   3.536  1.00 20.00     0.276 C 
HETATM    5  C5  UNL     1     -31.967   7.895   1.715  1.00 20.00     0.330 C 
HETATM    6  C6  UNL     1     -33.842   6.653   2.669  1.00 20.00     0.021 C 
HETATM    7  C7  UNL     1     -32.975   6.783   1.408  1.00 20.00     0.038 C 
HETATM    8  N8  UNL     1     -32.519  10.070   0.337  1.00 20.00    -0.195 NA
HETATM    9  N9  UNL     1     -32.060   8.176   3.158  1.00 20.00     0.102 N 
HETATM   10  H19 UNL     1     -31.847   9.148   3.377  1.00 20.00     0.317 HD
ENDROOT
TORSDOF 0
ENDMDL
MODEL 2
REMARK VINA RESULT:      -0.3      2.270      3.885
REMARK  0 active torsions:
REMARK  status: ('A' for Active; 'I' for Inactive)
ROOT
HETATM    1  C1  UNL     1     -34.014   4.445   3.848  1.00 20.00     0.095 C 
HETATM    2  C2  UNL     1     -32.772   8.261   2.000  1.00 20.00     0.007 C 
HETATM    3  C3  UNL     1     -32.501   6.922   1.305  1.00 20.00     0.008 C 
HETATM    4  C4  UNL     1     -34.006   7.542   4.186  1.00 20.00     0.276 C 
HETATM    5  C5  UNL     1     -34.112   5.579   2.914  1.00 20.00     0.330 C 
HETATM    6  C6  UNL     1     -32.728   7.541   3.367  1.00 20.00     0.021 C 
HETATM    7  C7  UNL     1     -32.731   6.185   2.644  1.00 20.00     0.038 C 
HETATM    8  N8  UNL     1     -33.936   3.551   4.584  1.00 20.00    -0.195 NA
HETATM    9  N9  UNL     1     -34.945   6.643   3.500  1.00 20.00     0.102 N 
HETATM   10  H19 UNL     1     -35.645   6.276   4.143  1.00 20.00     0.317 HD
ENDROOT
TORSDOF 0
ENDMDL
MODEL 3
REMARK VINA RESULT:       0.6      1.670      2.631
REMARK  0 active torsions:
REMARK  status: ('A' for Active; 'I' for Inactive)
ROOT
HETATM    1  C1  UNL     1     -32.226   7.727   1.900  1.00 20.00     0.095 C 
HETATM    2  C2  UNL     1     -35.117   5.157   4.035  1.00 20.00     0.007 C 
HETATM    3  C3  UNL     1     -35.343   6.668   3.911  1.00 20.00     0.008 C 
HETATM    4  C4  UNL     1     -32.875   4.799   2.745  1.00 20.00     0.276 C 
HETATM    5  C5  UNL     1     -33.471   6.960   2.069  1.00 20.00     0.330 C 
HETATM    6  C6  UNL     1     -33.593   5.396   3.942  1.00 20.00     0.021 C 
HETATM    7  C7  UNL     1     -33.854   6.858   3.548  1.00 20.00     0.038 C 
HETATM    8  N8  UNL     1     -31.244   8.331   1.767  1.00 20.00    -0.195 NA
HETATM    9  N9  UNL     1     -33.287   5.585   1.574  1.00 20.00     0.102 N 
HETATM   10  H19 UNL     1     -32.595   5.532   0.828  1.00 20.00     0.317 HD
ENDROOT
TORSDOF 0
ENDMDL
MODEL 4
REMARK VINA RESULT:       0.8      2.231      3.611
REMARK  0 active torsions:
REMARK  status: ('A' for Active; 'I' for Inactive)
ROOT
HETATM    1  C1  UNL     1     -34.733   6.294   3.793  1.00 20.00     0.095 C 
HETATM    2  C2  UNL     1     -31.315   7.716   1.381  1.00 20.00     0.007 C 
HETATM    3  C3  UNL     1     -31.761   8.468   2.639  1.00 20.00     0.008 C 
HETATM    4  C4  UNL     1     -32.980   5.708   1.284  1.00 20.00     0.276 C 
HETATM    5  C5  UNL     1     -33.311   6.493   3.465  1.00 20.00     0.330 C 
HETATM    6  C6  UNL     1     -32.762   7.207   1.194  1.00 20.00     0.021 C 
HETATM    7  C7  UNL     1     -33.121   7.736   2.591  1.00 20.00     0.038 C 
HETATM    8  N8  UNL     1     -35.853   6.138   4.051  1.00 20.00    -0.195 NA
HETATM    9  N9  UNL     1     -32.805   5.343   2.697  1.00 20.00     0.102 N 
HETATM   10  H19 UNL     1     -33.299   4.480   2.923  1.00 20.00     0.317 HD
ENDROOT
TORSDOF 0
ENDMDL
MODEL 5
REMARK VINA RESULT:       1.8      1.360      2.794
REMARK  0 active torsions:
REMARK  status: ('A' for Active; 'I' for Inactive)
ROOT
HETATM    1  C1  UNL     1     -33.740   7.740   3.980  1.00 20.00     0.095 C 
HETATM    2  C2  UNL     1     -32.231   5.478   0.498  1.00 20.00     0.007 C 
HETATM    3  C3  UNL     1     -33.525   5.065   1.208  1.00 20.00     0.008 C 
HETATM    4  C4  UNL     1     -31.478   7.585   1.843  1.00 20.00     0.276 C 
HETATM    5  C5  UNL     1     -33.689   7.325   2.568  1.00 20.00     0.330 C 
HETATM    6  C6  UNL     1     -31.719   6.087   1.823  1.00 20.00     0.021 C 
HETATM    7  C7  UNL     1     -33.117   5.911   2.435  1.00 20.00     0.038 C 
HETATM    8  N8  UNL     1     -33.780   8.067   5.092  1.00 20.00    -0.195 NA
HETATM    9  N9  UNL     1     -32.802   8.224   1.810  1.00 20.00     0.102 N 
HETATM   10  H19 UNL     1     -32.772   9.162   2.207  1.00 20.00     0.317 HD
ENDROOT
TORSDOF 0
ENDMDL
MODEL 6
REMARK VINA RESULT:       1.8      2.007      3.093
REMARK  0 active torsions:
REMARK  status: ('A' for Active; 'I' for Inactive)
ROOT
HETATM    1  C1  UNL     1     -33.459   5.255   0.717  1.00 20.00     0.095 C 
HETATM    2  C2  UNL     1     -33.195   8.046   4.131  1.00 20.00     0.007 C 
HETATM    3  C3  UNL     1     -34.106   6.815   4.186  1.00 20.00     0.008 C 
HETATM    4  C4  UNL     1     -32.095   7.850   1.771  1.00 20.00     0.276 C 
HETATM    5  C5  UNL     1     -33.017   5.715   2.044  1.00 20.00     0.330 C 
HETATM    6  C6  UNL     1     -33.351   8.072   2.594  1.00 20.00     0.021 C 
HETATM    7  C7  UNL     1     -34.028   6.694   2.648  1.00 20.00     0.038 C 
HETATM    8  N8  UNL     1     -33.807   4.892  -0.328  1.00 20.00    -0.195 NA
HETATM    9  N9  UNL     1     -31.736   6.434   1.927  1.00 20.00     0.102 N 
HETATM   10  H19 UNL     1     -31.178   6.103   1.141  1.00 20.00     0.317 HD
ENDROOT
TORSDOF 0
ENDMDL
MODEL 7
REMARK VINA RESULT:       1.9      1.719      3.494
REMARK  0 active torsions:
REMARK  status: ('A' for Active; 'I' for Inactive)
ROOT
HETATM    1  C1  UNL     1     -32.158   5.761   1.313  1.00 20.00     0.095 C 
HETATM    2  C2  UNL     1     -32.501  10.159   1.087  1.00 20.00     0.007 C 
HETATM    3  C3  UNL     1     -32.636   9.291  -0.168  1.00 20.00     0.008 C 
HETATM    4  C4  UNL     1     -32.112   8.397   2.973  1.00 20.00     0.276 C 
HETATM    5  C5  UNL     1     -32.863   7.049   1.212  1.00 20.00     0.330 C 
HETATM    6  C6  UNL     1     -31.597   9.076   1.717  1.00 20.00     0.021 C 
HETATM    7  C7  UNL     1     -31.966   8.115   0.577  1.00 20.00     0.038 C 
HETATM    8  N8  UNL     1     -31.602   4.745   1.392  1.00 20.00    -0.195 NA
HETATM    9  N9  UNL     1     -33.225   7.532   2.556  1.00 20.00     0.102 N 
HETATM   10  H19 UNL     1     -33.370   6.768   3.215  1.00 20.00     0.317 HD
ENDROOT
TORSDOF 0
ENDMDL
