MODEL 1
REMARK VINA RESULT:       0.2      0.000      0.000
REMARK  1 active torsions:
REMARK  status: ('A' for Active; 'I' for Inactive)
REMARK    1  A    between atoms: C1_1  and  C4_4 
ROOT
HETATM    1  C2  UNL     1     -32.830   5.635   1.058  1.00 20.00     0.014 C 
HETATM    2  C3  UNL     1     -32.452   5.254   2.496  1.00 20.00     0.012 C 
HETATM    3  C4  UNL     1     -33.249   7.025   1.581  1.00 20.00     0.064 C 
HETATM    4  C5  UNL     1     -33.497   6.938   4.271  1.00 20.00    -0.000 A 
HETATM    5  C6  UNL     1     -33.391   6.336   2.900  1.00 20.00    -0.019 A 
HETATM    6  C7  UNL     1     -34.669   6.148   3.700  1.00 20.00    -0.035 A 
HETATM    7  C9  UNL     1     -33.566   8.409   4.498  1.00 20.00     0.011 C 
HETATM    8  C10 UNL     1     -35.922   6.864   3.265  1.00 20.00     0.016 C 
HETATM    9  C11 UNL     1     -34.948   4.803   4.327  1.00 20.00     0.016 C 
ENDROOT
BRANCH   3  10
HETATM   10  C1  UNL     1     -32.197   8.142   1.547  1.00 20.00     0.128 C 
HETATM   11  C8  UNL     1     -32.513   9.344   0.700  1.00 20.00     0.091 C 
HETATM   12  O12 UNL     1     -31.147   8.058   2.183  1.00 20.00    -0.298 OA
ENDBRANCH   3  10
TORSDOF 1
ENDMDL
MODEL 2
REMARK VINA RESULT:       1.8      1.807      3.824
REMARK  1 active torsions:
REMARK  status: ('A' for Active; 'I' for Inactive)
REMARK    1  A    between atoms: C1_1  and  C4_4 
ROOT
HETATM    1  C2  UNL     1     -32.596   4.887   1.240  1.00 20.00     0.014 C 
HETATM    2  C3  UNL     1     -33.573   6.006   0.850  1.00 20.00     0.012 C 
HETATM    3  C4  UNL     1     -32.669   5.389   2.698  1.00 20.00     0.064 C 
HETATM    4  C5  UNL     1     -33.752   7.865   2.745  1.00 20.00    -0.000 A 
HETATM    5  C6  UNL     1     -33.099   6.685   2.087  1.00 20.00    -0.019 A 
HETATM    6  C7  UNL     1     -32.359   8.011   2.143  1.00 20.00    -0.035 A 
HETATM    7  C9  UNL     1     -33.995   7.933   4.214  1.00 20.00     0.011 C 
HETATM    8  C10 UNL     1     -31.158   8.146   3.045  1.00 20.00     0.016 C 
HETATM    9  C11 UNL     1     -32.248   8.840   0.887  1.00 20.00     0.016 C 
ENDROOT
BRANCH   3  10
HETATM   10  C1  UNL     1     -33.708   4.736   3.620  1.00 20.00     0.128 C 
HETATM   11  C8  UNL     1     -33.337   3.408   4.224  1.00 20.00     0.091 C 
HETATM   12  O12 UNL     1     -34.790   5.272   3.856  1.00 20.00    -0.298 OA
ENDBRANCH   3  10
TORSDOF 1
ENDMDL
MODEL 3
REMARK VINA RESULT:       2.7      1.467      3.503
REMARK  1 active torsions:
REMARK  status: ('A' for Active; 'I' for Inactive)
REMARK    1  A    between atoms: C1_1  and  C4_4 
ROOT
HETATM    1  C2  UNL     1     -32.500   8.252   1.735  1.00 20.00     0.014 C 
HETATM    2  C3  UNL     1     -31.436   7.224   2.143  1.00 20.00     0.012 C 
HETATM    3  C4  UNL     1     -33.581   7.270   2.233  1.00 20.00     0.064 C 
HETATM    4  C5  UNL     1     -32.492   4.815   2.543  1.00 20.00    -0.000 A 
HETATM    5  C6  UNL     1     -32.532   6.224   2.027  1.00 20.00    -0.019 A 
HETATM    6  C7  UNL     1     -32.577   5.068   1.041  1.00 20.00    -0.035 A 
HETATM    7  C9  UNL     1     -33.617   4.210   3.311  1.00 20.00     0.011 C 
HETATM    8  C10 UNL     1     -33.858   4.782   0.298  1.00 20.00     0.016 C 
HETATM    9  C11 UNL     1     -31.344   4.749   0.231  1.00 20.00     0.016 C 
ENDROOT
BRANCH   3  10
HETATM   10  C1  UNL     1     -34.061   7.422   3.683  1.00 20.00     0.128 C 
HETATM   11  C8  UNL     1     -35.327   6.698   4.056  1.00 20.00     0.091 C 
HETATM   12  O12 UNL     1     -33.442   8.101   4.501  1.00 20.00    -0.298 OA
ENDBRANCH   3  10
TORSDOF 1
ENDMDL
MODEL 4
REMARK VINA RESULT:       3.0      1.887      4.203
REMARK  1 active torsions:
REMARK  status: ('A' for Active; 'I' for Inactive)
REMARK    1  A    between atoms: C1_1  and  C4_4 
ROOT
HETATM    1  C2  UNL     1     -33.935   8.341   4.763  1.00 20.00     0.014 C 
HETATM    2  C3  UNL     1     -32.658   7.503   4.608  1.00 20.00     0.012 C 
HETATM    3  C4  UNL     1     -34.464   7.699   3.463  1.00 20.00     0.064 C 
HETATM    4  C5  UNL     1     -32.423   6.506   2.152  1.00 20.00    -0.000 A 
HETATM    5  C6  UNL     1     -33.022   7.437   3.166  1.00 20.00    -0.019 A 
HETATM    6  C7  UNL     1     -32.207   8.010   2.019  1.00 20.00    -0.035 A 
HETATM    7  C9  UNL     1     -33.252   5.734   1.184  1.00 20.00     0.011 C 
HETATM    8  C10 UNL     1     -32.909   8.780   0.929  1.00 20.00     0.016 C 
HETATM    9  C11 UNL     1     -30.813   8.520   2.295  1.00 20.00     0.016 C 
ENDROOT
BRANCH   3  10
HETATM   10  C1  UNL     1     -35.333   6.441   3.597  1.00 20.00     0.128 C 
HETATM   11  C8  UNL     1     -34.717   5.265   4.305  1.00 20.00     0.091 C 
HETATM   12  O12 UNL     1     -36.478   6.397   3.148  1.00 20.00    -0.298 OA
ENDBRANCH   3  10
TORSDOF 1
ENDMDL
MODEL 5
REMARK VINA RESULT:       3.1      1.635      4.164
REMARK  1 active torsions:
REMARK  status: ('A' for Active; 'I' for Inactive)
REMARK    1  A    between atoms: C1_1  and  C4_4 
ROOT
HETATM    1  C2  UNL     1     -34.153   7.980   4.132  1.00 20.00     0.014 C 
HETATM    2  C3  UNL     1     -32.622   7.905   4.043  1.00 20.00     0.012 C 
HETATM    3  C4  UNL     1     -34.227   6.799   3.142  1.00 20.00     0.064 C 
HETATM    4  C5  UNL     1     -31.824   6.473   1.947  1.00 20.00    -0.000 A 
HETATM    5  C6  UNL     1     -32.853   7.228   2.737  1.00 20.00    -0.019 A 
HETATM    6  C7  UNL     1     -32.423   7.755   1.378  1.00 20.00    -0.035 A 
HETATM    7  C9  UNL     1     -32.095   5.136   1.348  1.00 20.00     0.011 C 
HETATM    8  C10 UNL     1     -33.391   7.688   0.223  1.00 20.00     0.016 C 
HETATM    9  C11 UNL     1     -31.513   8.957   1.313  1.00 20.00     0.016 C 
ENDROOT
BRANCH   3  10
HETATM   10  C1  UNL     1     -34.312   5.384   3.731  1.00 20.00     0.128 C 
HETATM   11  C8  UNL     1     -35.489   5.092   4.622  1.00 20.00     0.091 C 
HETATM   12  O12 UNL     1     -33.460   4.530   3.486  1.00 20.00    -0.298 OA
ENDBRANCH   3  10
TORSDOF 1
ENDMDL
MODEL 6
REMARK VINA RESULT:       3.2      1.102      2.623
REMARK  1 active torsions:
REMARK  status: ('A' for Active; 'I' for Inactive)
REMARK    1  A    between atoms: C1_1  and  C4_4 
ROOT
HETATM    1  C2  UNL     1     -33.204   8.299   4.433  1.00 20.00     0.014 C 
HETATM    2  C3  UNL     1     -34.543   7.903   3.793  1.00 20.00     0.012 C 
HETATM    3  C4  UNL     1     -32.494   7.391   3.407  1.00 20.00     0.064 C 
HETATM    4  C5  UNL     1     -34.303   5.746   2.255  1.00 20.00    -0.000 A 
HETATM    5  C6  UNL     1     -33.816   6.699   3.307  1.00 20.00    -0.019 A 
HETATM    6  C7  UNL     1     -34.126   5.261   3.690  1.00 20.00    -0.035 A 
HETATM    7  C9  UNL     1     -33.435   5.267   1.142  1.00 20.00     0.011 C 
HETATM    8  C10 UNL     1     -32.992   4.331   4.039  1.00 20.00     0.016 C 
HETATM    9  C11 UNL     1     -35.387   4.967   4.465  1.00 20.00     0.016 C 
ENDROOT
BRANCH   3  10
HETATM   10  C1  UNL     1     -32.006   8.039   2.105  1.00 20.00     0.128 C 
HETATM   11  C8  UNL     1     -32.711   9.295   1.669  1.00 20.00     0.091 C 
HETATM   12  O12 UNL     1     -31.083   7.557   1.450  1.00 20.00    -0.298 OA
ENDBRANCH   3  10
TORSDOF 1
ENDMDL
