MODEL 1
REMARK VINA RESULT:      -2.4      0.000      0.000
REMARK  2 active torsions:
REMARK  status: ('A' for Active; 'I' for Inactive)
REMARK    1  A    between atoms: C1_1  and  C7_7 
REMARK    2  A    between atoms: C4_4  and  C7_7 
ROOT
HETATM    1  C6  UNL     1     -34.239   7.433   4.121  1.00 20.00     0.018 C 
HETATM    2  C7  UNL     1     -34.260   6.159   3.280  1.00 20.00     0.055 C 
ENDROOT
BRANCH   2   3
HETATM    3  C1  UNL     1     -34.634   4.948   4.128  1.00 20.00     0.127 C 
HETATM    4  C5  UNL     1     -33.666   3.791   4.130  1.00 20.00     0.091 C 
HETATM    5  O8  UNL     1     -35.686   4.888   4.766  1.00 20.00    -0.298 OA
ENDBRANCH   2   3
BRANCH   2   6
HETATM    6  C4  UNL     1     -32.907   5.930   2.615  1.00 20.00    -0.004 A 
HETATM    7  C2  UNL     1     -32.813   5.775   1.122  1.00 20.00     0.006 A 
HETATM    8  C3  UNL     1     -32.279   7.014   1.784  1.00 20.00     0.006 A 
ENDBRANCH   2   6
TORSDOF 2
ENDMDL
MODEL 2
REMARK VINA RESULT:      -2.4      2.486      4.233
REMARK  2 active torsions:
REMARK  status: ('A' for Active; 'I' for Inactive)
REMARK    1  A    between atoms: C1_1  and  C7_7 
REMARK    2  A    between atoms: C4_4  and  C7_7 
ROOT
HETATM    1  C6  UNL     1     -32.535   5.647   1.304  1.00 20.00     0.018 C 
HETATM    2  C7  UNL     1     -33.138   6.904   1.925  1.00 20.00     0.055 C 
ENDROOT
BRANCH   2   3
HETATM    3  C1  UNL     1     -32.167   8.078   1.838  1.00 20.00     0.127 C 
HETATM    4  C5  UNL     1     -32.389   9.063   0.718  1.00 20.00     0.091 C 
HETATM    5  O8  UNL     1     -31.225   8.216   2.619  1.00 20.00    -0.298 OA
ENDBRANCH   2   3
BRANCH   2   6
HETATM    6  C4  UNL     1     -33.523   6.655   3.379  1.00 20.00    -0.004 A 
HETATM    7  C2  UNL     1     -34.331   7.675   4.133  1.00 20.00     0.006 A 
HETATM    8  C3  UNL     1     -34.952   6.363   3.743  1.00 20.00     0.006 A 
ENDBRANCH   2   6
TORSDOF 2
ENDMDL
MODEL 3
REMARK VINA RESULT:      -2.0      2.096      3.442
REMARK  2 active torsions:
REMARK  status: ('A' for Active; 'I' for Inactive)
REMARK    1  A    between atoms: C1_1  and  C7_7 
REMARK    2  A    between atoms: C4_4  and  C7_7 
ROOT
HETATM    1  C6  UNL     1     -33.965   8.063   4.024  1.00 20.00     0.018 C 
HETATM    2  C7  UNL     1     -33.335   6.782   3.484  1.00 20.00     0.055 C 
ENDROOT
BRANCH   2   3
HETATM    3  C1  UNL     1     -32.653   7.029   2.142  1.00 20.00     0.127 C 
HETATM    4  C5  UNL     1     -32.554   5.854   1.201  1.00 20.00     0.091 C 
HETATM    5  O8  UNL     1     -32.175   8.122   1.835  1.00 20.00    -0.298 OA
ENDBRANCH   2   3
BRANCH   2   6
HETATM    6  C4  UNL     1     -34.385   5.685   3.339  1.00 20.00    -0.004 A 
HETATM    7  C2  UNL     1     -34.314   4.452   4.196  1.00 20.00     0.006 A 
HETATM    8  C3  UNL     1     -35.402   5.464   4.424  1.00 20.00     0.006 A 
ENDBRANCH   2   6
TORSDOF 2
ENDMDL
MODEL 4
REMARK VINA RESULT:      -2.0      1.841      3.497
REMARK  2 active torsions:
REMARK  status: ('A' for Active; 'I' for Inactive)
REMARK    1  A    between atoms: C1_1  and  C7_7 
REMARK    2  A    between atoms: C4_4  and  C7_7 
ROOT
HETATM    1  C6  UNL     1     -34.049   7.822   3.878  1.00 20.00     0.018 C 
HETATM    2  C7  UNL     1     -33.362   6.536   3.425  1.00 20.00     0.055 C 
ENDROOT
BRANCH   2   3
HETATM    3  C1  UNL     1     -32.724   6.712   2.050  1.00 20.00     0.127 C 
HETATM    4  C5  UNL     1     -32.062   8.037   1.770  1.00 20.00     0.091 C 
HETATM    5  O8  UNL     1     -32.761   5.833   1.188  1.00 20.00    -0.298 OA
ENDBRANCH   2   3
BRANCH   2   6
HETATM    6  C4  UNL     1     -34.353   5.378   3.394  1.00 20.00    -0.004 A 
HETATM    7  C2  UNL     1     -34.103   4.148   4.223  1.00 20.00     0.006 A 
HETATM    8  C3  UNL     1     -35.216   5.089   4.591  1.00 20.00     0.006 A 
ENDBRANCH   2   6
TORSDOF 2
ENDMDL
MODEL 5
REMARK VINA RESULT:      -1.9      1.903      2.351
REMARK  2 active torsions:
REMARK  status: ('A' for Active; 'I' for Inactive)
REMARK    1  A    between atoms: C1_1  and  C7_7 
REMARK    2  A    between atoms: C4_4  and  C7_7 
ROOT
HETATM    1  C6  UNL     1     -32.084   8.020   2.272  1.00 20.00     0.018 C 
HETATM    2  C7  UNL     1     -33.341   7.155   2.328  1.00 20.00     0.055 C 
ENDROOT
BRANCH   2   3
HETATM    3  C1  UNL     1     -33.996   7.229   3.703  1.00 20.00     0.127 C 
HETATM    4  C5  UNL     1     -35.165   6.308   3.951  1.00 20.00     0.091 C 
HETATM    5  O8  UNL     1     -33.621   8.016   4.572  1.00 20.00    -0.298 OA
ENDBRANCH   2   3
BRANCH   2   6
HETATM    6  C4  UNL     1     -33.013   5.706   1.985  1.00 20.00    -0.004 A 
HETATM    7  C2  UNL     1     -33.232   5.190   0.589  1.00 20.00     0.006 A 
HETATM    8  C3  UNL     1     -31.835   5.383   1.109  1.00 20.00     0.006 A 
ENDBRANCH   2   6
TORSDOF 2
ENDMDL
MODEL 6
REMARK VINA RESULT:      -1.9      0.928      2.244
REMARK  2 active torsions:
REMARK  status: ('A' for Active; 'I' for Inactive)
REMARK    1  A    between atoms: C1_1  and  C7_7 
REMARK    2  A    between atoms: C4_4  and  C7_7 
ROOT
HETATM    1  C6  UNL     1     -33.858   4.149   3.646  1.00 20.00     0.018 C 
HETATM    2  C7  UNL     1     -33.465   5.598   3.368  1.00 20.00     0.055 C 
ENDROOT
BRANCH   2   3
HETATM    3  C1  UNL     1     -34.534   6.562   3.873  1.00 20.00     0.127 C 
HETATM    4  C5  UNL     1     -34.071   7.937   4.283  1.00 20.00     0.091 C 
HETATM    5  O8  UNL     1     -35.718   6.242   3.973  1.00 20.00    -0.298 OA
ENDBRANCH   2   3
BRANCH   2   6
HETATM    6  C4  UNL     1     -33.231   5.815   1.877  1.00 20.00    -0.004 A 
HETATM    7  C2  UNL     1     -32.130   6.728   1.409  1.00 20.00     0.006 A 
HETATM    8  C3  UNL     1     -32.010   5.242   1.211  1.00 20.00     0.006 A 
ENDBRANCH   2   6
TORSDOF 2
ENDMDL
MODEL 7
REMARK VINA RESULT:      -1.7      1.229      2.462
REMARK  2 active torsions:
REMARK  status: ('A' for Active; 'I' for Inactive)
REMARK    1  A    between atoms: C1_1  and  C7_7 
REMARK    2  A    between atoms: C4_4  and  C7_7 
ROOT
HETATM    1  C6  UNL     1     -33.051   5.425   1.044  1.00 20.00     0.018 C 
HETATM    2  C7  UNL     1     -32.871   6.084   2.409  1.00 20.00     0.055 C 
ENDROOT
BRANCH   2   3
HETATM    3  C1  UNL     1     -33.955   5.633   3.383  1.00 20.00     0.127 C 
HETATM    4  C5  UNL     1     -34.935   6.682   3.845  1.00 20.00     0.091 C 
HETATM    5  O8  UNL     1     -34.026   4.478   3.805  1.00 20.00    -0.298 OA
ENDBRANCH   2   3
BRANCH   2   6
HETATM    6  C4  UNL     1     -32.886   7.603   2.281  1.00 20.00    -0.004 A 
HETATM    7  C2  UNL     1     -31.676   8.407   2.669  1.00 20.00     0.006 A 
HETATM    8  C3  UNL     1     -32.062   8.281   1.222  1.00 20.00     0.006 A 
ENDBRANCH   2   6
TORSDOF 2
ENDMDL
MODEL 8
REMARK VINA RESULT:      -1.4      1.696      2.084
REMARK  2 active torsions:
REMARK  status: ('A' for Active; 'I' for Inactive)
REMARK    1  A    between atoms: C1_1  and  C7_7 
REMARK    2  A    between atoms: C4_4  and  C7_7 
ROOT
HETATM    1  C6  UNL     1     -33.136   8.117   4.511  1.00 20.00     0.018 C 
HETATM    2  C7  UNL     1     -33.625   7.487   3.209  1.00 20.00     0.055 C 
ENDROOT
BRANCH   2   3
HETATM    3  C1  UNL     1     -34.176   6.085   3.452  1.00 20.00     0.127 C 
HETATM    4  C5  UNL     1     -35.480   5.986   4.202  1.00 20.00     0.091 C 
HETATM    5  O8  UNL     1     -33.583   5.070   3.084  1.00 20.00    -0.298 OA
ENDBRANCH   2   3
BRANCH   2   6
HETATM    6  C4  UNL     1     -32.500   7.433   2.181  1.00 20.00    -0.004 A 
HETATM    7  C2  UNL     1     -32.361   8.523   1.154  1.00 20.00     0.006 A 
HETATM    8  C3  UNL     1     -31.353   8.402   2.263  1.00 20.00     0.006 A 
ENDBRANCH   2   6
TORSDOF 2
ENDMDL
MODEL 9
REMARK VINA RESULT:      -1.3      2.026      3.341
REMARK  2 active torsions:
REMARK  status: ('A' for Active; 'I' for Inactive)
REMARK    1  A    between atoms: C1_1  and  C7_7 
REMARK    2  A    between atoms: C4_4  and  C7_7 
ROOT
HETATM    1  C6  UNL     1     -32.004   8.043   1.823  1.00 20.00     0.018 C 
HETATM    2  C7  UNL     1     -32.648   6.757   2.335  1.00 20.00     0.055 C 
ENDROOT
BRANCH   2   3
HETATM    3  C1  UNL     1     -32.713   5.701   1.236  1.00 20.00     0.127 C 
HETATM    4  C5  UNL     1     -31.505   4.814   1.072  1.00 20.00     0.091 C 
HETATM    5  O8  UNL     1     -33.686   5.582   0.491  1.00 20.00    -0.298 OA
ENDBRANCH   2   3
BRANCH   2   6
HETATM    6  C4  UNL     1     -34.047   7.033   2.875  1.00 20.00    -0.004 A 
HETATM    7  C2  UNL     1     -34.624   6.165   3.960  1.00 20.00     0.006 A 
HETATM    8  C3  UNL     1     -34.227   7.583   4.263  1.00 20.00     0.006 A 
ENDBRANCH   2   6
TORSDOF 2
ENDMDL
