MODEL 1
REMARK VINA RESULT:      -2.2      0.000      0.000
REMARK  2 active torsions:
REMARK  status: ('A' for Active; 'I' for Inactive)
REMARK    1  A    between atoms: C3_3  and  C9_9 
REMARK    2  A    between atoms: C9_9  and  N10_10 
ROOT
HETATM    1  C1  UNL     1     -33.168   7.230   2.825  1.00 20.00     0.040 C 
HETATM    2  C4  UNL     1     -33.095   5.879   2.150  1.00 20.00     0.057 C 
HETATM    3  C5  UNL     1     -33.297   4.780   3.185  1.00 20.00     0.006 C 
HETATM    4  C6  UNL     1     -34.636   4.907   3.918  1.00 20.00     0.004 C 
HETATM    5  C7  UNL     1     -35.132   6.348   4.047  1.00 20.00     0.043 C 
HETATM    6  C8  UNL     1     -33.997   7.360   4.079  1.00 20.00     0.217 C 
HETATM    7  N10 UNL     1     -32.543   8.257   2.352  1.00 20.00    -0.292 NA
HETATM    8  F11 UNL     1     -34.534   8.607   4.185  1.00 20.00    -0.243 F 
ENDROOT
BRANCH   7   9
HETATM    9  C9  UNL     1     -31.784   7.992   1.139  1.00 20.00     0.175 C 
BRANCH   9  10
HETATM   10  C3  UNL     1     -31.965   9.122   0.178  1.00 20.00    -0.015 C 
HETATM   11  C2  UNL     1     -32.620  10.252   0.468  1.00 20.00     0.008 C 
ENDBRANCH   9  10
ENDBRANCH   7   9
TORSDOF 2
ENDMDL
MODEL 2
REMARK VINA RESULT:      -2.2      1.740      2.334
REMARK  2 active torsions:
REMARK  status: ('A' for Active; 'I' for Inactive)
REMARK    1  A    between atoms: C3_3  and  C9_9 
REMARK    2  A    between atoms: C9_9  and  N10_10 
ROOT
HETATM    1  C1  UNL     1     -32.947   7.055   2.241  1.00 20.00     0.040 C 
HETATM    2  C4  UNL     1     -33.580   7.660   3.473  1.00 20.00     0.057 C 
HETATM    3  C5  UNL     1     -34.861   6.909   3.810  1.00 20.00     0.006 C 
HETATM    4  C6  UNL     1     -34.617   5.415   4.050  1.00 20.00     0.004 C 
HETATM    5  C7  UNL     1     -33.440   4.849   3.252  1.00 20.00     0.043 C 
HETATM    6  C8  UNL     1     -33.200   5.595   1.949  1.00 20.00     0.217 C 
HETATM    7  N10 UNL     1     -32.205   7.754   1.448  1.00 20.00    -0.292 NA
HETATM    8  F11 UNL     1     -32.135   5.029   1.318  1.00 20.00    -0.243 F 
ENDROOT
BRANCH   7   9
HETATM    9  C9  UNL     1     -32.043   9.144   1.848  1.00 20.00     0.175 C 
BRANCH   9  10
HETATM   10  C3  UNL     1     -32.672  10.036   0.827  1.00 20.00    -0.015 C 
HETATM   11  C2  UNL     1     -32.551   9.862  -0.494  1.00 20.00     0.008 C 
ENDBRANCH   9  10
ENDBRANCH   7   9
TORSDOF 2
ENDMDL
MODEL 3
REMARK VINA RESULT:      -1.4      1.782      4.543
REMARK  2 active torsions:
REMARK  status: ('A' for Active; 'I' for Inactive)
REMARK    1  A    between atoms: C3_3  and  C9_9 
REMARK    2  A    between atoms: C9_9  and  N10_10 
ROOT
HETATM    1  C1  UNL     1     -33.700   6.305   3.323  1.00 20.00     0.040 C 
HETATM    2  C4  UNL     1     -32.813   5.701   2.259  1.00 20.00     0.057 C 
HETATM    3  C5  UNL     1     -32.587   6.716   1.146  1.00 20.00     0.006 C 
HETATM    4  C6  UNL     1     -31.951   8.012   1.658  1.00 20.00     0.004 C 
HETATM    5  C7  UNL     1     -32.319   8.349   3.105  1.00 20.00     0.043 C 
HETATM    6  C8  UNL     1     -33.681   7.803   3.506  1.00 20.00     0.217 C 
HETATM    7  N10 UNL     1     -34.460   5.571   4.067  1.00 20.00    -0.292 NA
HETATM    8  F11 UNL     1     -33.916   8.142   4.803  1.00 20.00    -0.243 F 
ENDROOT
BRANCH   7   9
HETATM    9  C9  UNL     1     -34.379   4.146   3.787  1.00 20.00     0.175 C 
BRANCH   9  10
HETATM   10  C3  UNL     1     -33.512   3.483   4.808  1.00 20.00    -0.015 C 
HETATM   11  C2  UNL     1     -33.073   2.222   4.711  1.00 20.00     0.008 C 
ENDBRANCH   9  10
ENDBRANCH   7   9
TORSDOF 2
ENDMDL
MODEL 4
REMARK VINA RESULT:      -0.1      2.318      4.998
REMARK  2 active torsions:
REMARK  status: ('A' for Active; 'I' for Inactive)
REMARK    1  A    between atoms: C3_3  and  C9_9 
REMARK    2  A    between atoms: C9_9  and  N10_10 
ROOT
HETATM    1  C1  UNL     1     -33.073   5.938   2.611  1.00 20.00     0.040 C 
HETATM    2  C4  UNL     1     -33.569   7.155   3.358  1.00 20.00     0.057 C 
HETATM    3  C5  UNL     1     -32.501   8.241   3.328  1.00 20.00     0.006 C 
HETATM    4  C6  UNL     1     -32.118   8.645   1.901  1.00 20.00     0.004 C 
HETATM    5  C7  UNL     1     -32.259   7.512   0.882  1.00 20.00     0.043 C 
HETATM    6  C8  UNL     1     -32.067   6.137   1.503  1.00 20.00     0.217 C 
HETATM    7  N10 UNL     1     -33.490   4.750   2.901  1.00 20.00    -0.292 NA
HETATM    8  F11 UNL     1     -32.220   5.199   0.528  1.00 20.00    -0.243 F 
ENDROOT
BRANCH   7   9
HETATM    9  C9  UNL     1     -34.458   4.702   3.987  1.00 20.00     0.175 C 
BRANCH   9  10
HETATM   10  C3  UNL     1     -34.019   3.701   5.006  1.00 20.00    -0.015 C 
HETATM   11  C2  UNL     1     -33.047   2.805   4.802  1.00 20.00     0.008 C 
ENDBRANCH   9  10
ENDBRANCH   7   9
TORSDOF 2
ENDMDL
MODEL 5
REMARK VINA RESULT:       0.6      1.810      4.808
REMARK  2 active torsions:
REMARK  status: ('A' for Active; 'I' for Inactive)
REMARK    1  A    between atoms: C3_3  and  C9_9 
REMARK    2  A    between atoms: C9_9  and  N10_10 
ROOT
HETATM    1  C1  UNL     1     -32.787   8.094   2.317  1.00 20.00     0.040 C 
HETATM    2  C4  UNL     1     -33.657   9.295   2.023  1.00 20.00     0.057 C 
HETATM    3  C5  UNL     1     -32.817  10.385   1.370  1.00 20.00     0.006 C 
HETATM    4  C6  UNL     1     -32.153   9.913   0.073  1.00 20.00     0.004 C 
HETATM    5  C7  UNL     1     -31.832   8.417   0.056  1.00 20.00     0.043 C 
HETATM    6  C8  UNL     1     -31.578   7.854   1.446  1.00 20.00     0.217 C 
HETATM    7  N10 UNL     1     -33.058   7.283   3.286  1.00 20.00    -0.292 NA
HETATM    8  F11 UNL     1     -31.313   6.524   1.330  1.00 20.00    -0.243 F 
ENDROOT
BRANCH   7   9
HETATM    9  C9  UNL     1     -34.251   7.630   4.043  1.00 20.00     0.175 C 
BRANCH   9  10
HETATM   10  C3  UNL     1     -35.194   6.471   4.053  1.00 20.00    -0.015 C 
HETATM   11  C2  UNL     1     -34.808   5.194   4.160  1.00 20.00     0.008 C 
ENDBRANCH   9  10
ENDBRANCH   7   9
TORSDOF 2
ENDMDL
