MODEL 1
REMARK VINA RESULT:      -1.1      0.000      0.000
REMARK  0 active torsions:
REMARK  status: ('A' for Active; 'I' for Inactive)
ROOT
HETATM    1  C1  UNL     1     -34.724   5.369   3.997  1.00 20.00     0.223 C 
HETATM    2  C2  UNL     1     -32.648   5.111   2.896  1.00 20.00     0.130 C 
HETATM    3  C3  UNL     1     -34.413   6.698   3.326  1.00 20.00     0.079 C 
HETATM    4  C4  UNL     1     -33.366   6.299   2.266  1.00 20.00     0.012 C 
HETATM    5  C5  UNL     1     -33.937   7.692   4.378  1.00 20.00     0.020 C 
HETATM    6  C6  UNL     1     -32.414   7.394   1.818  1.00 20.00     0.012 C 
HETATM    7  C7  UNL     1     -33.514   3.171   4.254  1.00 20.00     0.152 C 
HETATM    8  N8  UNL     1     -33.671   4.504   3.713  1.00 20.00    -0.356 N 
HETATM    9  O9  UNL     1     -35.708   5.154   4.691  1.00 20.00    -0.273 OA
ENDROOT
TORSDOF 0
ENDMDL
MODEL 2
REMARK VINA RESULT:      -0.6      2.207      3.675
REMARK  0 active torsions:
REMARK  status: ('A' for Active; 'I' for Inactive)
ROOT
HETATM    1  C1  UNL     1     -32.789   5.874   1.896  1.00 20.00     0.223 C 
HETATM    2  C2  UNL     1     -33.640   7.478   3.411  1.00 20.00     0.130 C 
HETATM    3  C3  UNL     1     -33.882   5.186   2.699  1.00 20.00     0.079 C 
HETATM    4  C4  UNL     1     -34.684   6.378   3.259  1.00 20.00     0.012 C 
HETATM    5  C5  UNL     1     -33.244   4.276   3.740  1.00 20.00     0.020 C 
HETATM    6  C6  UNL     1     -35.462   6.122   4.539  1.00 20.00     0.012 C 
HETATM    7  C7  UNL     1     -31.707   8.153   1.939  1.00 20.00     0.152 C 
HETATM    8  N8  UNL     1     -32.699   7.186   2.357  1.00 20.00    -0.356 N 
HETATM    9  O9  UNL     1     -32.102   5.327   1.045  1.00 20.00    -0.273 OA
ENDROOT
TORSDOF 0
ENDMDL
MODEL 3
REMARK VINA RESULT:      -0.3      1.633      2.652
REMARK  0 active torsions:
REMARK  status: ('A' for Active; 'I' for Inactive)
ROOT
HETATM    1  C1  UNL     1     -33.487   5.283   3.089  1.00 20.00     0.223 C 
HETATM    2  C2  UNL     1     -33.845   7.614   2.918  1.00 20.00     0.130 C 
HETATM    3  C3  UNL     1     -32.453   5.817   2.109  1.00 20.00     0.079 C 
HETATM    4  C4  UNL     1     -32.426   7.323   2.442  1.00 20.00     0.012 C 
HETATM    5  C5  UNL     1     -32.878   5.465   0.689  1.00 20.00     0.020 C 
HETATM    6  C6  UNL     1     -31.977   8.249   1.324  1.00 20.00     0.012 C 
HETATM    7  C7  UNL     1     -35.422   6.280   4.363  1.00 20.00     0.152 C 
HETATM    8  N8  UNL     1     -34.254   6.365   3.513  1.00 20.00    -0.356 N 
HETATM    9  O9  UNL     1     -33.619   4.104   3.386  1.00 20.00    -0.273 OA
ENDROOT
TORSDOF 0
ENDMDL
MODEL 4
REMARK VINA RESULT:       0.7      1.855      3.203
REMARK  0 active torsions:
REMARK  status: ('A' for Active; 'I' for Inactive)
ROOT
HETATM    1  C1  UNL     1     -33.700   7.495   3.579  1.00 20.00     0.223 C 
HETATM    2  C2  UNL     1     -32.885   5.679   2.302  1.00 20.00     0.130 C 
HETATM    3  C3  UNL     1     -34.279   6.231   4.193  1.00 20.00     0.079 C 
HETATM    4  C4  UNL     1     -33.334   5.137   3.654  1.00 20.00     0.012 C 
HETATM    5  C5  UNL     1     -35.740   6.097   3.785  1.00 20.00     0.020 C 
HETATM    6  C6  UNL     1     -33.913   3.735   3.565  1.00 20.00     0.012 C 
HETATM    7  C7  UNL     1     -32.269   8.010   1.566  1.00 20.00     0.152 C 
HETATM    8  N8  UNL     1     -32.913   7.109   2.497  1.00 20.00    -0.356 N 
HETATM    9  O9  UNL     1     -33.945   8.630   3.963  1.00 20.00    -0.273 OA
ENDROOT
TORSDOF 0
ENDMDL
MODEL 5
REMARK VINA RESULT:       0.8      1.521      2.011
REMARK  0 active torsions:
REMARK  status: ('A' for Active; 'I' for Inactive)
ROOT
HETATM    1  C1  UNL     1     -34.153   7.071   3.356  1.00 20.00     0.223 C 
HETATM    2  C2  UNL     1     -33.341   4.941   2.728  1.00 20.00     0.130 C 
HETATM    3  C3  UNL     1     -33.135   7.297   2.249  1.00 20.00     0.079 C 
HETATM    4  C4  UNL     1     -33.052   5.907   1.585  1.00 20.00     0.012 C 
HETATM    5  C5  UNL     1     -31.837   7.813   2.858  1.00 20.00     0.020 C 
HETATM    6  C6  UNL     1     -31.758   5.589   0.855  1.00 20.00     0.012 C 
HETATM    7  C7  UNL     1     -34.986   5.062   4.635  1.00 20.00     0.152 C 
HETATM    8  N8  UNL     1     -34.221   5.699   3.584  1.00 20.00    -0.356 N 
HETATM    9  O9  UNL     1     -34.747   7.962   3.947  1.00 20.00    -0.273 OA
ENDROOT
TORSDOF 0
ENDMDL
MODEL 6
REMARK VINA RESULT:       0.8      2.525      3.968
REMARK  0 active torsions:
REMARK  status: ('A' for Active; 'I' for Inactive)
ROOT
HETATM    1  C1  UNL     1     -32.519   7.467   2.216  1.00 20.00     0.223 C 
HETATM    2  C2  UNL     1     -33.521   7.650   4.350  1.00 20.00     0.130 C 
HETATM    3  C3  UNL     1     -33.632   6.433   2.270  1.00 20.00     0.079 C 
HETATM    4  C4  UNL     1     -34.512   6.951   3.426  1.00 20.00     0.012 C 
HETATM    5  C5  UNL     1     -33.026   5.051   2.474  1.00 20.00     0.020 C 
HETATM    6  C6  UNL     1     -35.357   5.912   4.144  1.00 20.00     0.012 C 
HETATM    7  C7  UNL     1     -31.528   9.112   3.852  1.00 20.00     0.152 C 
HETATM    8  N8  UNL     1     -32.507   8.129   3.442  1.00 20.00    -0.356 N 
HETATM    9  O9  UNL     1     -31.761   7.625   1.269  1.00 20.00    -0.273 OA
ENDROOT
TORSDOF 0
ENDMDL
MODEL 7
REMARK VINA RESULT:       1.1      2.327      3.225
REMARK  0 active torsions:
REMARK  status: ('A' for Active; 'I' for Inactive)
ROOT
HETATM    1  C1  UNL     1     -32.687   7.293   2.613  1.00 20.00     0.223 C 
HETATM    2  C2  UNL     1     -33.844   5.232   2.530  1.00 20.00     0.130 C 
HETATM    3  C3  UNL     1     -33.732   7.330   3.717  1.00 20.00     0.079 C 
HETATM    4  C4  UNL     1     -34.061   5.835   3.913  1.00 20.00     0.012 C 
HETATM    5  C5  UNL     1     -34.896   8.208   3.278  1.00 20.00     0.020 C 
HETATM    6  C6  UNL     1     -35.433   5.521   4.485  1.00 20.00     0.012 C 
HETATM    7  C7  UNL     1     -32.076   5.665   0.785  1.00 20.00     0.152 C 
HETATM    8  N8  UNL     1     -32.807   6.064   1.969  1.00 20.00    -0.356 N 
HETATM    9  O9  UNL     1     -31.931   8.215   2.340  1.00 20.00    -0.273 OA
ENDROOT
TORSDOF 0
ENDMDL
MODEL 8
REMARK VINA RESULT:       1.7      1.911      2.323
REMARK  0 active torsions:
REMARK  status: ('A' for Active; 'I' for Inactive)
ROOT
HETATM    1  C1  UNL     1     -33.473   6.260   2.778  1.00 20.00     0.223 C 
HETATM    2  C2  UNL     1     -31.935   7.170   1.229  1.00 20.00     0.130 C 
HETATM    3  C3  UNL     1     -33.520   7.770   2.947  1.00 20.00     0.079 C 
HETATM    4  C4  UNL     1     -32.913   8.272   1.621  1.00 20.00     0.012 C 
HETATM    5  C5  UNL     1     -32.758   8.158   4.207  1.00 20.00     0.020 C 
HETATM    6  C6  UNL     1     -32.268   9.648   1.657  1.00 20.00     0.012 C 
HETATM    7  C7  UNL     1     -32.109   4.660   1.384  1.00 20.00     0.152 C 
HETATM    8  N8  UNL     1     -32.542   5.982   1.779  1.00 20.00    -0.356 N 
HETATM    9  O9  UNL     1     -34.114   5.464   3.450  1.00 20.00    -0.273 OA
ENDROOT
TORSDOF 0
ENDMDL
MODEL 9
REMARK VINA RESULT:       1.7      2.069      3.089
REMARK  0 active torsions:
REMARK  status: ('A' for Active; 'I' for Inactive)
ROOT
HETATM    1  C1  UNL     1     -33.216   6.421   2.160  1.00 20.00     0.223 C 
HETATM    2  C2  UNL     1     -33.457   7.848   4.029  1.00 20.00     0.130 C 
HETATM    3  C3  UNL     1     -32.086   7.436   2.088  1.00 20.00     0.079 C 
HETATM    4  C4  UNL     1     -32.019   7.963   3.536  1.00 20.00     0.012 C 
HETATM    5  C5  UNL     1     -32.412   8.476   1.024  1.00 20.00     0.020 C 
HETATM    6  C6  UNL     1     -31.443   9.357   3.716  1.00 20.00     0.012 C 
HETATM    7  C7  UNL     1     -35.201   6.062   3.675  1.00 20.00     0.152 C 
HETATM    8  N8  UNL     1     -33.967   6.715   3.295  1.00 20.00    -0.356 N 
HETATM    9  O9  UNL     1     -33.423   5.550   1.326  1.00 20.00    -0.273 OA
ENDROOT
TORSDOF 0
ENDMDL
