MODEL 1
REMARK VINA RESULT:      -0.8      0.000      0.000
REMARK  3 active torsions:
REMARK  status: ('A' for Active; 'I' for Inactive)
REMARK    1  A    between atoms: C1_1  and  C7_7 
REMARK    2  A    between atoms: C1_1  and  N8_8 
REMARK    3  A    between atoms: C6_6  and  N8_8 
ROOT
HETATM    1  C1  UNL     1     -33.431   6.930   3.244  1.00 20.00     0.078 C 
HETATM    2  S9  UNL     1     -33.339   8.092   4.480  1.00 20.00    -0.065 SA
ENDROOT
BRANCH   1   3
HETATM    3  C7  UNL     1     -34.437   5.755   3.382  1.00 20.00     0.039 C 
HETATM    4  C3  UNL     1     -33.742   4.510   3.939  1.00 20.00     0.017 C 
HETATM    5  C4  UNL     1     -35.686   6.086   4.207  1.00 20.00     0.017 C 
ENDBRANCH   1   3
BRANCH   1   6
HETATM    6  N8  UNL     1     -32.611   6.932   2.102  1.00 20.00    -0.380 N 
HETATM    7  C5  UNL     1     -32.559   5.825   1.147  1.00 20.00     0.150 C 
BRANCH   6   8
HETATM    8  C6  UNL     1     -31.714   8.042   1.768  1.00 20.00     0.118 C 
HETATM    9  C2  UNL     1     -32.371   9.003   0.836  1.00 20.00     0.026 C 
ENDBRANCH   6   8
ENDBRANCH   1   6
TORSDOF 3
ENDMDL
MODEL 2
REMARK VINA RESULT:      -0.8      1.761      2.288
REMARK  3 active torsions:
REMARK  status: ('A' for Active; 'I' for Inactive)
REMARK    1  A    between atoms: C1_1  and  C7_7 
REMARK    2  A    between atoms: C1_1  and  N8_8 
REMARK    3  A    between atoms: C6_6  and  N8_8 
ROOT
HETATM    1  C1  UNL     1     -33.110   7.143   2.394  1.00 20.00     0.078 C 
HETATM    2  S9  UNL     1     -33.099   5.537   1.842  1.00 20.00    -0.065 SA
ENDROOT
BRANCH   1   3
HETATM    3  C7  UNL     1     -34.065   7.540   3.553  1.00 20.00     0.039 C 
HETATM    4  C3  UNL     1     -35.003   6.381   3.902  1.00 20.00     0.017 C 
HETATM    5  C4  UNL     1     -33.354   8.051   4.811  1.00 20.00     0.017 C 
ENDBRANCH   1   3
BRANCH   1   6
HETATM    6  N8  UNL     1     -32.331   8.171   1.834  1.00 20.00    -0.380 N 
HETATM    7  C5  UNL     1     -30.885   8.069   1.638  1.00 20.00     0.150 C 
BRANCH   6   8
HETATM    8  C6  UNL     1     -32.895   9.454   1.404  1.00 20.00     0.118 C 
HETATM    9  C2  UNL     1     -32.397   9.836   0.052  1.00 20.00     0.026 C 
ENDBRANCH   6   8
ENDBRANCH   1   6
TORSDOF 3
ENDMDL
MODEL 3
REMARK VINA RESULT:      -0.6      1.557      1.920
REMARK  3 active torsions:
REMARK  status: ('A' for Active; 'I' for Inactive)
REMARK    1  A    between atoms: C1_1  and  C7_7 
REMARK    2  A    between atoms: C1_1  and  N8_8 
REMARK    3  A    between atoms: C6_6  and  N8_8 
ROOT
HETATM    1  C1  UNL     1     -33.469   5.861   2.975  1.00 20.00     0.078 C 
HETATM    2  S9  UNL     1     -33.457   4.300   3.645  1.00 20.00    -0.065 SA
ENDROOT
BRANCH   1   3
HETATM    3  C7  UNL     1     -34.431   6.930   3.560  1.00 20.00     0.039 C 
HETATM    4  C3  UNL     1     -35.680   6.269   4.150  1.00 20.00     0.017 C 
HETATM    5  C4  UNL     1     -33.785   7.867   4.587  1.00 20.00     0.017 C 
ENDBRANCH   1   3
BRANCH   1   6
HETATM    6  N8  UNL     1     -32.684   6.248   1.874  1.00 20.00    -0.380 N 
HETATM    7  C5  UNL     1     -32.679   5.532   0.598  1.00 20.00     0.150 C 
BRANCH   6   8
HETATM    8  C6  UNL     1     -31.781   7.403   1.906  1.00 20.00     0.118 C 
HETATM    9  C2  UNL     1     -32.308   8.522   1.073  1.00 20.00     0.026 C 
ENDBRANCH   6   8
ENDBRANCH   1   6
TORSDOF 3
ENDMDL
MODEL 4
REMARK VINA RESULT:      -0.5      1.324      3.978
REMARK  3 active torsions:
REMARK  status: ('A' for Active; 'I' for Inactive)
REMARK    1  A    between atoms: C1_1  and  C7_7 
REMARK    2  A    between atoms: C1_1  and  N8_8 
REMARK    3  A    between atoms: C6_6  and  N8_8 
ROOT
HETATM    1  C1  UNL     1     -33.592   6.384   3.306  1.00 20.00     0.078 C 
HETATM    2  S9  UNL     1     -33.946   7.909   3.965  1.00 20.00    -0.065 SA
ENDROOT
BRANCH   1   3
HETATM    3  C7  UNL     1     -32.625   6.288   2.094  1.00 20.00     0.039 C 
HETATM    4  C3  UNL     1     -33.321   5.631   0.899  1.00 20.00     0.017 C 
HETATM    5  C4  UNL     1     -31.995   7.622   1.681  1.00 20.00     0.017 C 
ENDBRANCH   1   3
BRANCH   1   6
HETATM    6  N8  UNL     1     -34.161   5.181   3.761  1.00 20.00    -0.380 N 
HETATM    7  C5  UNL     1     -35.428   5.116   4.490  1.00 20.00     0.150 C 
BRANCH   6   8
HETATM    8  C6  UNL     1     -33.527   3.875   3.562  1.00 20.00     0.118 C 
HETATM    9  C2  UNL     1     -33.331   3.167   4.859  1.00 20.00     0.026 C 
ENDBRANCH   6   8
ENDBRANCH   1   6
TORSDOF 3
ENDMDL
MODEL 5
REMARK VINA RESULT:      -0.4      1.669      2.289
REMARK  3 active torsions:
REMARK  status: ('A' for Active; 'I' for Inactive)
REMARK    1  A    between atoms: C1_1  and  C7_7 
REMARK    2  A    between atoms: C1_1  and  N8_8 
REMARK    3  A    between atoms: C6_6  and  N8_8 
ROOT
HETATM    1  C1  UNL     1     -33.171   6.337   2.480  1.00 20.00     0.078 C 
HETATM    2  S9  UNL     1     -33.157   5.356   1.093  1.00 20.00    -0.065 SA
ENDROOT
BRANCH   1   3
HETATM    3  C7  UNL     1     -33.992   5.886   3.719  1.00 20.00     0.039 C 
HETATM    4  C3  UNL     1     -35.401   6.486   3.681  1.00 20.00     0.017 C 
HETATM    5  C4  UNL     1     -34.062   4.368   3.913  1.00 20.00     0.017 C 
ENDBRANCH   1   3
BRANCH   1   6
HETATM    6  N8  UNL     1     -32.514   7.577   2.571  1.00 20.00    -0.380 N 
HETATM    7  C5  UNL     1     -32.546   8.418   3.767  1.00 20.00     0.150 C 
BRANCH   6   8
HETATM    8  C6  UNL     1     -31.745   8.153   1.464  1.00 20.00     0.118 C 
HETATM    9  C2  UNL     1     -32.482   9.281   0.826  1.00 20.00     0.026 C 
ENDBRANCH   6   8
ENDBRANCH   1   6
TORSDOF 3
ENDMDL
MODEL 6
REMARK VINA RESULT:      -0.4      0.563      1.805
REMARK  3 active torsions:
REMARK  status: ('A' for Active; 'I' for Inactive)
REMARK    1  A    between atoms: C1_1  and  C7_7 
REMARK    2  A    between atoms: C1_1  and  N8_8 
REMARK    3  A    between atoms: C6_6  and  N8_8 
ROOT
HETATM    1  C1  UNL     1     -33.576   6.781   3.275  1.00 20.00     0.078 C 
HETATM    2  S9  UNL     1     -33.509   7.989   4.468  1.00 20.00    -0.065 SA
ENDROOT
BRANCH   1   3
HETATM    3  C7  UNL     1     -34.484   5.542   3.501  1.00 20.00     0.039 C 
HETATM    4  C3  UNL     1     -33.670   4.370   4.059  1.00 20.00     0.017 C 
HETATM    5  C4  UNL     1     -35.710   5.809   4.380  1.00 20.00     0.017 C 
ENDBRANCH   1   3
BRANCH   1   6
HETATM    6  N8  UNL     1     -32.817   6.804   2.092  1.00 20.00    -0.380 N 
HETATM    7  C5  UNL     1     -31.890   7.883   1.751  1.00 20.00     0.150 C 
BRANCH   6   8
HETATM    8  C6  UNL     1     -32.894   5.750   1.075  1.00 20.00     0.118 C 
HETATM    9  C2  UNL     1     -31.621   4.976   1.005  1.00 20.00     0.026 C 
ENDBRANCH   6   8
ENDBRANCH   1   6
TORSDOF 3
ENDMDL
MODEL 7
REMARK VINA RESULT:      -0.3      1.754      3.776
REMARK  3 active torsions:
REMARK  status: ('A' for Active; 'I' for Inactive)
REMARK    1  A    between atoms: C1_1  and  C7_7 
REMARK    2  A    between atoms: C1_1  and  N8_8 
REMARK    3  A    between atoms: C6_6  and  N8_8 
ROOT
HETATM    1  C1  UNL     1     -33.011   7.000   2.389  1.00 20.00     0.078 C 
HETATM    2  S9  UNL     1     -32.042   8.258   1.788  1.00 20.00    -0.065 SA
ENDROOT
BRANCH   1   3
HETATM    3  C7  UNL     1     -33.032   5.637   1.645  1.00 20.00     0.039 C 
HETATM    4  C3  UNL     1     -33.826   5.746   0.340  1.00 20.00     0.017 C 
HETATM    5  C4  UNL     1     -31.646   5.040   1.381  1.00 20.00     0.017 C 
ENDBRANCH   1   3
BRANCH   1   6
HETATM    6  N8  UNL     1     -33.849   7.122   3.512  1.00 20.00    -0.380 N 
HETATM    7  C5  UNL     1     -33.530   7.963   4.666  1.00 20.00     0.150 C 
BRANCH   6   8
HETATM    8  C6  UNL     1     -35.120   6.403   3.640  1.00 20.00     0.118 C 
HETATM    9  C2  UNL     1     -34.946   5.133   4.401  1.00 20.00     0.026 C 
ENDBRANCH   6   8
ENDBRANCH   1   6
TORSDOF 3
ENDMDL
MODEL 8
REMARK VINA RESULT:      -0.2      1.757      4.197
REMARK  3 active torsions:
REMARK  status: ('A' for Active; 'I' for Inactive)
REMARK    1  A    between atoms: C1_1  and  C7_7 
REMARK    2  A    between atoms: C1_1  and  N8_8 
REMARK    3  A    between atoms: C6_6  and  N8_8 
ROOT
HETATM    1  C1  UNL     1     -33.089   7.100   2.428  1.00 20.00     0.078 C 
HETATM    2  S9  UNL     1     -32.929   5.707   1.469  1.00 20.00    -0.065 SA
ENDROOT
BRANCH   1   3
HETATM    3  C7  UNL     1     -32.240   8.356   2.088  1.00 20.00     0.039 C 
HETATM    4  C3  UNL     1     -30.752   8.001   2.024  1.00 20.00     0.017 C 
HETATM    5  C4  UNL     1     -32.673   9.084   0.812  1.00 20.00     0.017 C 
ENDBRANCH   1   3
BRANCH   1   6
HETATM    6  N8  UNL     1     -33.920   7.183   3.559  1.00 20.00    -0.380 N 
HETATM    7  C5  UNL     1     -33.600   7.992   4.735  1.00 20.00     0.150 C 
BRANCH   6   8
HETATM    8  C6  UNL     1     -35.185   6.451   3.673  1.00 20.00     0.118 C 
HETATM    9  C2  UNL     1     -35.000   5.168   4.411  1.00 20.00     0.026 C 
ENDBRANCH   6   8
ENDBRANCH   1   6
TORSDOF 3
ENDMDL
MODEL 9
REMARK VINA RESULT:      -0.1      1.899      4.152
REMARK  3 active torsions:
REMARK  status: ('A' for Active; 'I' for Inactive)
REMARK    1  A    between atoms: C1_1  and  C7_7 
REMARK    2  A    between atoms: C1_1  and  N8_8 
REMARK    3  A    between atoms: C6_6  and  N8_8 
ROOT
HETATM    1  C1  UNL     1     -33.307   6.062   2.633  1.00 20.00     0.078 C 
HETATM    2  S9  UNL     1     -32.338   5.295   1.468  1.00 20.00    -0.065 SA
ENDROOT
BRANCH   1   3
HETATM    3  C7  UNL     1     -33.179   7.596   2.836  1.00 20.00     0.039 C 
HETATM    4  C3  UNL     1     -32.940   7.928   4.311  1.00 20.00     0.017 C 
HETATM    5  C4  UNL     1     -32.114   8.262   1.957  1.00 20.00     0.017 C 
ENDBRANCH   1   3
BRANCH   1   6
HETATM    6  N8  UNL     1     -34.205   5.383   3.477  1.00 20.00    -0.380 N 
HETATM    7  C5  UNL     1     -35.299   6.046   4.186  1.00 20.00     0.150 C 
BRANCH   6   8
HETATM    8  C6  UNL     1     -34.118   3.944   3.738  1.00 20.00     0.118 C 
HETATM    9  C2  UNL     1     -33.216   3.659   4.891  1.00 20.00     0.026 C 
ENDBRANCH   6   8
ENDBRANCH   1   6
TORSDOF 3
ENDMDL
