MODEL 1
REMARK VINA RESULT:      -1.6      0.000      0.000
REMARK  0 active torsions:
REMARK  status: ('A' for Active; 'I' for Inactive)
ROOT
HETATM    1  C1  UNL     1     -34.655   6.865   3.312  1.00 20.00     0.251 C 
HETATM    2  C2  UNL     1     -33.898   5.659   2.789  1.00 20.00     0.251 C 
HETATM    3  C3  UNL     1     -33.607   7.906   3.666  1.00 20.00     0.271 C 
HETATM    4  C4  UNL     1     -33.003   6.199   1.690  1.00 20.00     0.271 C 
HETATM    5  F5  UNL     1     -35.372   6.531   4.410  1.00 20.00    -0.242 F 
HETATM    6  F6  UNL     1     -33.123   5.155   3.789  1.00 20.00    -0.242 F 
HETATM    7  F7  UNL     1     -32.999   7.551   4.829  1.00 20.00    -0.235 F 
HETATM    8  F8  UNL     1     -31.989   5.335   1.443  1.00 20.00    -0.235 F 
HETATM    9  S9  UNL     1     -32.395   7.789   2.315  1.00 20.00    -0.089 SA
ENDROOT
TORSDOF 0
ENDMDL
MODEL 2
REMARK VINA RESULT:      -0.6      1.740      3.587
REMARK  0 active torsions:
REMARK  status: ('A' for Active; 'I' for Inactive)
ROOT
HETATM    1  C1  UNL     1     -32.729   7.972   1.428  1.00 20.00     0.251 C 
HETATM    2  C2  UNL     1     -32.614   8.520   2.838  1.00 20.00     0.251 C 
HETATM    3  C3  UNL     1     -32.671   6.460   1.552  1.00 20.00     0.271 C 
HETATM    4  C4  UNL     1     -33.695   7.809   3.629  1.00 20.00     0.271 C 
HETATM    5  F5  UNL     1     -31.704   8.418   0.665  1.00 20.00    -0.242 F 
HETATM    6  F6  UNL     1     -31.395   8.184   3.345  1.00 20.00    -0.242 F 
HETATM    7  F7  UNL     1     -31.388   6.079   1.794  1.00 20.00    -0.235 F 
HETATM    8  F8  UNL     1     -33.429   7.878   4.955  1.00 20.00    -0.235 F 
HETATM    9  S9  UNL     1     -33.673   6.099   3.026  1.00 20.00    -0.089 SA
ENDROOT
TORSDOF 0
ENDMDL
MODEL 3
REMARK VINA RESULT:      -0.5      1.241      2.966
REMARK  0 active torsions:
REMARK  status: ('A' for Active; 'I' for Inactive)
ROOT
HETATM    1  C1  UNL     1     -33.313   5.314   3.346  1.00 20.00     0.251 C 
HETATM    2  C2  UNL     1     -34.330   6.313   3.866  1.00 20.00     0.251 C 
HETATM    3  C3  UNL     1     -32.813   5.865   2.022  1.00 20.00     0.271 C 
HETATM    4  C4  UNL     1     -33.615   7.650   3.852  1.00 20.00     0.271 C 
HETATM    5  F5  UNL     1     -33.892   4.105   3.162  1.00 20.00    -0.242 F 
HETATM    6  F6  UNL     1     -35.383   6.361   3.003  1.00 20.00    -0.242 F 
HETATM    7  F7  UNL     1     -33.763   5.672   1.070  1.00 20.00    -0.235 F 
HETATM    8  F8  UNL     1     -34.514   8.664   3.877  1.00 20.00    -0.235 F 
HETATM    9  S9  UNL     1     -32.643   7.650   2.322  1.00 20.00    -0.089 SA
ENDROOT
TORSDOF 0
ENDMDL
MODEL 4
REMARK VINA RESULT:      -0.5      1.816      2.578
REMARK  0 active torsions:
REMARK  status: ('A' for Active; 'I' for Inactive)
ROOT
HETATM    1  C1  UNL     1     -33.167   7.414   4.070  1.00 20.00     0.251 C 
HETATM    2  C2  UNL     1     -32.746   8.395   2.992  1.00 20.00     0.251 C 
HETATM    3  C3  UNL     1     -33.928   6.305   3.365  1.00 20.00     0.271 C 
HETATM    4  C4  UNL     1     -32.024   7.558   1.954  1.00 20.00     0.271 C 
HETATM    5  F5  UNL     1     -33.964   8.025   4.977  1.00 20.00    -0.242 F 
HETATM    6  F6  UNL     1     -33.861   8.939   2.429  1.00 20.00    -0.242 F 
HETATM    7  F7  UNL     1     -35.166   6.755   3.031  1.00 20.00    -0.235 F 
HETATM    8  F8  UNL     1     -31.980   8.212   0.769  1.00 20.00    -0.235 F 
HETATM    9  S9  UNL     1     -32.980   6.021   1.838  1.00 20.00    -0.089 SA
ENDROOT
TORSDOF 0
ENDMDL
MODEL 5
REMARK VINA RESULT:      -0.5      1.601      3.209
REMARK  0 active torsions:
REMARK  status: ('A' for Active; 'I' for Inactive)
ROOT
HETATM    1  C1  UNL     1     -31.936   6.087   1.938  1.00 20.00     0.251 C 
HETATM    2  C2  UNL     1     -33.395   5.702   2.096  1.00 20.00     0.251 C 
HETATM    3  C3  UNL     1     -31.885   7.603   2.012  1.00 20.00     0.271 C 
HETATM    4  C4  UNL     1     -33.851   6.388   3.370  1.00 20.00     0.271 C 
HETATM    5  F5  UNL     1     -31.464   5.661   0.744  1.00 20.00    -0.242 F 
HETATM    6  F6  UNL     1     -34.101   6.202   1.043  1.00 20.00    -0.242 F 
HETATM    7  F7  UNL     1     -32.341   8.125   0.842  1.00 20.00    -0.235 F 
HETATM    8  F8  UNL     1     -35.201   6.483   3.396  1.00 20.00    -0.235 F 
HETATM    9  S9  UNL     1     -33.062   8.021   3.334  1.00 20.00    -0.089 SA
ENDROOT
TORSDOF 0
ENDMDL
MODEL 6
REMARK VINA RESULT:      -0.3      1.759      2.950
REMARK  0 active torsions:
REMARK  status: ('A' for Active; 'I' for Inactive)
ROOT
HETATM    1  C1  UNL     1     -33.424   6.116   1.238  1.00 20.00     0.251 C 
HETATM    2  C2  UNL     1     -32.114   6.864   1.396  1.00 20.00     0.251 C 
HETATM    3  C3  UNL     1     -33.913   5.809   2.642  1.00 20.00     0.271 C 
HETATM    4  C4  UNL     1     -32.426   8.017   2.331  1.00 20.00     0.271 C 
HETATM    5  F5  UNL     1     -33.230   4.968   0.548  1.00 20.00    -0.242 F 
HETATM    6  F6  UNL     1     -31.204   6.042   1.990  1.00 20.00    -0.242 F 
HETATM    7  F7  UNL     1     -33.179   4.788   3.158  1.00 20.00    -0.235 F 
HETATM    8  F8  UNL     1     -31.286   8.494   2.886  1.00 20.00    -0.235 F 
HETATM    9  S9  UNL     1     -33.543   7.323   3.579  1.00 20.00    -0.089 SA
ENDROOT
TORSDOF 0
ENDMDL
MODEL 7
REMARK VINA RESULT:       0.1      1.933      2.407
REMARK  0 active torsions:
REMARK  status: ('A' for Active; 'I' for Inactive)
ROOT
HETATM    1  C1  UNL     1     -33.940   7.238   3.995  1.00 20.00     0.251 C 
HETATM    2  C2  UNL     1     -33.287   6.908   2.667  1.00 20.00     0.251 C 
HETATM    3  C3  UNL     1     -34.989   6.165   4.233  1.00 20.00     0.271 C 
HETATM    4  C4  UNL     1     -32.841   5.463   2.792  1.00 20.00     0.271 C 
HETATM    5  F5  UNL     1     -34.523   8.458   3.943  1.00 20.00    -0.242 F 
HETATM    6  F6  UNL     1     -34.220   7.003   1.679  1.00 20.00    -0.242 F 
HETATM    7  F7  UNL     1     -36.063   6.405   3.435  1.00 20.00    -0.235 F 
HETATM    8  F8  UNL     1     -32.641   4.925   1.565  1.00 20.00    -0.235 F 
HETATM    9  S9  UNL     1     -34.184   4.630   3.681  1.00 20.00    -0.089 SA
ENDROOT
TORSDOF 0
ENDMDL
MODEL 8
REMARK VINA RESULT:       0.2      1.981      2.672
REMARK  0 active torsions:
REMARK  status: ('A' for Active; 'I' for Inactive)
ROOT
HETATM    1  C1  UNL     1     -32.108   7.677   3.298  1.00 20.00     0.251 C 
HETATM    2  C2  UNL     1     -32.153   7.273   1.836  1.00 20.00     0.251 C 
HETATM    3  C3  UNL     1     -33.522   7.520   3.828  1.00 20.00     0.271 C 
HETATM    4  C4  UNL     1     -32.790   5.896   1.825  1.00 20.00     0.271 C 
HETATM    5  F5  UNL     1     -31.703   8.962   3.418  1.00 20.00    -0.242 F 
HETATM    6  F6  UNL     1     -32.956   8.142   1.162  1.00 20.00    -0.242 F 
HETATM    7  F7  UNL     1     -34.286   8.549   3.376  1.00 20.00    -0.235 F 
HETATM    8  F8  UNL     1     -33.274   5.613   0.592  1.00 20.00    -0.235 F 
HETATM    9  S9  UNL     1     -34.111   5.978   3.064  1.00 20.00    -0.089 SA
ENDROOT
TORSDOF 0
ENDMDL
MODEL 9
REMARK VINA RESULT:       0.9      1.596      2.109
REMARK  0 active torsions:
REMARK  status: ('A' for Active; 'I' for Inactive)
ROOT
HETATM    1  C1  UNL     1     -34.228   7.786   2.752  1.00 20.00     0.251 C 
HETATM    2  C2  UNL     1     -34.352   6.666   3.768  1.00 20.00     0.251 C 
HETATM    3  C3  UNL     1     -32.842   7.661   2.145  1.00 20.00     0.271 C 
HETATM    4  C4  UNL     1     -33.997   5.402   3.009  1.00 20.00     0.271 C 
HETATM    5  F5  UNL     1     -34.366   8.988   3.358  1.00 20.00    -0.242 F 
HETATM    6  F6  UNL     1     -33.437   6.864   4.758  1.00 20.00    -0.242 F 
HETATM    7  F7  UNL     1     -31.921   8.116   3.035  1.00 20.00    -0.235 F 
HETATM    8  F8  UNL     1     -33.654   4.416   3.872  1.00 20.00    -0.235 F 
HETATM    9  S9  UNL     1     -32.613   5.869   1.935  1.00 20.00    -0.089 SA
ENDROOT
TORSDOF 0
ENDMDL
