MODEL 1
REMARK VINA RESULT:       1.9      0.000      0.000
REMARK  1 active torsions:
REMARK  status: ('A' for Active; 'I' for Inactive)
REMARK    1  A    between atoms: C2_2  and  C9_9 
ROOT
HETATM    1  C1  UNL     1     -33.316   7.403   3.956  1.00 20.00     0.144 C 
HETATM    2  C3  UNL     1     -34.704   7.611   4.524  1.00 20.00     0.084 C 
HETATM    3  C4  UNL     1     -34.036   4.644   4.486  1.00 20.00     0.002 C 
HETATM    4  C5  UNL     1     -35.464   5.177   4.314  1.00 20.00     0.005 C 
HETATM    5  C6  UNL     1     -33.108   5.005   3.316  1.00 20.00     0.027 C 
HETATM    6  C7  UNL     1     -34.806   6.587   2.361  1.00 20.00     0.031 C 
HETATM    7  C8  UNL     1     -35.523   6.594   3.712  1.00 20.00    -0.006 C 
HETATM    8  C9  UNL     1     -33.344   6.429   2.789  1.00 20.00     0.097 C 
HETATM    9  O10 UNL     1     -32.309   7.942   4.395  1.00 20.00    -0.297 OA
ENDROOT
BRANCH   8  10
HETATM   10  C2  UNL     1     -32.420   6.773   1.667  1.00 20.00     0.234 C 
HETATM   11  O11 UNL     1     -32.157   7.938   1.381  1.00 20.00    -0.279 OA
HETATM   12 CL12 UNL     1     -31.805   5.357   0.869  1.00 20.00    -0.043 Cl
ENDBRANCH   8  10
TORSDOF 1
ENDMDL
MODEL 2
REMARK VINA RESULT:       1.9      2.380      3.512
REMARK  1 active torsions:
REMARK  status: ('A' for Active; 'I' for Inactive)
REMARK    1  A    between atoms: C2_2  and  C9_9 
ROOT
HETATM    1  C1  UNL     1     -35.127   6.914   3.372  1.00 20.00     0.144 C 
HETATM    2  C3  UNL     1     -34.558   8.307   3.536  1.00 20.00     0.084 C 
HETATM    3  C4  UNL     1     -32.902   6.744   1.520  1.00 20.00     0.002 C 
HETATM    4  C5  UNL     1     -32.302   7.824   2.429  1.00 20.00     0.005 C 
HETATM    5  C6  UNL     1     -33.384   5.503   2.288  1.00 20.00     0.027 C 
HETATM    6  C7  UNL     1     -33.099   6.666   4.493  1.00 20.00     0.031 C 
HETATM    7  C8  UNL     1     -33.066   8.005   3.755  1.00 20.00    -0.006 C 
HETATM    8  C9  UNL     1     -34.063   5.857   3.620  1.00 20.00     0.097 C 
HETATM    9  O10 UNL     1     -36.288   6.681   3.067  1.00 20.00    -0.297 OA
ENDROOT
BRANCH   8  10
HETATM   10  C2  UNL     1     -34.545   4.642   4.344  1.00 20.00     0.234 C 
HETATM   11  O11 UNL     1     -35.643   4.612   4.894  1.00 20.00    -0.279 OA
HETATM   12 CL12 UNL     1     -33.388   3.348   4.294  1.00 20.00    -0.043 Cl
ENDBRANCH   8  10
TORSDOF 1
ENDMDL
MODEL 3
REMARK VINA RESULT:       2.2      2.097      2.460
REMARK  1 active torsions:
REMARK  status: ('A' for Active; 'I' for Inactive)
REMARK    1  A    between atoms: C2_2  and  C9_9 
ROOT
HETATM    1  C1  UNL     1     -31.891   8.237   3.266  1.00 20.00     0.144 C 
HETATM    2  C3  UNL     1     -32.841   8.080   4.434  1.00 20.00     0.084 C 
HETATM    3  C4  UNL     1     -32.986   5.625   2.645  1.00 20.00     0.002 C 
HETATM    4  C5  UNL     1     -34.188   6.141   3.446  1.00 20.00     0.005 C 
HETATM    5  C6  UNL     1     -32.546   6.580   1.525  1.00 20.00     0.027 C 
HETATM    6  C7  UNL     1     -34.044   8.399   2.388  1.00 20.00     0.031 C 
HETATM    7  C8  UNL     1     -34.137   7.656   3.722  1.00 20.00    -0.006 C 
HETATM    8  C9  UNL     1     -32.619   8.057   1.943  1.00 20.00     0.097 C 
HETATM    9  O10 UNL     1     -30.696   8.466   3.382  1.00 20.00    -0.297 OA
ENDROOT
BRANCH   8  10
HETATM   10  C2  UNL     1     -32.168   8.972   0.852  1.00 20.00     0.234 C 
HETATM   11  O11 UNL     1     -31.272   8.656   0.074  1.00 20.00    -0.279 OA
HETATM   12 CL12 UNL     1     -33.050  10.469   0.847  1.00 20.00    -0.043 Cl
ENDBRANCH   8  10
TORSDOF 1
ENDMDL
MODEL 4
REMARK VINA RESULT:       2.2      1.824      2.226
REMARK  1 active torsions:
REMARK  status: ('A' for Active; 'I' for Inactive)
REMARK    1  A    between atoms: C2_2  and  C9_9 
ROOT
HETATM    1  C1  UNL     1     -32.004   8.280   3.304  1.00 20.00     0.144 C 
HETATM    2  C3  UNL     1     -32.896   7.994   4.494  1.00 20.00     0.084 C 
HETATM    3  C4  UNL     1     -32.959   5.644   2.565  1.00 20.00     0.002 C 
HETATM    4  C5  UNL     1     -34.158   6.035   3.437  1.00 20.00     0.005 C 
HETATM    5  C6  UNL     1     -32.622   6.689   1.490  1.00 20.00     0.027 C 
HETATM    6  C7  UNL     1     -34.195   8.355   2.514  1.00 20.00     0.031 C 
HETATM    7  C8  UNL     1     -34.190   7.531   3.803  1.00 20.00    -0.006 C 
HETATM    8  C9  UNL     1     -32.770   8.131   2.000  1.00 20.00     0.097 C 
HETATM    9  O10 UNL     1     -30.821   8.578   3.392  1.00 20.00    -0.297 OA
ENDROOT
BRANCH   8  10
HETATM   10  C2  UNL     1     -32.419   9.136   0.951  1.00 20.00     0.234 C 
HETATM   11  O11 UNL     1     -33.004  10.212   0.866  1.00 20.00    -0.279 OA
HETATM   12 CL12 UNL     1     -31.129   8.586  -0.075  1.00 20.00    -0.043 Cl
ENDBRANCH   8  10
TORSDOF 1
ENDMDL
MODEL 5
REMARK VINA RESULT:       2.5      2.471      3.821
REMARK  1 active torsions:
REMARK  status: ('A' for Active; 'I' for Inactive)
REMARK    1  A    between atoms: C2_2  and  C9_9 
ROOT
HETATM    1  C1  UNL     1     -33.175   5.263   3.120  1.00 20.00     0.144 C 
HETATM    2  C3  UNL     1     -32.330   5.376   1.869  1.00 20.00     0.084 C 
HETATM    3  C4  UNL     1     -32.167   7.960   3.465  1.00 20.00     0.002 C 
HETATM    4  C5  UNL     1     -32.065   7.921   1.935  1.00 20.00     0.005 C 
HETATM    5  C6  UNL     1     -33.555   7.565   3.992  1.00 20.00     0.027 C 
HETATM    6  C7  UNL     1     -34.272   6.770   1.722  1.00 20.00     0.031 C 
HETATM    7  C8  UNL     1     -32.802   6.725   1.301  1.00 20.00    -0.006 C 
HETATM    8  C9  UNL     1     -34.178   6.401   3.205  1.00 20.00     0.097 C 
HETATM    9  O10 UNL     1     -33.049   4.375   3.952  1.00 20.00    -0.297 OA
ENDROOT
BRANCH   8  10
HETATM   10  C2  UNL     1     -35.518   6.014   3.743  1.00 20.00     0.234 C 
HETATM   11  O11 UNL     1     -35.638   5.184   4.640  1.00 20.00    -0.279 OA
HETATM   12 CL12 UNL     1     -36.810   6.867   2.955  1.00 20.00    -0.043 Cl
ENDBRANCH   8  10
TORSDOF 1
ENDMDL
MODEL 6
REMARK VINA RESULT:       2.9      2.434      3.747
REMARK  1 active torsions:
REMARK  status: ('A' for Active; 'I' for Inactive)
REMARK    1  A    between atoms: C2_2  and  C9_9 
ROOT
HETATM    1  C1  UNL     1     -33.163   5.319   3.041  1.00 20.00     0.144 C 
HETATM    2  C3  UNL     1     -32.289   5.387   1.807  1.00 20.00     0.084 C 
HETATM    3  C4  UNL     1     -32.050   7.974   3.388  1.00 20.00     0.002 C 
HETATM    4  C5  UNL     1     -31.918   7.919   1.861  1.00 20.00     0.005 C 
HETATM    5  C6  UNL     1     -33.464   7.641   3.889  1.00 20.00     0.027 C 
HETATM    6  C7  UNL     1     -34.167   6.860   1.610  1.00 20.00     0.031 C 
HETATM    7  C8  UNL     1     -32.692   6.750   1.220  1.00 20.00    -0.006 C 
HETATM    8  C9  UNL     1     -34.119   6.499   3.098  1.00 20.00     0.097 C 
HETATM    9  O10 UNL     1     -33.092   4.433   3.882  1.00 20.00    -0.297 OA
ENDROOT
BRANCH   8  10
HETATM   10  C2  UNL     1     -35.485   6.173   3.610  1.00 20.00     0.234 C 
HETATM   11  O11 UNL     1     -36.488   6.734   3.177  1.00 20.00    -0.279 OA
HETATM   12 CL12 UNL     1     -35.446   4.948   4.841  1.00 20.00    -0.043 Cl
ENDBRANCH   8  10
TORSDOF 1
ENDMDL
MODEL 7
REMARK VINA RESULT:       3.5      1.979      3.617
REMARK  1 active torsions:
REMARK  status: ('A' for Active; 'I' for Inactive)
REMARK    1  A    between atoms: C2_2  and  C9_9 
ROOT
HETATM    1  C1  UNL     1     -32.437   7.492   1.948  1.00 20.00     0.144 C 
HETATM    2  C3  UNL     1     -31.266   6.713   1.385  1.00 20.00     0.084 C 
HETATM    3  C4  UNL     1     -33.858   5.746   0.120  1.00 20.00     0.002 C 
HETATM    4  C5  UNL     1     -32.652   4.826   0.351  1.00 20.00     0.005 C 
HETATM    5  C6  UNL     1     -34.516   6.225   1.423  1.00 20.00     0.027 C 
HETATM    6  C7  UNL     1     -32.617   5.329   2.798  1.00 20.00     0.031 C 
HETATM    7  C8  UNL     1     -31.762   5.265   1.531  1.00 20.00    -0.006 C 
HETATM    8  C9  UNL     1     -33.490   6.556   2.518  1.00 20.00     0.097 C 
HETATM    9  O10 UNL     1     -32.519   8.712   1.930  1.00 20.00    -0.297 OA
ENDROOT
BRANCH   8  10
HETATM   10  C2  UNL     1     -34.144   7.041   3.771  1.00 20.00     0.234 C 
HETATM   11  O11 UNL     1     -33.698   7.993   4.405  1.00 20.00    -0.279 OA
HETATM   12 CL12 UNL     1     -35.553   6.109   4.176  1.00 20.00    -0.043 Cl
ENDBRANCH   8  10
TORSDOF 1
ENDMDL
MODEL 8
REMARK VINA RESULT:       3.8      1.593      2.693
REMARK  1 active torsions:
REMARK  status: ('A' for Active; 'I' for Inactive)
REMARK    1  A    between atoms: C2_2  and  C9_9 
ROOT
HETATM    1  C1  UNL     1     -33.209   5.937   2.179  1.00 20.00     0.144 C 
HETATM    2  C3  UNL     1     -33.580   4.796   3.104  1.00 20.00     0.084 C 
HETATM    3  C4  UNL     1     -35.817   6.856   3.051  1.00 20.00     0.002 C 
HETATM    4  C5  UNL     1     -35.501   6.005   4.287  1.00 20.00     0.005 C 
HETATM    5  C6  UNL     1     -34.706   7.858   2.702  1.00 20.00     0.027 C 
HETATM    6  C7  UNL     1     -33.132   6.797   4.344  1.00 20.00     0.031 C 
HETATM    7  C8  UNL     1     -34.028   5.557   4.363  1.00 20.00    -0.006 C 
HETATM    8  C9  UNL     1     -33.298   7.273   2.898  1.00 20.00     0.097 C 
HETATM    9  O10 UNL     1     -32.894   5.791   1.006  1.00 20.00    -0.297 OA
ENDROOT
BRANCH   8  10
HETATM   10  C2  UNL     1     -32.229   8.251   2.533  1.00 20.00     0.234 C 
HETATM   11  O11 UNL     1     -31.302   8.508   3.297  1.00 20.00    -0.279 OA
HETATM   12 CL12 UNL     1     -32.475   8.931   0.954  1.00 20.00    -0.043 Cl
ENDBRANCH   8  10
TORSDOF 1
ENDMDL
MODEL 9
REMARK VINA RESULT:       3.9      2.168      3.682
REMARK  1 active torsions:
REMARK  status: ('A' for Active; 'I' for Inactive)
REMARK    1  A    between atoms: C2_2  and  C9_9 
ROOT
HETATM    1  C1  UNL     1     -32.556   7.512   2.005  1.00 20.00     0.144 C 
HETATM    2  C3  UNL     1     -31.305   6.815   1.514  1.00 20.00     0.084 C 
HETATM    3  C4  UNL     1     -33.748   5.670   0.110  1.00 20.00     0.002 C 
HETATM    4  C5  UNL     1     -32.497   4.835   0.414  1.00 20.00     0.005 C 
HETATM    5  C6  UNL     1     -34.510   6.104   1.371  1.00 20.00     0.027 C 
HETATM    6  C7  UNL     1     -32.636   5.343   2.856  1.00 20.00     0.031 C 
HETATM    7  C8  UNL     1     -31.708   5.336   1.639  1.00 20.00    -0.006 C 
HETATM    8  C9  UNL     1     -33.574   6.507   2.520  1.00 20.00     0.097 C 
HETATM    9  O10 UNL     1     -32.721   8.723   1.976  1.00 20.00    -0.297 OA
ENDROOT
BRANCH   8  10
HETATM   10  C2  UNL     1     -34.329   6.947   3.731  1.00 20.00     0.234 C 
HETATM   11  O11 UNL     1     -35.473   6.561   3.954  1.00 20.00    -0.279 OA
HETATM   12 CL12 UNL     1     -33.399   8.027   4.725  1.00 20.00    -0.043 Cl
ENDBRANCH   8  10
TORSDOF 1
ENDMDL
