MODEL 1
REMARK VINA RESULT:      -1.9      0.000      0.000
REMARK  2 active torsions:
REMARK  status: ('A' for Active; 'I' for Inactive)
REMARK    1  A    between atoms: C4_4  and  C6_6 
REMARK    2  A    between atoms: C7_7  and  C9_9 
ROOT
HETATM    1  C1  UNL     1     -34.593   7.453   4.268  1.00 20.00    -0.003 C 
HETATM    2  C2  UNL     1     -33.645   8.068   3.376  1.00 20.00     0.011 C 
HETATM    3  C3  UNL     1     -34.840   6.137   4.231  1.00 20.00    -0.021 C 
HETATM    4  C4  UNL     1     -32.862   7.327   2.577  1.00 20.00    -0.012 C 
HETATM    5  C8  UNL     1     -34.161   5.203   3.258  1.00 20.00     0.016 C 
HETATM    6  C9  UNL     1     -32.917   5.815   2.531  1.00 20.00     0.051 C 
HETATM    7  C10 UNL     1     -33.776   3.896   3.963  1.00 20.00     0.015 C 
ENDROOT
BRANCH   4   8
HETATM    8  C6  UNL     1     -31.869   8.059   1.782  1.00 20.00     0.266 C 
HETATM    9  O11 UNL     1     -32.180   8.922   0.970  1.00 20.00    -0.302 OA
ENDBRANCH   4   8
BRANCH   6  10
HETATM   10  C7  UNL     1     -32.870   5.287   1.122  1.00 20.00    -0.027 C 
HETATM   11  C5  UNL     1     -31.812   4.666   0.592  1.00 20.00     0.007 C 
ENDBRANCH   6  10
TORSDOF 2
ENDMDL
MODEL 2
REMARK VINA RESULT:      -1.5      2.201      3.467
REMARK  2 active torsions:
REMARK  status: ('A' for Active; 'I' for Inactive)
REMARK    1  A    between atoms: C4_4  and  C6_6 
REMARK    2  A    between atoms: C7_7  and  C9_9 
ROOT
HETATM    1  C1  UNL     1     -32.734   8.519   4.640  1.00 20.00    -0.003 C 
HETATM    2  C2  UNL     1     -33.804   7.558   4.700  1.00 20.00     0.011 C 
HETATM    3  C3  UNL     1     -31.970   8.652   3.548  1.00 20.00    -0.021 C 
HETATM    4  C4  UNL     1     -34.175   6.863   3.614  1.00 20.00    -0.012 C 
HETATM    5  C8  UNL     1     -32.158   7.809   2.309  1.00 20.00     0.016 C 
HETATM    6  C9  UNL     1     -33.505   7.013   2.265  1.00 20.00     0.051 C 
HETATM    7  C10 UNL     1     -32.011   8.677   1.053  1.00 20.00     0.015 C 
ENDROOT
BRANCH   4   8
HETATM    8  C6  UNL     1     -35.338   5.983   3.773  1.00 20.00     0.266 C 
HETATM    9  O11 UNL     1     -35.313   4.975   4.470  1.00 20.00    -0.302 OA
ENDBRANCH   4   8
BRANCH   6  10
HETATM   10  C7  UNL     1     -33.261   5.683   1.601  1.00 20.00    -0.027 C 
HETATM   11  C5  UNL     1     -32.046   5.185   1.350  1.00 20.00     0.007 C 
ENDBRANCH   6  10
TORSDOF 2
ENDMDL
MODEL 3
REMARK VINA RESULT:      -0.9      1.057      3.051
REMARK  2 active torsions:
REMARK  status: ('A' for Active; 'I' for Inactive)
REMARK    1  A    between atoms: C4_4  and  C6_6 
REMARK    2  A    between atoms: C7_7  and  C9_9 
ROOT
HETATM    1  C1  UNL     1     -32.749   5.188   1.553  1.00 20.00    -0.003 C 
HETATM    2  C2  UNL     1     -32.131   6.443   1.211  1.00 20.00     0.011 C 
HETATM    3  C3  UNL     1     -33.565   5.071   2.608  1.00 20.00    -0.021 C 
HETATM    4  C4  UNL     1     -32.466   7.576   1.845  1.00 20.00    -0.012 C 
HETATM    5  C8  UNL     1     -33.893   6.229   3.521  1.00 20.00     0.016 C 
HETATM    6  C9  UNL     1     -33.488   7.632   2.961  1.00 20.00     0.051 C 
HETATM    7  C10 UNL     1     -35.385   6.209   3.880  1.00 20.00     0.015 C 
ENDROOT
BRANCH   4   8
HETATM    8  C6  UNL     1     -31.841   8.807   1.346  1.00 20.00     0.266 C 
HETATM    9  O11 UNL     1     -32.377   9.529   0.514  1.00 20.00    -0.302 OA
ENDBRANCH   4   8
BRANCH   6  10
HETATM   10  C7  UNL     1     -33.032   8.498   4.105  1.00 20.00    -0.027 C 
HETATM   11  C5  UNL     1     -33.172   8.170   5.393  1.00 20.00     0.007 C 
ENDBRANCH   6  10
TORSDOF 2
ENDMDL
MODEL 4
REMARK VINA RESULT:      -0.5      2.079      3.377
REMARK  2 active torsions:
REMARK  status: ('A' for Active; 'I' for Inactive)
REMARK    1  A    between atoms: C4_4  and  C6_6 
REMARK    2  A    between atoms: C7_7  and  C9_9 
ROOT
HETATM    1  C1  UNL     1     -33.743   8.136   4.191  1.00 20.00    -0.003 C 
HETATM    2  C2  UNL     1     -34.110   6.744   4.206  1.00 20.00     0.011 C 
HETATM    3  C3  UNL     1     -32.916   8.634   3.263  1.00 20.00    -0.021 C 
HETATM    4  C4  UNL     1     -33.759   5.923   3.206  1.00 20.00    -0.012 C 
HETATM    5  C8  UNL     1     -32.299   7.786   2.176  1.00 20.00     0.016 C 
HETATM    6  C9  UNL     1     -32.951   6.373   2.007  1.00 20.00     0.051 C 
HETATM    7  C10 UNL     1     -32.319   8.544   0.842  1.00 20.00     0.015 C 
ENDROOT
BRANCH   4   8
HETATM    8  C6  UNL     1     -34.271   4.550   3.284  1.00 20.00     0.266 C 
HETATM    9  O11 UNL     1     -34.149   3.856   4.286  1.00 20.00    -0.302 OA
ENDBRANCH   4   8
BRANCH   6  10
HETATM   10  C7  UNL     1     -31.876   5.383   1.643  1.00 20.00    -0.027 C 
HETATM   11  C5  UNL     1     -31.875   4.662   0.518  1.00 20.00     0.007 C 
ENDBRANCH   6  10
TORSDOF 2
ENDMDL
MODEL 5
REMARK VINA RESULT:      -0.4      1.692      3.204
REMARK  2 active torsions:
REMARK  status: ('A' for Active; 'I' for Inactive)
REMARK    1  A    between atoms: C4_4  and  C6_6 
REMARK    2  A    between atoms: C7_7  and  C9_9 
ROOT
HETATM    1  C1  UNL     1     -31.723   7.681   1.756  1.00 20.00    -0.003 C 
HETATM    2  C2  UNL     1     -32.499   8.058   2.908  1.00 20.00     0.011 C 
HETATM    3  C3  UNL     1     -31.886   6.494   1.157  1.00 20.00    -0.021 C 
HETATM    4  C4  UNL     1     -33.519   7.300   3.337  1.00 20.00    -0.012 C 
HETATM    5  C8  UNL     1     -32.878   5.462   1.641  1.00 20.00     0.016 C 
HETATM    6  C9  UNL     1     -33.925   6.002   2.672  1.00 20.00     0.051 C 
HETATM    7  C10 UNL     1     -33.590   4.816   0.446  1.00 20.00     0.015 C 
ENDROOT
BRANCH   4   8
HETATM    8  C6  UNL     1     -34.296   7.834   4.461  1.00 20.00     0.266 C 
HETATM    9  O11 UNL     1     -33.770   8.315   5.457  1.00 20.00    -0.302 OA
ENDBRANCH   4   8
BRANCH   6  10
HETATM   10  C7  UNL     1     -34.222   4.919   3.674  1.00 20.00    -0.027 C 
HETATM   11  C5  UNL     1     -33.420   3.875   3.906  1.00 20.00     0.007 C 
ENDBRANCH   6  10
TORSDOF 2
ENDMDL
MODEL 6
REMARK VINA RESULT:      -0.4      1.829      3.398
REMARK  2 active torsions:
REMARK  status: ('A' for Active; 'I' for Inactive)
REMARK    1  A    between atoms: C4_4  and  C6_6 
REMARK    2  A    between atoms: C7_7  and  C9_9 
ROOT
HETATM    1  C1  UNL     1     -32.269   8.170   1.760  1.00 20.00    -0.003 C 
HETATM    2  C2  UNL     1     -33.225   8.074   2.833  1.00 20.00     0.011 C 
HETATM    3  C3  UNL     1     -31.699   7.081   1.229  1.00 20.00    -0.021 C 
HETATM    4  C4  UNL     1     -33.694   6.885   3.240  1.00 20.00    -0.012 C 
HETATM    5  C8  UNL     1     -31.999   5.681   1.710  1.00 20.00     0.016 C 
HETATM    6  C9  UNL     1     -33.258   5.569   2.633  1.00 20.00     0.051 C 
HETATM    7  C10 UNL     1     -32.128   4.729   0.514  1.00 20.00     0.015 C 
ENDROOT
BRANCH   4   8
HETATM    8  C6  UNL     1     -34.734   6.918   4.275  1.00 20.00     0.266 C 
HETATM    9  O11 UNL     1     -35.747   6.233   4.214  1.00 20.00    -0.302 OA
ENDBRANCH   4   8
BRANCH   6  10
HETATM   10  C7  UNL     1     -32.999   4.518   3.680  1.00 20.00    -0.027 C 
HETATM   11  C5  UNL     1     -33.870   3.558   4.006  1.00 20.00     0.007 C 
ENDBRANCH   6  10
TORSDOF 2
ENDMDL
MODEL 7
REMARK VINA RESULT:       0.0      2.208      4.327
REMARK  2 active torsions:
REMARK  status: ('A' for Active; 'I' for Inactive)
REMARK    1  A    between atoms: C4_4  and  C6_6 
REMARK    2  A    between atoms: C7_7  and  C9_9 
ROOT
HETATM    1  C1  UNL     1     -32.083   5.797   1.030  1.00 20.00    -0.003 C 
HETATM    2  C2  UNL     1     -32.823   4.864   1.840  1.00 20.00     0.011 C 
HETATM    3  C3  UNL     1     -32.049   7.104   1.318  1.00 20.00    -0.021 C 
HETATM    4  C4  UNL     1     -33.383   5.243   2.999  1.00 20.00    -0.012 C 
HETATM    5  C8  UNL     1     -32.781   7.703   2.496  1.00 20.00     0.016 C 
HETATM    6  C9  UNL     1     -33.301   6.656   3.537  1.00 20.00     0.051 C 
HETATM    7  C10 UNL     1     -31.899   8.750   3.188  1.00 20.00     0.015 C 
ENDROOT
BRANCH   4   8
HETATM    8  C6  UNL     1     -34.029   4.185   3.784  1.00 20.00     0.266 C 
HETATM    9  O11 UNL     1     -33.398   3.406   4.487  1.00 20.00    -0.302 OA
ENDBRANCH   4   8
BRANCH   6  10
HETATM   10  C7  UNL     1     -34.620   7.132   4.086  1.00 20.00    -0.027 C 
HETATM   11  C5  UNL     1     -35.804   6.628   3.727  1.00 20.00     0.007 C 
ENDBRANCH   6  10
TORSDOF 2
ENDMDL
MODEL 8
REMARK VINA RESULT:       0.1      1.768      3.583
REMARK  2 active torsions:
REMARK  status: ('A' for Active; 'I' for Inactive)
REMARK    1  A    between atoms: C4_4  and  C6_6 
REMARK    2  A    between atoms: C7_7  and  C9_9 
ROOT
HETATM    1  C1  UNL     1     -31.789   8.313   1.785  1.00 20.00    -0.003 C 
HETATM    2  C2  UNL     1     -32.134   7.009   1.281  1.00 20.00     0.011 C 
HETATM    3  C3  UNL     1     -32.347   8.805   2.898  1.00 20.00    -0.021 C 
HETATM    4  C4  UNL     1     -32.914   6.176   1.985  1.00 20.00    -0.012 C 
HETATM    5  C8  UNL     1     -33.379   8.048   3.701  1.00 20.00     0.016 C 
HETATM    6  C9  UNL     1     -33.501   6.531   3.335  1.00 20.00     0.051 C 
HETATM    7  C10 UNL     1     -33.105   8.214   5.202  1.00 20.00     0.015 C 
ENDROOT
BRANCH   4   8
HETATM    8  C6  UNL     1     -33.119   4.841   1.414  1.00 20.00     0.266 C 
HETATM    9  O11 UNL     1     -32.753   4.543   0.283  1.00 20.00    -0.302 OA
ENDBRANCH   4   8
BRANCH   6  10
HETATM   10  C7  UNL     1     -34.943   6.117   3.454  1.00 20.00    -0.027 C 
HETATM   11  C5  UNL     1     -35.424   5.361   4.446  1.00 20.00     0.007 C 
ENDBRANCH   6  10
TORSDOF 2
ENDMDL
MODEL 9
REMARK VINA RESULT:       0.8      1.620      3.024
REMARK  2 active torsions:
REMARK  status: ('A' for Active; 'I' for Inactive)
REMARK    1  A    between atoms: C4_4  and  C6_6 
REMARK    2  A    between atoms: C7_7  and  C9_9 
ROOT
HETATM    1  C1  UNL     1     -34.331   4.823   3.499  1.00 20.00    -0.003 C 
HETATM    2  C2  UNL     1     -34.395   6.119   4.122  1.00 20.00     0.011 C 
HETATM    3  C3  UNL     1     -33.656   4.624   2.360  1.00 20.00    -0.021 C 
HETATM    4  C4  UNL     1     -33.658   7.144   3.669  1.00 20.00    -0.012 C 
HETATM    5  C8  UNL     1     -32.923   5.730   1.638  1.00 20.00     0.016 C 
HETATM    6  C9  UNL     1     -32.728   7.035   2.480  1.00 20.00     0.051 C 
HETATM    7  C10 UNL     1     -31.570   5.219   1.126  1.00 20.00     0.015 C 
ENDROOT
BRANCH   4   8
HETATM    8  C6  UNL     1     -33.734   8.389   4.442  1.00 20.00     0.266 C 
HETATM    9  O11 UNL     1     -33.115   8.557   5.485  1.00 20.00    -0.302 OA
ENDBRANCH   4   8
BRANCH   6  10
HETATM   10  C7  UNL     1     -32.836   8.224   1.563  1.00 20.00    -0.027 C 
HETATM   11  C5  UNL     1     -31.788   8.833   1.000  1.00 20.00     0.007 C 
ENDBRANCH   6  10
TORSDOF 2
ENDMDL
