MODEL 1
REMARK VINA RESULT:       2.2      0.000      0.000
REMARK  1 active torsions:
REMARK  status: ('A' for Active; 'I' for Inactive)
REMARK    1  A    between atoms: C3_3  and  C8_8 
ROOT
HETATM    1  C1  UNL     1     -32.680   8.471   2.039  1.00 20.00    -0.079 C 
HETATM    2  C2  UNL     1     -32.048   9.008   0.993  1.00 20.00    -0.028 C 
HETATM    3  C4  UNL     1     -34.044   8.864   2.550  1.00 20.00     0.039 C 
HETATM    4  C5  UNL     1     -32.730   7.899   4.292  1.00 20.00     0.014 C 
HETATM    5  C6  UNL     1     -34.337   6.461   3.268  1.00 20.00     0.019 C 
HETATM    6  C7  UNL     1     -32.141   7.402   2.968  1.00 20.00     0.027 C 
HETATM    7  C8  UNL     1     -32.929   6.095   2.766  1.00 20.00     0.081 C 
HETATM    8  C9  UNL     1     -34.167   7.916   3.760  1.00 20.00    -0.009 C 
HETATM    9  C10 UNL     1     -32.609  10.106   0.151  1.00 20.00     0.036 C 
ENDROOT
BRANCH   7  10
HETATM   10  C3  UNL     1     -32.916   5.595   1.354  1.00 20.00     0.223 C 
HETATM   11  O11 UNL     1     -33.889   5.722   0.617  1.00 20.00    -0.279 OA
HETATM   12 CL12 UNL     1     -31.402   4.852   0.937  1.00 20.00    -0.043 Cl
ENDBRANCH   7  10
TORSDOF 1
ENDMDL
MODEL 2
REMARK VINA RESULT:       2.4      1.917      3.821
REMARK  1 active torsions:
REMARK  status: ('A' for Active; 'I' for Inactive)
REMARK    1  A    between atoms: C3_3  and  C8_8 
ROOT
HETATM    1  C1  UNL     1     -33.907   5.100   3.844  1.00 20.00    -0.079 C 
HETATM    2  C2  UNL     1     -33.796   3.773   3.941  1.00 20.00    -0.028 C 
HETATM    3  C4  UNL     1     -33.372   6.110   4.830  1.00 20.00     0.039 C 
HETATM    4  C5  UNL     1     -35.218   7.006   3.613  1.00 20.00     0.014 C 
HETATM    5  C6  UNL     1     -33.049   7.673   2.873  1.00 20.00     0.019 C 
HETATM    6  C7  UNL     1     -34.641   5.869   2.765  1.00 20.00     0.027 C 
HETATM    7  C8  UNL     1     -33.628   6.635   1.894  1.00 20.00     0.081 C 
HETATM    8  C9  UNL     1     -33.852   7.418   4.170  1.00 20.00    -0.009 C 
HETATM    9  C10 UNL     1     -33.112   3.071   5.066  1.00 20.00     0.036 C 
ENDROOT
BRANCH   7  10
HETATM   10  C3  UNL     1     -32.583   5.761   1.274  1.00 20.00     0.223 C 
HETATM   11  O11 UNL     1     -31.391   5.894   1.537  1.00 20.00    -0.279 OA
HETATM   12 CL12 UNL     1     -33.269   4.592   0.187  1.00 20.00    -0.043 Cl
ENDBRANCH   7  10
TORSDOF 1
ENDMDL
MODEL 3
REMARK VINA RESULT:       2.6      2.307      3.537
REMARK  1 active torsions:
REMARK  status: ('A' for Active; 'I' for Inactive)
REMARK    1  A    between atoms: C3_3  and  C8_8 
ROOT
HETATM    1  C1  UNL     1     -33.413   5.956   2.186  1.00 20.00    -0.079 C 
HETATM    2  C2  UNL     1     -32.725   5.614   1.095  1.00 20.00    -0.028 C 
HETATM    3  C4  UNL     1     -33.451   5.194   3.488  1.00 20.00     0.039 C 
HETATM    4  C5  UNL     1     -35.422   6.510   3.216  1.00 20.00     0.014 C 
HETATM    5  C6  UNL     1     -33.741   7.418   4.646  1.00 20.00     0.019 C 
HETATM    6  C7  UNL     1     -34.344   7.143   2.331  1.00 20.00     0.027 C 
HETATM    7  C8  UNL     1     -33.730   8.168   3.302  1.00 20.00     0.081 C 
HETATM    8  C9  UNL     1     -34.424   6.077   4.294  1.00 20.00    -0.009 C 
HETATM    9  C10 UNL     1     -31.870   4.394   0.993  1.00 20.00     0.036 C 
ENDROOT
BRANCH   7  10
HETATM   10  C3  UNL     1     -32.366   8.639   2.899  1.00 20.00     0.223 C 
HETATM   11  O11 UNL     1     -31.444   8.707   3.705  1.00 20.00    -0.279 OA
HETATM   12 CL12 UNL     1     -32.287   9.049   1.212  1.00 20.00    -0.043 Cl
ENDBRANCH   7  10
TORSDOF 1
ENDMDL
MODEL 4
REMARK VINA RESULT:       3.1      2.394      3.470
REMARK  1 active torsions:
REMARK  status: ('A' for Active; 'I' for Inactive)
REMARK    1  A    between atoms: C3_3  and  C8_8 
ROOT
HETATM    1  C1  UNL     1     -33.328   7.477   3.460  1.00 20.00    -0.079 C 
HETATM    2  C2  UNL     1     -33.795   7.961   4.614  1.00 20.00    -0.028 C 
HETATM    3  C4  UNL     1     -31.911   7.598   2.956  1.00 20.00     0.039 C 
HETATM    4  C5  UNL     1     -33.438   7.321   1.143  1.00 20.00     0.014 C 
HETATM    5  C6  UNL     1     -32.249   5.367   1.824  1.00 20.00     0.019 C 
HETATM    6  C7  UNL     1     -34.128   6.762   2.391  1.00 20.00     0.027 C 
HETATM    7  C8  UNL     1     -33.702   5.284   2.327  1.00 20.00     0.081 C 
HETATM    8  C9  UNL     1     -32.043   6.882   1.597  1.00 20.00    -0.009 C 
HETATM    9  C10 UNL     1     -32.967   8.714   5.601  1.00 20.00     0.036 C 
ENDROOT
BRANCH   7  10
HETATM   10  C3  UNL     1     -33.835   4.560   3.631  1.00 20.00     0.223 C 
HETATM   11  O11 UNL     1     -32.988   3.757   4.012  1.00 20.00    -0.279 OA
HETATM   12 CL12 UNL     1     -35.285   5.002   4.479  1.00 20.00    -0.043 Cl
ENDBRANCH   7  10
TORSDOF 1
ENDMDL
MODEL 5
REMARK VINA RESULT:       3.2      2.005      3.301
REMARK  1 active torsions:
REMARK  status: ('A' for Active; 'I' for Inactive)
REMARK    1  A    between atoms: C3_3  and  C8_8 
ROOT
HETATM    1  C1  UNL     1     -33.114   5.830   1.076  1.00 20.00    -0.079 C 
HETATM    2  C2  UNL     1     -33.497   4.670   0.538  1.00 20.00    -0.028 C 
HETATM    3  C4  UNL     1     -33.371   7.202   0.504  1.00 20.00     0.039 C 
HETATM    4  C5  UNL     1     -31.445   7.216   1.912  1.00 20.00     0.014 C 
HETATM    5  C6  UNL     1     -33.460   8.047   2.882  1.00 20.00     0.019 C 
HETATM    6  C7  UNL     1     -32.293   6.013   2.336  1.00 20.00     0.027 C 
HETATM    7  C8  UNL     1     -33.167   6.642   3.437  1.00 20.00     0.081 C 
HETATM    8  C9  UNL     1     -32.662   8.076   1.558  1.00 20.00    -0.009 C 
HETATM    9  C10 UNL     1     -34.254   4.552  -0.744  1.00 20.00     0.036 C 
ENDROOT
BRANCH   7  10
HETATM   10  C3  UNL     1     -34.404   5.858   3.747  1.00 20.00     0.223 C 
HETATM   11  O11 UNL     1     -35.515   6.382   3.751  1.00 20.00    -0.279 OA
HETATM   12 CL12 UNL     1     -34.055   4.189   4.079  1.00 20.00    -0.043 Cl
ENDBRANCH   7  10
TORSDOF 1
ENDMDL
MODEL 6
REMARK VINA RESULT:       3.2      2.348      3.413
REMARK  1 active torsions:
REMARK  status: ('A' for Active; 'I' for Inactive)
REMARK    1  A    between atoms: C3_3  and  C8_8 
ROOT
HETATM    1  C1  UNL     1     -33.491   7.055   3.091  1.00 20.00    -0.079 C 
HETATM    2  C2  UNL     1     -34.044   7.754   4.085  1.00 20.00    -0.028 C 
HETATM    3  C4  UNL     1     -32.045   7.114   2.662  1.00 20.00     0.039 C 
HETATM    4  C5  UNL     1     -33.439   6.415   0.857  1.00 20.00     0.014 C 
HETATM    5  C6  UNL     1     -32.264   4.686   2.007  1.00 20.00     0.019 C 
HETATM    6  C7  UNL     1     -34.203   6.106   2.148  1.00 20.00     0.027 C 
HETATM    7  C8  UNL     1     -33.745   4.662   2.424  1.00 20.00     0.081 C 
HETATM    8  C9  UNL     1     -32.070   6.125   1.479  1.00 20.00    -0.009 C 
HETATM    9  C10 UNL     1     -33.300   8.724   4.941  1.00 20.00     0.036 C 
ENDROOT
BRANCH   7  10
HETATM   10  C3  UNL     1     -33.954   4.223   3.841  1.00 20.00     0.223 C 
HETATM   11  O11 UNL     1     -34.990   4.478   4.448  1.00 20.00    -0.279 OA
HETATM   12 CL12 UNL     1     -32.589   3.346   4.462  1.00 20.00    -0.043 Cl
ENDBRANCH   7  10
TORSDOF 1
ENDMDL
MODEL 7
REMARK VINA RESULT:       3.4      1.515      3.148
REMARK  1 active torsions:
REMARK  status: ('A' for Active; 'I' for Inactive)
REMARK    1  A    between atoms: C3_3  and  C8_8 
ROOT
HETATM    1  C1  UNL     1     -33.780   7.216   2.898  1.00 20.00    -0.079 C 
HETATM    2  C2  UNL     1     -34.841   6.454   3.176  1.00 20.00    -0.028 C 
HETATM    3  C4  UNL     1     -32.834   7.823   3.903  1.00 20.00     0.039 C 
HETATM    4  C5  UNL     1     -32.850   9.089   1.881  1.00 20.00     0.014 C 
HETATM    5  C6  UNL     1     -31.020   7.584   2.164  1.00 20.00     0.019 C 
HETATM    6  C7  UNL     1     -33.339   7.682   1.525  1.00 20.00     0.027 C 
HETATM    7  C8  UNL     1     -32.013   6.996   1.146  1.00 20.00     0.081 C 
HETATM    8  C9  UNL     1     -31.885   8.588   2.960  1.00 20.00    -0.009 C 
HETATM    9  C10 UNL     1     -35.262   6.081   4.559  1.00 20.00     0.036 C 
ENDROOT
BRANCH   7  10
HETATM   10  C3  UNL     1     -32.078   5.500   1.180  1.00 20.00     0.223 C 
HETATM   11  O11 UNL     1     -31.256   4.833   1.803  1.00 20.00    -0.279 OA
HETATM   12 CL12 UNL     1     -33.414   4.881   0.259  1.00 20.00    -0.043 Cl
ENDBRANCH   7  10
TORSDOF 1
ENDMDL
MODEL 8
REMARK VINA RESULT:       3.5      2.126      3.034
REMARK  1 active torsions:
REMARK  status: ('A' for Active; 'I' for Inactive)
REMARK    1  A    between atoms: C3_3  and  C8_8 
ROOT
HETATM    1  C1  UNL     1     -32.755   7.458   1.225  1.00 20.00    -0.079 C 
HETATM    2  C2  UNL     1     -33.107   8.715   0.943  1.00 20.00    -0.028 C 
HETATM    3  C4  UNL     1     -31.369   6.984   1.587  1.00 20.00     0.039 C 
HETATM    4  C5  UNL     1     -32.653   5.209   0.642  1.00 20.00     0.014 C 
HETATM    5  C6  UNL     1     -32.473   5.225   3.021  1.00 20.00     0.019 C 
HETATM    6  C7  UNL     1     -33.652   6.237   1.182  1.00 20.00     0.027 C 
HETATM    7  C8  UNL     1     -33.876   5.709   2.611  1.00 20.00     0.081 C 
HETATM    8  C9  UNL     1     -31.630   5.474   1.750  1.00 20.00    -0.009 C 
HETATM    9  C10 UNL     1     -32.160   9.868   0.941  1.00 20.00     0.036 C 
ENDROOT
BRANCH   7  10
HETATM   10  C3  UNL     1     -34.448   6.727   3.548  1.00 20.00     0.223 C 
HETATM   11  O11 UNL     1     -35.658   6.836   3.720  1.00 20.00    -0.279 OA
HETATM   12 CL12 UNL     1     -33.212   7.677   4.315  1.00 20.00    -0.043 Cl
ENDBRANCH   7  10
TORSDOF 1
ENDMDL
MODEL 9
REMARK VINA RESULT:       3.6      2.307      3.646
REMARK  1 active torsions:
REMARK  status: ('A' for Active; 'I' for Inactive)
REMARK    1  A    between atoms: C3_3  and  C8_8 
ROOT
HETATM    1  C1  UNL     1     -32.765   7.365   3.003  1.00 20.00    -0.079 C 
HETATM    2  C2  UNL     1     -32.792   8.131   4.097  1.00 20.00    -0.028 C 
HETATM    3  C4  UNL     1     -33.851   6.418   2.556  1.00 20.00     0.039 C 
HETATM    4  C5  UNL     1     -31.730   5.744   1.697  1.00 20.00     0.014 C 
HETATM    5  C6  UNL     1     -33.150   6.922   0.184  1.00 20.00     0.019 C 
HETATM    6  C7  UNL     1     -31.622   7.238   2.017  1.00 20.00     0.027 C 
HETATM    7  C8  UNL     1     -32.029   7.859   0.668  1.00 20.00     0.081 C 
HETATM    8  C9  UNL     1     -33.202   5.838   1.284  1.00 20.00    -0.009 C 
HETATM    9  C10 UNL     1     -33.926   8.165   5.067  1.00 20.00     0.036 C 
ENDROOT
BRANCH   7  10
HETATM   10  C3  UNL     1     -32.458   9.291   0.769  1.00 20.00     0.223 C 
HETATM   11  O11 UNL     1     -32.462   9.889   1.841  1.00 20.00    -0.279 OA
HETATM   12 CL12 UNL     1     -32.920   9.945  -0.773  1.00 20.00    -0.043 Cl
ENDBRANCH   7  10
TORSDOF 1
ENDMDL
