MODEL 1
REMARK VINA RESULT:      -1.9      0.000      0.000
REMARK  1 active torsions:
REMARK  status: ('A' for Active; 'I' for Inactive)
REMARK    1  A    between atoms: C3_3  and  C4_4 
ROOT
HETATM    1  C1  UNL     1     -32.808   5.804   1.818  1.00 20.00     0.142 A 
HETATM    2  C2  UNL     1     -33.217   7.629   3.149  1.00 20.00     0.087 A 
HETATM    3  C3  UNL     1     -33.521   6.301   2.946  1.00 20.00     0.052 A 
HETATM    4  N5  UNL     1     -32.009   6.654   1.178  1.00 20.00    -0.223 NA
HETATM    5  S7  UNL     1     -32.101   8.124   1.948  1.00 20.00    -0.000 SA
ENDROOT
BRANCH   3   6
HETATM    6  C4  UNL     1     -34.431   5.560   3.776  1.00 20.00     0.254 C 
HETATM    7  O6  UNL     1     -35.516   6.085   4.135  1.00 20.00    -0.274 OA
HETATM    8 CL8  UNL     1     -34.068   3.902   4.317  1.00 20.00    -0.038 Cl
ENDBRANCH   3   6
TORSDOF 1
ENDMDL
MODEL 2
REMARK VINA RESULT:      -1.7      0.879      1.443
REMARK  1 active torsions:
REMARK  status: ('A' for Active; 'I' for Inactive)
REMARK    1  A    between atoms: C3_3  and  C4_4 
ROOT
HETATM    1  C1  UNL     1     -33.172   7.724   3.395  1.00 20.00     0.142 A 
HETATM    2  C2  UNL     1     -32.926   6.014   1.883  1.00 20.00     0.087 A 
HETATM    3  C3  UNL     1     -33.547   6.394   3.053  1.00 20.00     0.052 A 
HETATM    4  N5  UNL     1     -32.331   8.351   2.576  1.00 20.00    -0.223 NA
HETATM    5  S7  UNL     1     -31.959   7.314   1.331  1.00 20.00    -0.000 SA
ENDROOT
BRANCH   3   6
HETATM    6  C4  UNL     1     -34.437   5.540   3.791  1.00 20.00     0.254 C 
HETATM    7  O6  UNL     1     -35.564   5.972   4.146  1.00 20.00    -0.274 OA
HETATM    8 CL8  UNL     1     -33.991   3.871   4.225  1.00 20.00    -0.038 Cl
ENDBRANCH   3   6
TORSDOF 1
ENDMDL
MODEL 3
REMARK VINA RESULT:      -1.2      1.720      1.998
REMARK  1 active torsions:
REMARK  status: ('A' for Active; 'I' for Inactive)
REMARK    1  A    between atoms: C3_3  and  C4_4 
ROOT
HETATM    1  C1  UNL     1     -32.418   7.923   2.377  1.00 20.00     0.142 A 
HETATM    2  C2  UNL     1     -33.183   5.766   2.186  1.00 20.00     0.087 A 
HETATM    3  C3  UNL     1     -33.315   6.943   2.890  1.00 20.00     0.052 A 
HETATM    4  N5  UNL     1     -31.641   7.564   1.358  1.00 20.00    -0.223 NA
HETATM    5  S7  UNL     1     -31.985   5.982   0.981  1.00 20.00    -0.000 SA
ENDROOT
BRANCH   3   6
HETATM    6  C4  UNL     1     -34.237   7.116   3.979  1.00 20.00     0.254 C 
HETATM    7  O6  UNL     1     -34.097   8.086   4.766  1.00 20.00    -0.274 OA
HETATM    8 CL8  UNL     1     -35.588   5.987   4.251  1.00 20.00    -0.038 Cl
ENDBRANCH   3   6
TORSDOF 1
ENDMDL
MODEL 4
REMARK VINA RESULT:      -1.1      1.486      1.502
REMARK  1 active torsions:
REMARK  status: ('A' for Active; 'I' for Inactive)
REMARK    1  A    between atoms: C3_3  and  C4_4 
ROOT
HETATM    1  C1  UNL     1     -33.098   5.890   2.083  1.00 20.00     0.142 A 
HETATM    2  C2  UNL     1     -32.547   8.075   2.524  1.00 20.00     0.087 A 
HETATM    3  C3  UNL     1     -33.339   7.019   2.917  1.00 20.00     0.052 A 
HETATM    4  N5  UNL     1     -32.198   6.030   1.112  1.00 20.00    -0.223 NA
HETATM    5  S7  UNL     1     -31.600   7.579   1.186  1.00 20.00    -0.000 SA
ENDROOT
BRANCH   3   6
HETATM    6  C4  UNL     1     -34.262   7.086   4.017  1.00 20.00     0.254 C 
HETATM    7  O6  UNL     1     -34.153   8.007   4.866  1.00 20.00    -0.274 OA
HETATM    8 CL8  UNL     1     -35.571   5.894   4.216  1.00 20.00    -0.038 Cl
ENDBRANCH   3   6
TORSDOF 1
ENDMDL
MODEL 5
REMARK VINA RESULT:      -1.0      3.749      4.140
REMARK  1 active torsions:
REMARK  status: ('A' for Active; 'I' for Inactive)
REMARK    1  A    between atoms: C3_3  and  C4_4 
ROOT
HETATM    1  C1  UNL     1     -33.660   8.030   3.758  1.00 20.00     0.142 A 
HETATM    2  C2  UNL     1     -33.536   6.126   2.479  1.00 20.00     0.087 A 
HETATM    3  C3  UNL     1     -33.071   7.416   2.616  1.00 20.00     0.052 A 
HETATM    4  N5  UNL     1     -34.517   7.300   4.468  1.00 20.00    -0.223 NA
HETATM    5  S7  UNL     1     -34.636   5.805   3.752  1.00 20.00    -0.000 SA
ENDROOT
BRANCH   3   6
HETATM    6  C4  UNL     1     -32.127   8.018   1.715  1.00 20.00     0.254 C 
HETATM    7  O6  UNL     1     -30.988   7.504   1.570  1.00 20.00    -0.274 OA
HETATM    8 CL8  UNL     1     -32.523   9.485   0.785  1.00 20.00    -0.038 Cl
ENDBRANCH   3   6
TORSDOF 1
ENDMDL
MODEL 6
REMARK VINA RESULT:      -0.9      3.491      3.677
REMARK  1 active torsions:
REMARK  status: ('A' for Active; 'I' for Inactive)
REMARK    1  A    between atoms: C3_3  and  C4_4 
ROOT
HETATM    1  C1  UNL     1     -33.685   4.636   3.364  1.00 20.00     0.142 A 
HETATM    2  C2  UNL     1     -34.366   6.828   3.362  1.00 20.00     0.087 A 
HETATM    3  C3  UNL     1     -33.466   5.935   2.824  1.00 20.00     0.052 A 
HETATM    4  N5  UNL     1     -34.668   4.502   4.252  1.00 20.00    -0.223 NA
HETATM    5  S7  UNL     1     -35.376   5.991   4.462  1.00 20.00    -0.000 SA
ENDROOT
BRANCH   3   6
HETATM    6  C4  UNL     1     -32.466   6.301   1.860  1.00 20.00     0.254 C 
HETATM    7  O6  UNL     1     -31.927   5.412   1.151  1.00 20.00    -0.274 OA
HETATM    8 CL8  UNL     1     -31.958   7.993   1.631  1.00 20.00    -0.038 Cl
ENDBRANCH   3   6
TORSDOF 1
ENDMDL
MODEL 7
REMARK VINA RESULT:      -0.8      3.245      3.618
REMARK  1 active torsions:
REMARK  status: ('A' for Active; 'I' for Inactive)
REMARK    1  A    between atoms: C3_3  and  C4_4 
ROOT
HETATM    1  C1  UNL     1     -33.533   7.773   3.646  1.00 20.00     0.142 A 
HETATM    2  C2  UNL     1     -34.094   5.667   2.923  1.00 20.00     0.087 A 
HETATM    3  C3  UNL     1     -33.233   6.725   2.730  1.00 20.00     0.052 A 
HETATM    4  N5  UNL     1     -34.541   7.573   4.493  1.00 20.00    -0.223 NA
HETATM    5  S7  UNL     1     -35.171   6.065   4.194  1.00 20.00    -0.000 SA
ENDROOT
BRANCH   3   6
HETATM    6  C4  UNL     1     -32.194   6.731   1.737  1.00 20.00     0.254 C 
HETATM    7  O6  UNL     1     -31.620   7.810   1.441  1.00 20.00    -0.274 OA
HETATM    8 CL8  UNL     1     -31.687   5.241   0.902  1.00 20.00    -0.038 Cl
ENDBRANCH   3   6
TORSDOF 1
ENDMDL
MODEL 8
REMARK VINA RESULT:      -0.8      3.636      3.853
REMARK  1 active torsions:
REMARK  status: ('A' for Active; 'I' for Inactive)
REMARK    1  A    between atoms: C3_3  and  C4_4 
ROOT
HETATM    1  C1  UNL     1     -33.223   5.836   2.380  1.00 20.00     0.142 A 
HETATM    2  C2  UNL     1     -33.851   7.775   3.438  1.00 20.00     0.087 A 
HETATM    3  C3  UNL     1     -33.021   7.243   2.475  1.00 20.00     0.052 A 
HETATM    4  N5  UNL     1     -34.128   5.293   3.190  1.00 20.00    -0.223 NA
HETATM    5  S7  UNL     1     -34.781   6.508   4.118  1.00 20.00    -0.000 SA
ENDROOT
BRANCH   3   6
HETATM    6  C4  UNL     1     -32.100   8.028   1.701  1.00 20.00     0.254 C 
HETATM    7  O6  UNL     1     -30.893   7.682   1.629  1.00 20.00    -0.274 OA
HETATM    8 CL8  UNL     1     -32.620   9.492   0.828  1.00 20.00    -0.038 Cl
ENDBRANCH   3   6
TORSDOF 1
ENDMDL
MODEL 9
REMARK VINA RESULT:      -0.5      3.263      3.461
REMARK  1 active torsions:
REMARK  status: ('A' for Active; 'I' for Inactive)
REMARK    1  A    between atoms: C3_3  and  C4_4 
ROOT
HETATM    1  C1  UNL     1     -33.704   4.679   3.372  1.00 20.00     0.142 A 
HETATM    2  C2  UNL     1     -34.391   6.870   3.373  1.00 20.00     0.087 A 
HETATM    3  C3  UNL     1     -33.490   5.979   2.832  1.00 20.00     0.052 A 
HETATM    4  N5  UNL     1     -34.684   4.542   4.262  1.00 20.00    -0.223 NA
HETATM    5  S7  UNL     1     -35.396   6.029   4.475  1.00 20.00    -0.000 SA
ENDROOT
BRANCH   3   6
HETATM    6  C4  UNL     1     -32.493   6.349   1.865  1.00 20.00     0.254 C 
HETATM    7  O6  UNL     1     -32.171   7.557   1.732  1.00 20.00    -0.274 OA
HETATM    8 CL8  UNL     1     -31.689   5.136   0.837  1.00 20.00    -0.038 Cl
ENDBRANCH   3   6
TORSDOF 1
ENDMDL
