MODEL 1
REMARK VINA RESULT:      -2.2      0.000      0.000
REMARK  3 active torsions:
REMARK  status: ('A' for Active; 'I' for Inactive)
REMARK    1  A    between atoms: C7_7  and  C8_8 
REMARK    2  A    between atoms: C8_8  and  C9_9 
REMARK    3  A    between atoms: C9_9  and  N10_10 
ROOT
HETATM    1  C1  UNL     1     -32.805  10.309  -0.362  1.00 20.00     0.012 C 
HETATM    2  C3  UNL     1     -32.254   9.510   0.345  1.00 20.00    -0.117 C 
HETATM    3  C7  UNL     1     -31.576   8.531   1.205  1.00 20.00     0.096 C 
ENDROOT
BRANCH   3   4
HETATM    4  C8  UNL     1     -32.347   8.264   2.505  1.00 20.00     0.061 C 
BRANCH   4   5
HETATM    5  C9  UNL     1     -33.398   7.142   2.407  1.00 20.00     0.300 C 
HETATM    6  C4  UNL     1     -32.856   5.948   1.737  1.00 20.00    -0.081 C 
HETATM    7  C2  UNL     1     -32.420   4.974   1.186  1.00 20.00     0.014 C 
BRANCH   5   8
HETATM    8  N10 UNL     1     -33.836   6.783   3.758  1.00 20.00     0.095 N 
HETATM    9  C5  UNL     1     -35.221   6.315   3.737  1.00 20.00     0.310 C 
HETATM   10  C6  UNL     1     -33.694   7.925   4.659  1.00 20.00     0.310 C 
ENDBRANCH   5   8
ENDBRANCH   4   5
ENDBRANCH   3   4
TORSDOF 3
ENDMDL
MODEL 2
REMARK VINA RESULT:      -1.5      0.816      1.151
REMARK  3 active torsions:
REMARK  status: ('A' for Active; 'I' for Inactive)
REMARK    1  A    between atoms: C7_7  and  C8_8 
REMARK    2  A    between atoms: C8_8  and  C9_9 
REMARK    3  A    between atoms: C9_9  and  N10_10 
ROOT
HETATM    1  C1  UNL     1     -32.712  10.255  -0.117  1.00 20.00     0.012 C 
HETATM    2  C3  UNL     1     -32.196   9.444   0.602  1.00 20.00    -0.117 C 
HETATM    3  C7  UNL     1     -31.558   8.452   1.478  1.00 20.00     0.096 C 
ENDROOT
BRANCH   3   4
HETATM    4  C8  UNL     1     -32.523   7.906   2.541  1.00 20.00     0.061 C 
BRANCH   4   5
HETATM    5  C9  UNL     1     -33.449   6.779   2.047  1.00 20.00     0.300 C 
HETATM    6  C4  UNL     1     -32.683   5.659   1.475  1.00 20.00    -0.081 C 
HETATM    7  C2  UNL     1     -32.061   4.746   1.003  1.00 20.00     0.014 C 
BRANCH   5   8
HETATM    8  N10 UNL     1     -34.249   6.294   3.175  1.00 20.00     0.095 N 
HETATM    9  C5  UNL     1     -34.284   7.293   4.241  1.00 20.00     0.310 C 
HETATM   10  C6  UNL     1     -33.710   5.030   3.673  1.00 20.00     0.310 C 
ENDBRANCH   5   8
ENDBRANCH   4   5
ENDBRANCH   3   4
TORSDOF 3
ENDMDL
MODEL 3
REMARK VINA RESULT:      -1.5      1.993      5.036
REMARK  3 active torsions:
REMARK  status: ('A' for Active; 'I' for Inactive)
REMARK    1  A    between atoms: C7_7  and  C8_8 
REMARK    2  A    between atoms: C8_8  and  C9_9 
REMARK    3  A    between atoms: C9_9  and  N10_10 
ROOT
HETATM    1  C1  UNL     1     -33.161   2.775   4.812  1.00 20.00     0.012 C 
HETATM    2  C3  UNL     1     -33.749   3.760   4.455  1.00 20.00    -0.117 C 
HETATM    3  C7  UNL     1     -34.471   4.964   4.024  1.00 20.00     0.096 C 
ENDROOT
BRANCH   3   4
HETATM    4  C8  UNL     1     -33.999   5.468   2.653  1.00 20.00     0.061 C 
BRANCH   4   5
HETATM    5  C9  UNL     1     -33.631   6.964   2.613  1.00 20.00     0.300 C 
HETATM    6  C4  UNL     1     -33.693   7.573   3.953  1.00 20.00    -0.081 C 
HETATM    7  C2  UNL     1     -33.748   8.074   5.043  1.00 20.00     0.014 C 
BRANCH   5   8
HETATM    8  N10 UNL     1     -32.274   7.104   2.079  1.00 20.00     0.095 N 
HETATM    9  C5  UNL     1     -32.137   8.371   1.363  1.00 20.00     0.310 C 
HETATM   10  C6  UNL     1     -31.954   5.981   1.201  1.00 20.00     0.310 C 
ENDBRANCH   5   8
ENDBRANCH   4   5
ENDBRANCH   3   4
TORSDOF 3
ENDMDL
MODEL 4
REMARK VINA RESULT:      -1.3      1.097      2.398
REMARK  3 active torsions:
REMARK  status: ('A' for Active; 'I' for Inactive)
REMARK    1  A    between atoms: C7_7  and  C8_8 
REMARK    2  A    between atoms: C8_8  and  C9_9 
REMARK    3  A    between atoms: C9_9  and  N10_10 
ROOT
HETATM    1  C1  UNL     1     -32.573   9.948   0.047  1.00 20.00     0.012 C 
HETATM    2  C3  UNL     1     -32.246   9.044   0.767  1.00 20.00    -0.117 C 
HETATM    3  C7  UNL     1     -31.840   7.940   1.647  1.00 20.00     0.096 C 
ENDROOT
BRANCH   3   4
HETATM    4  C8  UNL     1     -32.938   6.877   1.795  1.00 20.00     0.061 C 
BRANCH   4   5
HETATM    5  C9  UNL     1     -33.171   6.394   3.239  1.00 20.00     0.300 C 
HETATM    6  C4  UNL     1     -33.387   7.524   4.160  1.00 20.00    -0.081 C 
HETATM    7  C2  UNL     1     -33.558   8.442   4.915  1.00 20.00     0.014 C 
BRANCH   5   8
HETATM    8  N10 UNL     1     -34.346   5.518   3.263  1.00 20.00     0.095 N 
HETATM    9  C5  UNL     1     -35.471   6.193   3.907  1.00 20.00     0.310 C 
HETATM   10  C6  UNL     1     -34.034   4.268   3.952  1.00 20.00     0.310 C 
ENDBRANCH   5   8
ENDBRANCH   4   5
ENDBRANCH   3   4
TORSDOF 3
ENDMDL
MODEL 5
REMARK VINA RESULT:      -1.2      1.694      4.412
REMARK  3 active torsions:
REMARK  status: ('A' for Active; 'I' for Inactive)
REMARK    1  A    between atoms: C7_7  and  C8_8 
REMARK    2  A    between atoms: C8_8  and  C9_9 
REMARK    3  A    between atoms: C9_9  and  N10_10 
ROOT
HETATM    1  C1  UNL     1     -33.309   3.118   4.477  1.00 20.00     0.012 C 
HETATM    2  C3  UNL     1     -34.129   3.995   4.509  1.00 20.00    -0.117 C 
HETATM    3  C7  UNL     1     -35.136   5.064   4.553  1.00 20.00     0.096 C 
ENDROOT
BRANCH   3   4
HETATM    4  C8  UNL     1     -34.893   6.138   3.483  1.00 20.00     0.061 C 
BRANCH   4   5
HETATM    5  C9  UNL     1     -33.411   6.369   3.132  1.00 20.00     0.300 C 
HETATM    6  C4  UNL     1     -33.073   5.809   1.812  1.00 20.00    -0.081 C 
HETATM    7  C2  UNL     1     -32.792   5.350   0.739  1.00 20.00     0.014 C 
BRANCH   5   8
HETATM    8  N10 UNL     1     -33.142   7.809   3.132  1.00 20.00     0.095 N 
HETATM    9  C5  UNL     1     -32.033   8.121   2.231  1.00 20.00     0.310 C 
HETATM   10  C6  UNL     1     -32.850   8.273   4.486  1.00 20.00     0.310 C 
ENDBRANCH   5   8
ENDBRANCH   4   5
ENDBRANCH   3   4
TORSDOF 3
ENDMDL
MODEL 6
REMARK VINA RESULT:      -0.9      1.577      4.094
REMARK  3 active torsions:
REMARK  status: ('A' for Active; 'I' for Inactive)
REMARK    1  A    between atoms: C7_7  and  C8_8 
REMARK    2  A    between atoms: C8_8  and  C9_9 
REMARK    3  A    between atoms: C9_9  and  N10_10 
ROOT
HETATM    1  C1  UNL     1     -35.406   5.877   4.047  1.00 20.00     0.012 C 
HETATM    2  C3  UNL     1     -34.550   6.719   4.028  1.00 20.00    -0.117 C 
HETATM    3  C7  UNL     1     -33.502   7.749   4.012  1.00 20.00     0.096 C 
ENDROOT
BRANCH   3   4
HETATM    4  C8  UNL     1     -33.428   8.484   2.666  1.00 20.00     0.061 C 
BRANCH   4   5
HETATM    5  C9  UNL     1     -32.218   8.102   1.793  1.00 20.00     0.300 C 
HETATM    6  C4  UNL     1     -32.203   6.661   1.489  1.00 20.00    -0.081 C 
HETATM    7  C2  UNL     1     -32.184   5.485   1.243  1.00 20.00     0.014 C 
BRANCH   5   8
HETATM    8  N10 UNL     1     -32.277   8.861   0.542  1.00 20.00     0.095 N 
HETATM    9  C5  UNL     1     -30.980   8.833  -0.133  1.00 20.00     0.310 C 
HETATM   10  C6  UNL     1     -32.691  10.239   0.801  1.00 20.00     0.310 C 
ENDBRANCH   5   8
ENDBRANCH   4   5
ENDBRANCH   3   4
TORSDOF 3
ENDMDL
MODEL 7
REMARK VINA RESULT:      -0.7      1.795      4.444
REMARK  3 active torsions:
REMARK  status: ('A' for Active; 'I' for Inactive)
REMARK    1  A    between atoms: C7_7  and  C8_8 
REMARK    2  A    between atoms: C8_8  and  C9_9 
REMARK    3  A    between atoms: C9_9  and  N10_10 
ROOT
HETATM    1  C1  UNL     1     -33.163   2.942   4.522  1.00 20.00     0.012 C 
HETATM    2  C3  UNL     1     -34.002   3.801   4.511  1.00 20.00    -0.117 C 
HETATM    3  C7  UNL     1     -35.031   4.849   4.501  1.00 20.00     0.096 C 
ENDROOT
BRANCH   3   4
HETATM    4  C8  UNL     1     -34.699   5.985   3.523  1.00 20.00     0.061 C 
BRANCH   4   5
HETATM    5  C9  UNL     1     -33.206   6.102   3.161  1.00 20.00     0.300 C 
HETATM    6  C4  UNL     1     -32.958   5.729   1.758  1.00 20.00    -0.081 C 
HETATM    7  C2  UNL     1     -32.751   5.420   0.615  1.00 20.00     0.014 C 
BRANCH   5   8
HETATM    8  N10 UNL     1     -32.773   7.484   3.379  1.00 20.00     0.095 N 
HETATM    9  C5  UNL     1     -33.822   8.247   4.052  1.00 20.00     0.310 C 
HETATM   10  C6  UNL     1     -32.416   8.112   2.108  1.00 20.00     0.310 C 
ENDBRANCH   5   8
ENDBRANCH   4   5
ENDBRANCH   3   4
TORSDOF 3
ENDMDL
MODEL 8
REMARK VINA RESULT:      -0.7      1.217      1.633
REMARK  3 active torsions:
REMARK  status: ('A' for Active; 'I' for Inactive)
REMARK    1  A    between atoms: C7_7  and  C8_8 
REMARK    2  A    between atoms: C8_8  and  C9_9 
REMARK    3  A    between atoms: C9_9  and  N10_10 
ROOT
HETATM    1  C1  UNL     1     -32.569  10.118   0.455  1.00 20.00     0.012 C 
HETATM    2  C3  UNL     1     -32.252   9.013   0.804  1.00 20.00    -0.117 C 
HETATM    3  C7  UNL     1     -31.862   7.661   1.226  1.00 20.00     0.096 C 
ENDROOT
BRANCH   3   4
HETATM    4  C8  UNL     1     -32.333   7.335   2.650  1.00 20.00     0.061 C 
BRANCH   4   5
HETATM    5  C9  UNL     1     -33.652   6.543   2.722  1.00 20.00     0.300 C 
HETATM    6  C4  UNL     1     -33.438   5.177   3.230  1.00 20.00    -0.081 C 
HETATM    7  C2  UNL     1     -33.266   4.061   3.639  1.00 20.00     0.014 C 
BRANCH   5   8
HETATM    8  N10 UNL     1     -34.581   7.249   3.608  1.00 20.00     0.095 N 
HETATM    9  C5  UNL     1     -33.852   7.908   4.690  1.00 20.00     0.310 C 
HETATM   10  C6  UNL     1     -35.574   6.322   4.147  1.00 20.00     0.310 C 
ENDBRANCH   5   8
ENDBRANCH   4   5
ENDBRANCH   3   4
TORSDOF 3
ENDMDL
MODEL 9
REMARK VINA RESULT:      -0.2      1.223      2.567
REMARK  3 active torsions:
REMARK  status: ('A' for Active; 'I' for Inactive)
REMARK    1  A    between atoms: C7_7  and  C8_8 
REMARK    2  A    between atoms: C8_8  and  C9_9 
REMARK    3  A    between atoms: C9_9  and  N10_10 
ROOT
HETATM    1  C1  UNL     1     -32.758  10.278  -0.500  1.00 20.00     0.012 C 
HETATM    2  C3  UNL     1     -32.444   9.660   0.481  1.00 20.00    -0.117 C 
HETATM    3  C7  UNL     1     -32.058   8.910   1.684  1.00 20.00     0.096 C 
ENDROOT
BRANCH   3   4
HETATM    4  C8  UNL     1     -32.102   7.391   1.464  1.00 20.00     0.061 C 
BRANCH   4   5
HETATM    5  C9  UNL     1     -32.633   6.586   2.665  1.00 20.00     0.300 C 
HETATM    6  C4  UNL     1     -33.536   7.393   3.502  1.00 20.00    -0.081 C 
HETATM    7  C2  UNL     1     -34.269   8.050   4.191  1.00 20.00     0.014 C 
BRANCH   5   8
HETATM    8  N10 UNL     1     -33.355   5.412   2.166  1.00 20.00     0.095 N 
HETATM    9  C5  UNL     1     -33.618   4.474   3.256  1.00 20.00     0.310 C 
HETATM   10  C6  UNL     1     -32.594   4.762   1.101  1.00 20.00     0.310 C 
ENDBRANCH   5   8
ENDBRANCH   4   5
ENDBRANCH   3   4
TORSDOF 3
ENDMDL
