MODEL 1
REMARK VINA RESULT:      -2.1      0.000      0.000
REMARK  3 active torsions:
REMARK  status: ('A' for Active; 'I' for Inactive)
REMARK    1  A    between atoms: C1_1  and  C7_7 
REMARK    2  A    between atoms: C2_2  and  C8_8 
REMARK    3  A    between atoms: C4_4  and  C9_9 
ROOT
HETATM    1  C8  UNL     1     -32.188   5.933   1.937  1.00 20.00     0.233 A 
HETATM    2  C9  UNL     1     -33.339   5.558   2.813  1.00 20.00     0.186 A 
HETATM    3  O10 UNL     1     -33.328   5.269   1.407  1.00 20.00    -0.358 OA
ENDROOT
BRANCH   1   4
HETATM    4  C2  UNL     1     -32.062   7.287   1.399  1.00 20.00    -0.071 C 
HETATM    5  C1  UNL     1     -31.959   8.399   0.958  1.00 20.00    -0.099 C 
BRANCH   5   6
HETATM    6  C7  UNL     1     -31.834   9.752   0.419  1.00 20.00     0.065 A 
HETATM    7  C5  UNL     1     -32.892  10.743   0.770  1.00 20.00     0.018 A 
HETATM    8  C6  UNL     1     -32.813  10.184  -0.619  1.00 20.00     0.018 A 
ENDBRANCH   5   6
ENDBRANCH   1   4
BRANCH   2   9
HETATM    9  C4  UNL     1     -34.209   6.568   3.398  1.00 20.00    -0.002 C 
HETATM   10  C3  UNL     1     -35.337   6.291   4.062  1.00 20.00     0.009 C 
ENDBRANCH   2   9
TORSDOF 3
ENDMDL
MODEL 2
REMARK VINA RESULT:      -1.1      1.988      2.951
REMARK  3 active torsions:
REMARK  status: ('A' for Active; 'I' for Inactive)
REMARK    1  A    between atoms: C1_1  and  C7_7 
REMARK    2  A    between atoms: C2_2  and  C8_8 
REMARK    3  A    between atoms: C4_4  and  C9_9 
ROOT
HETATM    1  C8  UNL     1     -35.235   6.166   3.695  1.00 20.00     0.233 A 
HETATM    2  C9  UNL     1     -35.039   4.800   4.267  1.00 20.00     0.186 A 
HETATM    3  O10 UNL     1     -35.103   5.970   5.097  1.00 20.00    -0.358 OA
ENDROOT
BRANCH   1   4
HETATM    4  C2  UNL     1     -34.108   6.924   3.154  1.00 20.00    -0.071 C 
HETATM    5  C1  UNL     1     -33.181   7.547   2.710  1.00 20.00    -0.099 C 
BRANCH   5   6
HETATM    6  C7  UNL     1     -32.055   8.305   2.169  1.00 20.00     0.065 A 
HETATM    7  C5  UNL     1     -32.297   9.146   0.962  1.00 20.00     0.018 A 
HETATM    8  C6  UNL     1     -31.497   7.883   0.853  1.00 20.00     0.018 A 
ENDBRANCH   5   6
ENDBRANCH   1   4
BRANCH   2   9
HETATM    9  C4  UNL     1     -33.805   4.057   4.056  1.00 20.00    -0.002 C 
HETATM   10  C3  UNL     1     -33.401   3.042   4.827  1.00 20.00     0.009 C 
ENDBRANCH   2   9
TORSDOF 3
ENDMDL
MODEL 3
REMARK VINA RESULT:      -0.9      1.530      4.823
REMARK  3 active torsions:
REMARK  status: ('A' for Active; 'I' for Inactive)
REMARK    1  A    between atoms: C1_1  and  C7_7 
REMARK    2  A    between atoms: C2_2  and  C8_8 
REMARK    3  A    between atoms: C4_4  and  C9_9 
ROOT
HETATM    1  C8  UNL     1     -31.698   7.300   1.448  1.00 20.00     0.233 A 
HETATM    2  C9  UNL     1     -31.566   8.586   0.699  1.00 20.00     0.186 A 
HETATM    3  O10 UNL     1     -30.804   8.314   1.885  1.00 20.00    -0.358 OA
ENDROOT
BRANCH   1   4
HETATM    4  C2  UNL     1     -32.784   7.096   2.407  1.00 20.00    -0.071 C 
HETATM    5  C1  UNL     1     -33.676   6.929   3.194  1.00 20.00    -0.099 C 
BRANCH   5   6
HETATM    6  C7  UNL     1     -34.761   6.726   4.151  1.00 20.00     0.065 A 
HETATM    7  C5  UNL     1     -35.211   5.328   4.409  1.00 20.00     0.018 A 
HETATM    8  C6  UNL     1     -36.079   6.267   3.625  1.00 20.00     0.018 A 
ENDBRANCH   5   6
ENDBRANCH   1   4
BRANCH   2   9
HETATM    9  C4  UNL     1     -32.645   9.562   0.668  1.00 20.00    -0.002 C 
HETATM   10  C3  UNL     1     -32.714  10.574  -0.204  1.00 20.00     0.009 C 
ENDBRANCH   2   9
TORSDOF 3
ENDMDL
MODEL 4
REMARK VINA RESULT:      -0.3      2.258      5.335
REMARK  3 active torsions:
REMARK  status: ('A' for Active; 'I' for Inactive)
REMARK    1  A    between atoms: C1_1  and  C7_7 
REMARK    2  A    between atoms: C2_2  and  C8_8 
REMARK    3  A    between atoms: C4_4  and  C9_9 
ROOT
HETATM    1  C8  UNL     1     -33.053   6.262   1.608  1.00 20.00     0.233 A 
HETATM    2  C9  UNL     1     -32.572   7.635   1.951  1.00 20.00     0.186 A 
HETATM    3  O10 UNL     1     -31.669   6.586   1.570  1.00 20.00    -0.358 OA
ENDROOT
BRANCH   1   4
HETATM    4  C2  UNL     1     -33.342   5.283   2.655  1.00 20.00    -0.071 C 
HETATM    5  C1  UNL     1     -33.580   4.479   3.516  1.00 20.00    -0.099 C 
BRANCH   5   6
HETATM    6  C7  UNL     1     -33.869   3.502   4.563  1.00 20.00     0.065 A 
HETATM    7  C5  UNL     1     -32.767   3.136   5.498  1.00 20.00     0.018 A 
HETATM    8  C6  UNL     1     -33.230   2.159   4.460  1.00 20.00     0.018 A 
ENDBRANCH   5   6
ENDBRANCH   1   4
BRANCH   2   9
HETATM    9  C4  UNL     1     -32.646   8.148   3.312  1.00 20.00    -0.002 C 
HETATM   10  C3  UNL     1     -33.743   8.092   4.075  1.00 20.00     0.009 C 
ENDBRANCH   2   9
TORSDOF 3
ENDMDL
MODEL 5
REMARK VINA RESULT:       0.7      2.405      5.761
REMARK  3 active torsions:
REMARK  status: ('A' for Active; 'I' for Inactive)
REMARK    1  A    between atoms: C1_1  and  C7_7 
REMARK    2  A    between atoms: C2_2  and  C8_8 
REMARK    3  A    between atoms: C4_4  and  C9_9 
ROOT
HETATM    1  C8  UNL     1     -34.972   6.890   4.036  1.00 20.00     0.233 A 
HETATM    2  C9  UNL     1     -34.127   7.907   3.339  1.00 20.00     0.186 A 
HETATM    3  O10 UNL     1     -35.183   7.206   2.666  1.00 20.00    -0.358 OA
ENDROOT
BRANCH   1   4
HETATM    4  C2  UNL     1     -34.508   5.514   4.201  1.00 20.00    -0.071 C 
HETATM    5  C1  UNL     1     -34.127   4.382   4.336  1.00 20.00    -0.099 C 
BRANCH   5   6
HETATM    6  C7  UNL     1     -33.664   3.005   4.501  1.00 20.00     0.065 A 
HETATM    7  C5  UNL     1     -32.770   2.704   5.655  1.00 20.00     0.018 A 
HETATM    8  C6  UNL     1     -32.221   2.721   4.260  1.00 20.00     0.018 A 
ENDBRANCH   5   6
ENDBRANCH   1   4
BRANCH   2   9
HETATM    9  C4  UNL     1     -32.720   7.663   3.058  1.00 20.00    -0.002 C 
HETATM   10  C3  UNL     1     -32.177   7.736   1.838  1.00 20.00     0.009 C 
ENDBRANCH   2   9
TORSDOF 3
ENDMDL
MODEL 6
REMARK VINA RESULT:       0.8      2.186      4.612
REMARK  3 active torsions:
REMARK  status: ('A' for Active; 'I' for Inactive)
REMARK    1  A    between atoms: C1_1  and  C7_7 
REMARK    2  A    between atoms: C2_2  and  C8_8 
REMARK    3  A    between atoms: C4_4  and  C9_9 
ROOT
HETATM    1  C8  UNL     1     -31.983   8.361   2.392  1.00 20.00     0.233 A 
HETATM    2  C9  UNL     1     -31.282   7.611   1.307  1.00 20.00     0.186 A 
HETATM    3  O10 UNL     1     -32.322   8.559   1.026  1.00 20.00    -0.358 OA
ENDROOT
BRANCH   1   4
HETATM    4  C2  UNL     1     -33.088   7.755   3.133  1.00 20.00    -0.071 C 
HETATM    5  C1  UNL     1     -33.996   7.256   3.742  1.00 20.00    -0.099 C 
BRANCH   5   6
HETATM    6  C7  UNL     1     -35.100   6.648   4.482  1.00 20.00     0.065 A 
HETATM    7  C5  UNL     1     -35.170   5.160   4.533  1.00 20.00     0.018 A 
HETATM    8  C6  UNL     1     -36.151   5.933   3.704  1.00 20.00     0.018 A 
ENDBRANCH   5   6
ENDBRANCH   1   4
BRANCH   2   9
HETATM    9  C4  UNL     1     -31.463   6.176   1.136  1.00 20.00    -0.002 C 
HETATM   10  C3  UNL     1     -32.628   5.601   0.821  1.00 20.00     0.009 C 
ENDBRANCH   2   9
TORSDOF 3
ENDMDL
MODEL 7
REMARK VINA RESULT:       0.9      1.554      2.139
REMARK  3 active torsions:
REMARK  status: ('A' for Active; 'I' for Inactive)
REMARK    1  A    between atoms: C1_1  and  C7_7 
REMARK    2  A    between atoms: C2_2  and  C8_8 
REMARK    3  A    between atoms: C4_4  and  C9_9 
ROOT
HETATM    1  C8  UNL     1     -32.316   6.139   2.149  1.00 20.00     0.233 A 
HETATM    2  C9  UNL     1     -32.968   4.999   1.436  1.00 20.00     0.186 A 
HETATM    3  O10 UNL     1     -31.541   5.143   1.495  1.00 20.00    -0.358 OA
ENDROOT
BRANCH   1   4
HETATM    4  C2  UNL     1     -32.165   7.442   1.502  1.00 20.00    -0.071 C 
HETATM    5  C1  UNL     1     -32.041   8.513   0.972  1.00 20.00    -0.099 C 
BRANCH   5   6
HETATM    6  C7  UNL     1     -31.891   9.815   0.326  1.00 20.00     0.065 A 
HETATM    7  C5  UNL     1     -32.896  10.870   0.642  1.00 20.00     0.018 A 
HETATM    8  C6  UNL     1     -32.898  10.205  -0.702  1.00 20.00     0.018 A 
ENDBRANCH   5   6
ENDBRANCH   1   4
BRANCH   2   9
HETATM    9  C4  UNL     1     -33.727   5.203   0.210  1.00 20.00    -0.002 C 
HETATM   10  C3  UNL     1     -34.094   4.217  -0.616  1.00 20.00     0.009 C 
ENDBRANCH   2   9
TORSDOF 3
ENDMDL
