MODEL 1
REMARK VINA RESULT:      -2.3      0.000      0.000
REMARK  0 active torsions:
REMARK  status: ('A' for Active; 'I' for Inactive)
ROOT
HETATM    1  C1  UNL     1     -33.041   5.672   1.828  1.00 20.00     0.131 A 
HETATM    2  C2  UNL     1     -31.771   7.615   1.686  1.00 20.00     0.233 A 
HETATM    3  C3  UNL     1     -33.702   6.280   2.827  1.00 20.00     0.010 A 
HETATM    4  C4  UNL     1     -33.350   7.525   3.191  1.00 20.00     0.070 A 
HETATM    5  C5  UNL     1     -34.732   6.258   3.829  1.00 20.00     0.017 A 
HETATM    6  C6  UNL     1     -34.380   7.525   4.207  1.00 20.00     0.033 A 
HETATM    7  N7  UNL     1     -32.034   6.347   1.220  1.00 20.00    -0.253 NA
HETATM    8  N8  UNL     1     -32.398   8.283   2.685  1.00 20.00    -0.241 NA
ENDROOT
TORSDOF 0
ENDMDL
MODEL 2
REMARK VINA RESULT:      -2.3      0.931      1.839
REMARK  0 active torsions:
REMARK  status: ('A' for Active; 'I' for Inactive)
ROOT
HETATM    1  C1  UNL     1     -32.356   8.205   2.587  1.00 20.00     0.131 A 
HETATM    2  C2  UNL     1     -32.129   6.286   1.293  1.00 20.00     0.233 A 
HETATM    3  C3  UNL     1     -33.356   7.562   3.211  1.00 20.00     0.010 A 
HETATM    4  C4  UNL     1     -33.678   6.313   2.832  1.00 20.00     0.070 A 
HETATM    5  C5  UNL     1     -34.386   7.543   4.214  1.00 20.00     0.017 A 
HETATM    6  C6  UNL     1     -34.720   6.273   3.834  1.00 20.00     0.033 A 
HETATM    7  N7  UNL     1     -31.704   7.561   1.587  1.00 20.00    -0.253 NA
HETATM    8  N8  UNL     1     -33.127   5.583   1.883  1.00 20.00    -0.241 NA
ENDROOT
TORSDOF 0
ENDMDL
MODEL 3
REMARK VINA RESULT:      -1.4      1.544      3.295
REMARK  0 active torsions:
REMARK  status: ('A' for Active; 'I' for Inactive)
ROOT
HETATM    1  C1  UNL     1     -33.714   8.051   3.706  1.00 20.00     0.131 A 
HETATM    2  C2  UNL     1     -34.629   5.917   3.847  1.00 20.00     0.233 A 
HETATM    3  C3  UNL     1     -32.949   7.564   2.716  1.00 20.00     0.010 A 
HETATM    4  C4  UNL     1     -33.075   6.276   2.354  1.00 20.00     0.070 A 
HETATM    5  C5  UNL     1     -31.929   7.762   1.722  1.00 20.00     0.017 A 
HETATM    6  C6  UNL     1     -32.051   6.452   1.348  1.00 20.00     0.033 A 
HETATM    7  N7  UNL     1     -34.596   7.214   4.307  1.00 20.00    -0.253 NA
HETATM    8  N8  UNL     1     -33.886   5.366   2.855  1.00 20.00    -0.241 NA
ENDROOT
TORSDOF 0
ENDMDL
MODEL 4
REMARK VINA RESULT:      -1.4      1.584      2.731
REMARK  0 active torsions:
REMARK  status: ('A' for Active; 'I' for Inactive)
ROOT
HETATM    1  C1  UNL     1     -33.775   5.332   2.762  1.00 20.00     0.131 A 
HETATM    2  C2  UNL     1     -34.610   6.914   4.248  1.00 20.00     0.233 A 
HETATM    3  C3  UNL     1     -32.996   6.317   2.286  1.00 20.00     0.010 A 
HETATM    4  C4  UNL     1     -33.076   7.544   2.827  1.00 20.00     0.070 A 
HETATM    5  C5  UNL     1     -31.987   6.768   1.366  1.00 20.00     0.017 A 
HETATM    6  C6  UNL     1     -32.063   8.020   1.911  1.00 20.00     0.033 A 
HETATM    7  N7  UNL     1     -34.621   5.619   3.782  1.00 20.00    -0.253 NA
HETATM    8  N8  UNL     1     -33.851   7.950   3.813  1.00 20.00    -0.241 NA
ENDROOT
TORSDOF 0
ENDMDL
MODEL 5
REMARK VINA RESULT:      -1.1      2.126      3.075
REMARK  0 active torsions:
REMARK  status: ('A' for Active; 'I' for Inactive)
ROOT
HETATM    1  C1  UNL     1     -33.993   4.384   3.500  1.00 20.00     0.131 A 
HETATM    2  C2  UNL     1     -35.227   6.120   4.435  1.00 20.00     0.233 A 
HETATM    3  C3  UNL     1     -33.379   5.329   2.770  1.00 20.00     0.010 A 
HETATM    4  C4  UNL     1     -33.732   6.617   2.922  1.00 20.00     0.070 A 
HETATM    5  C5  UNL     1     -32.404   5.695   1.778  1.00 20.00     0.017 A 
HETATM    6  C6  UNL     1     -32.758   7.008   1.927  1.00 20.00     0.033 A 
HETATM    7  N7  UNL     1     -34.957   4.772   4.372  1.00 20.00    -0.253 NA
HETATM    8  N8  UNL     1     -34.645   7.120   3.728  1.00 20.00    -0.241 NA
ENDROOT
TORSDOF 0
ENDMDL
MODEL 6
REMARK VINA RESULT:      -0.5      1.295      2.677
REMARK  0 active torsions:
REMARK  status: ('A' for Active; 'I' for Inactive)
ROOT
HETATM    1  C1  UNL     1     -32.599   5.570   1.719  1.00 20.00     0.131 A 
HETATM    2  C2  UNL     1     -34.042   6.218   3.424  1.00 20.00     0.233 A 
HETATM    3  C3  UNL     1     -32.140   6.831   1.745  1.00 20.00     0.010 A 
HETATM    4  C4  UNL     1     -32.666   7.710   2.615  1.00 20.00     0.070 A 
HETATM    5  C5  UNL     1     -31.249   7.840   1.238  1.00 20.00     0.017 A 
HETATM    6  C6  UNL     1     -31.780   8.740   2.121  1.00 20.00     0.033 A 
HETATM    7  N7  UNL     1     -33.587   5.228   2.583  1.00 20.00    -0.253 NA
HETATM    8  N8  UNL     1     -33.622   7.505   3.500  1.00 20.00    -0.241 NA
ENDROOT
TORSDOF 0
ENDMDL
MODEL 7
REMARK VINA RESULT:      -0.2      2.159      3.108
REMARK  0 active torsions:
REMARK  status: ('A' for Active; 'I' for Inactive)
ROOT
HETATM    1  C1  UNL     1     -35.406   5.468   4.522  1.00 20.00     0.131 A 
HETATM    2  C2  UNL     1     -33.781   4.044   3.661  1.00 20.00     0.233 A 
HETATM    3  C3  UNL     1     -34.716   6.464   3.944  1.00 20.00     0.010 A 
HETATM    4  C4  UNL     1     -33.596   6.183   3.257  1.00 20.00     0.070 A 
HETATM    5  C5  UNL     1     -34.561   7.865   3.657  1.00 20.00     0.017 A 
HETATM    6  C6  UNL     1     -33.420   7.586   2.957  1.00 20.00     0.033 A 
HETATM    7  N7  UNL     1     -34.938   4.202   4.388  1.00 20.00    -0.253 NA
HETATM    8  N8  UNL     1     -33.040   5.004   3.054  1.00 20.00    -0.241 NA
ENDROOT
TORSDOF 0
ENDMDL
MODEL 8
REMARK VINA RESULT:       0.3      2.745      3.623
REMARK  0 active torsions:
REMARK  status: ('A' for Active; 'I' for Inactive)
ROOT
HETATM    1  C1  UNL     1     -33.351   5.917   2.987  1.00 20.00     0.131 A 
HETATM    2  C2  UNL     1     -35.409   6.170   4.041  1.00 20.00     0.233 A 
HETATM    3  C3  UNL     1     -33.293   4.713   3.580  1.00 20.00     0.010 A 
HETATM    4  C4  UNL     1     -34.304   4.314   4.370  1.00 20.00     0.070 A 
HETATM    5  C5  UNL     1     -32.595   3.480   3.820  1.00 20.00     0.017 A 
HETATM    6  C6  UNL     1     -33.619   3.066   4.626  1.00 20.00     0.033 A 
HETATM    7  N7  UNL     1     -34.443   6.691   3.212  1.00 20.00    -0.253 NA
HETATM    8  N8  UNL     1     -35.410   4.967   4.668  1.00 20.00    -0.241 NA
ENDROOT
TORSDOF 0
ENDMDL
