MODEL 1
REMARK VINA RESULT:      -1.4      0.000      0.000
REMARK  1 active torsions:
REMARK  status: ('A' for Active; 'I' for Inactive)
REMARK    1  A    between atoms: C3_3  and  C4_4 
ROOT
HETATM    1  C1  UNL     1     -32.663   8.370   3.478  1.00 20.00     0.061 C 
HETATM    2  C2  UNL     1     -33.573   7.642   4.131  1.00 20.00     0.087 C 
HETATM    3  C4  UNL     1     -32.406   7.780   2.133  1.00 20.00     0.376 C 
HETATM    4  C5  UNL     1     -34.006   6.495   3.289  1.00 20.00     0.463 C 
HETATM    5  C6  UNL     1     -33.007   5.562   1.249  1.00 20.00     0.324 C 
HETATM    6  N7  UNL     1     -33.450   6.755   1.951  1.00 20.00     0.211 N 
HETATM    7  F9  UNL     1     -31.156   7.248   2.076  1.00 20.00    -0.195 F 
HETATM    8  F10 UNL     1     -33.556   5.322   3.809  1.00 20.00    -0.169 F 
HETATM    9  F11 UNL     1     -35.358   6.402   3.215  1.00 20.00    -0.169 F 
ENDROOT
BRANCH   3  10
HETATM   10  C3  UNL     1     -32.604   8.833   1.094  1.00 20.00     0.312 C 
HETATM   11  O8  UNL     1     -31.727   9.185   0.312  1.00 20.00    -0.301 OA
ENDBRANCH   3  10
TORSDOF 1
ENDMDL
MODEL 2
REMARK VINA RESULT:      -0.7      2.340      3.650
REMARK  1 active torsions:
REMARK  status: ('A' for Active; 'I' for Inactive)
REMARK    1  A    between atoms: C3_3  and  C4_4 
ROOT
HETATM    1  C1  UNL     1     -33.851   7.558   4.044  1.00 20.00     0.061 C 
HETATM    2  C2  UNL     1     -32.875   8.275   3.481  1.00 20.00     0.087 C 
HETATM    3  C4  UNL     1     -34.136   6.347   3.222  1.00 20.00     0.376 C 
HETATM    4  C5  UNL     1     -32.419   7.617   2.228  1.00 20.00     0.463 C 
HETATM    5  C6  UNL     1     -33.455   5.819   0.914  1.00 20.00     0.324 C 
HETATM    6  N7  UNL     1     -33.047   6.285   2.229  1.00 20.00     0.211 N 
HETATM    7  F9  UNL     1     -35.356   6.447   2.631  1.00 20.00    -0.195 F 
HETATM    8  F10 UNL     1     -32.781   8.350   1.142  1.00 20.00    -0.169 F 
HETATM    9  F11 UNL     1     -31.068   7.488   2.186  1.00 20.00    -0.169 F 
ENDROOT
BRANCH   3  10
HETATM   10  C3  UNL     1     -34.042   5.137   4.089  1.00 20.00     0.312 C 
HETATM   11  O8  UNL     1     -35.018   4.506   4.478  1.00 20.00    -0.301 OA
ENDBRANCH   3  10
TORSDOF 1
ENDMDL
MODEL 3
REMARK VINA RESULT:      -0.6      2.108      2.913
REMARK  1 active torsions:
REMARK  status: ('A' for Active; 'I' for Inactive)
REMARK    1  A    between atoms: C3_3  and  C4_4 
ROOT
HETATM    1  C1  UNL     1     -34.029   5.505   2.829  1.00 20.00     0.061 C 
HETATM    2  C2  UNL     1     -34.319   6.355   3.817  1.00 20.00     0.087 C 
HETATM    3  C4  UNL     1     -33.058   6.129   1.885  1.00 20.00     0.376 C 
HETATM    4  C5  UNL     1     -33.577   7.629   3.626  1.00 20.00     0.463 C 
HETATM    5  C6  UNL     1     -32.382   8.487   1.659  1.00 20.00     0.324 C 
HETATM    6  N7  UNL     1     -32.604   7.363   2.554  1.00 20.00     0.211 N 
HETATM    7  F9  UNL     1     -33.653   6.389   0.690  1.00 20.00    -0.195 F 
HETATM    8  F10 UNL     1     -34.430   8.637   3.300  1.00 20.00    -0.169 F 
HETATM    9  F11 UNL     1     -32.925   8.011   4.754  1.00 20.00    -0.169 F 
ENDROOT
BRANCH   3  10
HETATM   10  C3  UNL     1     -31.881   5.226   1.729  1.00 20.00     0.312 C 
HETATM   11  O8  UNL     1     -31.501   4.790   0.648  1.00 20.00    -0.301 OA
ENDBRANCH   3  10
TORSDOF 1
ENDMDL
MODEL 4
REMARK VINA RESULT:      -0.3      2.311      3.774
REMARK  1 active torsions:
REMARK  status: ('A' for Active; 'I' for Inactive)
REMARK    1  A    between atoms: C3_3  and  C4_4 
ROOT
HETATM    1  C1  UNL     1     -33.289   5.792   1.918  1.00 20.00     0.061 C 
HETATM    2  C2  UNL     1     -32.502   6.635   1.245  1.00 20.00     0.087 C 
HETATM    3  C4  UNL     1     -33.660   6.381   3.237  1.00 20.00     0.376 C 
HETATM    4  C5  UNL     1     -32.267   7.863   2.049  1.00 20.00     0.463 C 
HETATM    5  C6  UNL     1     -32.685   8.303   4.429  1.00 20.00     0.324 C 
HETATM    6  N7  UNL     1     -33.210   7.784   3.176  1.00 20.00     0.211 N 
HETATM    7  F9  UNL     1     -33.062   5.699   4.250  1.00 20.00    -0.195 F 
HETATM    8  F10 UNL     1     -30.975   7.922   2.469  1.00 20.00    -0.169 F 
HETATM    9  F11 UNL     1     -32.502   8.992   1.332  1.00 20.00    -0.169 F 
ENDROOT
BRANCH   3  10
HETATM   10  C3  UNL     1     -35.146   6.376   3.371  1.00 20.00     0.312 C 
HETATM   11  O8  UNL     1     -35.738   5.859   4.312  1.00 20.00    -0.301 OA
ENDBRANCH   3  10
TORSDOF 1
ENDMDL
MODEL 5
REMARK VINA RESULT:      -0.1      2.240      3.175
REMARK  1 active torsions:
REMARK  status: ('A' for Active; 'I' for Inactive)
REMARK    1  A    between atoms: C3_3  and  C4_4 
ROOT
HETATM    1  C1  UNL     1     -32.429   8.335   2.211  1.00 20.00     0.061 C 
HETATM    2  C2  UNL     1     -32.036   7.419   1.322  1.00 20.00     0.087 C 
HETATM    3  C4  UNL     1     -33.274   7.698   3.261  1.00 20.00     0.376 C 
HETATM    4  C5  UNL     1     -32.584   6.086   1.688  1.00 20.00     0.463 C 
HETATM    5  C6  UNL     1     -34.354   5.485   3.280  1.00 20.00     0.324 C 
HETATM    6  N7  UNL     1     -33.139   6.246   3.043  1.00 20.00     0.211 N 
HETATM    7  F9  UNL     1     -34.565   8.110   3.151  1.00 20.00    -0.195 F 
HETATM    8  F10 UNL     1     -33.529   5.694   0.793  1.00 20.00    -0.169 F 
HETATM    9  F11 UNL     1     -31.623   5.127   1.695  1.00 20.00    -0.169 F 
ENDROOT
BRANCH   3  10
HETATM   10  C3  UNL     1     -32.706   8.019   4.603  1.00 20.00     0.312 C 
HETATM   11  O8  UNL     1     -33.390   8.356   5.564  1.00 20.00    -0.301 OA
ENDBRANCH   3  10
TORSDOF 1
ENDMDL
MODEL 6
REMARK VINA RESULT:      -0.0      2.526      3.600
REMARK  1 active torsions:
REMARK  status: ('A' for Active; 'I' for Inactive)
REMARK    1  A    between atoms: C3_3  and  C4_4 
ROOT
HETATM    1  C1  UNL     1     -34.497   6.874   3.830  1.00 20.00     0.061 C 
HETATM    2  C2  UNL     1     -33.833   8.032   3.843  1.00 20.00     0.087 C 
HETATM    3  C4  UNL     1     -33.821   5.906   2.919  1.00 20.00     0.376 C 
HETATM    4  C5  UNL     1     -32.656   7.953   2.938  1.00 20.00     0.463 C 
HETATM    5  C6  UNL     1     -32.097   6.303   1.206  1.00 20.00     0.324 C 
HETATM    6  N7  UNL     1     -32.531   6.531   2.575  1.00 20.00     0.211 N 
HETATM    7  F9  UNL     1     -34.584   5.676   1.817  1.00 20.00    -0.195 F 
HETATM    8  F10 UNL     1     -32.835   8.744   1.846  1.00 20.00    -0.169 F 
HETATM    9  F11 UNL     1     -31.518   8.372   3.548  1.00 20.00    -0.169 F 
ENDROOT
BRANCH   3  10
HETATM   10  C3  UNL     1     -33.542   4.647   3.668  1.00 20.00     0.312 C 
HETATM   11  O8  UNL     1     -34.385   4.052   4.330  1.00 20.00    -0.301 OA
ENDBRANCH   3  10
TORSDOF 1
ENDMDL
MODEL 7
REMARK VINA RESULT:       0.0      2.060      2.596
REMARK  1 active torsions:
REMARK  status: ('A' for Active; 'I' for Inactive)
REMARK    1  A    between atoms: C3_3  and  C4_4 
ROOT
HETATM    1  C1  UNL     1     -32.044   7.293   1.546  1.00 20.00     0.061 C 
HETATM    2  C2  UNL     1     -32.488   8.183   2.437  1.00 20.00     0.087 C 
HETATM    3  C4  UNL     1     -32.684   5.967   1.786  1.00 20.00     0.376 C 
HETATM    4  C5  UNL     1     -33.460   7.539   3.360  1.00 20.00     0.463 C 
HETATM    5  C6  UNL     1     -33.944   5.162   3.742  1.00 20.00     0.324 C 
HETATM    6  N7  UNL     1     -33.754   6.223   2.768  1.00 20.00     0.211 N 
HETATM    7  F9  UNL     1     -31.771   5.074   2.251  1.00 20.00    -0.195 F 
HETATM    8  F10 UNL     1     -32.936   7.430   4.609  1.00 20.00    -0.169 F 
HETATM    9  F11 UNL     1     -34.606   8.258   3.472  1.00 20.00    -0.169 F 
ENDROOT
BRANCH   3  10
HETATM   10  C3  UNL     1     -33.319   5.498   0.520  1.00 20.00     0.312 C 
HETATM   11  O8  UNL     1     -33.081   4.410   0.007  1.00 20.00    -0.301 OA
ENDBRANCH   3  10
TORSDOF 1
ENDMDL
MODEL 8
REMARK VINA RESULT:       0.1      2.383      3.340
REMARK  1 active torsions:
REMARK  status: ('A' for Active; 'I' for Inactive)
REMARK    1  A    between atoms: C3_3  and  C4_4 
ROOT
HETATM    1  C1  UNL     1     -33.632   5.233   3.677  1.00 20.00     0.061 C 
HETATM    2  C2  UNL     1     -33.096   4.602   2.629  1.00 20.00     0.087 C 
HETATM    3  C4  UNL     1     -33.639   6.705   3.439  1.00 20.00     0.376 C 
HETATM    4  C5  UNL     1     -32.686   5.590   1.596  1.00 20.00     0.463 C 
HETATM    5  C6  UNL     1     -32.435   8.028   1.747  1.00 20.00     0.324 C 
HETATM    6  N7  UNL     1     -33.272   6.872   2.021  1.00 20.00     0.211 N 
HETATM    7  F9  UNL     1     -32.758   7.326   4.268  1.00 20.00    -0.195 F 
HETATM    8  F10 UNL     1     -31.331   5.655   1.504  1.00 20.00    -0.169 F 
HETATM    9  F11 UNL     1     -33.152   5.258   0.365  1.00 20.00    -0.169 F 
ENDROOT
BRANCH   3  10
HETATM   10  C3  UNL     1     -35.026   7.221   3.624  1.00 20.00     0.312 C 
HETATM   11  O8  UNL     1     -36.018   6.501   3.648  1.00 20.00    -0.301 OA
ENDBRANCH   3  10
TORSDOF 1
ENDMDL
MODEL 9
REMARK VINA RESULT:       1.1      1.577      2.518
REMARK  1 active torsions:
REMARK  status: ('A' for Active; 'I' for Inactive)
REMARK    1  A    between atoms: C3_3  and  C4_4 
ROOT
HETATM    1  C1  UNL     1     -32.834   6.497   1.342  1.00 20.00     0.061 C 
HETATM    2  C2  UNL     1     -33.559   5.517   1.885  1.00 20.00     0.087 C 
HETATM    3  C4  UNL     1     -32.756   7.656   2.278  1.00 20.00     0.376 C 
HETATM    4  C5  UNL     1     -34.041   5.927   3.231  1.00 20.00     0.463 C 
HETATM    5  C6  UNL     1     -34.093   8.144   4.287  1.00 20.00     0.324 C 
HETATM    6  N7  UNL     1     -33.309   7.164   3.553  1.00 20.00     0.211 N 
HETATM    7  F9  UNL     1     -33.462   8.711   1.791  1.00 20.00    -0.195 F 
HETATM    8  F10 UNL     1     -35.387   6.119   3.221  1.00 20.00    -0.169 F 
HETATM    9  F11 UNL     1     -33.782   4.983   4.171  1.00 20.00    -0.169 F 
ENDROOT
BRANCH   3  10
HETATM   10  C3  UNL     1     -31.323   8.007   2.499  1.00 20.00     0.312 C 
HETATM   11  O8  UNL     1     -30.943   8.776   3.375  1.00 20.00    -0.301 OA
ENDBRANCH   3  10
TORSDOF 1
ENDMDL
