MODEL 1
REMARK VINA RESULT:      -0.4      0.000      0.000
REMARK  1 active torsions:
REMARK  status: ('A' for Active; 'I' for Inactive)
REMARK    1  A    between atoms: C1_1  and  C5_5 
ROOT
HETATM    1  C1  UNL     1     -32.467   8.832   1.090  1.00 20.00    -0.068 C 
HETATM    2  C2  UNL     1     -32.680   9.723   0.314  1.00 20.00    -0.108 C 
HETATM    3  C6  UNL     1     -32.941  10.807  -0.631  1.00 20.00     0.112 C 
ENDROOT
BRANCH   1   4
HETATM    4  C5  UNL     1     -32.207   7.756   2.027  1.00 20.00     0.126 C 
HETATM    5  C3  UNL     1     -33.066   6.479   1.794  1.00 20.00     0.057 C 
HETATM    6  C4  UNL     1     -33.474   6.672   3.269  1.00 20.00     0.127 C 
HETATM    7  C7  UNL     1     -32.395   5.164   1.446  1.00 20.00     0.016 C 
HETATM    8  C8  UNL     1     -34.958   6.698   3.572  1.00 20.00     0.040 C 
HETATM    9  O10 UNL     1     -32.918   8.016   3.272  1.00 20.00    -0.362 OA
HETATM   10  C9  UNL     1     -30.718   7.596   2.304  1.00 20.00     0.061 C 
ENDBRANCH   1   4
TORSDOF 1
ENDMDL
MODEL 2
REMARK VINA RESULT:       1.2      1.993      4.845
REMARK  1 active torsions:
REMARK  status: ('A' for Active; 'I' for Inactive)
REMARK    1  A    between atoms: C1_1  and  C5_5 
ROOT
HETATM    1  C1  UNL     1     -33.702   4.846   3.815  1.00 20.00    -0.068 C 
HETATM    2  C2  UNL     1     -33.414   3.842   4.407  1.00 20.00    -0.108 C 
HETATM    3  C6  UNL     1     -33.062   2.619   5.127  1.00 20.00     0.112 C 
ENDROOT
BRANCH   1   4
HETATM    4  C5  UNL     1     -34.052   6.059   3.101  1.00 20.00     0.126 C 
HETATM    5  C3  UNL     1     -33.378   6.199   1.705  1.00 20.00     0.057 C 
HETATM    6  C4  UNL     1     -32.876   7.550   2.255  1.00 20.00     0.127 C 
HETATM    7  C7  UNL     1     -34.228   6.256   0.451  1.00 20.00     0.016 C 
HETATM    8  C8  UNL     1     -31.388   7.818   2.162  1.00 20.00     0.040 C 
HETATM    9  O10 UNL     1     -33.253   7.167   3.607  1.00 20.00    -0.362 OA
HETATM   10  C9  UNL     1     -35.534   6.384   3.234  1.00 20.00     0.061 C 
ENDBRANCH   1   4
TORSDOF 1
ENDMDL
MODEL 3
REMARK VINA RESULT:       1.2      1.133      3.985
REMARK  1 active torsions:
REMARK  status: ('A' for Active; 'I' for Inactive)
REMARK    1  A    between atoms: C1_1  and  C5_5 
ROOT
HETATM    1  C1  UNL     1     -33.608   6.650   2.699  1.00 20.00    -0.068 C 
HETATM    2  C2  UNL     1     -34.497   6.370   3.455  1.00 20.00    -0.108 C 
HETATM    3  C6  UNL     1     -35.580   6.029   4.376  1.00 20.00     0.112 C 
ENDROOT
BRANCH   1   4
HETATM    4  C5  UNL     1     -32.533   6.988   1.786  1.00 20.00     0.126 C 
HETATM    5  C3  UNL     1     -31.745   8.275   2.168  1.00 20.00     0.057 C 
HETATM    6  C4  UNL     1     -32.108   8.734   0.741  1.00 20.00     0.127 C 
HETATM    7  C7  UNL     1     -30.266   8.192   2.495  1.00 20.00     0.016 C 
HETATM    8  C8  UNL     1     -32.769  10.090   0.605  1.00 20.00     0.040 C 
HETATM    9  O10 UNL     1     -33.084   7.663   0.618  1.00 20.00    -0.362 OA
HETATM   10  C9  UNL     1     -31.753   5.754   1.351  1.00 20.00     0.061 C 
ENDBRANCH   1   4
TORSDOF 1
ENDMDL
MODEL 4
REMARK VINA RESULT:       1.4      2.251      4.721
REMARK  1 active torsions:
REMARK  status: ('A' for Active; 'I' for Inactive)
REMARK    1  A    between atoms: C1_1  and  C5_5 
ROOT
HETATM    1  C1  UNL     1     -33.610   4.703   3.542  1.00 20.00    -0.068 C 
HETATM    2  C2  UNL     1     -33.429   3.634   4.058  1.00 20.00    -0.108 C 
HETATM    3  C6  UNL     1     -33.207   2.333   4.686  1.00 20.00     0.112 C 
ENDROOT
BRANCH   1   4
HETATM    4  C5  UNL     1     -33.829   5.995   2.920  1.00 20.00     0.126 C 
HETATM    5  C3  UNL     1     -32.742   7.060   3.251  1.00 20.00     0.057 C 
HETATM    6  C4  UNL     1     -33.940   7.910   3.721  1.00 20.00     0.127 C 
HETATM    7  C7  UNL     1     -31.891   7.648   2.142  1.00 20.00     0.016 C 
HETATM    8  C8  UNL     1     -33.860   8.495   5.116  1.00 20.00     0.040 C 
HETATM    9  O10 UNL     1     -34.810   6.745   3.694  1.00 20.00    -0.362 OA
HETATM   10  C9  UNL     1     -34.302   5.855   1.479  1.00 20.00     0.061 C 
ENDBRANCH   1   4
TORSDOF 1
ENDMDL
MODEL 5
REMARK VINA RESULT:       2.2      1.708      2.377
REMARK  1 active torsions:
REMARK  status: ('A' for Active; 'I' for Inactive)
REMARK    1  A    between atoms: C1_1  and  C5_5 
ROOT
HETATM    1  C1  UNL     1     -32.834   7.875   2.515  1.00 20.00    -0.068 C 
HETATM    2  C2  UNL     1     -32.218   8.313   1.581  1.00 20.00    -0.108 C 
HETATM    3  C6  UNL     1     -31.468   8.846   0.446  1.00 20.00     0.112 C 
ENDROOT
BRANCH   1   4
HETATM    4  C5  UNL     1     -33.577   7.344   3.641  1.00 20.00     0.126 C 
HETATM    5  C3  UNL     1     -34.252   5.967   3.374  1.00 20.00     0.057 C 
HETATM    6  C4  UNL     1     -35.543   6.689   3.811  1.00 20.00     0.127 C 
HETATM    7  C7  UNL     1     -33.850   4.752   4.189  1.00 20.00     0.016 C 
HETATM    8  C8  UNL     1     -36.729   6.601   2.872  1.00 20.00     0.040 C 
HETATM    9  O10 UNL     1     -34.886   7.982   3.701  1.00 20.00    -0.362 OA
HETATM   10  C9  UNL     1     -32.837   7.554   4.955  1.00 20.00     0.061 C 
ENDBRANCH   1   4
TORSDOF 1
ENDMDL
MODEL 6
REMARK VINA RESULT:       2.3      1.662      3.440
REMARK  1 active torsions:
REMARK  status: ('A' for Active; 'I' for Inactive)
REMARK    1  A    between atoms: C1_1  and  C5_5 
ROOT
HETATM    1  C1  UNL     1     -32.384   6.098   1.611  1.00 20.00    -0.068 C 
HETATM    2  C2  UNL     1     -31.767   5.212   1.085  1.00 20.00    -0.108 C 
HETATM    3  C6  UNL     1     -31.015   4.134   0.445  1.00 20.00     0.112 C 
ENDROOT
BRANCH   1   4
HETATM    4  C5  UNL     1     -33.131   7.168   2.244  1.00 20.00     0.126 C 
HETATM    5  C3  UNL     1     -33.148   7.105   3.800  1.00 20.00     0.057 C 
HETATM    6  C4  UNL     1     -34.681   7.136   3.629  1.00 20.00     0.127 C 
HETATM    7  C7  UNL     1     -32.538   8.230   4.613  1.00 20.00     0.016 C 
HETATM    8  C8  UNL     1     -35.471   6.050   4.329  1.00 20.00     0.040 C 
HETATM    9  O10 UNL     1     -34.553   6.853   2.208  1.00 20.00    -0.362 OA
HETATM   10  C9  UNL     1     -32.878   8.509   1.568  1.00 20.00     0.061 C 
ENDBRANCH   1   4
TORSDOF 1
ENDMDL
