MODEL 1
REMARK VINA RESULT:       1.8      0.000      0.000
REMARK  1 active torsions:
REMARK  status: ('A' for Active; 'I' for Inactive)
REMARK    1  A    between atoms: C3_3  and  C7_7 
ROOT
HETATM    1  C1  UNL     1     -32.501   8.949   1.067  1.00 20.00    -0.025 C 
HETATM    2  C2  UNL     1     -33.270   7.860   0.921  1.00 20.00    -0.020 C 
HETATM    3  C4  UNL     1     -31.960   8.404   3.415  1.00 20.00     0.021 C 
HETATM    4  C5  UNL     1     -31.176   7.122   1.567  1.00 20.00     0.022 C 
HETATM    5  C6  UNL     1     -31.372   8.580   1.996  1.00 20.00     0.010 C 
HETATM    6  C7  UNL     1     -32.823   7.117   3.273  1.00 20.00     0.067 C 
HETATM    7  C8  UNL     1     -32.657   6.760   1.769  1.00 20.00    -0.016 C 
HETATM    8  C10 UNL     1     -33.015   5.345   1.374  1.00 20.00     0.020 C 
ENDROOT
BRANCH   6   9
HETATM    9  C3  UNL     1     -34.246   7.341   3.691  1.00 20.00     0.128 C 
HETATM   10  C9  UNL     1     -35.088   6.114   3.910  1.00 20.00     0.091 C 
HETATM   11  O11 UNL     1     -34.702   8.472   3.847  1.00 20.00    -0.298 OA
ENDBRANCH   6   9
TORSDOF 1
ENDMDL
MODEL 2
REMARK VINA RESULT:       2.2      1.926      3.698
REMARK  1 active torsions:
REMARK  status: ('A' for Active; 'I' for Inactive)
REMARK    1  A    between atoms: C3_3  and  C7_7 
ROOT
HETATM    1  C1  UNL     1     -33.727   7.698   4.715  1.00 20.00    -0.025 C 
HETATM    2  C2  UNL     1     -33.126   6.502   4.634  1.00 20.00    -0.020 C 
HETATM    3  C4  UNL     1     -34.493   7.611   2.369  1.00 20.00     0.021 C 
HETATM    4  C5  UNL     1     -35.346   6.179   4.070  1.00 20.00     0.022 C 
HETATM    5  C6  UNL     1     -34.956   7.643   3.842  1.00 20.00     0.010 C 
HETATM    6  C7  UNL     1     -33.830   6.207   2.246  1.00 20.00     0.067 C 
HETATM    7  C8  UNL     1     -33.953   5.647   3.691  1.00 20.00    -0.016 C 
HETATM    8  C10 UNL     1     -33.792   4.151   3.844  1.00 20.00     0.020 C 
ENDROOT
BRANCH   6   9
HETATM    9  C3  UNL     1     -32.419   6.290   1.745  1.00 20.00     0.128 C 
HETATM   10  C9  UNL     1     -31.825   7.667   1.622  1.00 20.00     0.091 C 
HETATM   11  O11 UNL     1     -31.779   5.282   1.451  1.00 20.00    -0.298 OA
ENDBRANCH   6   9
TORSDOF 1
ENDMDL
MODEL 3
REMARK VINA RESULT:       2.3      1.699      3.962
REMARK  1 active torsions:
REMARK  status: ('A' for Active; 'I' for Inactive)
REMARK    1  A    between atoms: C3_3  and  C7_7 
ROOT
HETATM    1  C1  UNL     1     -35.993   6.522   3.265  1.00 20.00    -0.025 C 
HETATM    2  C2  UNL     1     -35.161   7.567   3.147  1.00 20.00    -0.020 C 
HETATM    3  C4  UNL     1     -34.134   4.900   3.396  1.00 20.00     0.021 C 
HETATM    4  C5  UNL     1     -34.602   6.484   5.112  1.00 20.00     0.022 C 
HETATM    5  C6  UNL     1     -35.322   5.516   4.168  1.00 20.00     0.010 C 
HETATM    6  C7  UNL     1     -33.139   6.093   3.287  1.00 20.00     0.067 C 
HETATM    7  C8  UNL     1     -33.922   7.252   3.964  1.00 20.00    -0.016 C 
HETATM    8  C10 UNL     1     -33.103   8.443   4.408  1.00 20.00     0.020 C 
ENDROOT
BRANCH   6   9
HETATM    9  C3  UNL     1     -32.747   6.374   1.867  1.00 20.00     0.128 C 
HETATM   10  C9  UNL     1     -31.916   7.605   1.626  1.00 20.00     0.091 C 
HETATM   11  O11 UNL     1     -33.087   5.635   0.945  1.00 20.00    -0.298 OA
ENDBRANCH   6   9
TORSDOF 1
ENDMDL
MODEL 4
REMARK VINA RESULT:       2.5      1.970      3.138
REMARK  1 active torsions:
REMARK  status: ('A' for Active; 'I' for Inactive)
REMARK    1  A    between atoms: C3_3  and  C7_7 
ROOT
HETATM    1  C1  UNL     1     -32.831   7.681   4.181  1.00 20.00    -0.025 C 
HETATM    2  C2  UNL     1     -34.118   7.428   4.460  1.00 20.00    -0.020 C 
HETATM    3  C4  UNL     1     -32.643   5.725   2.684  1.00 20.00     0.021 C 
HETATM    4  C5  UNL     1     -33.959   7.641   2.163  1.00 20.00     0.022 C 
HETATM    5  C6  UNL     1     -32.593   7.268   2.750  1.00 20.00     0.010 C 
HETATM    6  C7  UNL     1     -34.143   5.416   2.964  1.00 20.00     0.067 C 
HETATM    7  C8  UNL     1     -34.740   6.830   3.212  1.00 20.00    -0.016 C 
HETATM    8  C10 UNL     1     -36.244   6.950   3.101  1.00 20.00     0.020 C 
ENDROOT
BRANCH   6   9
HETATM    9  C3  UNL     1     -34.320   4.473   4.116  1.00 20.00     0.128 C 
HETATM   10  C9  UNL     1     -33.233   3.455   4.330  1.00 20.00     0.091 C 
HETATM   11  O11 UNL     1     -35.304   4.529   4.851  1.00 20.00    -0.298 OA
ENDBRANCH   6   9
TORSDOF 1
ENDMDL
MODEL 5
REMARK VINA RESULT:       2.6      1.418      2.744
REMARK  1 active torsions:
REMARK  status: ('A' for Active; 'I' for Inactive)
REMARK    1  A    between atoms: C3_3  and  C7_7 
ROOT
HETATM    1  C1  UNL     1     -31.687   5.684   1.747  1.00 20.00    -0.025 C 
HETATM    2  C2  UNL     1     -31.331   6.972   1.626  1.00 20.00    -0.020 C 
HETATM    3  C4  UNL     1     -33.785   6.246   2.923  1.00 20.00     0.021 C 
HETATM    4  C5  UNL     1     -33.405   6.752   0.627  1.00 20.00     0.022 C 
HETATM    5  C6  UNL     1     -33.191   5.623   1.641  1.00 20.00     0.010 C 
HETATM    6  C7  UNL     1     -33.417   7.752   2.778  1.00 20.00     0.067 C 
HETATM    7  C8  UNL     1     -32.606   7.776   1.452  1.00 20.00    -0.016 C 
HETATM    8  C10 UNL     1     -32.449   9.127   0.789  1.00 20.00     0.020 C 
ENDROOT
BRANCH   6   9
HETATM    9  C3  UNL     1     -32.656   8.265   3.964  1.00 20.00     0.128 C 
HETATM   10  C9  UNL     1     -33.304   8.089   5.311  1.00 20.00     0.091 C 
HETATM   11  O11 UNL     1     -31.556   8.802   3.842  1.00 20.00    -0.298 OA
ENDBRANCH   6   9
TORSDOF 1
ENDMDL
MODEL 6
REMARK VINA RESULT:       2.6      1.353      3.167
REMARK  1 active torsions:
REMARK  status: ('A' for Active; 'I' for Inactive)
REMARK    1  A    between atoms: C3_3  and  C7_7 
ROOT
HETATM    1  C1  UNL     1     -33.354   5.555   0.572  1.00 20.00    -0.025 C 
HETATM    2  C2  UNL     1     -34.117   6.437   1.234  1.00 20.00    -0.020 C 
HETATM    3  C4  UNL     1     -31.258   6.667   1.258  1.00 20.00     0.021 C 
HETATM    4  C5  UNL     1     -32.673   5.506   2.781  1.00 20.00     0.022 C 
HETATM    5  C6  UNL     1     -32.088   5.369   1.372  1.00 20.00     0.010 C 
HETATM    6  C7  UNL     1     -32.111   7.694   2.059  1.00 20.00     0.067 C 
HETATM    7  C8  UNL     1     -33.351   6.853   2.475  1.00 20.00    -0.016 C 
HETATM    8  C10 UNL     1     -34.183   7.406   3.611  1.00 20.00     0.020 C 
ENDROOT
BRANCH   6   9
HETATM    9  C3  UNL     1     -32.448   8.907   1.244  1.00 20.00     0.128 C 
HETATM   10  C9  UNL     1     -31.880   8.966  -0.148  1.00 20.00     0.091 C 
HETATM   11  O11 UNL     1     -33.153   9.810   1.691  1.00 20.00    -0.298 OA
ENDBRANCH   6   9
TORSDOF 1
ENDMDL
MODEL 7
REMARK VINA RESULT:       3.0      1.120      1.598
REMARK  1 active torsions:
REMARK  status: ('A' for Active; 'I' for Inactive)
REMARK    1  A    between atoms: C3_3  and  C7_7 
ROOT
HETATM    1  C1  UNL     1     -33.319   6.553   0.489  1.00 20.00    -0.025 C 
HETATM    2  C2  UNL     1     -33.947   5.681   1.291  1.00 20.00    -0.020 C 
HETATM    3  C4  UNL     1     -32.326   7.777   2.392  1.00 20.00     0.021 C 
HETATM    4  C5  UNL     1     -31.694   5.558   1.798  1.00 20.00     0.022 C 
HETATM    5  C6  UNL     1     -32.012   6.911   1.152  1.00 20.00     0.010 C 
HETATM    6  C7  UNL     1     -33.019   6.766   3.352  1.00 20.00     0.067 C 
HETATM    7  C8  UNL     1     -33.059   5.464   2.502  1.00 20.00    -0.016 C 
HETATM    8  C10 UNL     1     -33.282   4.176   3.263  1.00 20.00     0.020 C 
ENDROOT
BRANCH   6   9
HETATM    9  C3  UNL     1     -34.369   7.242   3.796  1.00 20.00     0.128 C 
HETATM   10  C9  UNL     1     -35.371   6.183   4.170  1.00 20.00     0.091 C 
HETATM   11  O11 UNL     1     -34.645   8.439   3.853  1.00 20.00    -0.298 OA
ENDBRANCH   6   9
TORSDOF 1
ENDMDL
MODEL 8
REMARK VINA RESULT:       3.1      1.869      3.707
REMARK  1 active torsions:
REMARK  status: ('A' for Active; 'I' for Inactive)
REMARK    1  A    between atoms: C3_3  and  C7_7 
ROOT
HETATM    1  C1  UNL     1     -35.738   6.887   3.190  1.00 20.00    -0.025 C 
HETATM    2  C2  UNL     1     -34.787   7.603   2.572  1.00 20.00    -0.020 C 
HETATM    3  C4  UNL     1     -34.194   5.019   3.665  1.00 20.00     0.021 C 
HETATM    4  C5  UNL     1     -34.011   7.154   4.703  1.00 20.00     0.022 C 
HETATM    5  C6  UNL     1     -35.069   6.121   4.303  1.00 20.00     0.010 C 
HETATM    6  C7  UNL     1     -33.059   5.833   2.979  1.00 20.00     0.067 C 
HETATM    7  C8  UNL     1     -33.473   7.303   3.269  1.00 20.00    -0.016 C 
HETATM    8  C10 UNL     1     -32.390   8.347   3.113  1.00 20.00     0.020 C 
ENDROOT
BRANCH   6   9
HETATM    9  C3  UNL     1     -32.939   5.515   1.518  1.00 20.00     0.128 C 
HETATM   10  C9  UNL     1     -31.576   5.109   1.025  1.00 20.00     0.091 C 
HETATM   11  O11 UNL     1     -33.905   5.581   0.761  1.00 20.00    -0.298 OA
ENDBRANCH   6   9
TORSDOF 1
ENDMDL
MODEL 9
REMARK VINA RESULT:       3.3      1.978      2.752
REMARK  1 active torsions:
REMARK  status: ('A' for Active; 'I' for Inactive)
REMARK    1  A    between atoms: C3_3  and  C7_7 
ROOT
HETATM    1  C1  UNL     1     -35.144   7.709   3.341  1.00 20.00    -0.025 C 
HETATM    2  C2  UNL     1     -34.979   6.674   2.504  1.00 20.00    -0.020 C 
HETATM    3  C4  UNL     1     -33.472   6.841   4.940  1.00 20.00     0.021 C 
HETATM    4  C5  UNL     1     -32.903   7.655   2.775  1.00 20.00     0.022 C 
HETATM    5  C6  UNL     1     -33.802   7.996   3.968  1.00 20.00     0.010 C 
HETATM    6  C7  UNL     1     -33.236   5.639   3.979  1.00 20.00     0.067 C 
HETATM    7  C8  UNL     1     -33.521   6.259   2.583  1.00 20.00    -0.016 C 
HETATM    8  C10 UNL     1     -32.987   5.498   1.390  1.00 20.00     0.020 C 
ENDROOT
BRANCH   6   9
HETATM    9  C3  UNL     1     -34.111   4.468   4.313  1.00 20.00     0.128 C 
HETATM   10  C9  UNL     1     -33.459   3.112   4.305  1.00 20.00     0.091 C 
HETATM   11  O11 UNL     1     -35.303   4.608   4.581  1.00 20.00    -0.298 OA
ENDBRANCH   6   9
TORSDOF 1
ENDMDL
