MODEL 1
REMARK VINA RESULT:      -0.2      0.000      0.000
REMARK  1 active torsions:
REMARK  status: ('A' for Active; 'I' for Inactive)
REMARK    1  A    between atoms: C2_2  and  C3_3 
ROOT
HETATM    1  C1  UNL     1     -32.928   8.164   3.203  1.00 20.00    -0.010 A 
HETATM    2  C2  UNL     1     -32.638   7.884   1.924  1.00 20.00    -0.016 A 
HETATM    3  C4  UNL     1     -32.964   6.451   1.613  1.00 20.00     0.048 A 
HETATM    4  C5  UNL     1     -33.446   7.005   3.952  1.00 20.00     0.022 A 
HETATM    5  C6  UNL     1     -33.477   5.878   2.923  1.00 20.00     0.007 A 
HETATM    6  C7  UNL     1     -34.755   6.320   3.617  1.00 20.00    -0.036 A 
HETATM    7  C9  UNL     1     -35.317   5.387   4.663  1.00 20.00     0.016 C 
HETATM    8  C10 UNL     1     -35.826   7.049   2.845  1.00 20.00     0.016 C 
ENDROOT
BRANCH   2   9
HETATM    9  C3  UNL     1     -32.110   8.839   0.969  1.00 20.00     0.151 C 
HETATM   10  C8  UNL     1     -32.814  10.171   0.814  1.00 20.00     0.096 C 
HETATM   11  O11 UNL     1     -31.108   8.578   0.285  1.00 20.00    -0.293 OA
ENDBRANCH   2   9
TORSDOF 1
ENDMDL
MODEL 2
REMARK VINA RESULT:      -0.1      2.530      4.660
REMARK  1 active torsions:
REMARK  status: ('A' for Active; 'I' for Inactive)
REMARK    1  A    between atoms: C2_2  and  C3_3 
ROOT
HETATM    1  C1  UNL     1     -34.343   6.717   3.088  1.00 20.00    -0.010 A 
HETATM    2  C2  UNL     1     -33.816   5.489   3.196  1.00 20.00    -0.016 A 
HETATM    3  C4  UNL     1     -32.738   5.287   2.169  1.00 20.00     0.048 A 
HETATM    4  C5  UNL     1     -33.757   7.509   1.991  1.00 20.00     0.022 A 
HETATM    5  C6  UNL     1     -32.705   6.586   1.383  1.00 20.00     0.007 A 
HETATM    6  C7  UNL     1     -32.303   7.934   1.960  1.00 20.00    -0.036 A 
HETATM    7  C9  UNL     1     -31.935   9.014   0.971  1.00 20.00     0.016 C 
HETATM    8  C10 UNL     1     -31.499   8.007   3.235  1.00 20.00     0.016 C 
ENDROOT
BRANCH   2   9
HETATM    9  C3  UNL     1     -34.213   4.505   4.184  1.00 20.00     0.151 C 
HETATM   10  C8  UNL     1     -33.273   3.354   4.477  1.00 20.00     0.096 C 
HETATM   11  O11 UNL     1     -35.300   4.590   4.777  1.00 20.00    -0.293 OA
ENDBRANCH   2   9
TORSDOF 1
ENDMDL
MODEL 3
REMARK VINA RESULT:       0.0      2.009      4.483
REMARK  1 active torsions:
REMARK  status: ('A' for Active; 'I' for Inactive)
REMARK    1  A    between atoms: C2_2  and  C3_3 
ROOT
HETATM    1  C1  UNL     1     -33.225   6.977   1.882  1.00 20.00    -0.010 A 
HETATM    2  C2  UNL     1     -33.185   7.528   3.104  1.00 20.00    -0.016 A 
HETATM    3  C4  UNL     1     -31.973   8.403   3.247  1.00 20.00     0.048 A 
HETATM    4  C5  UNL     1     -32.074   7.346   1.038  1.00 20.00     0.022 A 
HETATM    5  C6  UNL     1     -31.248   8.280   1.918  1.00 20.00     0.007 A 
HETATM    6  C7  UNL     1     -31.798   8.765   0.586  1.00 20.00    -0.036 A 
HETATM    7  C9  UNL     1     -30.803   8.936  -0.537  1.00 20.00     0.016 C 
HETATM    8  C10 UNL     1     -32.907   9.787   0.549  1.00 20.00     0.016 C 
ENDROOT
BRANCH   2   9
HETATM    9  C3  UNL     1     -34.187   7.327   4.132  1.00 20.00     0.151 C 
HETATM   10  C8  UNL     1     -35.244   6.264   3.914  1.00 20.00     0.096 C 
HETATM   11  O11 UNL     1     -34.193   8.010   5.168  1.00 20.00    -0.293 OA
ENDBRANCH   2   9
TORSDOF 1
ENDMDL
MODEL 4
REMARK VINA RESULT:       0.2      2.063      4.525
REMARK  1 active torsions:
REMARK  status: ('A' for Active; 'I' for Inactive)
REMARK    1  A    between atoms: C2_2  and  C3_3 
ROOT
HETATM    1  C1  UNL     1     -32.986   6.260   1.749  1.00 20.00    -0.010 A 
HETATM    2  C2  UNL     1     -33.464   6.647   2.941  1.00 20.00    -0.016 A 
HETATM    3  C4  UNL     1     -32.719   7.852   3.440  1.00 20.00     0.048 A 
HETATM    4  C5  UNL     1     -31.860   7.085   1.276  1.00 20.00     0.022 A 
HETATM    5  C6  UNL     1     -31.676   8.131   2.372  1.00 20.00     0.007 A 
HETATM    6  C7  UNL     1     -31.991   8.558   0.948  1.00 20.00    -0.036 A 
HETATM    7  C9  UNL     1     -30.862   9.178   0.159  1.00 20.00     0.016 C 
HETATM    8  C10 UNL     1     -33.337   9.151   0.612  1.00 20.00     0.016 C 
ENDROOT
BRANCH   2   9
HETATM    9  C3  UNL     1     -34.564   6.007   3.635  1.00 20.00     0.151 C 
HETATM   10  C8  UNL     1     -34.376   4.591   4.139  1.00 20.00     0.096 C 
HETATM   11  O11 UNL     1     -35.643   6.595   3.814  1.00 20.00    -0.293 OA
ENDBRANCH   2   9
TORSDOF 1
ENDMDL
MODEL 5
REMARK VINA RESULT:       0.4      0.827      1.023
REMARK  1 active torsions:
REMARK  status: ('A' for Active; 'I' for Inactive)
REMARK    1  A    between atoms: C2_2  and  C3_3 
ROOT
HETATM    1  C1  UNL     1     -33.038   8.188   3.280  1.00 20.00    -0.010 A 
HETATM    2  C2  UNL     1     -32.755   7.948   1.991  1.00 20.00    -0.016 A 
HETATM    3  C4  UNL     1     -33.034   6.512   1.650  1.00 20.00     0.048 A 
HETATM    4  C5  UNL     1     -33.506   6.993   4.007  1.00 20.00     0.022 A 
HETATM    5  C6  UNL     1     -33.510   5.891   2.952  1.00 20.00     0.007 A 
HETATM    6  C7  UNL     1     -34.794   6.271   3.671  1.00 20.00    -0.036 A 
HETATM    7  C9  UNL     1     -35.310   5.294   4.701  1.00 20.00     0.016 C 
HETATM    8  C10 UNL     1     -35.900   6.980   2.930  1.00 20.00     0.016 C 
ENDROOT
BRANCH   2   9
HETATM    9  C3  UNL     1     -32.273   8.943   1.054  1.00 20.00     0.151 C 
HETATM   10  C8  UNL     1     -31.164   8.558   0.096  1.00 20.00     0.096 C 
HETATM   11  O11 UNL     1     -32.746  10.090   1.032  1.00 20.00    -0.293 OA
ENDBRANCH   2   9
TORSDOF 1
ENDMDL
MODEL 6
REMARK VINA RESULT:       0.9      1.251      1.510
REMARK  1 active torsions:
REMARK  status: ('A' for Active; 'I' for Inactive)
REMARK    1  A    between atoms: C2_2  and  C3_3 
ROOT
HETATM    1  C1  UNL     1     -32.030   7.941   2.109  1.00 20.00    -0.010 A 
HETATM    2  C2  UNL     1     -32.663   8.202   0.955  1.00 20.00    -0.016 A 
HETATM    3  C4  UNL     1     -33.422   6.994   0.486  1.00 20.00     0.048 A 
HETATM    4  C5  UNL     1     -32.222   6.556   2.578  1.00 20.00     0.022 A 
HETATM    5  C6  UNL     1     -33.132   5.927   1.527  1.00 20.00     0.007 A 
HETATM    6  C7  UNL     1     -33.571   5.996   2.981  1.00 20.00    -0.036 A 
HETATM    7  C9  UNL     1     -33.561   4.700   3.755  1.00 20.00     0.016 C 
HETATM    8  C10 UNL     1     -34.691   6.918   3.394  1.00 20.00     0.016 C 
ENDROOT
BRANCH   2   9
HETATM    9  C3  UNL     1     -32.636   9.481   0.272  1.00 20.00     0.151 C 
HETATM   10  C8  UNL     1     -32.555  10.744   1.104  1.00 20.00     0.096 C 
HETATM   11  O11 UNL     1     -32.685   9.551  -0.966  1.00 20.00    -0.293 OA
ENDBRANCH   2   9
TORSDOF 1
ENDMDL
MODEL 7
REMARK VINA RESULT:       1.0      3.055      4.841
REMARK  1 active torsions:
REMARK  status: ('A' for Active; 'I' for Inactive)
REMARK    1  A    between atoms: C2_2  and  C3_3 
ROOT
HETATM    1  C1  UNL     1     -34.945   5.048   4.557  1.00 20.00    -0.010 A 
HETATM    2  C2  UNL     1     -33.851   4.384   4.157  1.00 20.00    -0.016 A 
HETATM    3  C4  UNL     1     -33.151   5.136   3.061  1.00 20.00     0.048 A 
HETATM    4  C5  UNL     1     -35.179   6.295   3.806  1.00 20.00     0.022 A 
HETATM    5  C6  UNL     1     -34.012   6.365   2.825  1.00 20.00     0.007 A 
HETATM    6  C7  UNL     1     -34.230   7.474   3.841  1.00 20.00    -0.036 A 
HETATM    7  C9  UNL     1     -34.760   8.786   3.312  1.00 20.00     0.016 C 
HETATM    8  C10 UNL     1     -33.270   7.651   4.992  1.00 20.00     0.016 C 
ENDROOT
BRANCH   2   9
HETATM    9  C3  UNL     1     -33.394   3.130   4.723  1.00 20.00     0.151 C 
HETATM   10  C8  UNL     1     -32.586   3.166   6.003  1.00 20.00     0.096 C 
HETATM   11  O11 UNL     1     -33.649   2.046   4.175  1.00 20.00    -0.293 OA
ENDBRANCH   2   9
TORSDOF 1
ENDMDL
MODEL 8
REMARK VINA RESULT:       1.2      1.027      1.843
REMARK  1 active torsions:
REMARK  status: ('A' for Active; 'I' for Inactive)
REMARK    1  A    between atoms: C2_2  and  C3_3 
ROOT
HETATM    1  C1  UNL     1     -34.084   6.974   1.970  1.00 20.00    -0.010 A 
HETATM    2  C2  UNL     1     -33.015   7.649   2.419  1.00 20.00    -0.016 A 
HETATM    3  C4  UNL     1     -33.041   7.737   3.918  1.00 20.00     0.048 A 
HETATM    4  C5  UNL     1     -34.992   6.537   3.045  1.00 20.00     0.022 A 
HETATM    5  C6  UNL     1     -34.321   7.028   4.325  1.00 20.00     0.007 A 
HETATM    6  C7  UNL     1     -34.590   5.546   4.119  1.00 20.00    -0.036 A 
HETATM    7  C9  UNL     1     -35.709   4.940   4.932  1.00 20.00     0.016 C 
HETATM    8  C10 UNL     1     -33.447   4.590   3.889  1.00 20.00     0.016 C 
ENDROOT
BRANCH   2   9
HETATM    9  C3  UNL     1     -31.970   8.194   1.575  1.00 20.00     0.151 C 
HETATM   10  C8  UNL     1     -32.293   9.393   0.706  1.00 20.00     0.096 C 
HETATM   11  O11 UNL     1     -30.835   7.695   1.552  1.00 20.00    -0.293 OA
ENDBRANCH   2   9
TORSDOF 1
ENDMDL
MODEL 9
REMARK VINA RESULT:       1.3      2.394      4.532
REMARK  1 active torsions:
REMARK  status: ('A' for Active; 'I' for Inactive)
REMARK    1  A    between atoms: C2_2  and  C3_3 
ROOT
HETATM    1  C1  UNL     1     -34.224   6.555   2.291  1.00 20.00    -0.010 A 
HETATM    2  C2  UNL     1     -33.633   5.503   2.876  1.00 20.00    -0.016 A 
HETATM    3  C4  UNL     1     -32.232   5.334   2.363  1.00 20.00     0.048 A 
HETATM    4  C5  UNL     1     -33.366   7.228   1.298  1.00 20.00     0.022 A 
HETATM    5  C6  UNL     1     -32.059   6.440   1.337  1.00 20.00     0.007 A 
HETATM    6  C7  UNL     1     -32.071   7.926   1.659  1.00 20.00    -0.036 A 
HETATM    7  C9  UNL     1     -31.488   8.851   0.618  1.00 20.00     0.016 C 
HETATM    8  C10 UNL     1     -31.823   8.400   3.070  1.00 20.00     0.016 C 
ENDROOT
BRANCH   2   9
HETATM    9  C3  UNL     1     -34.254   4.663   3.882  1.00 20.00     0.151 C 
HETATM   10  C8  UNL     1     -35.488   5.178   4.593  1.00 20.00     0.096 C 
HETATM   11  O11 UNL     1     -33.788   3.548   4.167  1.00 20.00    -0.293 OA
ENDBRANCH   2   9
TORSDOF 1
ENDMDL
