MODEL 1
REMARK VINA RESULT:      -0.7      0.000      0.000
REMARK  0 active torsions:
REMARK  status: ('A' for Active; 'I' for Inactive)
ROOT
HETATM    1  C1  UNL     1     -34.974   5.294   4.337  1.00 20.00     0.011 C 
HETATM    2  C2  UNL     1     -33.930   7.660   4.662  1.00 20.00     0.011 C 
HETATM    3  C3  UNL     1     -34.153   4.495   3.625  1.00 20.00     0.007 C 
HETATM    4  C4  UNL     1     -32.998   8.183   3.839  1.00 20.00     0.007 C 
HETATM    5  C5  UNL     1     -32.441   5.438   1.638  1.00 20.00     0.042 C 
HETATM    6  C6  UNL     1     -32.039   6.947   1.666  1.00 20.00     0.042 C 
HETATM    7  C7  UNL     1     -34.842   6.737   3.902  1.00 20.00     0.270 C 
HETATM    8  C8  UNL     1     -33.223   5.397   2.917  1.00 20.00     0.247 C 
HETATM    9  C9  UNL     1     -33.177   7.676   2.429  1.00 20.00     0.247 C 
HETATM   10  N10 UNL     1     -34.117   6.565   2.624  1.00 20.00     0.116 N 
ENDROOT
TORSDOF 0
ENDMDL
MODEL 2
REMARK VINA RESULT:       0.3      0.824      3.482
REMARK  0 active torsions:
REMARK  status: ('A' for Active; 'I' for Inactive)
ROOT
HETATM    1  C1  UNL     1     -31.860   7.047   1.333  1.00 20.00     0.011 C 
HETATM    2  C2  UNL     1     -32.632   4.788   2.377  1.00 20.00     0.011 C 
HETATM    3  C3  UNL     1     -32.007   8.062   2.209  1.00 20.00     0.007 C 
HETATM    4  C4  UNL     1     -33.509   4.699   3.398  1.00 20.00     0.007 C 
HETATM    5  C5  UNL     1     -34.021   8.147   4.133  1.00 20.00     0.042 C 
HETATM    6  C6  UNL     1     -34.694   6.802   4.555  1.00 20.00     0.042 C 
HETATM    7  C7  UNL     1     -32.929   5.996   1.533  1.00 20.00     0.270 C 
HETATM    8  C8  UNL     1     -32.970   7.587   3.222  1.00 20.00     0.247 C 
HETATM    9  C9  UNL     1     -34.501   5.835   3.357  1.00 20.00     0.247 C 
HETATM   10  N10 UNL     1     -33.882   6.743   2.384  1.00 20.00     0.116 N 
ENDROOT
TORSDOF 0
ENDMDL
MODEL 3
REMARK VINA RESULT:       0.5      0.941      3.619
REMARK  0 active torsions:
REMARK  status: ('A' for Active; 'I' for Inactive)
ROOT
HETATM    1  C1  UNL     1     -31.382   8.203   1.925  1.00 20.00     0.011 C 
HETATM    2  C2  UNL     1     -31.865   5.655   1.669  1.00 20.00     0.011 C 
HETATM    3  C3  UNL     1     -31.881   8.677   3.085  1.00 20.00     0.007 C 
HETATM    4  C4  UNL     1     -32.876   5.020   2.297  1.00 20.00     0.007 C 
HETATM    5  C5  UNL     1     -34.186   7.670   4.286  1.00 20.00     0.042 C 
HETATM    6  C6  UNL     1     -34.644   6.226   3.907  1.00 20.00     0.042 C 
HETATM    7  C7  UNL     1     -32.239   7.082   1.380  1.00 20.00     0.270 C 
HETATM    8  C8  UNL     1     -32.898   7.698   3.518  1.00 20.00     0.247 C 
HETATM    9  C9  UNL     1     -34.050   5.947   2.500  1.00 20.00     0.247 C 
HETATM   10  N10 UNL     1     -33.458   7.256   2.200  1.00 20.00     0.116 N 
ENDROOT
TORSDOF 0
ENDMDL
MODEL 4
REMARK VINA RESULT:       0.7      1.114      2.954
REMARK  0 active torsions:
REMARK  status: ('A' for Active; 'I' for Inactive)
ROOT
HETATM    1  C1  UNL     1     -32.024   5.753   0.956  1.00 20.00     0.011 C 
HETATM    2  C2  UNL     1     -32.079   8.351   1.153  1.00 20.00     0.011 C 
HETATM    3  C3  UNL     1     -33.123   5.201   1.509  1.00 20.00     0.007 C 
HETATM    4  C4  UNL     1     -32.790   9.013   2.090  1.00 20.00     0.007 C 
HETATM    5  C5  UNL     1     -34.460   6.304   3.690  1.00 20.00     0.042 C 
HETATM    6  C6  UNL     1     -34.262   7.825   3.984  1.00 20.00     0.042 C 
HETATM    7  C7  UNL     1     -31.626   7.019   1.683  1.00 20.00     0.270 C 
HETATM    8  C8  UNL     1     -33.682   6.227   2.411  1.00 20.00     0.247 C 
HETATM    9  C9  UNL     1     -32.893   8.204   3.360  1.00 20.00     0.247 C 
HETATM   10  N10 UNL     1     -32.432   6.883   2.916  1.00 20.00     0.116 N 
ENDROOT
TORSDOF 0
ENDMDL
MODEL 5
REMARK VINA RESULT:       0.9      0.961      1.625
REMARK  0 active torsions:
REMARK  status: ('A' for Active; 'I' for Inactive)
ROOT
HETATM    1  C1  UNL     1     -34.433   7.356   4.110  1.00 20.00     0.011 C 
HETATM    2  C2  UNL     1     -32.149   8.506   3.608  1.00 20.00     0.011 C 
HETATM    3  C3  UNL     1     -34.425   6.068   3.711  1.00 20.00     0.007 C 
HETATM    4  C4  UNL     1     -31.293   8.082   2.655  1.00 20.00     0.007 C 
HETATM    5  C5  UNL     1     -32.968   5.151   1.519  1.00 20.00     0.042 C 
HETATM    6  C6  UNL     1     -31.754   6.004   1.032  1.00 20.00     0.042 C 
HETATM    7  C7  UNL     1     -33.568   8.210   3.210  1.00 20.00     0.270 C 
HETATM    8  C8  UNL     1     -33.322   5.952   2.737  1.00 20.00     0.247 C 
HETATM    9  C9  UNL     1     -32.038   7.455   1.502  1.00 20.00     0.247 C 
HETATM   10  N10 UNL     1     -33.384   7.291   2.066  1.00 20.00     0.116 N 
ENDROOT
TORSDOF 0
ENDMDL
MODEL 6
REMARK VINA RESULT:       1.1      0.963      2.716
REMARK  0 active torsions:
REMARK  status: ('A' for Active; 'I' for Inactive)
ROOT
HETATM    1  C1  UNL     1     -32.408   8.714   2.836  1.00 20.00     0.011 C 
HETATM    2  C2  UNL     1     -34.535   7.665   3.916  1.00 20.00     0.011 C 
HETATM    3  C3  UNL     1     -32.082   8.080   1.692  1.00 20.00     0.007 C 
HETATM    4  C4  UNL     1     -34.941   6.399   3.687  1.00 20.00     0.007 C 
HETATM    5  C5  UNL     1     -32.550   5.367   1.257  1.00 20.00     0.042 C 
HETATM    6  C6  UNL     1     -33.643   4.660   2.120  1.00 20.00     0.042 C 
HETATM    7  C7  UNL     1     -33.038   7.761   3.828  1.00 20.00     0.270 C 
HETATM    8  C8  UNL     1     -32.758   6.768   1.749  1.00 20.00     0.247 C 
HETATM    9  C9  UNL     1     -33.763   5.495   3.423  1.00 20.00     0.247 C 
HETATM   10  N10 UNL     1     -32.679   6.463   3.215  1.00 20.00     0.116 N 
ENDROOT
TORSDOF 0
ENDMDL
MODEL 7
REMARK VINA RESULT:       1.4      0.993      2.616
REMARK  0 active torsions:
REMARK  status: ('A' for Active; 'I' for Inactive)
ROOT
HETATM    1  C1  UNL     1     -34.711   5.969   3.870  1.00 20.00     0.011 C 
HETATM    2  C2  UNL     1     -33.769   5.060   1.617  1.00 20.00     0.011 C 
HETATM    3  C3  UNL     1     -34.579   7.309   3.946  1.00 20.00     0.007 C 
HETATM    4  C4  UNL     1     -32.841   5.706   0.881  1.00 20.00     0.007 C 
HETATM    5  C5  UNL     1     -32.484   8.712   2.759  1.00 20.00     0.042 C 
HETATM    6  C6  UNL     1     -31.719   8.035   1.578  1.00 20.00     0.042 C 
HETATM    7  C7  UNL     1     -33.578   5.354   3.079  1.00 20.00     0.270 C 
HETATM    8  C8  UNL     1     -33.545   7.671   2.956  1.00 20.00     0.247 C 
HETATM    9  C9  UNL     1     -31.915   6.507   1.764  1.00 20.00     0.247 C 
HETATM   10  N10 UNL     1     -32.628   6.488   3.047  1.00 20.00     0.116 N 
ENDROOT
TORSDOF 0
ENDMDL
MODEL 8
REMARK VINA RESULT:       1.7      0.797      2.567
REMARK  0 active torsions:
REMARK  status: ('A' for Active; 'I' for Inactive)
ROOT
HETATM    1  C1  UNL     1     -34.236   4.314   3.723  1.00 20.00     0.011 C 
HETATM    2  C2  UNL     1     -33.079   5.174   1.552  1.00 20.00     0.011 C 
HETATM    3  C3  UNL     1     -34.991   5.280   4.285  1.00 20.00     0.007 C 
HETATM    4  C4  UNL     1     -32.833   6.477   1.304  1.00 20.00     0.007 C 
HETATM    5  C5  UNL     1     -34.370   7.992   4.138  1.00 20.00     0.042 C 
HETATM    6  C6  UNL     1     -33.428   8.471   2.988  1.00 20.00     0.042 C 
HETATM    7  C7  UNL     1     -33.027   4.903   3.030  1.00 20.00     0.270 C 
HETATM    8  C8  UNL     1     -34.498   6.555   3.729  1.00 20.00     0.247 C 
HETATM    9  C9  UNL     1     -32.584   7.233   2.586  1.00 20.00     0.247 C 
HETATM   10  N10 UNL     1     -33.033   6.269   3.598  1.00 20.00     0.116 N 
ENDROOT
TORSDOF 0
ENDMDL
MODEL 9
REMARK VINA RESULT:       2.2      1.076      2.325
REMARK  0 active torsions:
REMARK  status: ('A' for Active; 'I' for Inactive)
ROOT
HETATM    1  C1  UNL     1     -32.970   4.797   1.583  1.00 20.00     0.011 C 
HETATM    2  C2  UNL     1     -34.062   5.996   3.624  1.00 20.00     0.011 C 
HETATM    3  C3  UNL     1     -31.805   5.384   1.243  1.00 20.00     0.007 C 
HETATM    4  C4  UNL     1     -33.809   7.278   3.959  1.00 20.00     0.007 C 
HETATM    5  C5  UNL     1     -31.311   8.108   1.559  1.00 20.00     0.042 C 
HETATM    6  C6  UNL     1     -32.175   8.900   2.591  1.00 20.00     0.042 C 
HETATM    7  C7  UNL     1     -33.949   5.810   2.136  1.00 20.00     0.270 C 
HETATM    8  C8  UNL     1     -31.841   6.734   1.839  1.00 20.00     0.247 C 
HETATM    9  C9  UNL     1     -33.500   8.105   2.734  1.00 20.00     0.247 C 
HETATM   10  N10 UNL     1     -33.297   7.069   1.713  1.00 20.00     0.116 N 
ENDROOT
TORSDOF 0
ENDMDL
