MODEL 1
REMARK VINA RESULT:      -0.5      0.000      0.000
REMARK  2 active torsions:
REMARK  status: ('A' for Active; 'I' for Inactive)
REMARK    1  A    between atoms: C3_3  and  C5_5 
REMARK    2  A    between atoms: C3_3  and  O8_8 
ROOT
HETATM    1  C1  UNL     1     -35.204   6.524   3.812  1.00 20.00    -0.005 C 
HETATM    2  C2  UNL     1     -35.293   5.353   4.447  1.00 20.00     0.042 C 
HETATM    3  C4  UNL     1     -33.376   5.304   2.728  1.00 20.00     0.097 C 
HETATM    4  C5  UNL     1     -34.024   6.680   2.906  1.00 20.00     0.118 C 
HETATM    5  S9  UNL     1     -34.011   4.252   4.082  1.00 20.00    -0.141 SA
ENDROOT
BRANCH   4   6
HETATM    6  C3  UNL     1     -33.091   7.652   3.561  1.00 20.00     0.267 C 
HETATM    7  O7  UNL     1     -33.274   8.138   4.669  1.00 20.00    -0.265 OA
BRANCH   6   8
HETATM    8  O8  UNL     1     -32.033   7.896   2.735  1.00 20.00    -0.326 OA
HETATM    9  C6  UNL     1     -32.360   8.487   1.474  1.00 20.00     0.213 C 
ENDBRANCH   6   8
ENDBRANCH   4   6
TORSDOF 2
ENDMDL
MODEL 2
REMARK VINA RESULT:      -0.1      2.626      3.741
REMARK  2 active torsions:
REMARK  status: ('A' for Active; 'I' for Inactive)
REMARK    1  A    between atoms: C3_3  and  C5_5 
REMARK    2  A    between atoms: C3_3  and  O8_8 
ROOT
HETATM    1  C1  UNL     1     -33.574   6.161   2.266  1.00 20.00    -0.005 C 
HETATM    2  C2  UNL     1     -32.556   6.997   2.487  1.00 20.00     0.042 C 
HETATM    3  C4  UNL     1     -34.502   7.500   4.097  1.00 20.00     0.097 C 
HETATM    4  C5  UNL     1     -34.701   6.243   3.247  1.00 20.00     0.118 C 
HETATM    5  S9  UNL     1     -32.759   8.006   3.876  1.00 20.00    -0.141 SA
ENDROOT
BRANCH   4   6
HETATM    6  C3  UNL     1     -34.652   4.998   4.079  1.00 20.00     0.267 C 
HETATM    7  O7  UNL     1     -35.506   4.688   4.898  1.00 20.00    -0.265 OA
BRANCH   6   8
HETATM    8  O8  UNL     1     -33.527   4.290   3.775  1.00 20.00    -0.326 OA
HETATM    9  C6  UNL     1     -33.305   3.118   4.566  1.00 20.00     0.213 C 
ENDBRANCH   6   8
ENDBRANCH   4   6
TORSDOF 2
ENDMDL
MODEL 3
REMARK VINA RESULT:      -0.1      1.214      1.557
REMARK  2 active torsions:
REMARK  status: ('A' for Active; 'I' for Inactive)
REMARK    1  A    between atoms: C3_3  and  C5_5 
REMARK    2  A    between atoms: C3_3  and  O8_8 
ROOT
HETATM    1  C1  UNL     1     -34.285   7.400   3.101  1.00 20.00    -0.005 C 
HETATM    2  C2  UNL     1     -34.389   6.344   3.912  1.00 20.00     0.042 C 
HETATM    3  C4  UNL     1     -33.052   5.730   1.798  1.00 20.00     0.097 C 
HETATM    4  C5  UNL     1     -33.390   7.219   1.916  1.00 20.00     0.118 C 
HETATM    5  S9  UNL     1     -33.455   4.977   3.414  1.00 20.00    -0.141 SA
ENDROOT
BRANCH   4   6
HETATM    6  C3  UNL     1     -32.166   8.048   2.157  1.00 20.00     0.267 C 
HETATM    7  O7  UNL     1     -31.697   8.271   3.265  1.00 20.00    -0.265 OA
BRANCH   6   8
HETATM    8  O8  UNL     1     -31.678   8.498   0.966  1.00 20.00    -0.326 OA
HETATM    9  C6  UNL     1     -32.343   9.642   0.422  1.00 20.00     0.213 C 
ENDBRANCH   6   8
ENDBRANCH   4   6
TORSDOF 2
ENDMDL
MODEL 4
REMARK VINA RESULT:       0.0      2.414      3.363
REMARK  2 active torsions:
REMARK  status: ('A' for Active; 'I' for Inactive)
REMARK    1  A    between atoms: C3_3  and  C5_5 
REMARK    2  A    between atoms: C3_3  and  O8_8 
ROOT
HETATM    1  C1  UNL     1     -32.033   6.338   1.491  1.00 20.00    -0.005 C 
HETATM    2  C2  UNL     1     -33.194   5.870   1.958  1.00 20.00     0.042 C 
HETATM    3  C4  UNL     1     -32.561   8.065   3.148  1.00 20.00     0.097 C 
HETATM    4  C5  UNL     1     -31.638   7.694   1.983  1.00 20.00     0.118 C 
HETATM    5  S9  UNL     1     -34.002   6.944   3.045  1.00 20.00    -0.141 SA
ENDROOT
BRANCH   4   6
HETATM    6  C3  UNL     1     -31.789   8.642   0.833  1.00 20.00     0.267 C 
HETATM    7  O7  UNL     1     -31.146   8.566  -0.205  1.00 20.00    -0.265 OA
BRANCH   6   8
HETATM    8  O8  UNL     1     -32.736   9.576   1.132  1.00 20.00    -0.326 OA
HETATM    9  C6  UNL     1     -32.780  10.709   0.259  1.00 20.00     0.213 C 
ENDBRANCH   6   8
ENDBRANCH   4   6
TORSDOF 2
ENDMDL
MODEL 5
REMARK VINA RESULT:       0.4      2.776      4.351
REMARK  2 active torsions:
REMARK  status: ('A' for Active; 'I' for Inactive)
REMARK    1  A    between atoms: C3_3  and  C5_5 
REMARK    2  A    between atoms: C3_3  and  O8_8 
ROOT
HETATM    1  C1  UNL     1     -32.448   9.502   2.096  1.00 20.00    -0.005 C 
HETATM    2  C2  UNL     1     -32.813  10.233   1.040  1.00 20.00     0.042 C 
HETATM    3  C4  UNL     1     -31.466   8.170   0.288  1.00 20.00     0.097 C 
HETATM    4  C5  UNL     1     -31.802   8.189   1.782  1.00 20.00     0.118 C 
HETATM    5  S9  UNL     1     -32.457   9.498  -0.484  1.00 20.00    -0.141 SA
ENDROOT
BRANCH   4   6
HETATM    6  C3  UNL     1     -32.785   7.117   2.142  1.00 20.00     0.267 C 
HETATM    7  O7  UNL     1     -32.918   6.073   1.519  1.00 20.00    -0.265 OA
BRANCH   6   8
HETATM    8  O8  UNL     1     -33.484   7.493   3.251  1.00 20.00    -0.326 OA
HETATM    9  C6  UNL     1     -34.480   6.567   3.694  1.00 20.00     0.213 C 
ENDBRANCH   6   8
ENDBRANCH   4   6
TORSDOF 2
ENDMDL
MODEL 6
REMARK VINA RESULT:       0.5      1.645      2.196
REMARK  2 active torsions:
REMARK  status: ('A' for Active; 'I' for Inactive)
REMARK    1  A    between atoms: C3_3  and  C5_5 
REMARK    2  A    between atoms: C3_3  and  O8_8 
ROOT
HETATM    1  C1  UNL     1     -33.221   5.253   3.471  1.00 20.00    -0.005 C 
HETATM    2  C2  UNL     1     -34.485   4.934   3.763  1.00 20.00     0.042 C 
HETATM    3  C4  UNL     1     -34.133   7.479   3.942  1.00 20.00     0.097 C 
HETATM    4  C5  UNL     1     -32.930   6.718   3.378  1.00 20.00     0.118 C 
HETATM    5  S9  UNL     1     -35.527   6.297   3.973  1.00 20.00    -0.141 SA
ENDROOT
BRANCH   4   6
HETATM    6  C3  UNL     1     -32.705   7.031   1.930  1.00 20.00     0.267 C 
HETATM    7  O7  UNL     1     -33.095   6.327   1.008  1.00 20.00    -0.265 OA
BRANCH   6   8
HETATM    8  O8  UNL     1     -32.013   8.201   1.818  1.00 20.00    -0.326 OA
HETATM    9  C6  UNL     1     -32.345   9.005   0.682  1.00 20.00     0.213 C 
ENDBRANCH   6   8
ENDBRANCH   4   6
TORSDOF 2
ENDMDL
MODEL 7
REMARK VINA RESULT:       0.6      2.110      3.468
REMARK  2 active torsions:
REMARK  status: ('A' for Active; 'I' for Inactive)
REMARK    1  A    between atoms: C3_3  and  C5_5 
REMARK    2  A    between atoms: C3_3  and  O8_8 
ROOT
HETATM    1  C1  UNL     1     -33.204   5.907   1.884  1.00 20.00    -0.005 C 
HETATM    2  C2  UNL     1     -31.908   6.036   1.591  1.00 20.00     0.042 C 
HETATM    3  C4  UNL     1     -32.994   8.349   1.915  1.00 20.00     0.097 C 
HETATM    4  C5  UNL     1     -33.911   7.171   2.259  1.00 20.00     0.118 C 
HETATM    5  S9  UNL     1     -31.315   7.656   1.708  1.00 20.00    -0.141 SA
ENDROOT
BRANCH   4   6
HETATM    6  C3  UNL     1     -34.193   7.100   3.728  1.00 20.00     0.267 C 
HETATM    7  O7  UNL     1     -33.510   7.646   4.585  1.00 20.00    -0.265 OA
BRANCH   6   8
HETATM    8  O8  UNL     1     -35.308   6.344   3.943  1.00 20.00    -0.326 OA
HETATM    9  C6  UNL     1     -35.074   5.049   4.503  1.00 20.00     0.213 C 
ENDBRANCH   6   8
ENDBRANCH   4   6
TORSDOF 2
ENDMDL
MODEL 8
REMARK VINA RESULT:       0.7      2.420      3.594
REMARK  2 active torsions:
REMARK  status: ('A' for Active; 'I' for Inactive)
REMARK    1  A    between atoms: C3_3  and  C5_5 
REMARK    2  A    between atoms: C3_3  and  O8_8 
ROOT
HETATM    1  C1  UNL     1     -33.065   7.477   4.012  1.00 20.00    -0.005 C 
HETATM    2  C2  UNL     1     -32.753   8.344   3.046  1.00 20.00     0.042 C 
HETATM    3  C4  UNL     1     -32.994   5.967   2.082  1.00 20.00     0.097 C 
HETATM    4  C5  UNL     1     -33.396   6.091   3.555  1.00 20.00     0.118 C 
HETATM    5  S9  UNL     1     -32.797   7.673   1.453  1.00 20.00    -0.141 SA
ENDROOT
BRANCH   4   6
HETATM    6  C3  UNL     1     -34.870   5.904   3.745  1.00 20.00     0.267 C 
HETATM    7  O7  UNL     1     -35.714   6.721   3.402  1.00 20.00    -0.265 OA
BRANCH   6   8
HETATM    8  O8  UNL     1     -35.104   4.703   4.347  1.00 20.00    -0.326 OA
HETATM    9  C6  UNL     1     -33.978   3.825   4.425  1.00 20.00     0.213 C 
ENDBRANCH   6   8
ENDBRANCH   4   6
TORSDOF 2
ENDMDL
MODEL 9
REMARK VINA RESULT:       0.7      0.873      1.759
REMARK  2 active torsions:
REMARK  status: ('A' for Active; 'I' for Inactive)
REMARK    1  A    between atoms: C3_3  and  C5_5 
REMARK    2  A    between atoms: C3_3  and  O8_8 
ROOT
HETATM    1  C1  UNL     1     -35.347   6.159   3.854  1.00 20.00    -0.005 C 
HETATM    2  C2  UNL     1     -35.228   5.060   4.603  1.00 20.00     0.042 C 
HETATM    3  C4  UNL     1     -33.472   5.062   2.718  1.00 20.00     0.097 C 
HETATM    4  C5  UNL     1     -34.278   6.360   2.826  1.00 20.00     0.118 C 
HETATM    5  S9  UNL     1     -33.847   4.092   4.222  1.00 20.00    -0.141 SA
ENDROOT
BRANCH   4   6
HETATM    6  C3  UNL     1     -33.429   7.503   3.291  1.00 20.00     0.267 C 
HETATM    7  O7  UNL     1     -32.454   7.924   2.682  1.00 20.00    -0.265 OA
BRANCH   6   8
HETATM    8  O8  UNL     1     -33.914   7.981   4.472  1.00 20.00    -0.326 OA
HETATM    9  C6  UNL     1     -32.926   8.411   5.413  1.00 20.00     0.213 C 
ENDBRANCH   6   8
ENDBRANCH   4   6
TORSDOF 2
ENDMDL
