MODEL 1
REMARK VINA RESULT:      -1.9      0.000      0.000
REMARK  0 active torsions:
REMARK  status: ('A' for Active; 'I' for Inactive)
ROOT
HETATM    1  C1  UNL     1     -32.776   6.473   1.899  1.00 20.00    -0.054 C 
HETATM    2  C2  UNL     1     -33.487   7.648   3.792  1.00 20.00     0.226 C 
HETATM    3  C3  UNL     1     -32.430   5.417   1.150  1.00 20.00     0.017 C 
HETATM    4  C4  UNL     1     -33.940   6.542   2.857  1.00 20.00     0.104 C 
HETATM    5  C5  UNL     1     -31.967   7.738   1.968  1.00 20.00     0.109 C 
HETATM    6  C6  UNL     1     -34.259   5.267   3.624  1.00 20.00     0.025 C 
HETATM    7  C7  UNL     1     -32.264   8.693   0.821  1.00 20.00     0.037 C 
HETATM    8  N8  UNL     1     -32.395   8.288   3.226  1.00 20.00    -0.352 N 
HETATM    9  O9  UNL     1     -34.021   7.937   4.853  1.00 20.00    -0.273 OA
HETATM   10  H20 UNL     1     -31.935   9.081   3.664  1.00 20.00     0.163 HD
ENDROOT
TORSDOF 0
ENDMDL
MODEL 2
REMARK VINA RESULT:      -1.4      2.152      3.750
REMARK  0 active torsions:
REMARK  status: ('A' for Active; 'I' for Inactive)
ROOT
HETATM    1  C1  UNL     1     -33.537   7.360   3.637  1.00 20.00    -0.054 C 
HETATM    2  C2  UNL     1     -32.972   5.898   1.900  1.00 20.00     0.226 C 
HETATM    3  C3  UNL     1     -33.374   8.333   4.543  1.00 20.00     0.017 C 
HETATM    4  C4  UNL     1     -33.047   7.383   2.210  1.00 20.00     0.104 C 
HETATM    5  C5  UNL     1     -34.158   6.028   3.955  1.00 20.00     0.109 C 
HETATM    6  C6  UNL     1     -31.710   8.065   1.965  1.00 20.00     0.025 C 
HETATM    7  C7  UNL     1     -35.679   6.062   3.915  1.00 20.00     0.037 C 
HETATM    8  N8  UNL     1     -33.629   5.203   2.903  1.00 20.00    -0.352 N 
HETATM    9  O9  UNL     1     -32.443   5.410   0.912  1.00 20.00    -0.273 OA
HETATM   10  H20 UNL     1     -33.728   4.192   2.896  1.00 20.00     0.163 HD
ENDROOT
TORSDOF 0
ENDMDL
MODEL 3
REMARK VINA RESULT:      -0.9      1.312      2.895
REMARK  0 active torsions:
REMARK  status: ('A' for Active; 'I' for Inactive)
ROOT
HETATM    1  C1  UNL     1     -33.112   5.786   2.327  1.00 20.00    -0.054 C 
HETATM    2  C2  UNL     1     -33.899   7.409   3.816  1.00 20.00     0.226 C 
HETATM    3  C3  UNL     1     -32.646   5.276   1.179  1.00 20.00     0.017 C 
HETATM    4  C4  UNL     1     -32.688   7.089   2.958  1.00 20.00     0.104 C 
HETATM    5  C5  UNL     1     -34.230   5.163   3.115  1.00 20.00     0.109 C 
HETATM    6  C6  UNL     1     -32.371   8.231   2.004  1.00 20.00     0.025 C 
HETATM    7  C7  UNL     1     -33.756   4.040   4.027  1.00 20.00     0.037 C 
HETATM    8  N8  UNL     1     -34.708   6.285   3.878  1.00 20.00    -0.352 N 
HETATM    9  O9  UNL     1     -34.103   8.475   4.379  1.00 20.00    -0.273 OA
HETATM   10  H20 UNL     1     -35.567   6.256   4.418  1.00 20.00     0.163 HD
ENDROOT
TORSDOF 0
ENDMDL
MODEL 4
REMARK VINA RESULT:      -0.7      1.706      2.951
REMARK  0 active torsions:
REMARK  status: ('A' for Active; 'I' for Inactive)
ROOT
HETATM    1  C1  UNL     1     -33.995   6.642   3.410  1.00 20.00    -0.054 C 
HETATM    2  C2  UNL     1     -32.311   7.561   2.072  1.00 20.00     0.226 C 
HETATM    3  C3  UNL     1     -35.087   5.929   3.717  1.00 20.00     0.017 C 
HETATM    4  C4  UNL     1     -32.887   6.216   2.479  1.00 20.00     0.104 C 
HETATM    5  C5  UNL     1     -33.766   8.050   3.886  1.00 20.00     0.109 C 
HETATM    6  C6  UNL     1     -33.303   5.404   1.261  1.00 20.00     0.025 C 
HETATM    7  C7  UNL     1     -33.181   8.111   5.290  1.00 20.00     0.037 C 
HETATM    8  N8  UNL     1     -32.828   8.536   2.911  1.00 20.00    -0.352 N 
HETATM    9  O9  UNL     1     -31.504   7.739   1.171  1.00 20.00    -0.273 OA
HETATM   10  H20 UNL     1     -32.565   9.515   2.842  1.00 20.00     0.163 HD
ENDROOT
TORSDOF 0
ENDMDL
MODEL 5
REMARK VINA RESULT:      -0.6      1.588      2.601
REMARK  0 active torsions:
REMARK  status: ('A' for Active; 'I' for Inactive)
ROOT
HETATM    1  C1  UNL     1     -32.638   7.283   2.240  1.00 20.00    -0.054 C 
HETATM    2  C2  UNL     1     -34.213   6.005   3.404  1.00 20.00     0.226 C 
HETATM    3  C3  UNL     1     -32.058   8.380   1.735  1.00 20.00     0.017 C 
HETATM    4  C4  UNL     1     -33.238   7.148   3.618  1.00 20.00     0.104 C 
HETATM    5  C5  UNL     1     -32.871   6.030   1.444  1.00 20.00     0.109 C 
HETATM    6  C6  UNL     1     -33.943   8.378   4.171  1.00 20.00     0.025 C 
HETATM    7  C7  UNL     1     -31.647   5.128   1.390  1.00 20.00     0.037 C 
HETATM    8  N8  UNL     1     -33.940   5.412   2.181  1.00 20.00    -0.352 N 
HETATM    9  O9  UNL     1     -35.075   5.655   4.198  1.00 20.00    -0.273 OA
HETATM   10  H20 UNL     1     -34.452   4.606   1.834  1.00 20.00     0.163 HD
ENDROOT
TORSDOF 0
ENDMDL
MODEL 6
REMARK VINA RESULT:      -0.5      1.602      2.599
REMARK  0 active torsions:
REMARK  status: ('A' for Active; 'I' for Inactive)
ROOT
HETATM    1  C1  UNL     1     -33.607   5.829   2.848  1.00 20.00    -0.054 C 
HETATM    2  C2  UNL     1     -32.505   7.796   2.227  1.00 20.00     0.226 C 
HETATM    3  C3  UNL     1     -34.153   4.916   3.663  1.00 20.00     0.017 C 
HETATM    4  C4  UNL     1     -33.739   7.327   2.975  1.00 20.00     0.104 C 
HETATM    5  C5  UNL     1     -32.674   5.480   1.723  1.00 20.00     0.109 C 
HETATM    6  C6  UNL     1     -33.771   7.885   4.391  1.00 20.00     0.025 C 
HETATM    7  C7  UNL     1     -33.407   5.064   0.455  1.00 20.00     0.037 C 
HETATM    8  N8  UNL     1     -31.972   6.721   1.533  1.00 20.00    -0.352 N 
HETATM    9  O9  UNL     1     -32.077   8.941   2.220  1.00 20.00    -0.273 OA
HETATM   10  H20 UNL     1     -31.152   6.803   0.939  1.00 20.00     0.163 HD
ENDROOT
TORSDOF 0
ENDMDL
MODEL 7
REMARK VINA RESULT:       0.4      2.074      2.778
REMARK  0 active torsions:
REMARK  status: ('A' for Active; 'I' for Inactive)
ROOT
HETATM    1  C1  UNL     1     -33.394   7.224   3.375  1.00 20.00    -0.054 C 
HETATM    2  C2  UNL     1     -32.738   5.722   1.707  1.00 20.00     0.226 C 
HETATM    3  C3  UNL     1     -34.170   7.765   4.323  1.00 20.00     0.017 C 
HETATM    4  C4  UNL     1     -33.131   5.752   3.173  1.00 20.00     0.104 C 
HETATM    5  C5  UNL     1     -32.740   8.026   2.284  1.00 20.00     0.109 C 
HETATM    6  C6  UNL     1     -34.295   4.814   3.452  1.00 20.00     0.025 C 
HETATM    7  C7  UNL     1     -31.431   8.666   2.725  1.00 20.00     0.037 C 
HETATM    8  N8  UNL     1     -32.515   7.022   1.281  1.00 20.00    -0.352 N 
HETATM    9  O9  UNL     1     -32.613   4.710   1.032  1.00 20.00    -0.273 OA
HETATM   10  H20 UNL     1     -32.217   7.246   0.336  1.00 20.00     0.163 HD
ENDROOT
TORSDOF 0
ENDMDL
MODEL 8
REMARK VINA RESULT:       0.6      1.807      2.798
REMARK  0 active torsions:
REMARK  status: ('A' for Active; 'I' for Inactive)
ROOT
HETATM    1  C1  UNL     1     -32.838   7.238   2.356  1.00 20.00    -0.054 C 
HETATM    2  C2  UNL     1     -33.650   5.218   3.212  1.00 20.00     0.226 C 
HETATM    3  C3  UNL     1     -31.987   8.077   1.750  1.00 20.00     0.017 C 
HETATM    4  C4  UNL     1     -33.175   5.837   1.909  1.00 20.00     0.104 C 
HETATM    5  C5  UNL     1     -33.515   7.547   3.662  1.00 20.00     0.109 C 
HETATM    6  C6  UNL     1     -32.039   5.031   1.298  1.00 20.00     0.025 C 
HETATM    7  C7  UNL     1     -34.769   8.394   3.491  1.00 20.00     0.037 C 
HETATM    8  N8  UNL     1     -33.840   6.230   4.140  1.00 20.00    -0.352 N 
HETATM    9  O9  UNL     1     -33.856   4.027   3.392  1.00 20.00    -0.273 OA
HETATM   10  H20 UNL     1     -34.180   6.056   5.081  1.00 20.00     0.163 HD
ENDROOT
TORSDOF 0
ENDMDL
