MODEL 1
REMARK VINA RESULT:      -1.0      0.000      0.000
REMARK  1 active torsions:
REMARK  status: ('A' for Active; 'I' for Inactive)
REMARK    1  A    between atoms: C5_5  and  C8_8 
ROOT
HETATM    1  C1  UNL     1     -33.937   5.186   2.949  1.00 20.00    -0.004 C 
HETATM    2  C2  UNL     1     -33.216   5.186   1.676  1.00 20.00    -0.004 C 
HETATM    3  C3  UNL     1     -34.187   6.203   3.803  1.00 20.00    -0.026 C 
HETATM    4  C4  UNL     1     -32.301   6.097   1.289  1.00 20.00    -0.021 C 
HETATM    5  C6  UNL     1     -33.790   7.670   3.698  1.00 20.00     0.033 C 
HETATM    6  C7  UNL     1     -31.942   7.242   2.121  1.00 20.00     0.026 A 
HETATM    7  C8  UNL     1     -31.976   8.718   1.920  1.00 20.00     0.085 A 
HETATM    8  C9  UNL     1     -33.232   8.029   2.366  1.00 20.00     0.011 A 
ENDROOT
BRANCH   7   9
HETATM    9  C5  UNL     1     -31.884   9.262   0.560  1.00 20.00     0.224 C 
HETATM   10  O10 UNL     1     -31.121   8.784  -0.276  1.00 20.00    -0.279 OA
HETATM   11 CL11 UNL     1     -32.955  10.609   0.319  1.00 20.00    -0.043 Cl
ENDBRANCH   7   9
TORSDOF 1
ENDMDL
MODEL 2
REMARK VINA RESULT:      -0.8      3.519      4.530
REMARK  1 active torsions:
REMARK  status: ('A' for Active; 'I' for Inactive)
REMARK    1  A    between atoms: C5_5  and  C8_8 
ROOT
HETATM    1  C1  UNL     1     -31.573   7.491   1.415  1.00 20.00    -0.004 C 
HETATM    2  C2  UNL     1     -32.012   6.104   1.262  1.00 20.00    -0.004 C 
HETATM    3  C3  UNL     1     -31.965   8.432   2.302  1.00 20.00    -0.026 C 
HETATM    4  C4  UNL     1     -33.184   5.596   1.695  1.00 20.00    -0.021 C 
HETATM    5  C6  UNL     1     -32.994   8.331   3.421  1.00 20.00     0.033 C 
HETATM    6  C7  UNL     1     -34.162   6.403   2.417  1.00 20.00     0.026 A 
HETATM    7  C8  UNL     1     -34.808   6.293   3.755  1.00 20.00     0.085 A 
HETATM    8  C9  UNL     1     -33.456   6.937   3.666  1.00 20.00     0.011 A 
ENDROOT
BRANCH   7   9
HETATM    9  C5  UNL     1     -34.949   4.973   4.380  1.00 20.00     0.224 C 
HETATM   10  O10 UNL     1     -35.929   4.684   5.063  1.00 20.00    -0.279 OA
HETATM   11 CL11 UNL     1     -33.600   3.936   4.032  1.00 20.00    -0.043 Cl
ENDBRANCH   7   9
TORSDOF 1
ENDMDL
MODEL 3
REMARK VINA RESULT:      -0.4      1.555      2.554
REMARK  1 active torsions:
REMARK  status: ('A' for Active; 'I' for Inactive)
REMARK    1  A    between atoms: C5_5  and  C8_8 
ROOT
HETATM    1  C1  UNL     1     -34.980   4.897   4.462  1.00 20.00    -0.004 C 
HETATM    2  C2  UNL     1     -35.141   6.346   4.341  1.00 20.00    -0.004 C 
HETATM    3  C3  UNL     1     -34.078   4.073   3.884  1.00 20.00    -0.026 C 
HETATM    4  C4  UNL     1     -34.695   7.106   3.320  1.00 20.00    -0.021 C 
HETATM    5  C6  UNL     1     -32.945   4.409   2.922  1.00 20.00     0.033 C 
HETATM    6  C7  UNL     1     -33.950   6.543   2.198  1.00 20.00     0.026 A 
HETATM    7  C8  UNL     1     -32.603   6.802   1.617  1.00 20.00     0.085 A 
HETATM    8  C9  UNL     1     -32.707   5.872   2.789  1.00 20.00     0.011 A 
ENDROOT
BRANCH   7   9
HETATM    9  C5  UNL     1     -31.989   8.125   1.785  1.00 20.00     0.224 C 
HETATM   10  O10 UNL     1     -31.355   8.418   2.795  1.00 20.00    -0.279 OA
HETATM   11 CL11 UNL     1     -32.276   9.159   0.418  1.00 20.00    -0.043 Cl
ENDBRANCH   7   9
TORSDOF 1
ENDMDL
MODEL 4
REMARK VINA RESULT:       0.5      3.815      4.928
REMARK  1 active torsions:
REMARK  status: ('A' for Active; 'I' for Inactive)
REMARK    1  A    between atoms: C5_5  and  C8_8 
ROOT
HETATM    1  C1  UNL     1     -32.713   7.684   2.068  1.00 20.00    -0.004 C 
HETATM    2  C2  UNL     1     -32.133   6.380   1.748  1.00 20.00    -0.004 C 
HETATM    3  C3  UNL     1     -33.602   8.027   3.027  1.00 20.00    -0.026 C 
HETATM    4  C4  UNL     1     -32.665   5.182   2.065  1.00 20.00    -0.021 C 
HETATM    5  C6  UNL     1     -34.276   7.149   4.074  1.00 20.00     0.033 C 
HETATM    6  C7  UNL     1     -33.911   5.058   2.815  1.00 20.00     0.026 A 
HETATM    7  C8  UNL     1     -34.283   4.401   4.100  1.00 20.00     0.085 A 
HETATM    8  C9  UNL     1     -33.695   5.780   4.148  1.00 20.00     0.011 A 
ENDROOT
BRANCH   7   9
HETATM    9  C5  UNL     1     -33.500   3.255   4.576  1.00 20.00     0.224 C 
HETATM   10  O10 UNL     1     -33.633   2.135   4.088  1.00 20.00    -0.279 OA
HETATM   11 CL11 UNL     1     -32.417   3.691   5.862  1.00 20.00    -0.043 Cl
ENDBRANCH   7   9
TORSDOF 1
ENDMDL
MODEL 5
REMARK VINA RESULT:       0.6      2.811      3.606
REMARK  1 active torsions:
REMARK  status: ('A' for Active; 'I' for Inactive)
REMARK    1  A    between atoms: C5_5  and  C8_8 
ROOT
HETATM    1  C1  UNL     1     -34.420   7.431   4.168  1.00 20.00    -0.004 C 
HETATM    2  C2  UNL     1     -34.798   6.071   3.782  1.00 20.00    -0.004 C 
HETATM    3  C3  UNL     1     -33.457   8.238   3.670  1.00 20.00    -0.026 C 
HETATM    4  C4  UNL     1     -34.008   5.187   3.139  1.00 20.00    -0.021 C 
HETATM    5  C6  UNL     1     -32.464   7.972   2.547  1.00 20.00     0.033 C 
HETATM    6  C7  UNL     1     -32.650   5.518   2.719  1.00 20.00     0.026 A 
HETATM    7  C8  UNL     1     -31.947   5.526   1.405  1.00 20.00     0.085 A 
HETATM    8  C9  UNL     1     -32.761   6.727   1.786  1.00 20.00     0.011 A 
ENDROOT
BRANCH   7   9
HETATM    9  C5  UNL     1     -32.412   4.638   0.334  1.00 20.00     0.224 C 
HETATM   10  O10 UNL     1     -33.589   4.609  -0.015  1.00 20.00    -0.279 OA
HETATM   11 CL11 UNL     1     -31.122   3.684  -0.332  1.00 20.00    -0.043 Cl
ENDBRANCH   7   9
TORSDOF 1
ENDMDL
MODEL 6
REMARK VINA RESULT:       0.9      2.527      3.305
REMARK  1 active torsions:
REMARK  status: ('A' for Active; 'I' for Inactive)
REMARK    1  A    between atoms: C5_5  and  C8_8 
ROOT
HETATM    1  C1  UNL     1     -34.667   7.115   4.290  1.00 20.00    -0.004 C 
HETATM    2  C2  UNL     1     -34.895   5.746   3.827  1.00 20.00    -0.004 C 
HETATM    3  C3  UNL     1     -33.782   8.040   3.858  1.00 20.00    -0.026 C 
HETATM    4  C4  UNL     1     -34.006   4.981   3.162  1.00 20.00    -0.021 C 
HETATM    5  C6  UNL     1     -32.743   7.935   2.749  1.00 20.00     0.033 C 
HETATM    6  C7  UNL     1     -32.681   5.469   2.794  1.00 20.00     0.026 A 
HETATM    7  C8  UNL     1     -31.955   5.617   1.501  1.00 20.00     0.085 A 
HETATM    8  C9  UNL     1     -32.895   6.708   1.921  1.00 20.00     0.011 A 
ENDROOT
BRANCH   7   9
HETATM    9  C5  UNL     1     -32.304   4.744   0.375  1.00 20.00     0.224 C 
HETATM   10  O10 UNL     1     -31.491   3.963  -0.112  1.00 20.00    -0.279 OA
HETATM   11 CL11 UNL     1     -33.948   4.966  -0.140  1.00 20.00    -0.043 Cl
ENDBRANCH   7   9
TORSDOF 1
ENDMDL
MODEL 7
REMARK VINA RESULT:       1.0      3.144      4.590
REMARK  1 active torsions:
REMARK  status: ('A' for Active; 'I' for Inactive)
REMARK    1  A    between atoms: C5_5  and  C8_8 
ROOT
HETATM    1  C1  UNL     1     -31.860   8.216   1.536  1.00 20.00    -0.004 C 
HETATM    2  C2  UNL     1     -32.701   8.666   2.646  1.00 20.00    -0.004 C 
HETATM    3  C3  UNL     1     -31.754   6.995   0.968  1.00 20.00    -0.026 C 
HETATM    4  C4  UNL     1     -33.235   7.876   3.599  1.00 20.00    -0.021 C 
HETATM    5  C6  UNL     1     -32.485   5.704   1.316  1.00 20.00     0.033 C 
HETATM    6  C7  UNL     1     -33.048   6.428   3.606  1.00 20.00     0.026 A 
HETATM    7  C8  UNL     1     -33.978   5.264   3.581  1.00 20.00     0.085 A 
HETATM    8  C9  UNL     1     -33.602   5.907   2.278  1.00 20.00     0.011 A 
ENDROOT
BRANCH   7   9
HETATM    9  C5  UNL     1     -35.339   5.419   4.107  1.00 20.00     0.224 C 
HETATM   10  O10 UNL     1     -35.771   4.696   5.001  1.00 20.00    -0.279 OA
HETATM   11 CL11 UNL     1     -36.202   6.705   3.320  1.00 20.00    -0.043 Cl
ENDBRANCH   7   9
TORSDOF 1
ENDMDL
MODEL 8
REMARK VINA RESULT:       1.2      2.592      3.527
REMARK  1 active torsions:
REMARK  status: ('A' for Active; 'I' for Inactive)
REMARK    1  A    between atoms: C5_5  and  C8_8 
ROOT
HETATM    1  C1  UNL     1     -33.072   8.427   4.462  1.00 20.00    -0.004 C 
HETATM    2  C2  UNL     1     -31.991   8.383   3.478  1.00 20.00    -0.004 C 
HETATM    3  C3  UNL     1     -34.148   7.622   4.604  1.00 20.00    -0.026 C 
HETATM    4  C4  UNL     1     -32.053   7.796   2.265  1.00 20.00    -0.021 C 
HETATM    5  C6  UNL     1     -34.565   6.415   3.774  1.00 20.00     0.033 C 
HETATM    6  C7  UNL     1     -33.243   7.089   1.803  1.00 20.00     0.026 A 
HETATM    7  C8  UNL     1     -33.506   5.696   1.342  1.00 20.00     0.085 A 
HETATM    8  C9  UNL     1     -33.514   5.974   2.816  1.00 20.00     0.011 A 
ENDROOT
BRANCH   7   9
HETATM    9  C5  UNL     1     -32.412   4.915   0.752  1.00 20.00     0.224 C 
HETATM   10  O10 UNL     1     -31.256   5.018   1.153  1.00 20.00    -0.279 OA
HETATM   11 CL11 UNL     1     -32.965   3.879  -0.529  1.00 20.00    -0.043 Cl
ENDBRANCH   7   9
TORSDOF 1
ENDMDL
MODEL 9
REMARK VINA RESULT:       1.5      0.948      1.074
REMARK  1 active torsions:
REMARK  status: ('A' for Active; 'I' for Inactive)
REMARK    1  A    between atoms: C5_5  and  C8_8 
ROOT
HETATM    1  C1  UNL     1     -32.955   4.796   2.178  1.00 20.00    -0.004 C 
HETATM    2  C2  UNL     1     -32.094   5.257   1.088  1.00 20.00    -0.004 C 
HETATM    3  C3  UNL     1     -33.776   5.497   2.990  1.00 20.00    -0.026 C 
HETATM    4  C4  UNL     1     -31.623   6.511   0.933  1.00 20.00    -0.021 C 
HETATM    5  C6  UNL     1     -34.056   6.994   3.017  1.00 20.00     0.033 C 
HETATM    6  C7  UNL     1     -31.961   7.589   1.857  1.00 20.00     0.026 A 
HETATM    7  C8  UNL     1     -32.608   8.922   1.699  1.00 20.00     0.085 A 
HETATM    8  C9  UNL     1     -33.487   7.716   1.846  1.00 20.00     0.011 A 
ENDROOT
BRANCH   7   9
HETATM    9  C5  UNL     1     -32.525   9.614   0.407  1.00 20.00     0.224 C 
HETATM   10  O10 UNL     1     -32.835   9.058  -0.643  1.00 20.00    -0.279 OA
HETATM   11 CL11 UNL     1     -31.955  11.246   0.574  1.00 20.00    -0.043 Cl
ENDBRANCH   7   9
TORSDOF 1
ENDMDL
