MODEL 1
REMARK VINA RESULT:      -1.5      0.000      0.000
REMARK  1 active torsions:
REMARK  status: ('A' for Active; 'I' for Inactive)
REMARK    1  A    between atoms: C2_2  and  C3_3 
ROOT
HETATM    1  C1  UNL     1     -33.299   4.969   1.901  1.00 20.00    -0.015 C 
HETATM    2  C2  UNL     1     -33.597   5.347   3.147  1.00 20.00    -0.012 C 
HETATM    3  C4  UNL     1     -32.698   6.100   1.132  1.00 20.00     0.032 C 
HETATM    4  C5  UNL     1     -33.261   6.781   3.425  1.00 20.00     0.022 C 
HETATM    5  C6  UNL     1     -32.298   7.079   2.249  1.00 20.00    -0.007 C 
HETATM    6  C8  UNL     1     -34.517   7.647   3.477  1.00 20.00     0.015 C 
HETATM    7  C9  UNL     1     -32.237   8.523   1.772  1.00 20.00     0.011 C 
ENDROOT
BRANCH   2   8
HETATM    8  C3  UNL     1     -34.183   4.444   4.123  1.00 20.00     0.151 C 
HETATM    9  C7  UNL     1     -33.393   3.222   4.540  1.00 20.00     0.096 C 
HETATM   10  O10 UNL     1     -35.306   4.659   4.601  1.00 20.00    -0.293 OA
ENDBRANCH   2   8
TORSDOF 1
ENDMDL
MODEL 2
REMARK VINA RESULT:      -1.4      1.079      2.207
REMARK  1 active torsions:
REMARK  status: ('A' for Active; 'I' for Inactive)
REMARK    1  A    between atoms: C2_2  and  C3_3 
ROOT
HETATM    1  C1  UNL     1     -33.091   7.659   3.957  1.00 20.00    -0.015 C 
HETATM    2  C2  UNL     1     -33.632   6.668   3.242  1.00 20.00    -0.012 C 
HETATM    3  C4  UNL     1     -32.185   8.491   3.110  1.00 20.00     0.032 C 
HETATM    4  C5  UNL     1     -33.181   6.658   1.813  1.00 20.00     0.022 C 
HETATM    5  C6  UNL     1     -32.608   8.091   1.687  1.00 20.00    -0.007 C 
HETATM    6  C8  UNL     1     -32.186   5.530   1.550  1.00 20.00     0.015 C 
HETATM    7  C9  UNL     1     -31.497   8.289   0.665  1.00 20.00     0.011 C 
ENDROOT
BRANCH   2   8
HETATM    8  C3  UNL     1     -34.565   5.709   3.809  1.00 20.00     0.151 C 
HETATM    9  C7  UNL     1     -34.086   4.293   4.050  1.00 20.00     0.096 C 
HETATM   10  O10 UNL     1     -35.728   6.034   4.085  1.00 20.00    -0.293 OA
ENDBRANCH   2   8
TORSDOF 1
ENDMDL
MODEL 3
REMARK VINA RESULT:      -1.2      2.361      4.083
REMARK  1 active torsions:
REMARK  status: ('A' for Active; 'I' for Inactive)
REMARK    1  A    between atoms: C2_2  and  C3_3 
ROOT
HETATM    1  C1  UNL     1     -32.726   5.958   1.947  1.00 20.00    -0.015 C 
HETATM    2  C2  UNL     1     -32.793   7.262   2.230  1.00 20.00    -0.012 C 
HETATM    3  C4  UNL     1     -33.735   5.190   2.738  1.00 20.00     0.032 C 
HETATM    4  C5  UNL     1     -33.838   7.591   3.251  1.00 20.00     0.022 C 
HETATM    5  C6  UNL     1     -34.691   6.298   3.211  1.00 20.00    -0.007 C 
HETATM    6  C8  UNL     1     -33.211   7.919   4.604  1.00 20.00     0.015 C 
HETATM    7  C9  UNL     1     -35.428   5.933   4.492  1.00 20.00     0.011 C 
ENDROOT
BRANCH   2   8
HETATM    8  C3  UNL     1     -31.934   8.248   1.595  1.00 20.00     0.151 C 
HETATM    9  C7  UNL     1     -32.575   9.313   0.732  1.00 20.00     0.096 C 
HETATM   10  O10 UNL     1     -30.705   8.218   1.748  1.00 20.00    -0.293 OA
ENDBRANCH   2   8
TORSDOF 1
ENDMDL
MODEL 4
REMARK VINA RESULT:      -0.6      2.223      4.416
REMARK  1 active torsions:
REMARK  status: ('A' for Active; 'I' for Inactive)
REMARK    1  A    between atoms: C2_2  and  C3_3 
ROOT
HETATM    1  C1  UNL     1     -33.839   7.914   3.125  1.00 20.00    -0.015 C 
HETATM    2  C2  UNL     1     -32.885   7.429   2.326  1.00 20.00    -0.012 C 
HETATM    3  C4  UNL     1     -34.533   6.810   3.856  1.00 20.00     0.032 C 
HETATM    4  C5  UNL     1     -32.779   5.935   2.373  1.00 20.00     0.022 C 
HETATM    5  C6  UNL     1     -33.553   5.638   3.682  1.00 20.00    -0.007 C 
HETATM    6  C8  UNL     1     -33.357   5.296   1.112  1.00 20.00     0.015 C 
HETATM    7  C9  UNL     1     -34.237   4.280   3.770  1.00 20.00     0.011 C 
ENDROOT
BRANCH   2   8
HETATM    8  C3  UNL     1     -32.041   8.280   1.504  1.00 20.00     0.151 C 
HETATM    9  C7  UNL     1     -32.663   9.496   0.850  1.00 20.00     0.096 C 
HETATM   10  O10 UNL     1     -30.842   8.019   1.334  1.00 20.00    -0.293 OA
ENDBRANCH   2   8
TORSDOF 1
ENDMDL
MODEL 5
REMARK VINA RESULT:      -0.4      2.313      3.945
REMARK  1 active torsions:
REMARK  status: ('A' for Active; 'I' for Inactive)
REMARK    1  A    between atoms: C2_2  and  C3_3 
ROOT
HETATM    1  C1  UNL     1     -32.769   5.964   2.019  1.00 20.00    -0.015 C 
HETATM    2  C2  UNL     1     -32.937   7.253   2.325  1.00 20.00    -0.012 C 
HETATM    3  C4  UNL     1     -33.708   5.105   2.801  1.00 20.00     0.032 C 
HETATM    4  C5  UNL     1     -33.999   7.481   3.357  1.00 20.00     0.022 C 
HETATM    5  C6  UNL     1     -34.746   6.125   3.298  1.00 20.00    -0.007 C 
HETATM    6  C8  UNL     1     -33.392   7.834   4.712  1.00 20.00     0.015 C 
HETATM    7  C9  UNL     1     -35.445   5.680   4.576  1.00 20.00     0.011 C 
ENDROOT
BRANCH   2   8
HETATM    8  C3  UNL     1     -32.163   8.315   1.704  1.00 20.00     0.151 C 
HETATM    9  C7  UNL     1     -30.787   8.621   2.256  1.00 20.00     0.096 C 
HETATM   10  O10 UNL     1     -32.615   8.963   0.750  1.00 20.00    -0.293 OA
ENDBRANCH   2   8
TORSDOF 1
ENDMDL
MODEL 6
REMARK VINA RESULT:      -0.1      1.568      2.909
REMARK  1 active torsions:
REMARK  status: ('A' for Active; 'I' for Inactive)
REMARK    1  A    between atoms: C2_2  and  C3_3 
ROOT
HETATM    1  C1  UNL     1     -32.495   7.658   2.505  1.00 20.00    -0.015 C 
HETATM    2  C2  UNL     1     -33.414   6.805   2.968  1.00 20.00    -0.012 C 
HETATM    3  C4  UNL     1     -31.679   7.025   1.426  1.00 20.00     0.032 C 
HETATM    4  C5  UNL     1     -33.370   5.468   2.294  1.00 20.00     0.022 C 
HETATM    5  C6  UNL     1     -32.541   5.814   1.032  1.00 20.00    -0.007 C 
HETATM    6  C8  UNL     1     -32.761   4.405   3.205  1.00 20.00     0.015 C 
HETATM    7  C9  UNL     1     -31.723   4.681   0.427  1.00 20.00     0.011 C 
ENDROOT
BRANCH   2   8
HETATM    8  C3  UNL     1     -34.358   7.160   4.015  1.00 20.00     0.151 C 
HETATM    9  C7  UNL     1     -35.619   6.335   4.158  1.00 20.00     0.096 C 
HETATM   10  O10 UNL     1     -34.143   8.117   4.772  1.00 20.00    -0.293 OA
ENDBRANCH   2   8
TORSDOF 1
ENDMDL
MODEL 7
REMARK VINA RESULT:       0.0      2.156      4.227
REMARK  1 active torsions:
REMARK  status: ('A' for Active; 'I' for Inactive)
REMARK    1  A    between atoms: C2_2  and  C3_3 
ROOT
HETATM    1  C1  UNL     1     -34.161   7.749   3.243  1.00 20.00    -0.015 C 
HETATM    2  C2  UNL     1     -33.122   7.389   2.483  1.00 20.00    -0.012 C 
HETATM    3  C4  UNL     1     -34.757   6.563   3.926  1.00 20.00     0.032 C 
HETATM    4  C5  UNL     1     -32.850   5.915   2.518  1.00 20.00     0.022 C 
HETATM    5  C6  UNL     1     -33.644   5.511   3.785  1.00 20.00    -0.007 C 
HETATM    6  C8  UNL     1     -33.293   5.237   1.225  1.00 20.00     0.015 C 
HETATM    7  C9  UNL     1     -34.173   4.084   3.826  1.00 20.00     0.011 C 
ENDROOT
BRANCH   2   8
HETATM    8  C3  UNL     1     -32.344   8.343   1.712  1.00 20.00     0.151 C 
HETATM    9  C7  UNL     1     -30.871   8.068   1.500  1.00 20.00     0.096 C 
HETATM   10  O10 UNL     1     -32.866   9.364   1.243  1.00 20.00    -0.293 OA
ENDBRANCH   2   8
TORSDOF 1
ENDMDL
MODEL 8
REMARK VINA RESULT:       0.2      1.944      2.403
REMARK  1 active torsions:
REMARK  status: ('A' for Active; 'I' for Inactive)
REMARK    1  A    between atoms: C2_2  and  C3_3 
ROOT
HETATM    1  C1  UNL     1     -33.151   6.076   2.071  1.00 20.00    -0.015 C 
HETATM    2  C2  UNL     1     -33.272   7.174   2.823  1.00 20.00    -0.012 C 
HETATM    3  C4  UNL     1     -32.186   6.301   0.953  1.00 20.00     0.032 C 
HETATM    4  C5  UNL     1     -32.427   8.314   2.343  1.00 20.00     0.022 C 
HETATM    5  C6  UNL     1     -31.438   7.562   1.417  1.00 20.00    -0.007 C 
HETATM    6  C8  UNL     1     -33.273   9.386   1.662  1.00 20.00     0.015 C 
HETATM    7  C9  UNL     1     -30.855   8.361   0.259  1.00 20.00     0.011 C 
ENDROOT
BRANCH   2   8
HETATM    8  C3  UNL     1     -34.136   7.235   3.990  1.00 20.00     0.151 C 
HETATM    9  C7  UNL     1     -35.315   6.289   4.064  1.00 20.00     0.096 C 
HETATM   10  O10 UNL     1     -33.923   8.045   4.903  1.00 20.00    -0.293 OA
ENDBRANCH   2   8
TORSDOF 1
ENDMDL
MODEL 9
REMARK VINA RESULT:       0.8      2.118      3.058
REMARK  1 active torsions:
REMARK  status: ('A' for Active; 'I' for Inactive)
REMARK    1  A    between atoms: C2_2  and  C3_3 
ROOT
HETATM    1  C1  UNL     1     -32.266   7.744   1.743  1.00 20.00    -0.015 C 
HETATM    2  C2  UNL     1     -32.825   6.553   1.977  1.00 20.00    -0.012 C 
HETATM    3  C4  UNL     1     -32.455   8.657   2.911  1.00 20.00     0.032 C 
HETATM    4  C5  UNL     1     -33.483   6.463   3.320  1.00 20.00     0.022 C 
HETATM    5  C6  UNL     1     -32.838   7.678   4.033  1.00 20.00    -0.007 C 
HETATM    6  C8  UNL     1     -35.004   6.508   3.198  1.00 20.00     0.015 C 
HETATM    7  C9  UNL     1     -33.663   8.334   5.131  1.00 20.00     0.011 C 
ENDROOT
BRANCH   2   8
HETATM    8  C3  UNL     1     -32.782   5.464   1.015  1.00 20.00     0.151 C 
HETATM    9  C7  UNL     1     -31.535   4.610   0.948  1.00 20.00     0.096 C 
HETATM   10  O10 UNL     1     -33.739   5.240   0.260  1.00 20.00    -0.293 OA
ENDBRANCH   2   8
TORSDOF 1
ENDMDL
