MODEL 1
REMARK VINA RESULT:       0.1      0.000      0.000
REMARK  1 active torsions:
REMARK  status: ('A' for Active; 'I' for Inactive)
REMARK    1  A    between atoms: C1_1  and  C8_8 
REMARK       I    between atoms: C1_1  and  N9_9 
ROOT
HETATM    1  C1  UNL     1     -33.281   6.911   2.645  1.00 20.00     0.237 C 
HETATM    2  C2  UNL     1     -32.653   9.803  -0.496  1.00 20.00     0.013 A 
HETATM    3  C3  UNL     1     -31.733   7.731   0.806  1.00 20.00     0.130 A 
HETATM    4  C4  UNL     1     -33.136   9.312   2.024  1.00 20.00     0.130 A 
HETATM    5  C5  UNL     1     -31.536   9.091   0.221  1.00 20.00     0.010 A 
HETATM    6  C6  UNL     1     -32.394  10.056   0.965  1.00 20.00     0.010 A 
HETATM    7  N9  UNL     1     -32.741   7.913   1.855  1.00 20.00    -0.350 N 
HETATM    8  O10 UNL     1     -32.970   5.722   2.558  1.00 20.00    -0.272 OA
ENDROOT
BRANCH   1   9
HETATM    9  C8  UNL     1     -34.303   7.361   3.659  1.00 20.00     0.170 C 
HETATM   10  C7  UNL     1     -35.210   6.215   4.040  1.00 20.00     0.036 C 
HETATM   11 CL11 UNL     1     -33.387   7.945   5.056  1.00 20.00    -0.115 Cl
ENDBRANCH   1   9
TORSDOF 1
ENDMDL
MODEL 2
REMARK VINA RESULT:       1.0      1.517      1.559
REMARK  1 active torsions:
REMARK  status: ('A' for Active; 'I' for Inactive)
REMARK    1  A    between atoms: C1_1  and  C8_8 
REMARK       I    between atoms: C1_1  and  N9_9 
ROOT
HETATM    1  C1  UNL     1     -33.138   5.886   2.251  1.00 20.00     0.237 C 
HETATM    2  C2  UNL     1     -32.639   9.850   0.619  1.00 20.00     0.013 A 
HETATM    3  C3  UNL     1     -31.904   7.342   0.575  1.00 20.00     0.130 A 
HETATM    4  C4  UNL     1     -32.639   8.276   2.705  1.00 20.00     0.130 A 
HETATM    5  C5  UNL     1     -31.564   8.796   0.599  1.00 20.00     0.010 A 
HETATM    6  C6  UNL     1     -32.015   9.367   1.900  1.00 20.00     0.010 A 
HETATM    7  N9  UNL     1     -32.592   7.093   1.846  1.00 20.00    -0.350 N 
HETATM    8  O10 UNL     1     -33.109   4.856   1.575  1.00 20.00    -0.272 OA
ENDROOT
BRANCH   1   9
HETATM    9  C8  UNL     1     -33.792   5.890   3.609  1.00 20.00     0.170 C 
HETATM   10  C7  UNL     1     -35.146   6.558   3.545  1.00 20.00     0.036 C 
HETATM   11 CL11 UNL     1     -33.937   4.193   4.092  1.00 20.00    -0.115 Cl
ENDBRANCH   1   9
TORSDOF 1
ENDMDL
MODEL 3
REMARK VINA RESULT:       2.0      2.310      2.962
REMARK  1 active torsions:
REMARK  status: ('A' for Active; 'I' for Inactive)
REMARK    1  A    between atoms: C1_1  and  C8_8 
REMARK       I    between atoms: C1_1  and  N9_9 
ROOT
HETATM    1  C1  UNL     1     -34.104   7.250   4.040  1.00 20.00     0.237 C 
HETATM    2  C2  UNL     1     -31.266   5.514   1.292  1.00 20.00     0.013 A 
HETATM    3  C3  UNL     1     -32.201   7.681   2.414  1.00 20.00     0.130 A 
HETATM    4  C4  UNL     1     -33.752   5.838   2.027  1.00 20.00     0.130 A 
HETATM    5  C5  UNL     1     -31.758   6.933   1.199  1.00 20.00     0.010 A 
HETATM    6  C6  UNL     1     -32.705   5.807   0.964  1.00 20.00     0.010 A 
HETATM    7  N9  UNL     1     -33.377   6.951   2.900  1.00 20.00    -0.350 N 
HETATM    8  O10 UNL     1     -33.843   8.186   4.798  1.00 20.00    -0.272 OA
ENDROOT
BRANCH   1   9
HETATM    9  C8  UNL     1     -35.277   6.344   4.321  1.00 20.00     0.170 C 
HETATM   10  C7  UNL     1     -36.323   6.483   3.240  1.00 20.00     0.036 C 
HETATM   11 CL11 UNL     1     -34.627   4.698   4.375  1.00 20.00    -0.115 Cl
ENDBRANCH   1   9
TORSDOF 1
ENDMDL
MODEL 4
REMARK VINA RESULT:       2.0      2.255      4.527
REMARK  1 active torsions:
REMARK  status: ('A' for Active; 'I' for Inactive)
REMARK    1  A    between atoms: C1_1  and  C8_8 
REMARK       I    between atoms: C1_1  and  N9_9 
ROOT
HETATM    1  C1  UNL     1     -32.396   6.967   1.929  1.00 20.00     0.237 C 
HETATM    2  C2  UNL     1     -34.144   4.429   4.948  1.00 20.00     0.013 A 
HETATM    3  C3  UNL     1     -33.304   4.661   2.484  1.00 20.00     0.130 A 
HETATM    4  C4  UNL     1     -34.238   6.640   3.561  1.00 20.00     0.130 A 
HETATM    5  C5  UNL     1     -34.338   4.224   3.470  1.00 20.00     0.010 A 
HETATM    6  C6  UNL     1     -34.907   5.433   4.128  1.00 20.00     0.010 A 
HETATM    7  N9  UNL     1     -33.251   6.121   2.615  1.00 20.00    -0.350 N 
HETATM    8  O10 UNL     1     -31.560   6.585   1.108  1.00 20.00    -0.272 OA
ENDROOT
BRANCH   1   9
HETATM    9  C8  UNL     1     -32.542   8.435   2.241  1.00 20.00     0.170 C 
HETATM   10  C7  UNL     1     -31.527   8.861   3.275  1.00 20.00     0.036 C 
HETATM   11 CL11 UNL     1     -32.296   9.292   0.711  1.00 20.00    -0.115 Cl
ENDBRANCH   1   9
TORSDOF 1
ENDMDL
MODEL 5
REMARK VINA RESULT:       2.2      2.737      4.486
REMARK  1 active torsions:
REMARK  status: ('A' for Active; 'I' for Inactive)
REMARK    1  A    between atoms: C1_1  and  C8_8 
REMARK       I    between atoms: C1_1  and  N9_9 
ROOT
HETATM    1  C1  UNL     1     -32.246   6.909   1.587  1.00 20.00     0.237 C 
HETATM    2  C2  UNL     1     -35.846   6.430   3.917  1.00 20.00     0.013 A 
HETATM    3  C3  UNL     1     -33.590   7.709   3.588  1.00 20.00     0.130 A 
HETATM    4  C4  UNL     1     -33.685   5.370   2.902  1.00 20.00     0.130 A 
HETATM    5  C5  UNL     1     -34.563   6.994   4.468  1.00 20.00     0.010 A 
HETATM    6  C6  UNL     1     -34.621   5.565   4.047  1.00 20.00     0.010 A 
HETATM    7  N9  UNL     1     -33.128   6.696   2.634  1.00 20.00    -0.350 N 
HETATM    8  O10 UNL     1     -31.732   7.999   1.330  1.00 20.00    -0.272 OA
ENDROOT
BRANCH   1   9
HETATM    9  C8  UNL     1     -31.926   5.697   0.748  1.00 20.00     0.170 C 
HETATM   10  C7  UNL     1     -31.192   4.663   1.569  1.00 20.00     0.036 C 
HETATM   11 CL11 UNL     1     -33.479   5.073   0.172  1.00 20.00    -0.115 Cl
ENDBRANCH   1   9
TORSDOF 1
ENDMDL
MODEL 6
REMARK VINA RESULT:       2.4      1.597      1.852
REMARK  1 active torsions:
REMARK  status: ('A' for Active; 'I' for Inactive)
REMARK    1  A    between atoms: C1_1  and  C8_8 
REMARK       I    between atoms: C1_1  and  N9_9 
ROOT
HETATM    1  C1  UNL     1     -33.843   5.766   3.187  1.00 20.00     0.237 C 
HETATM    2  C2  UNL     1     -32.194   8.599   0.382  1.00 20.00     0.013 A 
HETATM    3  C3  UNL     1     -31.960   6.279   1.562  1.00 20.00     0.130 A 
HETATM    4  C4  UNL     1     -33.038   8.083   2.800  1.00 20.00     0.130 A 
HETATM    5  C5  UNL     1     -31.370   7.578   1.120  1.00 20.00     0.010 A 
HETATM    6  C6  UNL     1     -32.030   8.680   1.876  1.00 20.00     0.010 A 
HETATM    7  N9  UNL     1     -32.992   6.644   2.538  1.00 20.00    -0.350 N 
HETATM    8  O10 UNL     1     -33.833   4.545   3.019  1.00 20.00    -0.272 OA
ENDROOT
BRANCH   1   9
HETATM    9  C8  UNL     1     -34.817   6.395   4.151  1.00 20.00     0.170 C 
HETATM   10  C7  UNL     1     -34.226   7.643   4.764  1.00 20.00     0.036 C 
HETATM   11 CL11 UNL     1     -36.269   6.770   3.209  1.00 20.00    -0.115 Cl
ENDBRANCH   1   9
TORSDOF 1
ENDMDL
MODEL 7
REMARK VINA RESULT:       2.4      2.022      2.733
REMARK  1 active torsions:
REMARK  status: ('A' for Active; 'I' for Inactive)
REMARK    1  A    between atoms: C1_1  and  C8_8 
REMARK       I    between atoms: C1_1  and  N9_9 
ROOT
HETATM    1  C1  UNL     1     -34.207   6.557   3.854  1.00 20.00     0.237 C 
HETATM    2  C2  UNL     1     -30.790   7.589   1.429  1.00 20.00     0.013 A 
HETATM    3  C3  UNL     1     -32.926   8.415   2.689  1.00 20.00     0.130 A 
HETATM    4  C4  UNL     1     -32.960   6.167   1.742  1.00 20.00     0.130 A 
HETATM    5  C5  UNL     1     -32.059   8.398   1.473  1.00 20.00     0.010 A 
HETATM    6  C6  UNL     1     -32.079   7.024   0.896  1.00 20.00     0.010 A 
HETATM    7  N9  UNL     1     -33.404   7.036   2.832  1.00 20.00    -0.350 N 
HETATM    8  O10 UNL     1     -34.625   7.250   4.784  1.00 20.00    -0.272 OA
ENDROOT
BRANCH   1   9
HETATM    9  C8  UNL     1     -34.564   5.095   3.771  1.00 20.00     0.170 C 
HETATM   10  C7  UNL     1     -33.369   4.237   4.115  1.00 20.00     0.036 C 
HETATM   11 CL11 UNL     1     -35.885   4.843   4.922  1.00 20.00    -0.115 Cl
ENDBRANCH   1   9
TORSDOF 1
ENDMDL
MODEL 8
REMARK VINA RESULT:       2.6      3.261      4.113
REMARK  1 active torsions:
REMARK  status: ('A' for Active; 'I' for Inactive)
REMARK    1  A    between atoms: C1_1  and  C8_8 
REMARK       I    between atoms: C1_1  and  N9_9 
ROOT
HETATM    1  C1  UNL     1     -33.847   4.205   4.202  1.00 20.00     0.237 C 
HETATM    2  C2  UNL     1     -32.041   7.389   1.918  1.00 20.00     0.013 A 
HETATM    3  C3  UNL     1     -34.226   6.109   2.565  1.00 20.00     0.130 A 
HETATM    4  C4  UNL     1     -32.138   4.849   2.520  1.00 20.00     0.130 A 
HETATM    5  C5  UNL     1     -33.329   6.711   1.534  1.00 20.00     0.010 A 
HETATM    6  C6  UNL     1     -32.053   5.942   1.507  1.00 20.00     0.010 A 
HETATM    7  N9  UNL     1     -33.441   5.023   3.161  1.00 20.00    -0.350 N 
HETATM    8  O10 UNL     1     -34.941   4.296   4.764  1.00 20.00    -0.272 OA
ENDROOT
BRANCH   1   9
HETATM    9  C8  UNL     1     -32.853   3.156   4.632  1.00 20.00     0.170 C 
HETATM   10  C7  UNL     1     -32.509   3.318   6.094  1.00 20.00     0.036 C 
HETATM   11 CL11 UNL     1     -33.625   1.592   4.326  1.00 20.00    -0.115 Cl
ENDBRANCH   1   9
TORSDOF 1
ENDMDL
MODEL 9
REMARK VINA RESULT:       2.8      2.350      4.517
REMARK  1 active torsions:
REMARK  status: ('A' for Active; 'I' for Inactive)
REMARK    1  A    between atoms: C1_1  and  C8_8 
REMARK       I    between atoms: C1_1  and  N9_9 
ROOT
HETATM    1  C1  UNL     1     -32.427   8.982   1.749  1.00 20.00     0.237 C 
HETATM    2  C2  UNL     1     -35.206   6.342   3.732  1.00 20.00     0.013 A 
HETATM    3  C3  UNL     1     -33.183   7.982   3.958  1.00 20.00     0.130 A 
HETATM    4  C4  UNL     1     -33.380   6.693   1.896  1.00 20.00     0.130 A 
HETATM    5  C5  UNL     1     -33.842   6.678   4.272  1.00 20.00     0.010 A 
HETATM    6  C6  UNL     1     -33.963   5.892   3.012  1.00 20.00     0.010 A 
HETATM    7  N9  UNL     1     -32.971   7.958   2.507  1.00 20.00    -0.350 N 
HETATM    8  O10 UNL     1     -32.049  10.058   2.215  1.00 20.00    -0.272 OA
ENDROOT
BRANCH   1   9
HETATM    9  C8  UNL     1     -32.312   8.707   0.271  1.00 20.00     0.170 C 
HETATM   10  C7  UNL     1     -32.789   9.897  -0.528  1.00 20.00     0.036 C 
HETATM   11 CL11 UNL     1     -30.600   8.375  -0.036  1.00 20.00    -0.115 Cl
ENDBRANCH   1   9
TORSDOF 1
ENDMDL
