MODEL 1
REMARK VINA RESULT:      -0.7      0.000      0.000
REMARK  3 active torsions:
REMARK  status: ('A' for Active; 'I' for Inactive)
REMARK    1  A    between atoms: C1_1  and  C5_5 
REMARK    2  A    between atoms: C6_6  and  C8_8 
REMARK    3  A    between atoms: C8_8  and  C9_9 
ROOT
HETATM    1  C2  UNL     1     -33.858   7.046   1.449  1.00 20.00     0.030 C 
HETATM    2  C3  UNL     1     -32.125   6.024   2.139  1.00 20.00     0.030 C 
HETATM    3  C4  UNL     1     -32.837   7.734   3.183  1.00 20.00     0.030 C 
HETATM    4  C5  UNL     1     -33.481   6.380   2.796  1.00 20.00     0.050 C 
HETATM    5  C6  UNL     1     -32.366   7.522   1.686  1.00 20.00    -0.037 C 
ENDROOT
BRANCH   4   6
HETATM    6  C1  UNL     1     -34.305   5.535   3.619  1.00 20.00     0.181 C 
HETATM    7  O10 UNL     1     -33.869   4.363   3.795  1.00 20.00    -0.647 OA
HETATM    8  O11 UNL     1     -35.357   6.081   4.054  1.00 20.00    -0.647 OA
ENDBRANCH   4   6
BRANCH   5   9
HETATM    9  C8  UNL     1     -31.518   8.392   0.843  1.00 20.00     0.009 C 
BRANCH   9  10
HETATM   10  C9  UNL     1     -32.337   9.322  -0.076  1.00 20.00    -0.004 C 
HETATM   11  C7  UNL     1     -32.696  10.643   0.585  1.00 20.00     0.005 C 
ENDBRANCH   9  10
ENDBRANCH   5   9
TORSDOF 3
ENDMDL
MODEL 2
REMARK VINA RESULT:      -0.7      0.027      1.112
REMARK  3 active torsions:
REMARK  status: ('A' for Active; 'I' for Inactive)
REMARK    1  A    between atoms: C1_1  and  C5_5 
REMARK    2  A    between atoms: C6_6  and  C8_8 
REMARK    3  A    between atoms: C8_8  and  C9_9 
ROOT
HETATM    1  C2  UNL     1     -32.139   6.036   2.160  1.00 20.00     0.030 C 
HETATM    2  C3  UNL     1     -32.857   7.746   3.200  1.00 20.00     0.030 C 
HETATM    3  C4  UNL     1     -33.871   7.054   1.464  1.00 20.00     0.030 C 
HETATM    4  C5  UNL     1     -33.498   6.392   2.813  1.00 20.00     0.050 C 
HETATM    5  C6  UNL     1     -32.382   7.533   1.705  1.00 20.00    -0.037 C 
ENDROOT
BRANCH   4   6
HETATM    6  C1  UNL     1     -34.328   5.548   3.632  1.00 20.00     0.181 C 
HETATM    7  O10 UNL     1     -33.901   4.372   3.800  1.00 20.00    -0.647 OA
HETATM    8  O11 UNL     1     -35.374   6.100   4.072  1.00 20.00    -0.647 OA
ENDBRANCH   4   6
BRANCH   5   9
HETATM    9  C8  UNL     1     -31.532   8.401   0.861  1.00 20.00     0.009 C 
BRANCH   9  10
HETATM   10  C9  UNL     1     -32.350   9.330  -0.060  1.00 20.00    -0.004 C 
HETATM   11  C7  UNL     1     -32.707  10.653   0.598  1.00 20.00     0.005 C 
ENDBRANCH   9  10
ENDBRANCH   5   9
TORSDOF 3
ENDMDL
MODEL 3
REMARK VINA RESULT:      -0.7      0.018      1.108
REMARK  3 active torsions:
REMARK  status: ('A' for Active; 'I' for Inactive)
REMARK    1  A    between atoms: C1_1  and  C5_5 
REMARK    2  A    between atoms: C6_6  and  C8_8 
REMARK    3  A    between atoms: C8_8  and  C9_9 
ROOT
HETATM    1  C2  UNL     1     -32.858   7.743   3.188  1.00 20.00     0.030 C 
HETATM    2  C3  UNL     1     -33.863   7.042   1.451  1.00 20.00     0.030 C 
HETATM    3  C4  UNL     1     -32.134   6.028   2.160  1.00 20.00     0.030 C 
HETATM    4  C5  UNL     1     -33.496   6.385   2.804  1.00 20.00     0.050 C 
HETATM    5  C6  UNL     1     -32.375   7.522   1.696  1.00 20.00    -0.037 C 
ENDROOT
BRANCH   4   6
HETATM    6  C1  UNL     1     -34.326   5.541   3.623  1.00 20.00     0.181 C 
HETATM    7  O10 UNL     1     -33.892   4.368   3.800  1.00 20.00    -0.647 OA
HETATM    8  O11 UNL     1     -35.379   6.088   4.052  1.00 20.00    -0.647 OA
ENDBRANCH   4   6
BRANCH   5   9
HETATM    9  C8  UNL     1     -31.521   8.387   0.854  1.00 20.00     0.009 C 
BRANCH   9  10
HETATM   10  C9  UNL     1     -32.333   9.311  -0.076  1.00 20.00    -0.004 C 
HETATM   11  C7  UNL     1     -32.704  10.633   0.578  1.00 20.00     0.005 C 
ENDBRANCH   9  10
ENDBRANCH   5   9
TORSDOF 3
ENDMDL
MODEL 4
REMARK VINA RESULT:       0.3      2.563      4.840
REMARK  3 active torsions:
REMARK  status: ('A' for Active; 'I' for Inactive)
REMARK    1  A    between atoms: C1_1  and  C5_5 
REMARK    2  A    between atoms: C6_6  and  C8_8 
REMARK    3  A    between atoms: C8_8  and  C9_9 
ROOT
HETATM    1  C2  UNL     1     -32.748   5.966   2.209  1.00 20.00     0.030 C 
HETATM    2  C3  UNL     1     -34.428   7.261   2.347  1.00 20.00     0.030 C 
HETATM    3  C4  UNL     1     -32.860   7.398   3.776  1.00 20.00     0.030 C 
HETATM    4  C5  UNL     1     -32.904   7.506   2.232  1.00 20.00     0.050 C 
HETATM    5  C6  UNL     1     -33.813   6.206   3.355  1.00 20.00    -0.037 C 
ENDROOT
BRANCH   4   6
HETATM    6  C1  UNL     1     -32.231   8.471   1.403  1.00 20.00     0.181 C 
HETATM    7  O10 UNL     1     -32.822   9.579   1.277  1.00 20.00    -0.647 OA
HETATM    8  O11 UNL     1     -31.138   8.076   0.910  1.00 20.00    -0.647 OA
ENDBRANCH   4   6
BRANCH   5   9
HETATM    9  C8  UNL     1     -34.505   5.217   4.210  1.00 20.00     0.009 C 
BRANCH   9  10
HETATM   10  C9  UNL     1     -34.040   3.769   3.951  1.00 20.00    -0.004 C 
HETATM   11  C7  UNL     1     -33.085   3.253   5.015  1.00 20.00     0.005 C 
ENDBRANCH   9  10
ENDBRANCH   5   9
TORSDOF 3
ENDMDL
MODEL 5
REMARK VINA RESULT:       0.5      3.011      4.794
REMARK  3 active torsions:
REMARK  status: ('A' for Active; 'I' for Inactive)
REMARK    1  A    between atoms: C1_1  and  C5_5 
REMARK    2  A    between atoms: C6_6  and  C8_8 
REMARK    3  A    between atoms: C8_8  and  C9_9 
ROOT
HETATM    1  C2  UNL     1     -31.668   8.399   2.701  1.00 20.00     0.030 C 
HETATM    2  C3  UNL     1     -32.884   7.096   1.541  1.00 20.00     0.030 C 
HETATM    3  C4  UNL     1     -33.638   8.986   2.158  1.00 20.00     0.030 C 
HETATM    4  C5  UNL     1     -32.396   8.552   1.343  1.00 20.00     0.050 C 
HETATM    5  C6  UNL     1     -33.086   7.746   2.971  1.00 20.00    -0.037 C 
ENDROOT
BRANCH   4   6
HETATM    6  C1  UNL     1     -31.888   9.150   0.136  1.00 20.00     0.181 C 
HETATM    7  O10 UNL     1     -32.673   9.953  -0.440  1.00 20.00    -0.647 OA
HETATM    8  O11 UNL     1     -30.722   8.787  -0.186  1.00 20.00    -0.647 OA
ENDBRANCH   4   6
BRANCH   5   9
HETATM    9  C8  UNL     1     -33.611   7.133   4.210  1.00 20.00     0.009 C 
BRANCH   9  10
HETATM   10  C9  UNL     1     -34.989   6.469   4.015  1.00 20.00    -0.004 C 
HETATM   11  C7  UNL     1     -34.984   4.984   4.342  1.00 20.00     0.005 C 
ENDBRANCH   9  10
ENDBRANCH   5   9
TORSDOF 3
ENDMDL
MODEL 6
REMARK VINA RESULT:       0.6      2.941      4.690
REMARK  3 active torsions:
REMARK  status: ('A' for Active; 'I' for Inactive)
REMARK    1  A    between atoms: C1_1  and  C5_5 
REMARK    2  A    between atoms: C6_6  and  C8_8 
REMARK    3  A    between atoms: C8_8  and  C9_9 
ROOT
HETATM    1  C2  UNL     1     -32.929   7.083   1.776  1.00 20.00     0.030 C 
HETATM    2  C3  UNL     1     -33.764   8.975   2.272  1.00 20.00     0.030 C 
HETATM    3  C4  UNL     1     -31.843   8.434   3.008  1.00 20.00     0.030 C 
HETATM    4  C5  UNL     1     -32.445   8.542   1.585  1.00 20.00     0.050 C 
HETATM    5  C6  UNL     1     -33.269   7.764   3.165  1.00 20.00    -0.037 C 
ENDROOT
BRANCH   4   6
HETATM    6  C1  UNL     1     -31.834   9.119   0.417  1.00 20.00     0.181 C 
HETATM    7  O10 UNL     1     -30.841   8.488  -0.039  1.00 20.00    -0.647 OA
HETATM    8  O11 UNL     1     -32.375  10.184   0.008  1.00 20.00    -0.647 OA
ENDBRANCH   4   6
BRANCH   5   9
HETATM    9  C8  UNL     1     -33.895   7.173   4.367  1.00 20.00     0.009 C 
BRANCH   9  10
HETATM   10  C9  UNL     1     -35.032   6.187   4.030  1.00 20.00    -0.004 C 
HETATM   11  C7  UNL     1     -34.642   4.734   4.250  1.00 20.00     0.005 C 
ENDBRANCH   9  10
ENDBRANCH   5   9
TORSDOF 3
ENDMDL
MODEL 7
REMARK VINA RESULT:       0.7      2.939      4.754
REMARK  3 active torsions:
REMARK  status: ('A' for Active; 'I' for Inactive)
REMARK    1  A    between atoms: C1_1  and  C5_5 
REMARK    2  A    between atoms: C6_6  and  C8_8 
REMARK    3  A    between atoms: C8_8  and  C9_9 
ROOT
HETATM    1  C2  UNL     1     -33.200   8.083   2.460  1.00 20.00     0.030 C 
HETATM    2  C3  UNL     1     -31.393   7.563   1.468  1.00 20.00     0.030 C 
HETATM    3  C4  UNL     1     -33.267   7.116   0.567  1.00 20.00     0.030 C 
HETATM    4  C5  UNL     1     -32.614   8.427   1.069  1.00 20.00     0.050 C 
HETATM    5  C6  UNL     1     -32.627   6.697   1.953  1.00 20.00    -0.037 C 
ENDROOT
BRANCH   4   6
HETATM    6  C1  UNL     1     -32.604   9.708   0.411  1.00 20.00     0.181 C 
HETATM    7  O10 UNL     1     -32.775   9.674  -0.839  1.00 20.00    -0.647 OA
HETATM    8  O11 UNL     1     -32.422  10.695   1.177  1.00 20.00    -0.647 OA
ENDBRANCH   4   6
BRANCH   5   9
HETATM    9  C8  UNL     1     -32.637   5.379   2.625  1.00 20.00     0.009 C 
BRANCH   9  10
HETATM   10  C9  UNL     1     -33.922   5.132   3.442  1.00 20.00    -0.004 C 
HETATM   11  C7  UNL     1     -33.871   3.847   4.253  1.00 20.00     0.005 C 
ENDBRANCH   9  10
ENDBRANCH   5   9
TORSDOF 3
ENDMDL
MODEL 8
REMARK VINA RESULT:       2.0      2.771      3.804
REMARK  3 active torsions:
REMARK  status: ('A' for Active; 'I' for Inactive)
REMARK    1  A    between atoms: C1_1  and  C5_5 
REMARK    2  A    between atoms: C6_6  and  C8_8 
REMARK    3  A    between atoms: C8_8  and  C9_9 
ROOT
HETATM    1  C2  UNL     1     -33.817   6.395   0.996  1.00 20.00     0.030 C 
HETATM    2  C3  UNL     1     -31.758   6.609   1.481  1.00 20.00     0.030 C 
HETATM    3  C4  UNL     1     -32.969   5.237   2.564  1.00 20.00     0.030 C 
HETATM    4  C5  UNL     1     -32.632   5.401   1.062  1.00 20.00     0.050 C 
HETATM    5  C6  UNL     1     -33.077   6.800   2.336  1.00 20.00    -0.037 C 
ENDROOT
BRANCH   4   6
HETATM    6  C1  UNL     1     -32.301   4.364   0.121  1.00 20.00     0.181 C 
HETATM    7  O10 UNL     1     -31.077   4.057   0.065  1.00 20.00    -0.647 OA
HETATM    8  O11 UNL     1     -33.282   3.901  -0.525  1.00 20.00    -0.647 OA
ENDBRANCH   4   6
BRANCH   5   9
HETATM    9  C8  UNL     1     -33.416   7.864   3.306  1.00 20.00     0.009 C 
BRANCH   9  10
HETATM   10  C9  UNL     1     -34.278   7.354   4.480  1.00 20.00    -0.004 C 
HETATM   11  C7  UNL     1     -35.387   6.414   4.037  1.00 20.00     0.005 C 
ENDBRANCH   9  10
ENDBRANCH   5   9
TORSDOF 3
ENDMDL
MODEL 9
REMARK VINA RESULT:       2.2      1.963      3.457
REMARK  3 active torsions:
REMARK  status: ('A' for Active; 'I' for Inactive)
REMARK    1  A    between atoms: C1_1  and  C5_5 
REMARK    2  A    between atoms: C6_6  and  C8_8 
REMARK    3  A    between atoms: C8_8  and  C9_9 
ROOT
HETATM    1  C2  UNL     1     -32.801   5.191   2.949  1.00 20.00     0.030 C 
HETATM    2  C3  UNL     1     -32.392   7.206   2.407  1.00 20.00     0.030 C 
HETATM    3  C4  UNL     1     -33.934   6.130   1.415  1.00 20.00     0.030 C 
HETATM    4  C5  UNL     1     -33.665   6.475   2.900  1.00 20.00     0.050 C 
HETATM    5  C6  UNL     1     -32.383   5.859   1.575  1.00 20.00    -0.037 C 
ENDROOT
BRANCH   4   6
HETATM    6  C1  UNL     1     -34.616   6.932   3.879  1.00 20.00     0.181 C 
HETATM    7  O10 UNL     1     -34.256   7.939   4.550  1.00 20.00    -0.647 OA
HETATM    8  O11 UNL     1     -35.683   6.261   3.935  1.00 20.00    -0.647 OA
ENDBRANCH   4   6
BRANCH   5   9
HETATM    9  C8  UNL     1     -31.408   5.390   0.567  1.00 20.00     0.009 C 
BRANCH   9  10
HETATM   10  C9  UNL     1     -31.743   3.990   0.013  1.00 20.00    -0.004 C 
HETATM   11  C7  UNL     1     -30.559   3.323  -0.670  1.00 20.00     0.005 C 
ENDBRANCH   9  10
ENDBRANCH   5   9
TORSDOF 3
ENDMDL
