MODEL 1
REMARK VINA RESULT:      -2.8      0.000      0.000
REMARK  4 active torsions:
REMARK  status: ('A' for Active; 'I' for Inactive)
REMARK    1  A    between atoms: C2_2  and  C5_5 
REMARK    2  A    between atoms: C4_4  and  C8_8 
REMARK    3  A    between atoms: C7_7  and  C9_9 
REMARK    4  A    between atoms: C8_8  and  C9_9 
ROOT
HETATM    1  C1  UNL     1     -33.158   2.750   4.906  1.00 20.00     0.012 C 
HETATM    2  C3  UNL     1     -33.613   3.643   4.246  1.00 20.00    -0.117 C 
HETATM    3  C7  UNL     1     -34.167   4.736   3.434  1.00 20.00     0.094 C 
ENDROOT
BRANCH   3   4
HETATM    4  C9  UNL     1     -35.169   5.566   4.240  1.00 20.00     0.024 C 
BRANCH   4   5
HETATM    5  C8  UNL     1     -34.733   7.022   4.415  1.00 20.00     0.095 C 
BRANCH   5   6
HETATM    6  C4  UNL     1     -33.767   7.441   3.391  1.00 20.00    -0.098 C 
HETATM    7  C2  UNL     1     -32.975   7.783   2.555  1.00 20.00    -0.029 C 
BRANCH   7   8
HETATM    8  C5  UNL     1     -32.021   8.187   1.551  1.00 20.00     0.198 C 
HETATM    9  C6  UNL     1     -32.399   9.373   0.715  1.00 20.00     0.106 C 
HETATM   10  O10 UNL     1     -30.973   7.568   1.424  1.00 20.00    -0.284 OA
ENDBRANCH   7   8
ENDBRANCH   5   6
ENDBRANCH   4   5
ENDBRANCH   3   4
TORSDOF 4
ENDMDL
MODEL 2
REMARK VINA RESULT:      -2.6      2.361      5.888
REMARK  4 active torsions:
REMARK  status: ('A' for Active; 'I' for Inactive)
REMARK    1  A    between atoms: C2_2  and  C5_5 
REMARK    2  A    between atoms: C4_4  and  C8_8 
REMARK    3  A    between atoms: C7_7  and  C9_9 
REMARK    4  A    between atoms: C8_8  and  C9_9 
ROOT
HETATM    1  C1  UNL     1     -33.100  10.640  -0.112  1.00 20.00     0.012 C 
HETATM    2  C3  UNL     1     -32.328   9.794   0.244  1.00 20.00    -0.117 C 
HETATM    3  C7  UNL     1     -31.378   8.758   0.677  1.00 20.00     0.094 C 
ENDROOT
BRANCH   3   4
HETATM    4  C9  UNL     1     -31.984   7.881   1.776  1.00 20.00     0.024 C 
BRANCH   4   5
HETATM    5  C8  UNL     1     -32.433   6.510   1.265  1.00 20.00     0.095 C 
BRANCH   5   6
HETATM    6  C4  UNL     1     -33.058   5.700   2.318  1.00 20.00    -0.098 C 
HETATM    7  C2  UNL     1     -33.568   5.037   3.180  1.00 20.00    -0.029 C 
BRANCH   7   8
HETATM    8  C5  UNL     1     -34.174   4.239   4.218  1.00 20.00     0.198 C 
HETATM    9  C6  UNL     1     -33.394   3.044   4.679  1.00 20.00     0.106 C 
HETATM   10  O10 UNL     1     -35.266   4.557   4.671  1.00 20.00    -0.284 OA
ENDBRANCH   7   8
ENDBRANCH   5   6
ENDBRANCH   4   5
ENDBRANCH   3   4
TORSDOF 4
ENDMDL
MODEL 3
REMARK VINA RESULT:      -2.6      0.869      1.264
REMARK  4 active torsions:
REMARK  status: ('A' for Active; 'I' for Inactive)
REMARK    1  A    between atoms: C2_2  and  C5_5 
REMARK    2  A    between atoms: C4_4  and  C8_8 
REMARK    3  A    between atoms: C7_7  and  C9_9 
REMARK    4  A    between atoms: C8_8  and  C9_9 
ROOT
HETATM    1  C1  UNL     1     -33.514   3.370   4.395  1.00 20.00     0.012 C 
HETATM    2  C3  UNL     1     -34.310   4.266   4.443  1.00 20.00    -0.117 C 
HETATM    3  C7  UNL     1     -35.289   5.363   4.504  1.00 20.00     0.094 C 
ENDROOT
BRANCH   3   4
HETATM    4  C9  UNL     1     -34.915   6.487   3.535  1.00 20.00     0.024 C 
BRANCH   4   5
HETATM    5  C8  UNL     1     -33.570   7.137   3.866  1.00 20.00     0.095 C 
BRANCH   5   6
HETATM    6  C4  UNL     1     -32.990   7.838   2.713  1.00 20.00    -0.098 C 
HETATM    7  C2  UNL     1     -32.519   8.412   1.769  1.00 20.00    -0.029 C 
BRANCH   7   8
HETATM    8  C5  UNL     1     -31.956   9.107   0.637  1.00 20.00     0.198 C 
HETATM    9  C6  UNL     1     -32.648  10.372   0.222  1.00 20.00     0.106 C 
HETATM   10  O10 UNL     1     -30.966   8.655   0.076  1.00 20.00    -0.284 OA
ENDBRANCH   7   8
ENDBRANCH   5   6
ENDBRANCH   4   5
ENDBRANCH   3   4
TORSDOF 4
ENDMDL
MODEL 4
REMARK VINA RESULT:      -2.3      2.201      5.656
REMARK  4 active torsions:
REMARK  status: ('A' for Active; 'I' for Inactive)
REMARK    1  A    between atoms: C2_2  and  C5_5 
REMARK    2  A    between atoms: C4_4  and  C8_8 
REMARK    3  A    between atoms: C7_7  and  C9_9 
REMARK    4  A    between atoms: C8_8  and  C9_9 
ROOT
HETATM    1  C1  UNL     1     -32.851  10.672   0.041  1.00 20.00     0.012 C 
HETATM    2  C3  UNL     1     -32.296   9.629   0.251  1.00 20.00    -0.117 C 
HETATM    3  C7  UNL     1     -31.614   8.350   0.504  1.00 20.00     0.094 C 
ENDROOT
BRANCH   3   4
HETATM    4  C9  UNL     1     -31.676   7.979   1.988  1.00 20.00     0.024 C 
BRANCH   4   5
HETATM    5  C8  UNL     1     -33.065   8.186   2.596  1.00 20.00     0.095 C 
BRANCH   5   6
HETATM    6  C4  UNL     1     -33.603   6.954   3.188  1.00 20.00    -0.098 C 
HETATM    7  C2  UNL     1     -34.042   5.946   3.673  1.00 20.00    -0.029 C 
BRANCH   7   8
HETATM    8  C5  UNL     1     -34.566   4.738   4.262  1.00 20.00     0.198 C 
HETATM    9  C6  UNL     1     -33.655   3.546   4.256  1.00 20.00     0.106 C 
HETATM   10  O10 UNL     1     -35.697   4.730   4.731  1.00 20.00    -0.284 OA
ENDBRANCH   7   8
ENDBRANCH   5   6
ENDBRANCH   4   5
ENDBRANCH   3   4
TORSDOF 4
ENDMDL
MODEL 5
REMARK VINA RESULT:      -2.0      2.311      5.581
REMARK  4 active torsions:
REMARK  status: ('A' for Active; 'I' for Inactive)
REMARK    1  A    between atoms: C2_2  and  C5_5 
REMARK    2  A    between atoms: C4_4  and  C8_8 
REMARK    3  A    between atoms: C7_7  and  C9_9 
REMARK    4  A    between atoms: C8_8  and  C9_9 
ROOT
HETATM    1  C1  UNL     1     -32.691  10.318  -0.263  1.00 20.00     0.012 C 
HETATM    2  C3  UNL     1     -32.535   9.575   0.665  1.00 20.00    -0.117 C 
HETATM    3  C7  UNL     1     -32.346   8.665   1.806  1.00 20.00     0.094 C 
ENDROOT
BRANCH   3   4
HETATM    4  C9  UNL     1     -31.339   7.563   1.468  1.00 20.00     0.024 C 
BRANCH   4   5
HETATM    5  C8  UNL     1     -32.008   6.258   1.031  1.00 20.00     0.095 C 
BRANCH   5   6
HETATM    6  C4  UNL     1     -32.844   5.678   2.091  1.00 20.00    -0.098 C 
HETATM    7  C2  UNL     1     -33.525   5.203   2.958  1.00 20.00    -0.029 C 
BRANCH   7   8
HETATM    8  C5  UNL     1     -34.339   4.634   4.005  1.00 20.00     0.198 C 
HETATM    9  C6  UNL     1     -35.471   5.482   4.502  1.00 20.00     0.106 C 
HETATM   10  O10 UNL     1     -34.085   3.515   4.433  1.00 20.00    -0.284 OA
ENDBRANCH   7   8
ENDBRANCH   5   6
ENDBRANCH   4   5
ENDBRANCH   3   4
TORSDOF 4
ENDMDL
MODEL 6
REMARK VINA RESULT:      -1.9      1.946      3.170
REMARK  4 active torsions:
REMARK  status: ('A' for Active; 'I' for Inactive)
REMARK    1  A    between atoms: C2_2  and  C5_5 
REMARK    2  A    between atoms: C4_4  and  C8_8 
REMARK    3  A    between atoms: C7_7  and  C9_9 
REMARK    4  A    between atoms: C8_8  and  C9_9 
ROOT
HETATM    1  C1  UNL     1     -34.593   7.546   4.114  1.00 20.00     0.012 C 
HETATM    2  C3  UNL     1     -34.186   6.517   3.651  1.00 20.00    -0.117 C 
HETATM    3  C7  UNL     1     -33.689   5.253   3.087  1.00 20.00     0.094 C 
ENDROOT
BRANCH   3   4
HETATM    4  C9  UNL     1     -32.971   5.490   1.756  1.00 20.00     0.024 C 
BRANCH   4   5
HETATM    5  C8  UNL     1     -31.797   6.464   1.878  1.00 20.00     0.095 C 
BRANCH   5   6
HETATM    6  C4  UNL     1     -32.087   7.765   1.258  1.00 20.00    -0.098 C 
HETATM    7  C2  UNL     1     -32.323   8.827   0.750  1.00 20.00    -0.029 C 
BRANCH   7   8
HETATM    8  C5  UNL     1     -32.610  10.100   0.134  1.00 20.00     0.198 C 
HETATM    9  C6  UNL     1     -32.398  11.314   0.989  1.00 20.00     0.106 C 
HETATM   10  O10 UNL     1     -33.000  10.141  -1.025  1.00 20.00    -0.284 OA
ENDBRANCH   7   8
ENDBRANCH   5   6
ENDBRANCH   4   5
ENDBRANCH   3   4
TORSDOF 4
ENDMDL
MODEL 7
REMARK VINA RESULT:      -1.7      1.928      3.167
REMARK  4 active torsions:
REMARK  status: ('A' for Active; 'I' for Inactive)
REMARK    1  A    between atoms: C2_2  and  C5_5 
REMARK    2  A    between atoms: C4_4  and  C8_8 
REMARK    3  A    between atoms: C7_7  and  C9_9 
REMARK    4  A    between atoms: C8_8  and  C9_9 
ROOT
HETATM    1  C1  UNL     1     -34.579   7.606   4.113  1.00 20.00     0.012 C 
HETATM    2  C3  UNL     1     -34.177   6.576   3.647  1.00 20.00    -0.117 C 
HETATM    3  C7  UNL     1     -33.686   5.311   3.080  1.00 20.00     0.094 C 
ENDROOT
BRANCH   3   4
HETATM    4  C9  UNL     1     -33.028   5.539   1.717  1.00 20.00     0.024 C 
BRANCH   4   5
HETATM    5  C8  UNL     1     -31.785   6.428   1.796  1.00 20.00     0.095 C 
BRANCH   5   6
HETATM    6  C4  UNL     1     -32.044   7.792   1.314  1.00 20.00    -0.098 C 
HETATM    7  C2  UNL     1     -32.255   8.906   0.919  1.00 20.00    -0.029 C 
BRANCH   7   8
HETATM    8  C5  UNL     1     -32.512  10.242   0.438  1.00 20.00     0.198 C 
HETATM    9  C6  UNL     1     -32.782  10.379  -1.031  1.00 20.00     0.106 C 
HETATM   10  O10 UNL     1     -32.502  11.183   1.221  1.00 20.00    -0.284 OA
ENDBRANCH   7   8
ENDBRANCH   5   6
ENDBRANCH   4   5
ENDBRANCH   3   4
TORSDOF 4
ENDMDL
MODEL 8
REMARK VINA RESULT:      -1.7      2.280      5.228
REMARK  4 active torsions:
REMARK  status: ('A' for Active; 'I' for Inactive)
REMARK    1  A    between atoms: C2_2  and  C5_5 
REMARK    2  A    between atoms: C4_4  and  C8_8 
REMARK    3  A    between atoms: C7_7  and  C9_9 
REMARK    4  A    between atoms: C8_8  and  C9_9 
ROOT
HETATM    1  C1  UNL     1     -31.992   8.839   1.070  1.00 20.00     0.012 C 
HETATM    2  C3  UNL     1     -32.377   8.079   1.916  1.00 20.00    -0.117 C 
HETATM    3  C7  UNL     1     -32.845   7.146   2.952  1.00 20.00     0.094 C 
ENDROOT
BRANCH   3   4
HETATM    4  C9  UNL     1     -34.183   7.602   3.538  1.00 20.00     0.024 C 
BRANCH   4   5
HETATM    5  C8  UNL     1     -35.180   6.454   3.711  1.00 20.00     0.095 C 
BRANCH   5   6
HETATM    6  C4  UNL     1     -34.525   5.204   4.121  1.00 20.00    -0.098 C 
HETATM    7  C2  UNL     1     -33.990   4.183   4.457  1.00 20.00    -0.029 C 
BRANCH   7   8
HETATM    8  C5  UNL     1     -33.353   2.955   4.866  1.00 20.00     0.198 C 
HETATM    9  C6  UNL     1     -32.478   3.033   6.082  1.00 20.00     0.106 C 
HETATM   10  O10 UNL     1     -33.544   1.928   4.228  1.00 20.00    -0.284 OA
ENDBRANCH   7   8
ENDBRANCH   5   6
ENDBRANCH   4   5
ENDBRANCH   3   4
TORSDOF 4
ENDMDL
MODEL 9
REMARK VINA RESULT:      -1.6      1.534      1.934
REMARK  4 active torsions:
REMARK  status: ('A' for Active; 'I' for Inactive)
REMARK    1  A    between atoms: C2_2  and  C5_5 
REMARK    2  A    between atoms: C4_4  and  C8_8 
REMARK    3  A    between atoms: C7_7  and  C9_9 
REMARK    4  A    between atoms: C8_8  and  C9_9 
ROOT
HETATM    1  C1  UNL     1     -33.130   3.035   4.728  1.00 20.00     0.012 C 
HETATM    2  C3  UNL     1     -33.865   3.892   4.323  1.00 20.00    -0.117 C 
HETATM    3  C7  UNL     1     -34.770   4.940   3.825  1.00 20.00     0.094 C 
ENDROOT
BRANCH   3   4
HETATM    4  C9  UNL     1     -34.010   6.242   3.563  1.00 20.00     0.024 C 
BRANCH   4   5
HETATM    5  C8  UNL     1     -32.949   6.103   2.470  1.00 20.00     0.095 C 
BRANCH   5   6
HETATM    6  C4  UNL     1     -32.712   7.367   1.758  1.00 20.00    -0.098 C 
HETATM    7  C2  UNL     1     -32.517   8.399   1.176  1.00 20.00    -0.029 C 
BRANCH   7   8
HETATM    8  C5  UNL     1     -32.278   9.636   0.473  1.00 20.00     0.198 C 
HETATM    9  C6  UNL     1     -31.164   9.625  -0.531  1.00 20.00     0.106 C 
HETATM   10  O10 UNL     1     -32.972  10.616   0.712  1.00 20.00    -0.284 OA
ENDBRANCH   7   8
ENDBRANCH   5   6
ENDBRANCH   4   5
ENDBRANCH   3   4
TORSDOF 4
ENDMDL
