MODEL 1
REMARK VINA RESULT:      -0.7      0.000      0.000
REMARK  0 active torsions:
REMARK  status: ('A' for Active; 'I' for Inactive)
ROOT
HETATM    1  C1  UNL     1     -32.487   9.905  -0.000  1.00 20.00     0.017 C 
HETATM    2  C2  UNL     1     -32.466   9.077   0.868  1.00 20.00    -0.050 C 
HETATM    3  C3  UNL     1     -34.025   6.031   3.088  1.00 20.00     0.053 C 
HETATM    4  C4  UNL     1     -33.799   7.362   3.785  1.00 20.00     0.174 C 
HETATM    5  C5  UNL     1     -32.841   5.710   2.191  1.00 20.00     0.174 C 
HETATM    6  C6  UNL     1     -32.442   8.060   1.938  1.00 20.00     0.227 C 
HETATM    7  C7  UNL     1     -31.085   8.158   2.651  1.00 20.00     0.095 C 
HETATM    8  O8  UNL     1     -33.518   8.378   2.827  1.00 20.00    -0.345 OA
HETATM    9  O9  UNL     1     -32.596   6.789   1.293  1.00 20.00    -0.345 OA
ENDROOT
TORSDOF 0
ENDMDL
MODEL 2
REMARK VINA RESULT:       0.3      1.628      3.941
REMARK  0 active torsions:
REMARK  status: ('A' for Active; 'I' for Inactive)
ROOT
HETATM    1  C1  UNL     1     -33.835   3.614   4.476  1.00 20.00     0.017 C 
HETATM    2  C2  UNL     1     -33.850   4.698   3.964  1.00 20.00    -0.050 C 
HETATM    3  C3  UNL     1     -32.148   7.979   2.239  1.00 20.00     0.053 C 
HETATM    4  C4  UNL     1     -32.797   8.160   3.600  1.00 20.00     0.174 C 
HETATM    5  C5  UNL     1     -33.022   7.100   1.361  1.00 20.00     0.174 C 
HETATM    6  C6  UNL     1     -33.868   6.033   3.334  1.00 20.00     0.227 C 
HETATM    7  C7  UNL     1     -35.329   6.499   3.260  1.00 20.00     0.095 C 
HETATM    8  O8  UNL     1     -33.093   6.892   4.178  1.00 20.00    -0.345 OA
HETATM    9  O9  UNL     1     -33.311   5.872   2.024  1.00 20.00    -0.345 OA
ENDROOT
TORSDOF 0
ENDMDL
MODEL 3
REMARK VINA RESULT:       1.0      1.705      2.886
REMARK  0 active torsions:
REMARK  status: ('A' for Active; 'I' for Inactive)
ROOT
HETATM    1  C1  UNL     1     -31.481   7.995   1.852  1.00 20.00     0.017 C 
HETATM    2  C2  UNL     1     -32.375   7.232   2.090  1.00 20.00    -0.050 C 
HETATM    3  C3  UNL     1     -34.753   4.992   4.533  1.00 20.00     0.053 C 
HETATM    4  C4  UNL     1     -33.822   4.251   3.589  1.00 20.00     0.174 C 
HETATM    5  C5  UNL     1     -35.396   6.164   3.810  1.00 20.00     0.174 C 
HETATM    6  C6  UNL     1     -33.476   6.292   2.382  1.00 20.00     0.227 C 
HETATM    7  C7  UNL     1     -34.132   5.906   1.049  1.00 20.00     0.095 C 
HETATM    8  O8  UNL     1     -32.880   5.153   3.015  1.00 20.00    -0.345 OA
HETATM    9  O9  UNL     1     -34.395   6.994   3.227  1.00 20.00    -0.345 OA
ENDROOT
TORSDOF 0
ENDMDL
MODEL 4
REMARK VINA RESULT:       1.2      1.596      3.200
REMARK  0 active torsions:
REMARK  status: ('A' for Active; 'I' for Inactive)
ROOT
HETATM    1  C1  UNL     1     -31.147   4.218   0.686  1.00 20.00     0.017 C 
HETATM    2  C2  UNL     1     -31.925   5.039   1.086  1.00 20.00    -0.050 C 
HETATM    3  C3  UNL     1     -33.437   7.647   3.833  1.00 20.00     0.053 C 
HETATM    4  C4  UNL     1     -34.270   6.423   3.496  1.00 20.00     0.174 C 
HETATM    5  C5  UNL     1     -32.842   8.233   2.563  1.00 20.00     0.174 C 
HETATM    6  C6  UNL     1     -32.883   6.048   1.579  1.00 20.00     0.227 C 
HETATM    7  C7  UNL     1     -33.918   6.295   0.472  1.00 20.00     0.095 C 
HETATM    8  O8  UNL     1     -33.497   5.490   2.747  1.00 20.00    -0.345 OA
HETATM    9  O9  UNL     1     -32.123   7.232   1.848  1.00 20.00    -0.345 OA
ENDROOT
TORSDOF 0
ENDMDL
MODEL 5
REMARK VINA RESULT:       1.4      1.097      3.603
REMARK  0 active torsions:
REMARK  status: ('A' for Active; 'I' for Inactive)
ROOT
HETATM    1  C1  UNL     1     -34.329   6.617   3.672  1.00 20.00     0.017 C 
HETATM    2  C2  UNL     1     -33.576   7.357   3.103  1.00 20.00    -0.050 C 
HETATM    3  C3  UNL     1     -32.204   9.452  -0.116  1.00 20.00     0.053 C 
HETATM    4  C4  UNL     1     -31.345   8.308   0.393  1.00 20.00     0.174 C 
HETATM    5  C5  UNL     1     -32.753  10.248   1.056  1.00 20.00     0.174 C 
HETATM    6  C6  UNL     1     -32.649   8.269   2.403  1.00 20.00     0.227 C 
HETATM    7  C7  UNL     1     -31.573   8.708   3.405  1.00 20.00     0.095 C 
HETATM    8  O8  UNL     1     -32.078   7.518   1.325  1.00 20.00    -0.345 OA
HETATM    9  O9  UNL     1     -33.432   9.385   1.963  1.00 20.00    -0.345 OA
ENDROOT
TORSDOF 0
ENDMDL
MODEL 6
REMARK VINA RESULT:       2.0      2.557      4.444
REMARK  0 active torsions:
REMARK  status: ('A' for Active; 'I' for Inactive)
ROOT
HETATM    1  C1  UNL     1     -33.191   2.815   4.727  1.00 20.00     0.017 C 
HETATM    2  C2  UNL     1     -33.483   3.850   4.195  1.00 20.00    -0.050 C 
HETATM    3  C3  UNL     1     -34.638   7.761   4.134  1.00 20.00     0.053 C 
HETATM    4  C4  UNL     1     -35.617   6.732   3.595  1.00 20.00     0.174 C 
HETATM    5  C5  UNL     1     -33.233   7.437   3.655  1.00 20.00     0.174 C 
HETATM    6  C6  UNL     1     -33.843   5.123   3.539  1.00 20.00     0.227 C 
HETATM    7  C7  UNL     1     -33.744   4.916   2.021  1.00 20.00     0.095 C 
HETATM    8  O8  UNL     1     -35.188   5.417   3.935  1.00 20.00    -0.345 OA
HETATM    9  O9  UNL     1     -32.893   6.095   3.991  1.00 20.00    -0.345 OA
ENDROOT
TORSDOF 0
ENDMDL
MODEL 7
REMARK VINA RESULT:       2.0      1.045      3.515
REMARK  0 active torsions:
REMARK  status: ('A' for Active; 'I' for Inactive)
ROOT
HETATM    1  C1  UNL     1     -35.019   6.242   3.903  1.00 20.00     0.017 C 
HETATM    2  C2  UNL     1     -34.127   6.543   3.159  1.00 20.00    -0.050 C 
HETATM    3  C3  UNL     1     -31.895   9.144   0.949  1.00 20.00     0.053 C 
HETATM    4  C4  UNL     1     -32.729   8.122   0.196  1.00 20.00     0.174 C 
HETATM    5  C5  UNL     1     -31.226   8.487   2.144  1.00 20.00     0.174 C 
HETATM    6  C6  UNL     1     -33.030   6.912   2.243  1.00 20.00     0.227 C 
HETATM    7  C7  UNL     1     -32.260   5.631   1.889  1.00 20.00     0.095 C 
HETATM    8  O8  UNL     1     -33.644   7.484   1.082  1.00 20.00    -0.345 OA
HETATM    9  O9  UNL     1     -32.198   7.834   2.957  1.00 20.00    -0.345 OA
ENDROOT
TORSDOF 0
ENDMDL
MODEL 8
REMARK VINA RESULT:       2.1      1.521      2.810
REMARK  0 active torsions:
REMARK  status: ('A' for Active; 'I' for Inactive)
ROOT
HETATM    1  C1  UNL     1     -31.641   5.039   0.864  1.00 20.00     0.017 C 
HETATM    2  C2  UNL     1     -32.085   5.997   1.433  1.00 20.00    -0.050 C 
HETATM    3  C3  UNL     1     -33.078   8.190   4.725  1.00 20.00     0.053 C 
HETATM    4  C4  UNL     1     -34.214   7.660   3.868  1.00 20.00     0.174 C 
HETATM    5  C5  UNL     1     -31.965   8.722   3.838  1.00 20.00     0.174 C 
HETATM    6  C6  UNL     1     -32.633   7.175   2.134  1.00 20.00     0.227 C 
HETATM    7  C7  UNL     1     -33.117   8.172   1.071  1.00 20.00     0.095 C 
HETATM    8  O8  UNL     1     -33.722   6.702   2.935  1.00 20.00    -0.345 OA
HETATM    9  O9  UNL     1     -31.558   7.725   2.906  1.00 20.00    -0.345 OA
ENDROOT
TORSDOF 0
ENDMDL
MODEL 9
REMARK VINA RESULT:       2.2      1.599      3.083
REMARK  0 active torsions:
REMARK  status: ('A' for Active; 'I' for Inactive)
ROOT
HETATM    1  C1  UNL     1     -34.239   4.822  -0.539  1.00 20.00     0.017 C 
HETATM    2  C2  UNL     1     -33.659   5.333   0.377  1.00 20.00    -0.050 C 
HETATM    3  C3  UNL     1     -33.057   8.203   3.213  1.00 20.00     0.053 C 
HETATM    4  C4  UNL     1     -32.041   8.105   2.088  1.00 20.00     0.174 C 
HETATM    5  C5  UNL     1     -33.433   6.811   3.693  1.00 20.00     0.174 C 
HETATM    6  C6  UNL     1     -32.943   5.963   1.505  1.00 20.00     0.227 C 
HETATM    7  C7  UNL     1     -31.733   5.083   1.846  1.00 20.00     0.095 C 
HETATM    8  O8  UNL     1     -32.532   7.258   1.053  1.00 20.00    -0.345 OA
HETATM    9  O9  UNL     1     -33.870   6.012   2.597  1.00 20.00    -0.345 OA
ENDROOT
TORSDOF 0
ENDMDL
