MODEL 1
REMARK VINA RESULT:       0.7      0.000      0.000
REMARK  1 active torsions:
REMARK  status: ('A' for Active; 'I' for Inactive)
REMARK    1  A    between atoms: C1_1  and  C4_4 
ROOT
HETATM    1  C1  UNL     1     -33.666   4.863   3.787  1.00 20.00    -0.068 C 
HETATM    2  C2  UNL     1     -33.492   3.806   4.329  1.00 20.00    -0.108 C 
HETATM    3  C6  UNL     1     -33.280   2.517   4.989  1.00 20.00     0.112 C 
ENDROOT
BRANCH   1   4
HETATM    4  C4  UNL     1     -33.877   6.141   3.132  1.00 20.00     0.129 C 
HETATM    5  C5  UNL     1     -33.098   6.365   1.781  1.00 20.00     0.016 C 
HETATM    6  C3  UNL     1     -32.607   7.650   2.483  1.00 20.00     0.182 C 
HETATM    7  C8  UNL     1     -33.930   6.614   0.527  1.00 20.00     0.021 C 
HETATM    8  C9  UNL     1     -31.944   5.402   1.478  1.00 20.00     0.021 C 
HETATM    9  O10 UNL     1     -33.048   7.155   3.774  1.00 20.00    -0.366 OA
HETATM   10  C7  UNL     1     -35.345   6.553   3.217  1.00 20.00     0.061 C 
ENDBRANCH   1   4
TORSDOF 1
ENDMDL
MODEL 2
REMARK VINA RESULT:       1.1      1.906      4.681
REMARK  1 active torsions:
REMARK  status: ('A' for Active; 'I' for Inactive)
REMARK    1  A    between atoms: C1_1  and  C4_4 
ROOT
HETATM    1  C1  UNL     1     -32.487   8.774   1.092  1.00 20.00    -0.068 C 
HETATM    2  C2  UNL     1     -32.645   9.640   0.276  1.00 20.00    -0.108 C 
HETATM    3  C6  UNL     1     -32.840  10.694  -0.719  1.00 20.00     0.112 C 
ENDROOT
BRANCH   1   4
HETATM    4  C4  UNL     1     -32.294   7.727   2.079  1.00 20.00     0.129 C 
HETATM    5  C5  UNL     1     -32.743   6.279   1.651  1.00 20.00     0.016 C 
HETATM    6  C3  UNL     1     -33.557   6.335   2.963  1.00 20.00     0.182 C 
HETATM    7  C8  UNL     1     -31.670   5.193   1.624  1.00 20.00     0.021 C 
HETATM    8  C9  UNL     1     -33.650   6.169   0.420  1.00 20.00     0.021 C 
HETATM    9  O10 UNL     1     -33.382   7.773   3.051  1.00 20.00    -0.366 OA
HETATM   10  C7  UNL     1     -30.960   7.906   2.799  1.00 20.00     0.061 C 
ENDBRANCH   1   4
TORSDOF 1
ENDMDL
MODEL 3
REMARK VINA RESULT:       1.4      2.096      4.763
REMARK  1 active torsions:
REMARK  status: ('A' for Active; 'I' for Inactive)
REMARK    1  A    between atoms: C1_1  and  C4_4 
ROOT
HETATM    1  C1  UNL     1     -32.580   8.674   1.336  1.00 20.00    -0.068 C 
HETATM    2  C2  UNL     1     -32.645   9.476   0.445  1.00 20.00    -0.108 C 
HETATM    3  C6  UNL     1     -32.727  10.453  -0.641  1.00 20.00     0.112 C 
ENDROOT
BRANCH   1   4
HETATM    4  C4  UNL     1     -32.499   7.704   2.413  1.00 20.00     0.129 C 
HETATM    5  C5  UNL     1     -33.738   7.642   3.384  1.00 20.00     0.016 C 
HETATM    6  C3  UNL     1     -32.666   7.834   4.479  1.00 20.00     0.182 C 
HETATM    7  C8  UNL     1     -34.493   6.318   3.470  1.00 20.00     0.021 C 
HETATM    8  C9  UNL     1     -34.720   8.818   3.333  1.00 20.00     0.021 C 
HETATM    9  O10 UNL     1     -31.684   8.249   3.494  1.00 20.00    -0.366 OA
HETATM   10  C7  UNL     1     -31.882   6.399   1.917  1.00 20.00     0.061 C 
ENDBRANCH   1   4
TORSDOF 1
ENDMDL
MODEL 4
REMARK VINA RESULT:       1.6      1.538      4.012
REMARK  1 active torsions:
REMARK  status: ('A' for Active; 'I' for Inactive)
REMARK    1  A    between atoms: C1_1  and  C4_4 
ROOT
HETATM    1  C1  UNL     1     -32.875   7.924   2.538  1.00 20.00    -0.068 C 
HETATM    2  C2  UNL     1     -32.271   8.460   1.649  1.00 20.00    -0.108 C 
HETATM    3  C6  UNL     1     -31.538   9.114   0.565  1.00 20.00     0.112 C 
ENDROOT
BRANCH   1   4
HETATM    4  C4  UNL     1     -33.603   7.276   3.614  1.00 20.00     0.129 C 
HETATM    5  C5  UNL     1     -33.967   5.760   3.390  1.00 20.00     0.016 C 
HETATM    6  C3  UNL     1     -35.399   6.240   3.713  1.00 20.00     0.182 C 
HETATM    7  C8  UNL     1     -33.404   4.751   4.387  1.00 20.00     0.021 C 
HETATM    8  C9  UNL     1     -33.853   5.223   1.959  1.00 20.00     0.021 C 
HETATM    9  O10 UNL     1     -35.016   7.627   3.520  1.00 20.00    -0.366 OA
HETATM   10  C7  UNL     1     -33.058   7.714   4.971  1.00 20.00     0.061 C 
ENDBRANCH   1   4
TORSDOF 1
ENDMDL
MODEL 5
REMARK VINA RESULT:       1.8      1.314      2.284
REMARK  1 active torsions:
REMARK  status: ('A' for Active; 'I' for Inactive)
REMARK    1  A    between atoms: C1_1  and  C4_4 
ROOT
HETATM    1  C1  UNL     1     -33.629   4.923   3.692  1.00 20.00    -0.068 C 
HETATM    2  C2  UNL     1     -33.417   3.922   4.321  1.00 20.00    -0.108 C 
HETATM    3  C6  UNL     1     -33.158   2.704   5.089  1.00 20.00     0.112 C 
ENDROOT
BRANCH   1   4
HETATM    4  C4  UNL     1     -33.886   6.132   2.932  1.00 20.00     0.129 C 
HETATM    5  C5  UNL     1     -33.416   7.481   3.594  1.00 20.00     0.016 C 
HETATM    6  C3  UNL     1     -34.880   7.907   3.346  1.00 20.00     0.182 C 
HETATM    7  C8  UNL     1     -32.384   8.311   2.835  1.00 20.00     0.021 C 
HETATM    8  C9  UNL     1     -33.078   7.440   5.088  1.00 20.00     0.021 C 
HETATM    9  O10 UNL     1     -35.277   6.531   3.113  1.00 20.00    -0.366 OA
HETATM   10  C7  UNL     1     -33.612   5.901   1.447  1.00 20.00     0.061 C 
ENDBRANCH   1   4
TORSDOF 1
ENDMDL
MODEL 6
REMARK VINA RESULT:       2.3      1.421      2.546
REMARK  1 active torsions:
REMARK  status: ('A' for Active; 'I' for Inactive)
REMARK    1  A    between atoms: C1_1  and  C4_4 
ROOT
HETATM    1  C1  UNL     1     -32.902   4.564   2.927  1.00 20.00    -0.068 C 
HETATM    2  C2  UNL     1     -33.142   3.808   3.829  1.00 20.00    -0.108 C 
HETATM    3  C6  UNL     1     -33.436   2.886   4.926  1.00 20.00     0.112 C 
ENDROOT
BRANCH   1   4
HETATM    4  C4  UNL     1     -32.611   5.477   1.838  1.00 20.00     0.129 C 
HETATM    5  C5  UNL     1     -32.903   7.001   2.114  1.00 20.00     0.016 C 
HETATM    6  C3  UNL     1     -33.730   6.895   0.813  1.00 20.00     0.182 C 
HETATM    7  C8  UNL     1     -31.723   7.965   2.030  1.00 20.00     0.021 C 
HETATM    8  C9  UNL     1     -33.782   7.331   3.325  1.00 20.00     0.021 C 
HETATM    9  O10 UNL     1     -33.706   5.445   0.874  1.00 20.00    -0.366 OA
HETATM   10  C7  UNL     1     -31.309   5.087   1.143  1.00 20.00     0.061 C 
ENDBRANCH   1   4
TORSDOF 1
ENDMDL
MODEL 7
REMARK VINA RESULT:       2.4      1.258      1.466
REMARK  1 active torsions:
REMARK  status: ('A' for Active; 'I' for Inactive)
REMARK    1  A    between atoms: C1_1  and  C4_4 
ROOT
HETATM    1  C1  UNL     1     -33.577   5.953   3.625  1.00 20.00    -0.068 C 
HETATM    2  C2  UNL     1     -33.682   4.776   3.839  1.00 20.00    -0.108 C 
HETATM    3  C6  UNL     1     -33.811   3.342   4.101  1.00 20.00     0.112 C 
ENDROOT
BRANCH   1   4
HETATM    4  C4  UNL     1     -33.450   7.375   3.365  1.00 20.00     0.129 C 
HETATM    5  C5  UNL     1     -32.458   7.784   2.212  1.00 20.00     0.016 C 
HETATM    6  C3  UNL     1     -31.842   8.687   3.304  1.00 20.00     0.182 C 
HETATM    7  C8  UNL     1     -33.041   8.544   1.024  1.00 20.00     0.021 C 
HETATM    8  C9  UNL     1     -31.472   6.713   1.734  1.00 20.00     0.021 C 
HETATM    9  O10 UNL     1     -32.548   7.967   4.348  1.00 20.00    -0.366 OA
HETATM   10  C7  UNL     1     -34.813   8.060   3.447  1.00 20.00     0.061 C 
ENDBRANCH   1   4
TORSDOF 1
ENDMDL
MODEL 8
REMARK VINA RESULT:       2.7      2.094      3.577
REMARK  1 active torsions:
REMARK  status: ('A' for Active; 'I' for Inactive)
REMARK    1  A    between atoms: C1_1  and  C4_4 
ROOT
HETATM    1  C1  UNL     1     -32.324   6.553   1.798  1.00 20.00    -0.068 C 
HETATM    2  C2  UNL     1     -32.126   5.553   1.163  1.00 20.00    -0.108 C 
HETATM    3  C6  UNL     1     -31.883   4.336   0.388  1.00 20.00     0.112 C 
ENDROOT
BRANCH   1   4
HETATM    4  C4  UNL     1     -32.565   7.760   2.566  1.00 20.00     0.129 C 
HETATM    5  C5  UNL     1     -33.653   7.656   3.700  1.00 20.00     0.016 C 
HETATM    6  C3  UNL     1     -34.260   8.884   2.986  1.00 20.00     0.182 C 
HETATM    7  C8  UNL     1     -33.198   7.925   5.132  1.00 20.00     0.021 C 
HETATM    8  C9  UNL     1     -34.591   6.445   3.652  1.00 20.00     0.021 C 
HETATM    9  O10 UNL     1     -33.442   8.648   1.810  1.00 20.00    -0.366 OA
HETATM   10  C7  UNL     1     -31.250   8.477   2.865  1.00 20.00     0.061 C 
ENDBRANCH   1   4
TORSDOF 1
ENDMDL
MODEL 9
REMARK VINA RESULT:       3.0      1.883      3.048
REMARK  1 active torsions:
REMARK  status: ('A' for Active; 'I' for Inactive)
REMARK    1  A    between atoms: C1_1  and  C4_4 
ROOT
HETATM    1  C1  UNL     1     -33.648   6.282   2.787  1.00 20.00    -0.068 C 
HETATM    2  C2  UNL     1     -34.454   5.864   3.572  1.00 20.00    -0.108 C 
HETATM    3  C6  UNL     1     -35.436   5.353   4.529  1.00 20.00     0.112 C 
ENDROOT
BRANCH   1   4
HETATM    4  C4  UNL     1     -32.673   6.788   1.838  1.00 20.00     0.129 C 
HETATM    5  C5  UNL     1     -31.846   8.047   2.298  1.00 20.00     0.016 C 
HETATM    6  C3  UNL     1     -32.347   8.642   0.963  1.00 20.00     0.182 C 
HETATM    7  C8  UNL     1     -30.330   7.895   2.387  1.00 20.00     0.021 C 
HETATM    8  C9  UNL     1     -32.380   8.824   3.506  1.00 20.00     0.021 C 
HETATM    9  O10 UNL     1     -33.352   7.602   0.836  1.00 20.00    -0.366 OA
HETATM   10  C7  UNL     1     -31.945   5.635   1.150  1.00 20.00     0.061 C 
ENDBRANCH   1   4
TORSDOF 1
ENDMDL
