MODEL 1
REMARK VINA RESULT:      -0.1      0.000      0.000
REMARK  1 active torsions:
REMARK  status: ('A' for Active; 'I' for Inactive)
REMARK    1  A    between atoms: C3_3  and  C7_7 
ROOT
HETATM    1  C1  UNL     1     -31.732   8.233   0.408  1.00 20.00     0.006 C 
HETATM    2  C2  UNL     1     -32.488   9.205   0.938  1.00 20.00     0.007 C 
HETATM    3  C4  UNL     1     -32.747   6.494   1.856  1.00 20.00     0.054 C 
HETATM    4  C5  UNL     1     -31.450   7.254   1.520  1.00 20.00     0.244 C 
HETATM    5  C6  UNL     1     -32.697   8.842   2.387  1.00 20.00     0.255 C 
HETATM    6  C7  UNL     1     -33.642   7.623   2.440  1.00 20.00     0.094 C 
HETATM    7  N9  UNL     1     -31.419   8.148   2.705  1.00 20.00     0.100 N 
HETATM    8  H21 UNL     1     -31.486   7.613   3.571  1.00 20.00     0.317 HD
ENDROOT
BRANCH   6   9
HETATM    9  C3  UNL     1     -34.112   7.306   3.828  1.00 20.00     0.129 C 
HETATM   10  C8  UNL     1     -35.132   6.208   3.963  1.00 20.00     0.091 C 
HETATM   11  O10 UNL     1     -33.684   7.913   4.809  1.00 20.00    -0.298 OA
ENDBRANCH   6   9
TORSDOF 1
ENDMDL
MODEL 2
REMARK VINA RESULT:       0.5      1.245      1.260
REMARK  1 active torsions:
REMARK  status: ('A' for Active; 'I' for Inactive)
REMARK    1  A    between atoms: C3_3  and  C7_7 
ROOT
HETATM    1  C1  UNL     1     -31.657   8.514   0.605  1.00 20.00     0.006 C 
HETATM    2  C2  UNL     1     -32.813   8.993   1.086  1.00 20.00     0.007 C 
HETATM    3  C4  UNL     1     -32.099   6.239   1.487  1.00 20.00     0.054 C 
HETATM    4  C5  UNL     1     -31.183   7.474   1.587  1.00 20.00     0.244 C 
HETATM    5  C6  UNL     1     -33.082   8.251   2.371  1.00 20.00     0.255 C 
HETATM    6  C7  UNL     1     -33.452   6.797   2.012  1.00 20.00     0.094 C 
HETATM    7  N9  UNL     1     -31.699   8.013   2.869  1.00 20.00     0.100 N 
HETATM    8  H21 UNL     1     -31.679   7.304   3.602  1.00 20.00     0.317 HD
ENDROOT
BRANCH   6   9
HETATM    9  C3  UNL     1     -33.965   6.016   3.184  1.00 20.00     0.129 C 
HETATM   10  C8  UNL     1     -35.032   6.670   4.019  1.00 20.00     0.091 C 
HETATM   11  O10 UNL     1     -33.536   4.893   3.449  1.00 20.00    -0.298 OA
ENDBRANCH   6   9
TORSDOF 1
ENDMDL
MODEL 3
REMARK VINA RESULT:       0.8      1.606      2.303
REMARK  1 active torsions:
REMARK  status: ('A' for Active; 'I' for Inactive)
REMARK    1  A    between atoms: C3_3  and  C7_7 
ROOT
HETATM    1  C1  UNL     1     -31.420   7.351   1.465  1.00 20.00     0.006 C 
HETATM    2  C2  UNL     1     -31.618   6.026   1.481  1.00 20.00     0.007 C 
HETATM    3  C4  UNL     1     -33.079   7.738   3.267  1.00 20.00     0.054 C 
HETATM    4  C5  UNL     1     -32.749   7.987   1.783  1.00 20.00     0.244 C 
HETATM    5  C6  UNL     1     -33.074   5.815   1.819  1.00 20.00     0.255 C 
HETATM    6  C7  UNL     1     -33.277   6.196   3.300  1.00 20.00     0.094 C 
HETATM    7  N9  UNL     1     -33.698   7.012   1.192  1.00 20.00     0.100 N 
HETATM    8  H21 UNL     1     -34.646   7.166   1.536  1.00 20.00     0.317 HD
ENDROOT
BRANCH   6   9
HETATM    9  C3  UNL     1     -34.629   5.814   3.823  1.00 20.00     0.129 C 
HETATM   10  C8  UNL     1     -34.741   4.471   4.492  1.00 20.00     0.091 C 
HETATM   11  O10 UNL     1     -35.599   6.563   3.712  1.00 20.00    -0.298 OA
ENDBRANCH   6   9
TORSDOF 1
ENDMDL
MODEL 4
REMARK VINA RESULT:       1.2      1.215      1.928
REMARK  1 active torsions:
REMARK  status: ('A' for Active; 'I' for Inactive)
REMARK    1  A    between atoms: C3_3  and  C7_7 
ROOT
HETATM    1  C1  UNL     1     -31.223   6.736   1.090  1.00 20.00     0.006 C 
HETATM    2  C2  UNL     1     -32.013   5.683   1.343  1.00 20.00     0.007 C 
HETATM    3  C4  UNL     1     -32.126   8.022   3.008  1.00 20.00     0.054 C 
HETATM    4  C5  UNL     1     -32.009   7.964   1.473  1.00 20.00     0.244 C 
HETATM    5  C6  UNL     1     -33.301   6.239   1.897  1.00 20.00     0.255 C 
HETATM    6  C7  UNL     1     -33.014   6.783   3.312  1.00 20.00     0.094 C 
HETATM    7  N9  UNL     1     -33.399   7.536   1.174  1.00 20.00     0.100 N 
HETATM    8  H21 UNL     1     -34.077   8.160   1.609  1.00 20.00     0.317 HD
ENDROOT
BRANCH   6   9
HETATM    9  C3  UNL     1     -34.259   7.154   4.061  1.00 20.00     0.129 C 
HETATM   10  C8  UNL     1     -35.429   6.215   3.936  1.00 20.00     0.091 C 
HETATM   11  O10 UNL     1     -34.320   8.174   4.746  1.00 20.00    -0.298 OA
ENDBRANCH   6   9
TORSDOF 1
ENDMDL
MODEL 5
REMARK VINA RESULT:       1.2      1.682      3.752
REMARK  1 active torsions:
REMARK  status: ('A' for Active; 'I' for Inactive)
REMARK    1  A    between atoms: C3_3  and  C7_7 
ROOT
HETATM    1  C1  UNL     1     -35.144   6.463   4.061  1.00 20.00     0.006 C 
HETATM    2  C2  UNL     1     -34.373   5.637   3.340  1.00 20.00     0.007 C 
HETATM    3  C4  UNL     1     -34.258   8.476   2.918  1.00 20.00     0.054 C 
HETATM    4  C5  UNL     1     -34.349   7.727   4.261  1.00 20.00     0.244 C 
HETATM    5  C6  UNL     1     -33.088   6.378   3.071  1.00 20.00     0.255 C 
HETATM    6  C7  UNL     1     -33.392   7.508   2.064  1.00 20.00     0.094 C 
HETATM    7  N9  UNL     1     -32.960   7.205   4.303  1.00 20.00     0.100 N 
HETATM    8  H21 UNL     1     -32.281   7.955   4.183  1.00 20.00     0.317 HD
ENDROOT
BRANCH   6   9
HETATM    9  C3  UNL     1     -32.156   8.173   1.539  1.00 20.00     0.129 C 
HETATM   10  C8  UNL     1     -32.358   9.354   0.628  1.00 20.00     0.091 C 
HETATM   11  O10 UNL     1     -31.031   7.775   1.839  1.00 20.00    -0.298 OA
ENDBRANCH   6   9
TORSDOF 1
ENDMDL
MODEL 6
REMARK VINA RESULT:       1.3      2.207      3.616
REMARK  1 active torsions:
REMARK  status: ('A' for Active; 'I' for Inactive)
REMARK    1  A    between atoms: C3_3  and  C7_7 
ROOT
HETATM    1  C1  UNL     1     -33.359   5.769   3.253  1.00 20.00     0.006 C 
HETATM    2  C2  UNL     1     -33.816   7.010   3.475  1.00 20.00     0.007 C 
HETATM    3  C4  UNL     1     -31.635   6.565   1.658  1.00 20.00     0.054 C 
HETATM    4  C5  UNL     1     -32.918   5.726   1.812  1.00 20.00     0.244 C 
HETATM    5  C6  UNL     1     -33.657   7.762   2.177  1.00 20.00     0.255 C 
HETATM    6  C7  UNL     1     -32.151   8.002   1.948  1.00 20.00     0.094 C 
HETATM    7  N9  UNL     1     -33.865   6.677   1.179  1.00 20.00     0.100 N 
HETATM    8  H21 UNL     1     -33.545   6.952   0.251  1.00 20.00     0.317 HD
ENDROOT
BRANCH   6   9
HETATM    9  C3  UNL     1     -31.873   8.939   0.811  1.00 20.00     0.129 C 
HETATM   10  C8  UNL     1     -32.734  10.170   0.722  1.00 20.00     0.091 C 
HETATM   11  O10 UNL     1     -30.982   8.714  -0.008  1.00 20.00    -0.298 OA
ENDBRANCH   6   9
TORSDOF 1
ENDMDL
MODEL 7
REMARK VINA RESULT:       1.4      2.016      4.044
REMARK  1 active torsions:
REMARK  status: ('A' for Active; 'I' for Inactive)
REMARK    1  A    between atoms: C3_3  and  C7_7 
ROOT
HETATM    1  C1  UNL     1     -35.520   6.197   4.328  1.00 20.00     0.006 C 
HETATM    2  C2  UNL     1     -34.887   5.061   4.002  1.00 20.00     0.007 C 
HETATM    3  C4  UNL     1     -34.294   7.509   2.618  1.00 20.00     0.054 C 
HETATM    4  C5  UNL     1     -34.528   7.314   4.128  1.00 20.00     0.244 C 
HETATM    5  C6  UNL     1     -33.491   5.455   3.584  1.00 20.00     0.255 C 
HETATM    6  C7  UNL     1     -33.589   6.180   2.226  1.00 20.00     0.094 C 
HETATM    7  N9  UNL     1     -33.246   6.639   4.453  1.00 20.00     0.100 N 
HETATM    8  H21 UNL     1     -32.450   7.186   4.128  1.00 20.00     0.317 HD
ENDROOT
BRANCH   6   9
HETATM    9  C3  UNL     1     -32.251   6.419   1.592  1.00 20.00     0.129 C 
HETATM   10  C8  UNL     1     -31.793   7.849   1.496  1.00 20.00     0.091 C 
HETATM   11  O10 UNL     1     -31.561   5.491   1.173  1.00 20.00    -0.298 OA
ENDBRANCH   6   9
TORSDOF 1
ENDMDL
MODEL 8
REMARK VINA RESULT:       1.6      2.045      3.903
REMARK  1 active torsions:
REMARK  status: ('A' for Active; 'I' for Inactive)
REMARK    1  A    between atoms: C3_3  and  C7_7 
ROOT
HETATM    1  C1  UNL     1     -35.492   6.461   4.289  1.00 20.00     0.006 C 
HETATM    2  C2  UNL     1     -34.967   5.276   3.947  1.00 20.00     0.007 C 
HETATM    3  C4  UNL     1     -34.142   7.677   2.602  1.00 20.00     0.054 C 
HETATM    4  C5  UNL     1     -34.398   7.483   4.108  1.00 20.00     0.244 C 
HETATM    5  C6  UNL     1     -33.540   5.543   3.538  1.00 20.00     0.255 C 
HETATM    6  C7  UNL     1     -33.564   6.294   2.190  1.00 20.00     0.094 C 
HETATM    7  N9  UNL     1     -33.187   6.686   4.425  1.00 20.00     0.100 N 
HETATM    8  H21 UNL     1     -32.341   7.160   4.109  1.00 20.00     0.317 HD
ENDROOT
BRANCH   6   9
HETATM    9  C3  UNL     1     -32.208   6.415   1.562  1.00 20.00     0.129 C 
HETATM   10  C8  UNL     1     -31.661   5.184   0.890  1.00 20.00     0.091 C 
HETATM   11  O10 UNL     1     -31.575   7.469   1.593  1.00 20.00    -0.298 OA
ENDBRANCH   6   9
TORSDOF 1
ENDMDL
MODEL 9
REMARK VINA RESULT:       1.9      2.091      3.726
REMARK  1 active torsions:
REMARK  status: ('A' for Active; 'I' for Inactive)
REMARK    1  A    between atoms: C3_3  and  C7_7 
ROOT
HETATM    1  C1  UNL     1     -33.504   6.376   2.980  1.00 20.00     0.006 C 
HETATM    2  C2  UNL     1     -32.917   5.984   1.840  1.00 20.00     0.007 C 
HETATM    3  C4  UNL     1     -33.503   8.760   2.296  1.00 20.00     0.054 C 
HETATM    4  C5  UNL     1     -32.944   7.738   3.304  1.00 20.00     0.244 C 
HETATM    5  C6  UNL     1     -31.988   7.101   1.432  1.00 20.00     0.255 C 
HETATM    6  C7  UNL     1     -32.852   8.290   0.964  1.00 20.00     0.094 C 
HETATM    7  N9  UNL     1     -31.569   7.635   2.756  1.00 20.00     0.100 N 
HETATM    8  H21 UNL     1     -31.137   8.555   2.671  1.00 20.00     0.317 HD
ENDROOT
BRANCH   6   9
HETATM    9  C3  UNL     1     -32.050   9.378   0.316  1.00 20.00     0.129 C 
HETATM   10  C8  UNL     1     -32.707  10.727   0.203  1.00 20.00     0.091 C 
HETATM   11  O10 UNL     1     -30.910   9.179  -0.101  1.00 20.00    -0.298 OA
ENDBRANCH   6   9
TORSDOF 1
ENDMDL
