MODEL 1
REMARK VINA RESULT:       0.8      0.000      0.000
REMARK  1 active torsions:
REMARK  status: ('A' for Active; 'I' for Inactive)
REMARK    1  A    between atoms: C3_3  and  C6_6 
ROOT
HETATM    1  C1  UNL     1     -32.932   8.951   1.484  1.00 20.00    -0.022 C 
HETATM    2  C2  UNL     1     -31.952   8.261   0.879  1.00 20.00    -0.022 C 
HETATM    3  C4  UNL     1     -33.189   8.289   2.818  1.00 20.00     0.053 C 
HETATM    4  C5  UNL     1     -31.550   7.139   1.811  1.00 20.00     0.047 C 
HETATM    5  C6  UNL     1     -33.867   6.927   2.520  1.00 20.00     0.062 C 
HETATM    6  C7  UNL     1     -32.693   6.090   1.904  1.00 20.00     0.003 C 
HETATM    7  C8  UNL     1     -31.755   7.856   3.146  1.00 20.00     0.186 C 
HETATM    8  C9  UNL     1     -33.059   5.431   0.580  1.00 20.00     0.011 C 
HETATM    9  F11 UNL     1     -30.923   8.909   3.302  1.00 20.00    -0.248 F 
ENDROOT
BRANCH   5  10
HETATM   10  C3  UNL     1     -34.396   6.313   3.780  1.00 20.00     0.236 C 
HETATM   11  O10 UNL     1     -35.592   6.180   4.017  1.00 20.00    -0.306 OA
ENDBRANCH   5  10
TORSDOF 1
ENDMDL
MODEL 2
REMARK VINA RESULT:       0.9      2.209      3.186
REMARK  1 active torsions:
REMARK  status: ('A' for Active; 'I' for Inactive)
REMARK    1  A    between atoms: C3_3  and  C6_6 
ROOT
HETATM    1  C1  UNL     1     -31.730   6.262   1.859  1.00 20.00    -0.022 C 
HETATM    2  C2  UNL     1     -32.352   7.447   1.765  1.00 20.00    -0.022 C 
HETATM    3  C4  UNL     1     -32.792   5.215   2.102  1.00 20.00     0.053 C 
HETATM    4  C5  UNL     1     -33.833   7.193   1.941  1.00 20.00     0.047 C 
HETATM    5  C6  UNL     1     -33.319   5.437   3.543  1.00 20.00     0.062 C 
HETATM    6  C7  UNL     1     -34.130   6.773   3.408  1.00 20.00     0.003 C 
HETATM    7  C8  UNL     1     -33.920   5.825   1.263  1.00 20.00     0.186 C 
HETATM    8  C9  UNL     1     -33.750   7.812   4.455  1.00 20.00     0.011 C 
HETATM    9  F11 UNL     1     -33.612   5.878  -0.051  1.00 20.00    -0.248 F 
ENDROOT
BRANCH   5  10
HETATM   10  C3  UNL     1     -34.187   4.293   3.972  1.00 20.00     0.236 C 
HETATM   11  O10 UNL     1     -33.746   3.246   4.435  1.00 20.00    -0.306 OA
ENDBRANCH   5  10
TORSDOF 1
ENDMDL
MODEL 3
REMARK VINA RESULT:       1.0      2.293      2.900
REMARK  1 active torsions:
REMARK  status: ('A' for Active; 'I' for Inactive)
REMARK    1  A    between atoms: C3_3  and  C6_6 
ROOT
HETATM    1  C1  UNL     1     -35.637   6.943   3.252  1.00 20.00    -0.022 C 
HETATM    2  C2  UNL     1     -34.673   7.607   2.597  1.00 20.00    -0.022 C 
HETATM    3  C4  UNL     1     -34.961   6.092   4.302  1.00 20.00     0.053 C 
HETATM    4  C5  UNL     1     -33.351   7.204   3.212  1.00 20.00     0.047 C 
HETATM    5  C6  UNL     1     -34.218   4.958   3.550  1.00 20.00     0.062 C 
HETATM    6  C7  UNL     1     -33.033   5.722   2.865  1.00 20.00     0.003 C 
HETATM    7  C8  UNL     1     -33.807   7.033   4.662  1.00 20.00     0.186 C 
HETATM    8  C9  UNL     1     -32.915   5.430   1.375  1.00 20.00     0.011 C 
HETATM    9  F11 UNL     1     -34.238   8.191   5.208  1.00 20.00    -0.248 F 
ENDROOT
BRANCH   5  10
HETATM   10  C3  UNL     1     -33.735   3.915   4.511  1.00 20.00     0.236 C 
HETATM   11  O10 UNL     1     -33.598   2.732   4.214  1.00 20.00    -0.306 OA
ENDBRANCH   5  10
TORSDOF 1
ENDMDL
MODEL 4
REMARK VINA RESULT:       1.4      1.941      2.946
REMARK  1 active torsions:
REMARK  status: ('A' for Active; 'I' for Inactive)
REMARK    1  A    between atoms: C3_3  and  C6_6 
ROOT
HETATM    1  C1  UNL     1     -31.967   5.577   1.949  1.00 20.00    -0.022 C 
HETATM    2  C2  UNL     1     -31.748   6.875   1.688  1.00 20.00    -0.022 C 
HETATM    3  C4  UNL     1     -33.446   5.417   2.218  1.00 20.00     0.053 C 
HETATM    4  C5  UNL     1     -33.082   7.584   1.777  1.00 20.00     0.047 C 
HETATM    5  C6  UNL     1     -33.729   6.091   3.585  1.00 20.00     0.062 C 
HETATM    6  C7  UNL     1     -33.569   7.616   3.254  1.00 20.00     0.003 C 
HETATM    7  C8  UNL     1     -33.979   6.469   1.239  1.00 20.00     0.186 C 
HETATM    8  C9  UNL     1     -32.637   8.342   4.214  1.00 20.00     0.011 C 
HETATM    9  F11 UNL     1     -33.704   6.159  -0.047  1.00 20.00    -0.248 F 
ENDROOT
BRANCH   5  10
HETATM   10  C3  UNL     1     -35.110   5.761   4.062  1.00 20.00     0.236 C 
HETATM   11  O10 UNL     1     -35.404   4.699   4.601  1.00 20.00    -0.306 OA
ENDBRANCH   5  10
TORSDOF 1
ENDMDL
MODEL 5
REMARK VINA RESULT:       1.7      2.555      3.544
REMARK  1 active torsions:
REMARK  status: ('A' for Active; 'I' for Inactive)
REMARK    1  A    between atoms: C3_3  and  C6_6 
ROOT
HETATM    1  C1  UNL     1     -33.477   6.154   4.453  1.00 20.00    -0.022 C 
HETATM    2  C2  UNL     1     -33.750   5.100   3.669  1.00 20.00    -0.022 C 
HETATM    3  C4  UNL     1     -33.692   7.399   3.624  1.00 20.00     0.053 C 
HETATM    4  C5  UNL     1     -34.153   5.640   2.314  1.00 20.00     0.047 C 
HETATM    5  C6  UNL     1     -32.546   7.446   2.581  1.00 20.00     0.062 C 
HETATM    6  C7  UNL     1     -32.922   6.275   1.608  1.00 20.00     0.003 C 
HETATM    7  C8  UNL     1     -34.868   6.913   2.770  1.00 20.00     0.186 C 
HETATM    8  C9  UNL     1     -31.769   5.313   1.356  1.00 20.00     0.011 C 
HETATM    9  F11 UNL     1     -35.968   6.651   3.510  1.00 20.00    -0.248 F 
ENDROOT
BRANCH   5  10
HETATM   10  C3  UNL     1     -32.520   8.771   1.883  1.00 20.00     0.236 C 
HETATM   11  O10 UNL     1     -32.139   8.919   0.726  1.00 20.00    -0.306 OA
ENDBRANCH   5  10
TORSDOF 1
ENDMDL
MODEL 6
REMARK VINA RESULT:       1.7      2.334      3.430
REMARK  1 active torsions:
REMARK  status: ('A' for Active; 'I' for Inactive)
REMARK    1  A    between atoms: C3_3  and  C6_6 
ROOT
HETATM    1  C1  UNL     1     -32.929   7.864   4.455  1.00 20.00    -0.022 C 
HETATM    2  C2  UNL     1     -34.075   7.442   5.011  1.00 20.00    -0.022 C 
HETATM    3  C4  UNL     1     -33.029   7.601   2.969  1.00 20.00     0.053 C 
HETATM    4  C5  UNL     1     -34.945   6.901   3.898  1.00 20.00     0.047 C 
HETATM    5  C6  UNL     1     -32.953   6.064   2.781  1.00 20.00     0.062 C 
HETATM    6  C7  UNL     1     -34.336   5.582   3.342  1.00 20.00     0.003 C 
HETATM    7  C8  UNL     1     -34.528   7.862   2.784  1.00 20.00     0.186 C 
HETATM    8  C9  UNL     1     -34.208   4.461   4.365  1.00 20.00     0.011 C 
HETATM    9  F11 UNL     1     -34.864   9.142   3.053  1.00 20.00    -0.248 F 
ENDROOT
BRANCH   5  10
HETATM   10  C3  UNL     1     -32.782   5.717   1.333  1.00 20.00     0.236 C 
HETATM   11  O10 UNL     1     -31.837   5.064   0.901  1.00 20.00    -0.306 OA
ENDBRANCH   5  10
TORSDOF 1
ENDMDL
MODEL 7
REMARK VINA RESULT:       1.8      1.614      2.312
REMARK  1 active torsions:
REMARK  status: ('A' for Active; 'I' for Inactive)
REMARK    1  A    between atoms: C3_3  and  C6_6 
ROOT
HETATM    1  C1  UNL     1     -33.653   6.142   0.691  1.00 20.00    -0.022 C 
HETATM    2  C2  UNL     1     -32.783   5.166   0.995  1.00 20.00    -0.022 C 
HETATM    3  C4  UNL     1     -33.591   7.160   1.806  1.00 20.00     0.053 C 
HETATM    4  C5  UNL     1     -32.136   5.533   2.311  1.00 20.00     0.047 C 
HETATM    5  C6  UNL     1     -34.241   6.502   3.050  1.00 20.00     0.062 C 
HETATM    6  C7  UNL     1     -33.176   5.427   3.462  1.00 20.00     0.003 C 
HETATM    7  C8  UNL     1     -32.100   7.053   2.142  1.00 20.00     0.186 C 
HETATM    8  C9  UNL     1     -33.771   4.038   3.654  1.00 20.00     0.011 C 
HETATM    9  F11 UNL     1     -31.312   7.440   1.114  1.00 20.00    -0.248 F 
ENDROOT
BRANCH   5  10
HETATM   10  C3  UNL     1     -34.463   7.517   4.130  1.00 20.00     0.236 C 
HETATM   11  O10 UNL     1     -33.579   7.903   4.887  1.00 20.00    -0.306 OA
ENDBRANCH   5  10
TORSDOF 1
ENDMDL
MODEL 8
REMARK VINA RESULT:       1.9      1.964      2.985
REMARK  1 active torsions:
REMARK  status: ('A' for Active; 'I' for Inactive)
REMARK    1  A    between atoms: C3_3  and  C6_6 
ROOT
HETATM    1  C1  UNL     1     -31.182   8.075   2.816  1.00 20.00    -0.022 C 
HETATM    2  C2  UNL     1     -32.295   8.618   3.333  1.00 20.00    -0.022 C 
HETATM    3  C4  UNL     1     -31.576   7.381   1.532  1.00 20.00     0.053 C 
HETATM    4  C5  UNL     1     -33.434   8.293   2.391  1.00 20.00     0.047 C 
HETATM    5  C6  UNL     1     -32.409   6.136   1.932  1.00 20.00     0.062 C 
HETATM    6  C7  UNL     1     -33.748   6.772   2.444  1.00 20.00     0.003 C 
HETATM    7  C8  UNL     1     -32.670   8.349   1.068  1.00 20.00     0.186 C 
HETATM    8  C9  UNL     1     -34.170   6.257   3.814  1.00 20.00     0.011 C 
HETATM    9  F11 UNL     1     -32.186   9.582   0.801  1.00 20.00    -0.248 F 
ENDROOT
BRANCH   5  10
HETATM   10  C3  UNL     1     -32.625   5.243   0.749  1.00 20.00     0.236 C 
HETATM   11  O10 UNL     1     -31.760   4.501   0.294  1.00 20.00    -0.306 OA
ENDBRANCH   5  10
TORSDOF 1
ENDMDL
MODEL 9
REMARK VINA RESULT:       2.4      2.532      3.624
REMARK  1 active torsions:
REMARK  status: ('A' for Active; 'I' for Inactive)
REMARK    1  A    between atoms: C3_3  and  C6_6 
ROOT
HETATM    1  C1  UNL     1     -33.804   5.652   0.912  1.00 20.00    -0.022 C 
HETATM    2  C2  UNL     1     -33.746   5.211   2.178  1.00 20.00    -0.022 C 
HETATM    3  C4  UNL     1     -32.666   6.630   0.726  1.00 20.00     0.053 C 
HETATM    4  C5  UNL     1     -32.566   5.890   2.839  1.00 20.00     0.047 C 
HETATM    5  C6  UNL     1     -33.026   7.897   1.545  1.00 20.00     0.062 C 
HETATM    6  C7  UNL     1     -32.862   7.405   3.025  1.00 20.00     0.003 C 
HETATM    7  C8  UNL     1     -31.628   5.960   1.633  1.00 20.00     0.186 C 
HETATM    8  C9  UNL     1     -34.072   7.714   3.895  1.00 20.00     0.011 C 
HETATM    9  F11 UNL     1     -31.268   4.737   1.186  1.00 20.00    -0.248 F 
ENDROOT
BRANCH   5  10
HETATM   10  C3  UNL     1     -32.091   9.021   1.218  1.00 20.00     0.236 C 
HETATM   11  O10 UNL     1     -32.366   9.923   0.433  1.00 20.00    -0.306 OA
ENDBRANCH   5  10
TORSDOF 1
ENDMDL
