MODEL 1
REMARK VINA RESULT:       1.2      0.000      0.000
REMARK  1 active torsions:
REMARK  status: ('A' for Active; 'I' for Inactive)
REMARK    1  A    between atoms: C1_1  and  C4_4 
ROOT
HETATM    1  C2  UNL     1     -34.088   4.223   4.052  1.00 20.00     0.180 C 
HETATM    2  C3  UNL     1     -35.207   5.066   4.634  1.00 20.00     0.103 C 
HETATM    3  C4  UNL     1     -33.681   6.173   2.848  1.00 20.00     0.165 C 
HETATM    4  C6  UNL     1     -33.620   5.908   1.351  1.00 20.00     0.067 C 
HETATM    5  O8  UNL     1     -33.064   5.101   3.564  1.00 20.00    -0.362 OA
HETATM    6  S9  UNL     1     -35.386   6.379   3.418  1.00 20.00    -0.122 SA
ENDROOT
BRANCH   3   7
HETATM    7  C1  UNL     1     -32.917   7.407   3.209  1.00 20.00     0.167 C 
HETATM    8  C5  UNL     1     -32.044   8.001   2.136  1.00 20.00     0.095 C 
HETATM    9  O7  UNL     1     -32.998   7.912   4.327  1.00 20.00    -0.294 OA
ENDBRANCH   3   7
TORSDOF 1
ENDMDL
MODEL 2
REMARK VINA RESULT:       1.2      1.595      3.354
REMARK  1 active torsions:
REMARK  status: ('A' for Active; 'I' for Inactive)
REMARK    1  A    between atoms: C1_1  and  C4_4 
ROOT
HETATM    1  C2  UNL     1     -32.810   7.958   3.239  1.00 20.00     0.180 C 
HETATM    2  C3  UNL     1     -32.207   7.039   2.194  1.00 20.00     0.103 C 
HETATM    3  C4  UNL     1     -34.421   6.280   3.319  1.00 20.00     0.165 C 
HETATM    4  C6  UNL     1     -35.824   6.838   3.132  1.00 20.00     0.067 C 
HETATM    5  O8  UNL     1     -33.637   7.175   4.111  1.00 20.00    -0.362 OA
HETATM    6  S9  UNL     1     -33.599   5.999   1.731  1.00 20.00    -0.122 SA
ENDROOT
BRANCH   3   7
HETATM    7  C1  UNL     1     -34.451   4.983   4.064  1.00 20.00     0.167 C 
HETATM    8  C5  UNL     1     -33.275   4.064   3.870  1.00 20.00     0.095 C 
HETATM    9  O7  UNL     1     -35.390   4.683   4.799  1.00 20.00    -0.294 OA
ENDBRANCH   3   7
TORSDOF 1
ENDMDL
MODEL 3
REMARK VINA RESULT:       1.4      0.847      1.150
REMARK  1 active torsions:
REMARK  status: ('A' for Active; 'I' for Inactive)
REMARK    1  A    between atoms: C1_1  and  C4_4 
ROOT
HETATM    1  C2  UNL     1     -34.082   4.226   4.071  1.00 20.00     0.180 C 
HETATM    2  C3  UNL     1     -35.252   5.014   4.629  1.00 20.00     0.103 C 
HETATM    3  C4  UNL     1     -33.705   6.214   2.923  1.00 20.00     0.165 C 
HETATM    4  C6  UNL     1     -33.579   5.983   1.425  1.00 20.00     0.067 C 
HETATM    5  O8  UNL     1     -33.074   5.150   3.640  1.00 20.00    -0.362 OA
HETATM    6  S9  UNL     1     -35.436   6.345   3.433  1.00 20.00    -0.122 SA
ENDROOT
BRANCH   3   7
HETATM    7  C1  UNL     1     -33.001   7.467   3.336  1.00 20.00     0.167 C 
HETATM    8  C5  UNL     1     -33.403   8.065   4.657  1.00 20.00     0.095 C 
HETATM    9  O7  UNL     1     -32.136   7.983   2.631  1.00 20.00    -0.294 OA
ENDBRANCH   3   7
TORSDOF 1
ENDMDL
MODEL 4
REMARK VINA RESULT:       1.4      1.641      2.345
REMARK  1 active torsions:
REMARK  status: ('A' for Active; 'I' for Inactive)
REMARK    1  A    between atoms: C1_1  and  C4_4 
ROOT
HETATM    1  C2  UNL     1     -35.595   6.129   4.139  1.00 20.00     0.180 C 
HETATM    2  C3  UNL     1     -34.954   4.754   4.137  1.00 20.00     0.103 C 
HETATM    3  C4  UNL     1     -33.482   6.762   3.398  1.00 20.00     0.165 C 
HETATM    4  C6  UNL     1     -32.900   7.880   4.249  1.00 20.00     0.067 C 
HETATM    5  O8  UNL     1     -34.886   6.964   3.214  1.00 20.00    -0.362 OA
HETATM    6  S9  UNL     1     -33.197   5.139   4.144  1.00 20.00    -0.122 SA
ENDROOT
BRANCH   3   7
HETATM    7  C1  UNL     1     -32.881   6.758   2.028  1.00 20.00     0.167 C 
HETATM    8  C5  UNL     1     -32.072   7.966   1.639  1.00 20.00     0.095 C 
HETATM    9  O7  UNL     1     -33.039   5.813   1.257  1.00 20.00    -0.294 OA
ENDBRANCH   3   7
TORSDOF 1
ENDMDL
MODEL 5
REMARK VINA RESULT:       1.8      2.470      3.449
REMARK  1 active torsions:
REMARK  status: ('A' for Active; 'I' for Inactive)
REMARK    1  A    between atoms: C1_1  and  C4_4 
ROOT
HETATM    1  C2  UNL     1     -33.821   6.965   3.142  1.00 20.00     0.180 C 
HETATM    2  C3  UNL     1     -33.567   5.942   2.049  1.00 20.00     0.103 C 
HETATM    3  C4  UNL     1     -32.089   8.077   2.057  1.00 20.00     0.165 C 
HETATM    4  C6  UNL     1     -30.977   8.462   3.020  1.00 20.00     0.067 C 
HETATM    5  O8  UNL     1     -33.363   8.244   2.683  1.00 20.00    -0.362 OA
HETATM    6  S9  UNL     1     -31.913   6.369   1.486  1.00 20.00    -0.122 SA
ENDROOT
BRANCH   3   7
HETATM    7  C1  UNL     1     -32.097   8.971   0.857  1.00 20.00     0.167 C 
HETATM    8  C5  UNL     1     -32.932  10.220   0.948  1.00 20.00     0.095 C 
HETATM    9  O7  UNL     1     -31.452   8.699  -0.154  1.00 20.00    -0.294 OA
ENDBRANCH   3   7
TORSDOF 1
ENDMDL
MODEL 6
REMARK VINA RESULT:       1.8      2.512      4.395
REMARK  1 active torsions:
REMARK  status: ('A' for Active; 'I' for Inactive)
REMARK    1  A    between atoms: C1_1  and  C4_4 
ROOT
HETATM    1  C2  UNL     1     -31.158   8.889   0.084  1.00 20.00     0.180 C 
HETATM    2  C3  UNL     1     -32.487   9.586  -0.132  1.00 20.00     0.103 C 
HETATM    3  C4  UNL     1     -32.169   8.278   2.088  1.00 20.00     0.165 C 
HETATM    4  C6  UNL     1     -31.303   8.633   3.287  1.00 20.00     0.067 C 
HETATM    5  O8  UNL     1     -31.353   7.812   1.011  1.00 20.00    -0.362 OA
HETATM    6  S9  UNL     1     -33.152   9.693   1.535  1.00 20.00    -0.122 SA
ENDROOT
BRANCH   3   7
HETATM    7  C1  UNL     1     -33.106   7.158   2.413  1.00 20.00     0.167 C 
HETATM    8  C5  UNL     1     -33.997   7.346   3.611  1.00 20.00     0.095 C 
HETATM    9  O7  UNL     1     -33.148   6.134   1.733  1.00 20.00    -0.294 OA
ENDBRANCH   3   7
TORSDOF 1
ENDMDL
MODEL 7
REMARK VINA RESULT:       2.0      2.460      4.306
REMARK  1 active torsions:
REMARK  status: ('A' for Active; 'I' for Inactive)
REMARK    1  A    between atoms: C1_1  and  C4_4 
ROOT
HETATM    1  C2  UNL     1     -31.158   8.902   0.039  1.00 20.00     0.180 C 
HETATM    2  C3  UNL     1     -32.491   9.604  -0.142  1.00 20.00     0.103 C 
HETATM    3  C4  UNL     1     -32.120   8.292   2.069  1.00 20.00     0.165 C 
HETATM    4  C6  UNL     1     -31.222   8.643   3.245  1.00 20.00     0.067 C 
HETATM    5  O8  UNL     1     -31.333   7.825   0.970  1.00 20.00    -0.362 OA
HETATM    6  S9  UNL     1     -33.112   9.711   1.542  1.00 20.00    -0.122 SA
ENDROOT
BRANCH   3   7
HETATM    7  C1  UNL     1     -33.052   7.175   2.416  1.00 20.00     0.167 C 
HETATM    8  C5  UNL     1     -32.960   5.930   1.574  1.00 20.00     0.095 C 
HETATM    9  O7  UNL     1     -33.853   7.268   3.344  1.00 20.00    -0.294 OA
ENDBRANCH   3   7
TORSDOF 1
ENDMDL
MODEL 8
REMARK VINA RESULT:       2.1      2.294      3.711
REMARK  1 active torsions:
REMARK  status: ('A' for Active; 'I' for Inactive)
REMARK    1  A    between atoms: C1_1  and  C4_4 
ROOT
HETATM    1  C2  UNL     1     -32.818   8.199   0.102  1.00 20.00     0.180 C 
HETATM    2  C3  UNL     1     -32.234   9.175   1.107  1.00 20.00     0.103 C 
HETATM    3  C4  UNL     1     -32.657   6.741   1.909  1.00 20.00     0.165 C 
HETATM    4  C6  UNL     1     -31.902   5.473   1.542  1.00 20.00     0.067 C 
HETATM    5  O8  UNL     1     -33.486   7.153   0.819  1.00 20.00    -0.362 OA
HETATM    6  S9  UNL     1     -31.528   8.084   2.351  1.00 20.00    -0.122 SA
ENDROOT
BRANCH   3   7
HETATM    7  C1  UNL     1     -33.577   6.506   3.064  1.00 20.00     0.167 C 
HETATM    8  C5  UNL     1     -33.953   7.710   3.886  1.00 20.00     0.095 C 
HETATM    9  O7  UNL     1     -34.005   5.385   3.330  1.00 20.00    -0.294 OA
ENDBRANCH   3   7
TORSDOF 1
ENDMDL
MODEL 9
REMARK VINA RESULT:       2.3      1.989      3.008
REMARK  1 active torsions:
REMARK  status: ('A' for Active; 'I' for Inactive)
REMARK    1  A    between atoms: C1_1  and  C4_4 
ROOT
HETATM    1  C2  UNL     1     -31.584   4.837   0.833  1.00 20.00     0.180 C 
HETATM    2  C3  UNL     1     -32.931   4.522   0.211  1.00 20.00     0.103 C 
HETATM    3  C4  UNL     1     -32.835   6.457   1.940  1.00 20.00     0.165 C 
HETATM    4  C6  UNL     1     -32.224   7.841   1.787  1.00 20.00     0.067 C 
HETATM    5  O8  UNL     1     -31.804   5.478   2.096  1.00 20.00    -0.362 OA
HETATM    6  S9  UNL     1     -33.870   6.025   0.520  1.00 20.00    -0.122 SA
ENDROOT
BRANCH   3   7
HETATM    7  C1  UNL     1     -33.677   6.372   3.173  1.00 20.00     0.167 C 
HETATM    8  C5  UNL     1     -33.938   7.661   3.905  1.00 20.00     0.095 C 
HETATM    9  O7  UNL     1     -34.134   5.302   3.570  1.00 20.00    -0.294 OA
ENDBRANCH   3   7
TORSDOF 1
ENDMDL
