MODEL 1
REMARK VINA RESULT:      -0.1      0.000      0.000
REMARK  3 active torsions:
REMARK  status: ('A' for Active; 'I' for Inactive)
REMARK    1  A    between atoms: C8_8  and  C9_9 
REMARK    2  A    between atoms: C8_8  and  O11_11 
REMARK    3  A    between atoms: N10_10  and  O11_11 
ROOT
HETATM    1  C1  UNL     1     -33.205   7.338   4.101  1.00 20.00     0.107 A 
HETATM    2  C2  UNL     1     -34.120   6.251   3.551  1.00 20.00     0.049 A 
HETATM    3  C3  UNL     1     -33.658   8.331   5.114  1.00 20.00     0.031 C 
HETATM    4  C4  UNL     1     -35.568   6.197   3.968  1.00 20.00     0.036 C 
HETATM    5  C5  UNL     1     -33.511   4.897   3.289  1.00 20.00     0.036 C 
HETATM    6  N10 UNL     1     -33.731   7.423   2.744  1.00 20.00    -0.180 NA
ENDROOT
BRANCH   6   7
HETATM    7  O11 UNL     1     -32.668   7.065   1.821  1.00 20.00    -0.302 OA
BRANCH   7   8
HETATM    8  C8  UNL     1     -31.833   8.205   1.664  1.00 20.00     0.197 C 
BRANCH   8   9
HETATM    9  C9  UNL     1     -32.229   8.971   0.398  1.00 20.00     0.003 C 
HETATM   10  C6  UNL     1     -32.701  10.388   0.730  1.00 20.00     0.011 C 
HETATM   11  C7  UNL     1     -31.060   9.017  -0.584  1.00 20.00     0.011 C 
ENDBRANCH   8   9
ENDBRANCH   7   8
ENDBRANCH   6   7
TORSDOF 3
ENDMDL
MODEL 2
REMARK VINA RESULT:       0.2      1.351      2.318
REMARK  3 active torsions:
REMARK  status: ('A' for Active; 'I' for Inactive)
REMARK    1  A    between atoms: C8_8  and  C9_9 
REMARK    2  A    between atoms: C8_8  and  O11_11 
REMARK    3  A    between atoms: N10_10  and  O11_11 
ROOT
HETATM    1  C1  UNL     1     -33.433   6.144   1.514  1.00 20.00     0.107 A 
HETATM    2  C2  UNL     1     -33.695   6.001   3.008  1.00 20.00     0.049 A 
HETATM    3  C3  UNL     1     -33.109   4.982   0.642  1.00 20.00     0.031 C 
HETATM    4  C4  UNL     1     -33.550   4.658   3.677  1.00 20.00     0.036 C 
HETATM    5  C5  UNL     1     -34.768   6.870   3.613  1.00 20.00     0.036 C 
HETATM    6  N10 UNL     1     -32.447   6.594   2.489  1.00 20.00    -0.180 NA
ENDROOT
BRANCH   6   7
HETATM    7  O11 UNL     1     -32.511   8.043   2.566  1.00 20.00    -0.302 OA
BRANCH   7   8
HETATM    8  C8  UNL     1     -31.780   8.565   1.464  1.00 20.00     0.197 C 
BRANCH   8   9
HETATM    9  C9  UNL     1     -32.688   9.456   0.612  1.00 20.00     0.003 C 
HETATM   10  C6  UNL     1     -32.595  10.921   1.044  1.00 20.00     0.011 C 
HETATM   11  C7  UNL     1     -32.335   9.316  -0.867  1.00 20.00     0.011 C 
ENDBRANCH   8   9
ENDBRANCH   7   8
ENDBRANCH   6   7
TORSDOF 3
ENDMDL
MODEL 3
REMARK VINA RESULT:       0.5      1.564      1.958
REMARK  3 active torsions:
REMARK  status: ('A' for Active; 'I' for Inactive)
REMARK    1  A    between atoms: C8_8  and  C9_9 
REMARK    2  A    between atoms: C8_8  and  O11_11 
REMARK    3  A    between atoms: N10_10  and  O11_11 
ROOT
HETATM    1  C1  UNL     1     -33.328   6.540   3.055  1.00 20.00     0.107 A 
HETATM    2  C2  UNL     1     -32.920   6.025   1.679  1.00 20.00     0.049 A 
HETATM    3  C3  UNL     1     -34.728   6.466   3.555  1.00 20.00     0.031 C 
HETATM    4  C4  UNL     1     -33.962   5.488   0.732  1.00 20.00     0.036 C 
HETATM    5  C5  UNL     1     -31.580   5.345   1.561  1.00 20.00     0.036 C 
HETATM    6  N10 UNL     1     -33.011   7.468   1.977  1.00 20.00    -0.180 NA
ENDROOT
BRANCH   6   7
HETATM    7  O11 UNL     1     -31.687   8.013   2.221  1.00 20.00    -0.302 OA
BRANCH   7   8
HETATM    8  C8  UNL     1     -31.346   8.829   1.108  1.00 20.00     0.197 C 
BRANCH   8   9
HETATM    9  C9  UNL     1     -32.593   9.553   0.590  1.00 20.00     0.003 C 
HETATM   10  C6  UNL     1     -32.647  10.997   1.093  1.00 20.00     0.011 C 
HETATM   11  C7  UNL     1     -32.632   9.520  -0.936  1.00 20.00     0.011 C 
ENDBRANCH   8   9
ENDBRANCH   7   8
ENDBRANCH   6   7
TORSDOF 3
ENDMDL
MODEL 4
REMARK VINA RESULT:       0.8      1.446      4.667
REMARK  3 active torsions:
REMARK  status: ('A' for Active; 'I' for Inactive)
REMARK    1  A    between atoms: C8_8  and  C9_9 
REMARK    2  A    between atoms: C8_8  and  O11_11 
REMARK    3  A    between atoms: N10_10  and  O11_11 
ROOT
HETATM    1  C1  UNL     1     -32.242   6.566   1.973  1.00 20.00     0.107 A 
HETATM    2  C2  UNL     1     -31.980   8.055   1.785  1.00 20.00     0.049 A 
HETATM    3  C3  UNL     1     -32.616   5.669   0.845  1.00 20.00     0.031 C 
HETATM    4  C4  UNL     1     -32.173   8.694   0.434  1.00 20.00     0.036 C 
HETATM    5  C5  UNL     1     -30.871   8.674   2.598  1.00 20.00     0.036 C 
HETATM    6  N10 UNL     1     -33.206   7.556   2.437  1.00 20.00    -0.180 NA
ENDROOT
BRANCH   6   7
HETATM    7  O11 UNL     1     -33.086   7.666   3.881  1.00 20.00    -0.302 OA
BRANCH   7   8
HETATM    8  C8  UNL     1     -34.364   7.395   4.440  1.00 20.00     0.197 C 
BRANCH   8   9
HETATM    9  C9  UNL     1     -35.031   6.243   3.683  1.00 20.00     0.003 C 
HETATM   10  C6  UNL     1     -35.130   4.989   4.554  1.00 20.00     0.011 C 
HETATM   11  C7  UNL     1     -36.417   6.660   3.194  1.00 20.00     0.011 C 
ENDBRANCH   8   9
ENDBRANCH   7   8
ENDBRANCH   6   7
TORSDOF 3
ENDMDL
MODEL 5
REMARK VINA RESULT:       1.0      2.343      5.249
REMARK  3 active torsions:
REMARK  status: ('A' for Active; 'I' for Inactive)
REMARK    1  A    between atoms: C8_8  and  C9_9 
REMARK    2  A    between atoms: C8_8  and  O11_11 
REMARK    3  A    between atoms: N10_10  and  O11_11 
ROOT
HETATM    1  C1  UNL     1     -34.112   6.774   3.169  1.00 20.00     0.107 A 
HETATM    2  C2  UNL     1     -33.063   6.579   2.081  1.00 20.00     0.049 A 
HETATM    3  C3  UNL     1     -34.119   7.957   4.074  1.00 20.00     0.031 C 
HETATM    4  C4  UNL     1     -31.928   7.561   1.939  1.00 20.00     0.036 C 
HETATM    5  C5  UNL     1     -33.519   5.983   0.774  1.00 20.00     0.036 C 
HETATM    6  N10 UNL     1     -33.061   5.776   3.319  1.00 20.00    -0.180 NA
ENDROOT
BRANCH   6   7
HETATM    7  O11 UNL     1     -33.637   4.467   3.067  1.00 20.00    -0.302 OA
BRANCH   7   8
HETATM    8  C8  UNL     1     -34.000   3.908   4.322  1.00 20.00     0.197 C 
BRANCH   8   9
HETATM    9  C9  UNL     1     -32.897   2.965   4.812  1.00 20.00     0.003 C 
HETATM   10  C6  UNL     1     -32.547   3.232   6.277  1.00 20.00     0.011 C 
HETATM   11  C7  UNL     1     -33.318   1.509   4.622  1.00 20.00     0.011 C 
ENDBRANCH   8   9
ENDBRANCH   7   8
ENDBRANCH   6   7
TORSDOF 3
ENDMDL
MODEL 6
REMARK VINA RESULT:       1.2      1.539      4.985
REMARK  3 active torsions:
REMARK  status: ('A' for Active; 'I' for Inactive)
REMARK    1  A    between atoms: C8_8  and  C9_9 
REMARK    2  A    between atoms: C8_8  and  O11_11 
REMARK    3  A    between atoms: N10_10  and  O11_11 
ROOT
HETATM    1  C1  UNL     1     -32.149   6.354   1.888  1.00 20.00     0.107 A 
HETATM    2  C2  UNL     1     -32.205   7.875   1.826  1.00 20.00     0.049 A 
HETATM    3  C3  UNL     1     -31.860   5.512   0.695  1.00 20.00     0.031 C 
HETATM    4  C4  UNL     1     -32.043   8.585   0.506  1.00 20.00     0.036 C 
HETATM    5  C5  UNL     1     -31.651   8.640   3.000  1.00 20.00     0.036 C 
HETATM    6  N10 UNL     1     -33.424   7.056   1.966  1.00 20.00    -0.180 NA
ENDROOT
BRANCH   6   7
HETATM    7  O11 UNL     1     -33.866   7.047   3.349  1.00 20.00    -0.302 OA
BRANCH   7   8
HETATM    8  C8  UNL     1     -33.321   5.889   3.967  1.00 20.00     0.197 C 
BRANCH   8   9
HETATM    9  C9  UNL     1     -34.324   4.735   3.889  1.00 20.00     0.003 C 
HETATM   10  C6  UNL     1     -33.712   3.429   4.400  1.00 20.00     0.011 C 
HETATM   11  C7  UNL     1     -35.587   5.073   4.677  1.00 20.00     0.011 C 
ENDBRANCH   8   9
ENDBRANCH   7   8
ENDBRANCH   6   7
TORSDOF 3
ENDMDL
MODEL 7
REMARK VINA RESULT:       1.4      1.215      2.316
REMARK  3 active torsions:
REMARK  status: ('A' for Active; 'I' for Inactive)
REMARK    1  A    between atoms: C8_8  and  C9_9 
REMARK    2  A    between atoms: C8_8  and  O11_11 
REMARK    3  A    between atoms: N10_10  and  O11_11 
ROOT
HETATM    1  C1  UNL     1     -34.159   4.824   3.427  1.00 20.00     0.107 A 
HETATM    2  C2  UNL     1     -34.486   6.300   3.622  1.00 20.00     0.049 A 
HETATM    3  C3  UNL     1     -33.827   3.920   4.562  1.00 20.00     0.031 C 
HETATM    4  C4  UNL     1     -34.403   6.919   4.994  1.00 20.00     0.036 C 
HETATM    5  C5  UNL     1     -35.562   6.895   2.750  1.00 20.00     0.036 C 
HETATM    6  N10 UNL     1     -33.204   5.856   3.042  1.00 20.00    -0.180 NA
ENDROOT
BRANCH   6   7
HETATM    7  O11 UNL     1     -33.235   5.989   1.597  1.00 20.00    -0.302 OA
BRANCH   7   8
HETATM    8  C8  UNL     1     -32.102   6.756   1.211  1.00 20.00     0.197 C 
BRANCH   8   9
HETATM    9  C9  UNL     1     -32.300   8.219   1.620  1.00 20.00     0.003 C 
HETATM   10  C6  UNL     1     -31.369   8.605   2.771  1.00 20.00     0.011 C 
HETATM   11  C7  UNL     1     -32.075   9.141   0.423  1.00 20.00     0.011 C 
ENDBRANCH   8   9
ENDBRANCH   7   8
ENDBRANCH   6   7
TORSDOF 3
ENDMDL
MODEL 8
REMARK VINA RESULT:       1.5      1.338      4.980
REMARK  3 active torsions:
REMARK  status: ('A' for Active; 'I' for Inactive)
REMARK    1  A    between atoms: C8_8  and  C9_9 
REMARK    2  A    between atoms: C8_8  and  O11_11 
REMARK    3  A    between atoms: N10_10  and  O11_11 
ROOT
HETATM    1  C1  UNL     1     -31.122   8.953   0.493  1.00 20.00     0.107 A 
HETATM    2  C2  UNL     1     -32.434   9.729   0.476  1.00 20.00     0.049 A 
HETATM    3  C3  UNL     1     -30.434   8.515  -0.753  1.00 20.00     0.031 C 
HETATM    4  C4  UNL     1     -33.129  10.014  -0.831  1.00 20.00     0.036 C 
HETATM    5  C5  UNL     1     -32.614  10.811   1.510  1.00 20.00     0.036 C 
HETATM    6  N10 UNL     1     -32.374   8.309   0.872  1.00 20.00    -0.180 NA
ENDROOT
BRANCH   6   7
HETATM    7  O11 UNL     1     -32.404   8.190   2.319  1.00 20.00    -0.302 OA
BRANCH   7   8
HETATM    8  C8  UNL     1     -33.180   7.043   2.640  1.00 20.00     0.197 C 
BRANCH   8   9
HETATM    9  C9  UNL     1     -34.259   7.412   3.662  1.00 20.00     0.003 C 
HETATM   10  C6  UNL     1     -35.115   6.198   4.030  1.00 20.00     0.011 C 
HETATM   11  C7  UNL     1     -33.623   8.013   4.914  1.00 20.00     0.011 C 
ENDBRANCH   8   9
ENDBRANCH   7   8
ENDBRANCH   6   7
TORSDOF 3
ENDMDL
MODEL 9
REMARK VINA RESULT:       1.7      1.229      4.485
REMARK  3 active torsions:
REMARK  status: ('A' for Active; 'I' for Inactive)
REMARK    1  A    between atoms: C8_8  and  C9_9 
REMARK    2  A    between atoms: C8_8  and  O11_11 
REMARK    3  A    between atoms: N10_10  and  O11_11 
ROOT
HETATM    1  C1  UNL     1     -32.874   8.798   1.003  1.00 20.00     0.107 A 
HETATM    2  C2  UNL     1     -31.982   7.746   1.650  1.00 20.00     0.049 A 
HETATM    3  C3  UNL     1     -32.341  10.078   0.462  1.00 20.00     0.031 C 
HETATM    4  C4  UNL     1     -30.510   8.011   1.836  1.00 20.00     0.036 C 
HETATM    5  C5  UNL     1     -32.311   6.298   1.387  1.00 20.00     0.036 C 
HETATM    6  N10 UNL     1     -32.890   8.594   2.446  1.00 20.00    -0.180 NA
ENDROOT
BRANCH   6   7
HETATM    7  O11 UNL     1     -34.093   7.856   2.789  1.00 20.00    -0.302 OA
BRANCH   7   8
HETATM    8  C8  UNL     1     -33.885   7.261   4.063  1.00 20.00     0.197 C 
BRANCH   8   9
HETATM    9  C9  UNL     1     -34.898   6.134   4.285  1.00 20.00     0.003 C 
HETATM   10  C6  UNL     1     -36.104   6.279   3.354  1.00 20.00     0.011 C 
HETATM   11  C7  UNL     1     -34.233   4.774   4.084  1.00 20.00     0.011 C 
ENDBRANCH   8   9
ENDBRANCH   7   8
ENDBRANCH   6   7
TORSDOF 3
ENDMDL
