MODEL 1
REMARK VINA RESULT:      -0.1      0.000      0.000
REMARK  2 active torsions:
REMARK  status: ('A' for Active; 'I' for Inactive)
REMARK    1  A    between atoms: C3_3  and  C5_5 
REMARK    2  A    between atoms: C3_3  and  O11_11 
ROOT
HETATM    1  C1  UNL     1     -32.664   9.722   0.785  1.00 20.00     0.012 C 
HETATM    2  C2  UNL     1     -32.292   8.660   1.206  1.00 20.00    -0.111 C 
HETATM    3  C4  UNL     1     -31.847   7.391   1.708  1.00 20.00     0.087 A 
HETATM    4  C5  UNL     1     -32.629   6.676   2.786  1.00 20.00     0.111 A 
HETATM    5  C6  UNL     1     -32.604   6.118   1.375  1.00 20.00    -0.019 A 
HETATM    6  C7  UNL     1     -31.786   4.872   1.139  1.00 20.00     0.017 C 
HETATM    7  C8  UNL     1     -33.852   6.177   0.524  1.00 20.00     0.017 C 
ENDROOT
BRANCH   4   8
HETATM    8  C3  UNL     1     -33.855   7.252   3.355  1.00 20.00     0.264 C 
HETATM    9  O10 UNL     1     -33.909   8.346   3.900  1.00 20.00    -0.265 OA
BRANCH   8  10
HETATM   10  O11 UNL     1     -34.893   6.385   3.176  1.00 20.00    -0.326 OA
HETATM   11  C9  UNL     1     -35.285   5.647   4.337  1.00 20.00     0.213 C 
ENDBRANCH   8  10
ENDBRANCH   4   8
TORSDOF 2
ENDMDL
MODEL 2
REMARK VINA RESULT:       0.0      0.879      2.783
REMARK  2 active torsions:
REMARK  status: ('A' for Active; 'I' for Inactive)
REMARK    1  A    between atoms: C3_3  and  C5_5 
REMARK    2  A    between atoms: C3_3  and  O11_11 
ROOT
HETATM    1  C1  UNL     1     -31.606   4.748   1.583  1.00 20.00     0.012 C 
HETATM    2  C2  UNL     1     -32.171   5.783   1.353  1.00 20.00    -0.111 C 
HETATM    3  C4  UNL     1     -32.845   7.020   1.078  1.00 20.00     0.087 A 
HETATM    4  C5  UNL     1     -33.519   7.790   2.191  1.00 20.00     0.111 A 
HETATM    5  C6  UNL     1     -32.261   8.342   1.545  1.00 20.00    -0.019 A 
HETATM    6  C7  UNL     1     -32.418   9.528   0.626  1.00 20.00     0.017 C 
HETATM    7  C8  UNL     1     -30.967   8.366   2.327  1.00 20.00     0.017 C 
ENDROOT
BRANCH   4   8
HETATM    8  C3  UNL     1     -33.512   7.301   3.576  1.00 20.00     0.264 C 
HETATM    9  O10 UNL     1     -33.035   7.921   4.518  1.00 20.00    -0.265 OA
BRANCH   8  10
HETATM   10  O11 UNL     1     -34.108   6.077   3.632  1.00 20.00    -0.326 OA
HETATM   11  C9  UNL     1     -35.462   6.071   4.096  1.00 20.00     0.213 C 
ENDBRANCH   8  10
ENDBRANCH   4   8
TORSDOF 2
ENDMDL
MODEL 3
REMARK VINA RESULT:       1.1      1.799      3.532
REMARK  2 active torsions:
REMARK  status: ('A' for Active; 'I' for Inactive)
REMARK    1  A    between atoms: C3_3  and  C5_5 
REMARK    2  A    between atoms: C3_3  and  O11_11 
ROOT
HETATM    1  C1  UNL     1     -33.939   7.353   4.508  1.00 20.00     0.012 C 
HETATM    2  C2  UNL     1     -33.942   7.028   3.351  1.00 20.00    -0.111 C 
HETATM    3  C4  UNL     1     -33.946   6.639   1.970  1.00 20.00     0.087 A 
HETATM    4  C5  UNL     1     -32.969   7.256   0.996  1.00 20.00     0.111 A 
HETATM    5  C6  UNL     1     -32.817   5.800   1.398  1.00 20.00    -0.019 A 
HETATM    6  C7  UNL     1     -33.185   4.758   0.371  1.00 20.00     0.017 C 
HETATM    7  C8  UNL     1     -31.660   5.383   2.277  1.00 20.00     0.017 C 
ENDROOT
BRANCH   4   8
HETATM    8  C3  UNL     1     -31.995   8.269   1.425  1.00 20.00     0.264 C 
HETATM    9  O10 UNL     1     -31.527   8.334   2.553  1.00 20.00    -0.265 OA
BRANCH   8  10
HETATM   10  O11 UNL     1     -31.710   9.100   0.382  1.00 20.00    -0.326 OA
HETATM   11  C9  UNL     1     -32.558  10.246   0.258  1.00 20.00     0.213 C 
ENDBRANCH   8  10
ENDBRANCH   4   8
TORSDOF 2
ENDMDL
MODEL 4
REMARK VINA RESULT:       1.5      1.785      3.836
REMARK  2 active torsions:
REMARK  status: ('A' for Active; 'I' for Inactive)
REMARK    1  A    between atoms: C3_3  and  C5_5 
REMARK    2  A    between atoms: C3_3  and  O11_11 
ROOT
HETATM    1  C1  UNL     1     -32.359   8.438   5.452  1.00 20.00     0.012 C 
HETATM    2  C2  UNL     1     -33.265   8.128   4.726  1.00 20.00    -0.111 C 
HETATM    3  C4  UNL     1     -34.347   7.757   3.860  1.00 20.00     0.087 A 
HETATM    4  C5  UNL     1     -34.070   7.147   2.505  1.00 20.00     0.111 A 
HETATM    5  C6  UNL     1     -34.671   6.295   3.608  1.00 20.00    -0.019 A 
HETATM    6  C7  UNL     1     -36.129   5.925   3.479  1.00 20.00     0.017 C 
HETATM    7  C8  UNL     1     -33.839   5.210   4.254  1.00 20.00     0.017 C 
ENDROOT
BRANCH   4   8
HETATM    8  C3  UNL     1     -32.698   6.920   2.031  1.00 20.00     0.264 C 
HETATM    9  O10 UNL     1     -32.269   5.832   1.673  1.00 20.00    -0.265 OA
BRANCH   8  10
HETATM   10  O11 UNL     1     -32.006   8.094   2.057  1.00 20.00    -0.326 OA
HETATM   11  C9  UNL     1     -32.204   8.952   0.929  1.00 20.00     0.213 C 
ENDBRANCH   8  10
ENDBRANCH   4   8
TORSDOF 2
ENDMDL
MODEL 5
REMARK VINA RESULT:       2.0      2.021      3.294
REMARK  2 active torsions:
REMARK  status: ('A' for Active; 'I' for Inactive)
REMARK    1  A    between atoms: C3_3  and  C5_5 
REMARK    2  A    between atoms: C3_3  and  O11_11 
ROOT
HETATM    1  C1  UNL     1     -36.980   6.879   2.828  1.00 20.00     0.012 C 
HETATM    2  C2  UNL     1     -35.819   7.043   3.091  1.00 20.00    -0.111 C 
HETATM    3  C4  UNL     1     -34.433   7.240   3.405  1.00 20.00     0.087 A 
HETATM    4  C5  UNL     1     -33.602   6.102   3.953  1.00 20.00     0.111 A 
HETATM    5  C6  UNL     1     -33.348   6.614   2.546  1.00 20.00    -0.019 A 
HETATM    6  C7  UNL     1     -32.094   7.424   2.321  1.00 20.00     0.017 C 
HETATM    7  C8  UNL     1     -33.720   5.756   1.358  1.00 20.00     0.017 C 
ENDROOT
BRANCH   4   8
HETATM    8  C3  UNL     1     -34.180   4.771   4.184  1.00 20.00     0.264 C 
HETATM    9  O10 UNL     1     -35.312   4.581   4.610  1.00 20.00    -0.265 OA
BRANCH   8  10
HETATM   10  O11 UNL     1     -33.269   3.812   3.854  1.00 20.00    -0.326 OA
HETATM   11  C9  UNL     1     -33.119   2.752   4.803  1.00 20.00     0.213 C 
ENDBRANCH   8  10
ENDBRANCH   4   8
TORSDOF 2
ENDMDL
MODEL 6
REMARK VINA RESULT:       2.0      2.029      3.933
REMARK  2 active torsions:
REMARK  status: ('A' for Active; 'I' for Inactive)
REMARK    1  A    between atoms: C3_3  and  C5_5 
REMARK    2  A    between atoms: C3_3  and  O11_11 
ROOT
HETATM    1  C1  UNL     1     -33.111   5.149   0.579  1.00 20.00     0.012 C 
HETATM    2  C2  UNL     1     -32.766   5.794   1.532  1.00 20.00    -0.111 C 
HETATM    3  C4  UNL     1     -32.354   6.564   2.671  1.00 20.00     0.087 A 
HETATM    4  C5  UNL     1     -31.985   8.022   2.518  1.00 20.00     0.111 A 
HETATM    5  C6  UNL     1     -33.259   7.637   3.249  1.00 20.00    -0.019 A 
HETATM    6  C7  UNL     1     -33.269   7.795   4.749  1.00 20.00     0.017 C 
HETATM    7  C8  UNL     1     -34.602   7.921   2.614  1.00 20.00     0.017 C 
ENDROOT
BRANCH   4   8
HETATM    8  C3  UNL     1     -32.031   8.692   1.211  1.00 20.00     0.264 C 
HETATM    9  O10 UNL     1     -31.461   8.280   0.210  1.00 20.00    -0.265 OA
BRANCH   8  10
HETATM   10  O11 UNL     1     -32.794   9.819   1.301  1.00 20.00    -0.326 OA
HETATM   11  C9  UNL     1     -32.784  10.664   0.147  1.00 20.00     0.213 C 
ENDBRANCH   8  10
ENDBRANCH   4   8
TORSDOF 2
ENDMDL
MODEL 7
REMARK VINA RESULT:       2.1      1.531      3.574
REMARK  2 active torsions:
REMARK  status: ('A' for Active; 'I' for Inactive)
REMARK    1  A    between atoms: C3_3  and  C5_5 
REMARK    2  A    between atoms: C3_3  and  O11_11 
ROOT
HETATM    1  C1  UNL     1     -33.489   4.007   4.784  1.00 20.00     0.012 C 
HETATM    2  C2  UNL     1     -33.803   4.545   3.757  1.00 20.00    -0.111 C 
HETATM    3  C4  UNL     1     -34.179   5.186   2.529  1.00 20.00     0.087 A 
HETATM    4  C5  UNL     1     -33.797   6.625   2.268  1.00 20.00     0.111 A 
HETATM    5  C6  UNL     1     -33.136   5.512   1.474  1.00 20.00    -0.019 A 
HETATM    6  C7  UNL     1     -33.545   5.357   0.030  1.00 20.00     0.017 C 
HETATM    7  C8  UNL     1     -31.681   5.182   1.718  1.00 20.00     0.017 C 
ENDROOT
BRANCH   4   8
HETATM    8  C3  UNL     1     -33.040   7.410   3.253  1.00 20.00     0.264 C 
HETATM    9  O10 UNL     1     -33.366   7.533   4.426  1.00 20.00    -0.265 OA
BRANCH   8  10
HETATM   10  O11 UNL     1     -31.945   7.960   2.656  1.00 20.00    -0.326 OA
HETATM   11  C9  UNL     1     -32.206   8.717   1.470  1.00 20.00     0.213 C 
ENDBRANCH   8  10
ENDBRANCH   4   8
TORSDOF 2
ENDMDL
MODEL 8
REMARK VINA RESULT:       2.2      1.842      3.611
REMARK  2 active torsions:
REMARK  status: ('A' for Active; 'I' for Inactive)
REMARK    1  A    between atoms: C3_3  and  C5_5 
REMARK    2  A    between atoms: C3_3  and  O11_11 
ROOT
HETATM    1  C1  UNL     1     -32.289   8.594   5.202  1.00 20.00     0.012 C 
HETATM    2  C2  UNL     1     -33.253   8.109   4.676  1.00 20.00    -0.111 C 
HETATM    3  C4  UNL     1     -34.406   7.528   4.048  1.00 20.00     0.087 A 
HETATM    4  C5  UNL     1     -34.297   6.898   2.678  1.00 20.00     0.111 A 
HETATM    5  C6  UNL     1     -34.530   6.022   3.896  1.00 20.00    -0.019 A 
HETATM    6  C7  UNL     1     -35.905   5.424   4.065  1.00 20.00     0.017 C 
HETATM    7  C8  UNL     1     -33.425   5.116   4.389  1.00 20.00     0.017 C 
ENDROOT
BRANCH   4   8
HETATM    8  C3  UNL     1     -33.022   6.863   1.948  1.00 20.00     0.264 C 
HETATM    9  O10 UNL     1     -32.221   7.787   1.926  1.00 20.00    -0.265 OA
BRANCH   8  10
HETATM   10  O11 UNL     1     -32.888   5.660   1.320  1.00 20.00    -0.326 OA
HETATM   11  C9  UNL     1     -31.545   5.198   1.154  1.00 20.00     0.213 C 
ENDBRANCH   8  10
ENDBRANCH   4   8
TORSDOF 2
ENDMDL
MODEL 9
REMARK VINA RESULT:       2.4      1.904      4.246
REMARK  2 active torsions:
REMARK  status: ('A' for Active; 'I' for Inactive)
REMARK    1  A    between atoms: C3_3  and  C5_5 
REMARK    2  A    between atoms: C3_3  and  O11_11 
ROOT
HETATM    1  C1  UNL     1     -33.813   3.462   3.865  1.00 20.00     0.012 C 
HETATM    2  C2  UNL     1     -33.536   4.616   4.051  1.00 20.00    -0.111 C 
HETATM    3  C4  UNL     1     -33.206   5.995   4.273  1.00 20.00     0.087 A 
HETATM    4  C5  UNL     1     -32.896   6.907   3.108  1.00 20.00     0.111 A 
HETATM    5  C6  UNL     1     -34.181   7.096   3.894  1.00 20.00    -0.019 A 
HETATM    6  C7  UNL     1     -34.260   8.291   4.812  1.00 20.00     0.017 C 
HETATM    7  C8  UNL     1     -35.507   6.750   3.256  1.00 20.00     0.017 C 
ENDROOT
BRANCH   4   8
HETATM    8  C3  UNL     1     -32.917   6.417   1.723  1.00 20.00     0.264 C 
HETATM    9  O10 UNL     1     -33.015   5.236   1.416  1.00 20.00    -0.265 OA
BRANCH   8  10
HETATM   10  O11 UNL     1     -32.811   7.470   0.864  1.00 20.00    -0.326 OA
HETATM   11  C9  UNL     1     -32.002   8.558   1.321  1.00 20.00     0.213 C 
ENDBRANCH   8  10
ENDBRANCH   4   8
TORSDOF 2
ENDMDL
