MODEL 1
REMARK VINA RESULT:      -1.6      0.000      0.000
REMARK  1 active torsions:
REMARK  status: ('A' for Active; 'I' for Inactive)
REMARK    1  A    between atoms: C8_8  and  C9_9 
ROOT
HETATM    1  C1  UNL     1     -34.930   6.623   4.136  1.00 20.00     0.008 A 
HETATM    2  C2  UNL     1     -33.561   8.144   2.656  1.00 20.00     0.026 A 
HETATM    3  C3  UNL     1     -32.159   6.622   1.637  1.00 20.00     0.026 A 
HETATM    4  C4  UNL     1     -35.071   5.328   4.472  1.00 20.00    -0.022 A 
HETATM    5  C5  UNL     1     -33.183   4.668   2.876  1.00 20.00    -0.011 A 
HETATM    6  C6  UNL     1     -33.921   6.957   3.173  1.00 20.00    -0.026 A 
HETATM    7  C7  UNL     1     -33.056   5.962   2.553  1.00 20.00    -0.029 A 
HETATM    8  C8  UNL     1     -32.474   7.926   1.711  1.00 20.00     0.003 A 
HETATM    9  C10 UNL     1     -34.221   4.212   3.885  1.00 20.00     0.055 A 
ENDROOT
BRANCH   8  10
HETATM   10  C9  UNL     1     -31.813   8.970   0.946  1.00 20.00     0.269 C 
HETATM   11  O11 UNL     1     -32.423   9.880   0.385  1.00 20.00    -0.301 OA
ENDBRANCH   8  10
TORSDOF 1
ENDMDL
MODEL 2
REMARK VINA RESULT:      -1.5      0.174      1.821
REMARK  1 active torsions:
REMARK  status: ('A' for Active; 'I' for Inactive)
REMARK    1  A    between atoms: C8_8  and  C9_9 
ROOT
HETATM    1  C1  UNL     1     -33.303   4.469   3.030  1.00 20.00     0.008 A 
HETATM    2  C2  UNL     1     -32.261   6.398   1.777  1.00 20.00     0.026 A 
HETATM    3  C3  UNL     1     -33.482   8.171   2.602  1.00 20.00     0.026 A 
HETATM    4  C4  UNL     1     -34.256   4.196   3.939  1.00 20.00    -0.022 A 
HETATM    5  C5  UNL     1     -34.869   6.675   4.099  1.00 20.00    -0.011 A 
HETATM    6  C6  UNL     1     -33.120   5.839   2.645  1.00 20.00    -0.026 A 
HETATM    7  C7  UNL     1     -33.915   6.929   3.193  1.00 20.00    -0.029 A 
HETATM    8  C8  UNL     1     -32.492   7.836   1.758  1.00 20.00     0.003 A 
HETATM    9  C10 UNL     1     -35.140   5.259   4.572  1.00 20.00     0.055 A 
ENDROOT
BRANCH   8  10
HETATM   10  C9  UNL     1     -31.759   8.788   0.941  1.00 20.00     0.269 C 
HETATM   11  O11 UNL     1     -32.307   9.684   0.298  1.00 20.00    -0.301 OA
ENDBRANCH   8  10
TORSDOF 1
ENDMDL
MODEL 3
REMARK VINA RESULT:       0.1      2.493      4.647
REMARK  1 active torsions:
REMARK  status: ('A' for Active; 'I' for Inactive)
REMARK    1  A    between atoms: C8_8  and  C9_9 
ROOT
HETATM    1  C1  UNL     1     -31.932   6.400   1.055  1.00 20.00     0.008 A 
HETATM    2  C2  UNL     1     -33.623   5.536   2.721  1.00 20.00     0.026 A 
HETATM    3  C3  UNL     1     -34.269   7.496   3.749  1.00 20.00     0.026 A 
HETATM    4  C4  UNL     1     -31.358   7.540   0.633  1.00 20.00    -0.022 A 
HETATM    5  C5  UNL     1     -32.718   8.897   2.323  1.00 20.00    -0.011 A 
HETATM    6  C6  UNL     1     -32.900   6.490   2.110  1.00 20.00    -0.026 A 
HETATM    7  C7  UNL     1     -33.280   7.752   2.731  1.00 20.00    -0.029 A 
HETATM    8  C8  UNL     1     -34.462   6.166   3.730  1.00 20.00     0.003 A 
HETATM    9  C10 UNL     1     -31.682   8.908   1.214  1.00 20.00     0.055 A 
ENDROOT
BRANCH   8  10
HETATM   10  C9  UNL     1     -35.387   5.463   4.602  1.00 20.00     0.269 C 
HETATM   11  O11 UNL     1     -35.258   4.276   4.901  1.00 20.00    -0.301 OA
ENDBRANCH   8  10
TORSDOF 1
ENDMDL
MODEL 4
REMARK VINA RESULT:       0.2      2.489      4.315
REMARK  1 active torsions:
REMARK  status: ('A' for Active; 'I' for Inactive)
REMARK    1  A    between atoms: C8_8  and  C9_9 
ROOT
HETATM    1  C1  UNL     1     -32.514   8.972   2.308  1.00 20.00     0.008 A 
HETATM    2  C2  UNL     1     -34.089   7.549   3.679  1.00 20.00     0.026 A 
HETATM    3  C3  UNL     1     -33.746   5.475   2.732  1.00 20.00     0.026 A 
HETATM    4  C4  UNL     1     -31.629   8.890   1.299  1.00 20.00    -0.022 A 
HETATM    5  C5  UNL     1     -32.050   6.375   1.084  1.00 20.00    -0.011 A 
HETATM    6  C6  UNL     1     -33.175   7.766   2.717  1.00 20.00    -0.026 A 
HETATM    7  C7  UNL     1     -32.928   6.475   2.091  1.00 20.00    -0.029 A 
HETATM    8  C8  UNL     1     -34.434   6.135   3.679  1.00 20.00     0.003 A 
HETATM    9  C10 UNL     1     -31.298   7.592   0.578  1.00 20.00     0.055 A 
ENDROOT
BRANCH   8  10
HETATM   10  C9  UNL     1     -35.391   5.510   4.577  1.00 20.00     0.269 C 
HETATM   11  O11 UNL     1     -35.328   4.325   4.906  1.00 20.00    -0.301 OA
ENDBRANCH   8  10
TORSDOF 1
ENDMDL
MODEL 5
REMARK VINA RESULT:       0.5      2.518      4.704
REMARK  1 active torsions:
REMARK  status: ('A' for Active; 'I' for Inactive)
REMARK    1  A    between atoms: C8_8  and  C9_9 
ROOT
HETATM    1  C1  UNL     1     -31.743   7.113   1.209  1.00 20.00     0.008 A 
HETATM    2  C2  UNL     1     -32.926   5.381   2.616  1.00 20.00     0.026 A 
HETATM    3  C3  UNL     1     -34.403   6.704   3.793  1.00 20.00     0.026 A 
HETATM    4  C4  UNL     1     -31.719   8.435   0.966  1.00 20.00    -0.022 A 
HETATM    5  C5  UNL     1     -33.588   8.820   2.671  1.00 20.00    -0.011 A 
HETATM    6  C6  UNL     1     -32.683   6.628   2.179  1.00 20.00    -0.026 A 
HETATM    7  C7  UNL     1     -33.598   7.501   2.900  1.00 20.00    -0.029 A 
HETATM    8  C8  UNL     1     -33.988   5.439   3.611  1.00 20.00     0.003 A 
HETATM    9  C10 UNL     1     -32.632   9.432   1.664  1.00 20.00     0.055 A 
ENDROOT
BRANCH   8  10
HETATM   10  C9  UNL     1     -34.533   4.292   4.317  1.00 20.00     0.269 C 
HETATM   11  O11 UNL     1     -33.847   3.331   4.667  1.00 20.00    -0.301 OA
ENDBRANCH   8  10
TORSDOF 1
ENDMDL
MODEL 6
REMARK VINA RESULT:       0.8      2.589      4.357
REMARK  1 active torsions:
REMARK  status: ('A' for Active; 'I' for Inactive)
REMARK    1  A    between atoms: C8_8  and  C9_9 
ROOT
HETATM    1  C1  UNL     1     -33.376   8.689   2.696  1.00 20.00     0.008 A 
HETATM    2  C2  UNL     1     -34.032   6.463   3.696  1.00 20.00     0.026 A 
HETATM    3  C3  UNL     1     -32.854   5.011   2.347  1.00 20.00     0.026 A 
HETATM    4  C4  UNL     1     -32.625   9.223   1.717  1.00 20.00    -0.022 A 
HETATM    5  C5  UNL     1     -31.873   6.894   0.971  1.00 20.00    -0.011 A 
HETATM    6  C6  UNL     1     -33.387   7.260   2.826  1.00 20.00    -0.026 A 
HETATM    7  C7  UNL     1     -32.626   6.379   1.951  1.00 20.00    -0.029 A 
HETATM    8  C8  UNL     1     -33.697   5.080   3.391  1.00 20.00     0.003 A 
HETATM    9  C10 UNL     1     -31.794   8.393   0.750  1.00 20.00     0.055 A 
ENDROOT
BRANCH   8  10
HETATM   10  C9  UNL     1     -34.199   3.922   4.112  1.00 20.00     0.269 C 
HETATM   11  O11 UNL     1     -33.487   3.215   4.825  1.00 20.00    -0.301 OA
ENDBRANCH   8  10
TORSDOF 1
ENDMDL
