MODEL 1
REMARK VINA RESULT:      -1.3      0.000      0.000
REMARK  2 active torsions:
REMARK  status: ('A' for Active; 'I' for Inactive)
REMARK    1  A    between atoms: C2_2  and  C8_8 
REMARK    2  A    between atoms: C8_8  and  N9_9 
ROOT
HETATM    1  C1  UNL     1     -33.788   3.634   4.456  1.00 20.00    -0.109 C 
HETATM    2  C2  UNL     1     -34.288   4.690   4.182  1.00 20.00    -0.077 C 
HETATM    3  C7  UNL     1     -33.179   2.347   4.792  1.00 20.00     0.112 C 
ENDROOT
BRANCH   2   4
HETATM    4  C8  UNL     1     -34.892   5.984   3.849  1.00 20.00     0.365 C 
BRANCH   4   5
HETATM    5  N9  UNL     1     -34.057   6.722   2.903  1.00 20.00     0.103 N 
HETATM    6  C3  UNL     1     -33.218   5.803   2.121  1.00 20.00     0.299 C 
HETATM    7  C5  UNL     1     -32.347   6.597   1.150  1.00 20.00     0.198 C 
HETATM    8  O10 UNL     1     -31.536   7.534   1.861  1.00 20.00    -0.388 OA
HETATM    9  C6  UNL     1     -32.346   8.450   2.597  1.00 20.00     0.198 C 
HETATM   10  C4  UNL     1     -33.216   7.702   3.603  1.00 20.00     0.299 C 
ENDBRANCH   4   5
ENDBRANCH   2   4
TORSDOF 2
ENDMDL
MODEL 2
REMARK VINA RESULT:      -1.1      2.133      4.989
REMARK  2 active torsions:
REMARK  status: ('A' for Active; 'I' for Inactive)
REMARK    1  A    between atoms: C2_2  and  C8_8 
REMARK    2  A    between atoms: C8_8  and  N9_9 
ROOT
HETATM    1  C1  UNL     1     -32.420   9.311   0.702  1.00 20.00    -0.109 C 
HETATM    2  C2  UNL     1     -32.204   8.286   1.289  1.00 20.00    -0.077 C 
HETATM    3  C7  UNL     1     -32.684  10.559  -0.014  1.00 20.00     0.112 C 
ENDROOT
BRANCH   2   4
HETATM    4  C8  UNL     1     -31.944   7.031   2.001  1.00 20.00     0.365 C 
BRANCH   4   5
HETATM    5  N9  UNL     1     -33.192   6.419   2.452  1.00 20.00     0.103 N 
HETATM    6  C3  UNL     1     -33.874   7.281   3.427  1.00 20.00     0.299 C 
HETATM    7  C5  UNL     1     -35.167   6.616   3.892  1.00 20.00     0.198 C 
HETATM    8  O10 UNL     1     -34.891   5.337   4.464  1.00 20.00    -0.388 OA
HETATM    9  C6  UNL     1     -34.257   4.482   3.511  1.00 20.00     0.198 C 
HETATM   10  C4  UNL     1     -32.943   5.095   3.038  1.00 20.00     0.299 C 
ENDBRANCH   4   5
ENDBRANCH   2   4
TORSDOF 2
ENDMDL
MODEL 3
REMARK VINA RESULT:      -0.9      2.112      4.796
REMARK  2 active torsions:
REMARK  status: ('A' for Active; 'I' for Inactive)
REMARK    1  A    between atoms: C2_2  and  C8_8 
REMARK    2  A    between atoms: C8_8  and  N9_9 
ROOT
HETATM    1  C1  UNL     1     -32.393   9.445   0.557  1.00 20.00    -0.109 C 
HETATM    2  C2  UNL     1     -32.095   8.386   1.038  1.00 20.00    -0.077 C 
HETATM    3  C7  UNL     1     -32.757  10.734  -0.029  1.00 20.00     0.112 C 
ENDROOT
BRANCH   2   4
HETATM    4  C8  UNL     1     -31.730   7.090   1.618  1.00 20.00     0.365 C 
BRANCH   4   5
HETATM    5  N9  UNL     1     -32.604   6.756   2.741  1.00 20.00     0.103 N 
HETATM    6  C3  UNL     1     -33.471   5.618   2.407  1.00 20.00     0.299 C 
HETATM    7  C5  UNL     1     -34.382   5.297   3.589  1.00 20.00     0.198 C 
HETATM    8  O10 UNL     1     -35.167   6.439   3.938  1.00 20.00    -0.388 OA
HETATM    9  C6  UNL     1     -34.330   7.539   4.295  1.00 20.00     0.198 C 
HETATM   10  C4  UNL     1     -33.419   7.915   3.130  1.00 20.00     0.299 C 
ENDBRANCH   4   5
ENDBRANCH   2   4
TORSDOF 2
ENDMDL
MODEL 4
REMARK VINA RESULT:      -0.4      0.628      1.612
REMARK  2 active torsions:
REMARK  status: ('A' for Active; 'I' for Inactive)
REMARK    1  A    between atoms: C2_2  and  C8_8 
REMARK    2  A    between atoms: C8_8  and  N9_9 
ROOT
HETATM    1  C1  UNL     1     -33.667   3.183   4.413  1.00 20.00    -0.109 C 
HETATM    2  C2  UNL     1     -34.026   4.280   4.082  1.00 20.00    -0.077 C 
HETATM    3  C7  UNL     1     -33.227   1.848   4.815  1.00 20.00     0.112 C 
ENDROOT
BRANCH   2   4
HETATM    4  C8  UNL     1     -34.461   5.619   3.673  1.00 20.00     0.365 C 
BRANCH   4   5
HETATM    5  N9  UNL     1     -33.332   6.408   3.186  1.00 20.00     0.103 N 
HETATM    6  C3  UNL     1     -33.573   7.844   3.387  1.00 20.00     0.299 C 
HETATM    7  C5  UNL     1     -32.387   8.648   2.860  1.00 20.00     0.198 C 
HETATM    8  O10 UNL     1     -32.171   8.366   1.477  1.00 20.00    -0.388 OA
HETATM    9  C6  UNL     1     -31.903   6.978   1.278  1.00 20.00     0.198 C 
HETATM   10  C4  UNL     1     -33.077   6.135   1.765  1.00 20.00     0.299 C 
ENDBRANCH   4   5
ENDBRANCH   2   4
TORSDOF 2
ENDMDL
MODEL 5
REMARK VINA RESULT:       1.1      2.489      3.460
REMARK  2 active torsions:
REMARK  status: ('A' for Active; 'I' for Inactive)
REMARK    1  A    between atoms: C2_2  and  C8_8 
REMARK    2  A    between atoms: C8_8  and  N9_9 
ROOT
HETATM    1  C1  UNL     1     -34.250   6.587   3.531  1.00 20.00    -0.109 C 
HETATM    2  C2  UNL     1     -33.284   7.044   2.983  1.00 20.00    -0.077 C 
HETATM    3  C7  UNL     1     -35.426   6.029   4.197  1.00 20.00     0.112 C 
ENDROOT
BRANCH   2   4
HETATM    4  C8  UNL     1     -32.108   7.603   2.308  1.00 20.00     0.365 C 
BRANCH   4   5
HETATM    5  N9  UNL     1     -32.505   8.530   1.251  1.00 20.00     0.103 N 
HETATM    6  C3  UNL     1     -31.509   8.546   0.170  1.00 20.00     0.299 C 
HETATM    7  C5  UNL     1     -31.939   9.530  -0.916  1.00 20.00     0.198 C 
HETATM    8  O10 UNL     1     -32.101  10.838  -0.366  1.00 20.00    -0.388 OA
HETATM    9  C6  UNL     1     -33.090  10.837   0.663  1.00 20.00     0.198 C 
HETATM   10  C4  UNL     1     -32.689   9.886   1.786  1.00 20.00     0.299 C 
ENDBRANCH   4   5
ENDBRANCH   2   4
TORSDOF 2
ENDMDL
MODEL 6
REMARK VINA RESULT:       1.2      2.208      3.005
REMARK  2 active torsions:
REMARK  status: ('A' for Active; 'I' for Inactive)
REMARK    1  A    between atoms: C2_2  and  C8_8 
REMARK    2  A    between atoms: C8_8  and  N9_9 
ROOT
HETATM    1  C1  UNL     1     -34.577   6.469   3.957  1.00 20.00    -0.109 C 
HETATM    2  C2  UNL     1     -33.793   7.336   3.681  1.00 20.00    -0.077 C 
HETATM    3  C7  UNL     1     -35.532   5.415   4.295  1.00 20.00     0.112 C 
ENDROOT
BRANCH   2   4
HETATM    4  C8  UNL     1     -32.834   8.395   3.350  1.00 20.00     0.365 C 
BRANCH   4   5
HETATM    5  N9  UNL     1     -32.695   8.540   1.902  1.00 20.00     0.103 N 
HETATM    6  C3  UNL     1     -31.401   8.013   1.447  1.00 20.00     0.299 C 
HETATM    7  C5  UNL     1     -31.275   8.187  -0.065  1.00 20.00     0.198 C 
HETATM    8  O10 UNL     1     -31.408   9.564  -0.420  1.00 20.00    -0.388 OA
HETATM    9  C6  UNL     1     -32.676  10.073  -0.009  1.00 20.00     0.198 C 
HETATM   10  C4  UNL     1     -32.836   9.946   1.503  1.00 20.00     0.299 C 
ENDBRANCH   4   5
ENDBRANCH   2   4
TORSDOF 2
ENDMDL
MODEL 7
REMARK VINA RESULT:       1.3      2.527      3.551
REMARK  2 active torsions:
REMARK  status: ('A' for Active; 'I' for Inactive)
REMARK    1  A    between atoms: C2_2  and  C8_8 
REMARK    2  A    between atoms: C8_8  and  N9_9 
ROOT
HETATM    1  C1  UNL     1     -34.282   7.039   3.753  1.00 20.00    -0.109 C 
HETATM    2  C2  UNL     1     -33.292   7.714   3.680  1.00 20.00    -0.077 C 
HETATM    3  C7  UNL     1     -35.488   6.216   3.843  1.00 20.00     0.112 C 
ENDROOT
BRANCH   2   4
HETATM    4  C8  UNL     1     -32.081   8.537   3.598  1.00 20.00     0.365 C 
BRANCH   4   5
HETATM    5  N9  UNL     1     -31.847   8.984   2.226  1.00 20.00     0.103 N 
HETATM    6  C3  UNL     1     -32.883   9.935   1.803  1.00 20.00     0.299 C 
HETATM    7  C5  UNL     1     -32.625  10.378   0.365  1.00 20.00     0.198 C 
HETATM    8  O10 UNL     1     -32.598   9.247  -0.507  1.00 20.00    -0.388 OA
HETATM    9  C6  UNL     1     -31.571   8.333  -0.120  1.00 20.00     0.198 C 
HETATM   10  C4  UNL     1     -31.805   7.841   1.305  1.00 20.00     0.299 C 
ENDBRANCH   4   5
ENDBRANCH   2   4
TORSDOF 2
ENDMDL
MODEL 8
REMARK VINA RESULT:       1.4      2.311      3.887
REMARK  2 active torsions:
REMARK  status: ('A' for Active; 'I' for Inactive)
REMARK    1  A    between atoms: C2_2  and  C8_8 
REMARK    2  A    between atoms: C8_8  and  N9_9 
ROOT
HETATM    1  C1  UNL     1     -31.607   4.730   0.505  1.00 20.00    -0.109 C 
HETATM    2  C2  UNL     1     -32.149   5.603   1.126  1.00 20.00    -0.077 C 
HETATM    3  C7  UNL     1     -30.944   3.668  -0.249  1.00 20.00     0.112 C 
ENDROOT
BRANCH   2   4
HETATM    4  C8  UNL     1     -32.807   6.673   1.883  1.00 20.00     0.365 C 
BRANCH   4   5
HETATM    5  N9  UNL     1     -33.395   6.155   3.116  1.00 20.00     0.103 N 
HETATM    6  C3  UNL     1     -33.471   4.688   3.081  1.00 20.00     0.299 C 
HETATM    7  C5  UNL     1     -34.099   4.170   4.373  1.00 20.00     0.198 C 
HETATM    8  O10 UNL     1     -35.399   4.735   4.555  1.00 20.00    -0.388 OA
HETATM    9  C6  UNL     1     -35.328   6.159   4.623  1.00 20.00     0.198 C 
HETATM   10  C4  UNL     1     -34.731   6.724   3.338  1.00 20.00     0.299 C 
ENDBRANCH   4   5
ENDBRANCH   2   4
TORSDOF 2
ENDMDL
MODEL 9
REMARK VINA RESULT:       1.5      2.568      3.733
REMARK  2 active torsions:
REMARK  status: ('A' for Active; 'I' for Inactive)
REMARK    1  A    between atoms: C2_2  and  C8_8 
REMARK    2  A    between atoms: C8_8  and  N9_9 
ROOT
HETATM    1  C1  UNL     1     -34.054   6.597   3.200  1.00 20.00    -0.109 C 
HETATM    2  C2  UNL     1     -33.086   6.792   2.517  1.00 20.00    -0.077 C 
HETATM    3  C7  UNL     1     -35.233   6.357   4.031  1.00 20.00     0.112 C 
ENDROOT
BRANCH   2   4
HETATM    4  C8  UNL     1     -31.907   7.027   1.677  1.00 20.00     0.365 C 
BRANCH   4   5
HETATM    5  N9  UNL     1     -31.911   8.386   1.141  1.00 20.00     0.103 N 
HETATM    6  C3  UNL     1     -32.683   9.287   2.007  1.00 20.00     0.299 C 
HETATM    7  C5  UNL     1     -32.683  10.697   1.421  1.00 20.00     0.198 C 
HETATM    8  O10 UNL     1     -33.227  10.686   0.100  1.00 20.00    -0.388 OA
HETATM    9  C6  UNL     1     -32.463   9.837  -0.756  1.00 20.00     0.198 C 
HETATM   10  C4  UNL     1     -32.457   8.408  -0.223  1.00 20.00     0.299 C 
ENDBRANCH   4   5
ENDBRANCH   2   4
TORSDOF 2
ENDMDL
