MODEL 1
REMARK VINA RESULT:       1.7      0.000      0.000
REMARK  2 active torsions:
REMARK  status: ('A' for Active; 'I' for Inactive)
REMARK    1  A    between atoms: C7_7  and  O11_11 
REMARK    2  A    between atoms: C10_10  and  O11_11 
ROOT
HETATM    1  C1  UNL     1     -31.226   8.726   2.612  1.00 20.00    -0.019 C 
HETATM    2  C2  UNL     1     -30.864   7.717   1.797  1.00 20.00    -0.019 C 
HETATM    3  C3  UNL     1     -32.491   9.761   0.769  1.00 20.00    -0.019 C 
HETATM    4  C4  UNL     1     -32.128   8.748  -0.047  1.00 20.00    -0.019 C 
HETATM    5  C5  UNL     1     -32.610   9.180   2.170  1.00 20.00     0.060 C 
HETATM    6  C6  UNL     1     -32.008   7.502   0.818  1.00 20.00     0.060 C 
HETATM    7  C7  UNL     1     -33.186   7.816   1.756  1.00 20.00     0.144 C 
ENDROOT
BRANCH   7   8
HETATM    8  O11 UNL     1     -33.340   6.908   2.831  1.00 20.00    -0.379 OA
BRANCH   8   9
HETATM    9  C10 UNL     1     -34.372   7.315   3.722  1.00 20.00     0.114 C 
HETATM   10  C8  UNL     1     -35.272   6.125   4.022  1.00 20.00     0.039 C 
HETATM   11  C9  UNL     1     -33.747   7.886   4.985  1.00 20.00     0.039 C 
ENDBRANCH   8   9
ENDBRANCH   7   8
TORSDOF 2
ENDMDL
MODEL 2
REMARK VINA RESULT:       1.7      1.124      4.093
REMARK  2 active torsions:
REMARK  status: ('A' for Active; 'I' for Inactive)
REMARK    1  A    between atoms: C7_7  and  O11_11 
REMARK    2  A    between atoms: C10_10  and  O11_11 
ROOT
HETATM    1  C1  UNL     1     -33.286   7.460   5.153  1.00 20.00    -0.019 C 
HETATM    2  C2  UNL     1     -34.236   8.329   4.758  1.00 20.00    -0.019 C 
HETATM    3  C3  UNL     1     -34.539   5.615   4.110  1.00 20.00    -0.019 C 
HETATM    4  C4  UNL     1     -35.491   6.486   3.713  1.00 20.00    -0.019 C 
HETATM    5  C5  UNL     1     -33.217   6.367   4.098  1.00 20.00     0.060 C 
HETATM    6  C6  UNL     1     -34.794   7.811   3.441  1.00 20.00     0.060 C 
HETATM    7  C7  UNL     1     -33.502   7.221   2.852  1.00 20.00     0.144 C 
ENDROOT
BRANCH   7   8
HETATM    8  O11 UNL     1     -32.495   8.175   2.567  1.00 20.00    -0.379 OA
BRANCH   8   9
HETATM    9  C10 UNL     1     -31.730   7.811   1.424  1.00 20.00     0.114 C 
HETATM   10  C8  UNL     1     -32.122   6.408   0.986  1.00 20.00     0.039 C 
HETATM   11  C9  UNL     1     -31.959   8.834   0.322  1.00 20.00     0.039 C 
ENDBRANCH   8   9
ENDBRANCH   7   8
TORSDOF 2
ENDMDL
MODEL 3
REMARK VINA RESULT:       1.7      1.251      2.103
REMARK  2 active torsions:
REMARK  status: ('A' for Active; 'I' for Inactive)
REMARK    1  A    between atoms: C7_7  and  O11_11 
REMARK    2  A    between atoms: C10_10  and  O11_11 
ROOT
HETATM    1  C1  UNL     1     -32.012   5.451   0.991  1.00 20.00    -0.019 C 
HETATM    2  C2  UNL     1     -33.075   5.984   0.359  1.00 20.00    -0.019 C 
HETATM    3  C3  UNL     1     -31.190   7.712   1.518  1.00 20.00    -0.019 C 
HETATM    4  C4  UNL     1     -32.256   8.246   0.885  1.00 20.00    -0.019 C 
HETATM    5  C5  UNL     1     -31.650   6.396   2.127  1.00 20.00     0.060 C 
HETATM    6  C6  UNL     1     -33.416   7.282   1.078  1.00 20.00     0.060 C 
HETATM    7  C7  UNL     1     -33.065   6.857   2.514  1.00 20.00     0.144 C 
ENDROOT
BRANCH   7   8
HETATM    8  O11 UNL     1     -33.881   5.826   3.039  1.00 20.00    -0.379 OA
BRANCH   8   9
HETATM    9  C10 UNL     1     -34.937   6.344   3.840  1.00 20.00     0.114 C 
HETATM   10  C8  UNL     1     -35.456   5.246   4.755  1.00 20.00     0.039 C 
HETATM   11  C9  UNL     1     -34.428   7.544   4.625  1.00 20.00     0.039 C 
ENDBRANCH   8   9
ENDBRANCH   7   8
TORSDOF 2
ENDMDL
MODEL 4
REMARK VINA RESULT:       1.9      2.036      2.990
REMARK  2 active torsions:
REMARK  status: ('A' for Active; 'I' for Inactive)
REMARK    1  A    between atoms: C7_7  and  O11_11 
REMARK    2  A    between atoms: C10_10  and  O11_11 
ROOT
HETATM    1  C1  UNL     1     -32.067   5.319   0.630  1.00 20.00    -0.019 C 
HETATM    2  C2  UNL     1     -33.308   5.766   0.357  1.00 20.00    -0.019 C 
HETATM    3  C3  UNL     1     -31.544   7.450   1.748  1.00 20.00    -0.019 C 
HETATM    4  C4  UNL     1     -32.789   7.898   1.475  1.00 20.00    -0.019 C 
HETATM    5  C5  UNL     1     -31.649   5.946   1.952  1.00 20.00     0.060 C 
HETATM    6  C6  UNL     1     -33.710   6.688   1.499  1.00 20.00     0.060 C 
HETATM    7  C7  UNL     1     -33.016   5.950   2.656  1.00 20.00     0.144 C 
ENDROOT
BRANCH   7   8
HETATM    8  O11 UNL     1     -33.528   4.658   2.922  1.00 20.00    -0.379 OA
BRANCH   8   9
HETATM    9  C10 UNL     1     -33.776   4.464   4.310  1.00 20.00     0.114 C 
HETATM   10  C8  UNL     1     -35.210   4.865   4.623  1.00 20.00     0.039 C 
HETATM   11  C9  UNL     1     -33.502   3.011   4.669  1.00 20.00     0.039 C 
ENDBRANCH   8   9
ENDBRANCH   7   8
TORSDOF 2
ENDMDL
MODEL 5
REMARK VINA RESULT:       2.0      1.538      2.523
REMARK  2 active torsions:
REMARK  status: ('A' for Active; 'I' for Inactive)
REMARK    1  A    between atoms: C7_7  and  O11_11 
REMARK    2  A    between atoms: C10_10  and  O11_11 
ROOT
HETATM    1  C1  UNL     1     -32.685   7.792   1.079  1.00 20.00    -0.019 C 
HETATM    2  C2  UNL     1     -31.593   7.493   1.809  1.00 20.00    -0.019 C 
HETATM    3  C3  UNL     1     -32.832   5.448   0.336  1.00 20.00    -0.019 C 
HETATM    4  C4  UNL     1     -31.738   5.149   1.069  1.00 20.00    -0.019 C 
HETATM    5  C5  UNL     1     -33.570   6.555   1.075  1.00 20.00     0.060 C 
HETATM    6  C6  UNL     1     -31.758   6.058   2.288  1.00 20.00     0.060 C 
HETATM    7  C7  UNL     1     -33.281   6.051   2.498  1.00 20.00     0.144 C 
ENDROOT
BRANCH   7   8
HETATM    8  O11 UNL     1     -33.739   6.920   3.518  1.00 20.00    -0.379 OA
BRANCH   8   9
HETATM    9  C10 UNL     1     -34.914   6.421   4.148  1.00 20.00     0.114 C 
HETATM   10  C8  UNL     1     -36.124   6.766   3.294  1.00 20.00     0.039 C 
HETATM   11  C9  UNL     1     -34.774   4.921   4.354  1.00 20.00     0.039 C 
ENDBRANCH   8   9
ENDBRANCH   7   8
TORSDOF 2
ENDMDL
MODEL 6
REMARK VINA RESULT:       2.0      0.970      1.208
REMARK  2 active torsions:
REMARK  status: ('A' for Active; 'I' for Inactive)
REMARK    1  A    between atoms: C7_7  and  O11_11 
REMARK    2  A    between atoms: C10_10  and  O11_11 
ROOT
HETATM    1  C1  UNL     1     -31.600   8.846   3.135  1.00 20.00    -0.019 C 
HETATM    2  C2  UNL     1     -30.799   7.969   2.500  1.00 20.00    -0.019 C 
HETATM    3  C3  UNL     1     -32.745   9.339   1.011  1.00 20.00    -0.019 C 
HETATM    4  C4  UNL     1     -31.942   8.459   0.375  1.00 20.00    -0.019 C 
HETATM    5  C5  UNL     1     -32.946   8.814   2.425  1.00 20.00     0.060 C 
HETATM    6  C6  UNL     1     -31.615   7.357   1.371  1.00 20.00     0.060 C 
HETATM    7  C7  UNL     1     -32.988   7.320   2.064  1.00 20.00     0.144 C 
ENDROOT
BRANCH   7   8
HETATM    8  O11 UNL     1     -33.059   6.460   3.185  1.00 20.00    -0.379 OA
BRANCH   8   9
HETATM    9  C10 UNL     1     -34.277   5.724   3.210  1.00 20.00     0.114 C 
HETATM   10  C8  UNL     1     -34.030   4.371   3.860  1.00 20.00     0.039 C 
HETATM   11  C9  UNL     1     -35.333   6.527   3.954  1.00 20.00     0.039 C 
ENDBRANCH   8   9
ENDBRANCH   7   8
TORSDOF 2
ENDMDL
MODEL 7
REMARK VINA RESULT:       2.1      1.540      3.822
REMARK  2 active torsions:
REMARK  status: ('A' for Active; 'I' for Inactive)
REMARK    1  A    between atoms: C7_7  and  O11_11 
REMARK    2  A    between atoms: C10_10  and  O11_11 
ROOT
HETATM    1  C1  UNL     1     -32.732   5.994   1.421  1.00 20.00    -0.019 C 
HETATM    2  C2  UNL     1     -31.629   6.299   2.131  1.00 20.00    -0.019 C 
HETATM    3  C3  UNL     1     -34.132   7.089   3.125  1.00 20.00    -0.019 C 
HETATM    4  C4  UNL     1     -33.026   7.395   3.836  1.00 20.00    -0.019 C 
HETATM    5  C5  UNL     1     -33.736   7.113   1.657  1.00 20.00     0.060 C 
HETATM    6  C6  UNL     1     -31.903   7.619   2.835  1.00 20.00     0.060 C 
HETATM    7  C7  UNL     1     -32.757   8.295   1.749  1.00 20.00     0.144 C 
ENDROOT
BRANCH   7   8
HETATM    8  O11 UNL     1     -32.068   8.565   0.542  1.00 20.00    -0.379 OA
BRANCH   8   9
HETATM    9  C10 UNL     1     -32.164   9.937   0.175  1.00 20.00     0.114 C 
HETATM   10  C8  UNL     1     -32.971  10.056  -1.109  1.00 20.00     0.039 C 
HETATM   11  C9  UNL     1     -32.797  10.718   1.317  1.00 20.00     0.039 C 
ENDBRANCH   8   9
ENDBRANCH   7   8
TORSDOF 2
ENDMDL
MODEL 8
REMARK VINA RESULT:       2.1      1.580      3.769
REMARK  2 active torsions:
REMARK  status: ('A' for Active; 'I' for Inactive)
REMARK    1  A    between atoms: C7_7  and  O11_11 
REMARK    2  A    between atoms: C10_10  and  O11_11 
ROOT
HETATM    1  C1  UNL     1     -31.861   7.877   3.271  1.00 20.00    -0.019 C 
HETATM    2  C2  UNL     1     -33.158   7.597   3.502  1.00 20.00    -0.019 C 
HETATM    3  C3  UNL     1     -31.746   6.018   1.660  1.00 20.00    -0.019 C 
HETATM    4  C4  UNL     1     -33.046   5.737   1.892  1.00 20.00    -0.019 C 
HETATM    5  C5  UNL     1     -31.582   7.522   1.818  1.00 20.00     0.060 C 
HETATM    6  C6  UNL     1     -33.736   7.057   2.202  1.00 20.00     0.060 C 
HETATM    7  C7  UNL     1     -32.937   7.920   1.211  1.00 20.00     0.144 C 
ENDROOT
BRANCH   7   8
HETATM    8  O11 UNL     1     -33.213   9.307   1.282  1.00 20.00    -0.379 OA
BRANCH   8   9
HETATM    9  C10 UNL     1     -32.328  10.064   0.465  1.00 20.00     0.114 C 
HETATM   10  C8  UNL     1     -32.745   9.919  -0.991  1.00 20.00     0.039 C 
HETATM   11  C9  UNL     1     -32.345  11.516   0.918  1.00 20.00     0.039 C 
ENDBRANCH   8   9
ENDBRANCH   7   8
TORSDOF 2
ENDMDL
MODEL 9
REMARK VINA RESULT:       2.3      1.575      4.196
REMARK  2 active torsions:
REMARK  status: ('A' for Active; 'I' for Inactive)
REMARK    1  A    between atoms: C7_7  and  O11_11 
REMARK    2  A    between atoms: C10_10  and  O11_11 
ROOT
HETATM    1  C1  UNL     1     -35.618   6.461   3.601  1.00 20.00    -0.019 C 
HETATM    2  C2  UNL     1     -34.847   5.646   4.345  1.00 20.00    -0.019 C 
HETATM    3  C3  UNL     1     -34.303   8.400   4.358  1.00 20.00    -0.019 C 
HETATM    4  C4  UNL     1     -33.529   7.582   5.105  1.00 20.00    -0.019 C 
HETATM    5  C5  UNL     1     -34.733   7.607   3.134  1.00 20.00     0.060 C 
HETATM    6  C6  UNL     1     -33.452   6.253   4.371  1.00 20.00     0.060 C 
HETATM    7  C7  UNL     1     -33.419   6.830   2.945  1.00 20.00     0.144 C 
ENDROOT
BRANCH   7   8
HETATM    8  O11 UNL     1     -33.468   5.861   1.915  1.00 20.00    -0.379 OA
BRANCH   8   9
HETATM    9  C10 UNL     1     -32.405   6.026   0.983  1.00 20.00     0.114 C 
HETATM   10  C8  UNL     1     -31.644   7.301   1.315  1.00 20.00     0.039 C 
HETATM   11  C9  UNL     1     -31.506   4.800   1.026  1.00 20.00     0.039 C 
ENDBRANCH   8   9
ENDBRANCH   7   8
TORSDOF 2
ENDMDL
