MODEL 1
REMARK VINA RESULT:      -2.9      0.000      0.000
REMARK  3 active torsions:
REMARK  status: ('A' for Active; 'I' for Inactive)
REMARK    1  A    between atoms: C2_2  and  C6_6 
REMARK    2  A    between atoms: C3_3  and  C7_7 
REMARK    3  A    between atoms: C6_6  and  C7_7 
ROOT
HETATM    1  C7  UNL     1     -32.972   6.951   2.881  1.00 20.00     0.242 C 
HETATM    2  F9  UNL     1     -33.446   6.288   1.786  1.00 20.00    -0.241 F 
ENDROOT
BRANCH   1   3
HETATM    3  C3  UNL     1     -34.081   7.171   3.892  1.00 20.00     0.157 C 
HETATM    4  C5  UNL     1     -35.254   6.227   3.857  1.00 20.00     0.094 C 
HETATM    5  O8  UNL     1     -34.027   8.090   4.710  1.00 20.00    -0.295 OA
ENDBRANCH   1   3
BRANCH   1   6
HETATM    6  C6  UNL     1     -32.302   8.240   2.412  1.00 20.00     0.072 C 
BRANCH   6   7
HETATM    7  C2  UNL     1     -31.840   8.170   0.983  1.00 20.00    -0.028 C 
HETATM    8  C1  UNL     1     -32.014   9.157   0.093  1.00 20.00    -0.035 C 
HETATM    9  C4  UNL     1     -32.689  10.449   0.406  1.00 20.00     0.036 C 
ENDBRANCH   6   7
ENDBRANCH   1   6
TORSDOF 3
ENDMDL
MODEL 2
REMARK VINA RESULT:      -2.8      1.657      4.391
REMARK  3 active torsions:
REMARK  status: ('A' for Active; 'I' for Inactive)
REMARK    1  A    between atoms: C2_2  and  C6_6 
REMARK    2  A    between atoms: C3_3  and  C7_7 
REMARK    3  A    between atoms: C6_6  and  C7_7 
ROOT
HETATM    1  C7  UNL     1     -33.203   7.144   2.077  1.00 20.00     0.242 C 
HETATM    2  F9  UNL     1     -32.866   5.865   1.742  1.00 20.00    -0.241 F 
ENDROOT
BRANCH   1   3
HETATM    3  C3  UNL     1     -32.111   8.110   1.661  1.00 20.00     0.157 C 
HETATM    4  C5  UNL     1     -32.477   9.205   0.695  1.00 20.00     0.094 C 
HETATM    5  O8  UNL     1     -30.963   8.000   2.094  1.00 20.00    -0.295 OA
ENDBRANCH   1   3
BRANCH   1   6
HETATM    6  C6  UNL     1     -33.527   7.183   3.568  1.00 20.00     0.072 C 
BRANCH   6   7
HETATM    7  C2  UNL     1     -34.931   6.739   3.872  1.00 20.00    -0.028 C 
HETATM    8  C1  UNL     1     -35.260   5.484   4.210  1.00 20.00    -0.035 C 
HETATM    9  C4  UNL     1     -34.275   4.370   4.327  1.00 20.00     0.036 C 
ENDBRANCH   6   7
ENDBRANCH   1   6
TORSDOF 3
ENDMDL
MODEL 3
REMARK VINA RESULT:      -2.7      1.229      1.285
REMARK  3 active torsions:
REMARK  status: ('A' for Active; 'I' for Inactive)
REMARK    1  A    between atoms: C2_2  and  C6_6 
REMARK    2  A    between atoms: C3_3  and  C7_7 
REMARK    3  A    between atoms: C6_6  and  C7_7 
ROOT
HETATM    1  C7  UNL     1     -32.740   6.561   2.260  1.00 20.00     0.242 C 
HETATM    2  F9  UNL     1     -33.215   6.109   1.062  1.00 20.00    -0.241 F 
ENDROOT
BRANCH   1   3
HETATM    3  C3  UNL     1     -33.781   6.380   3.348  1.00 20.00     0.157 C 
HETATM    4  C5  UNL     1     -34.252   7.612   4.074  1.00 20.00     0.094 C 
HETATM    5  O8  UNL     1     -34.222   5.266   3.631  1.00 20.00    -0.295 OA
ENDBRANCH   1   3
BRANCH   1   6
HETATM    6  C6  UNL     1     -32.278   8.005   2.082  1.00 20.00     0.072 C 
BRANCH   6   7
HETATM    7  C2  UNL     1     -31.842   8.307   0.675  1.00 20.00    -0.028 C 
HETATM    8  C1  UNL     1     -32.088   9.468   0.051  1.00 20.00    -0.035 C 
HETATM    9  C4  UNL     1     -32.827  10.605   0.672  1.00 20.00     0.036 C 
ENDBRANCH   6   7
ENDBRANCH   1   6
TORSDOF 3
ENDMDL
MODEL 4
REMARK VINA RESULT:      -2.4      1.603      1.732
REMARK  3 active torsions:
REMARK  status: ('A' for Active; 'I' for Inactive)
REMARK    1  A    between atoms: C2_2  and  C6_6 
REMARK    2  A    between atoms: C3_3  and  C7_7 
REMARK    3  A    between atoms: C6_6  and  C7_7 
ROOT
HETATM    1  C7  UNL     1     -33.833   7.254   3.176  1.00 20.00     0.242 C 
HETATM    2  F9  UNL     1     -32.977   7.769   4.107  1.00 20.00    -0.241 F 
ENDROOT
BRANCH   1   3
HETATM    3  C3  UNL     1     -34.553   6.040   3.728  1.00 20.00     0.157 C 
HETATM    4  C5  UNL     1     -33.845   4.713   3.650  1.00 20.00     0.094 C 
HETATM    5  O8  UNL     1     -35.679   6.133   4.219  1.00 20.00    -0.295 OA
ENDBRANCH   1   3
BRANCH   1   6
HETATM    6  C6  UNL     1     -33.046   6.977   1.898  1.00 20.00     0.072 C 
BRANCH   6   7
HETATM    7  C2  UNL     1     -31.742   7.725   1.842  1.00 20.00    -0.028 C 
HETATM    8  C1  UNL     1     -31.565   8.865   1.161  1.00 20.00    -0.035 C 
HETATM    9  C4  UNL     1     -32.638   9.536   0.370  1.00 20.00     0.036 C 
ENDBRANCH   6   7
ENDBRANCH   1   6
TORSDOF 3
ENDMDL
MODEL 5
REMARK VINA RESULT:      -2.3      1.241      1.461
REMARK  3 active torsions:
REMARK  status: ('A' for Active; 'I' for Inactive)
REMARK    1  A    between atoms: C2_2  and  C6_6 
REMARK    2  A    between atoms: C3_3  and  C7_7 
REMARK    3  A    between atoms: C6_6  and  C7_7 
ROOT
HETATM    1  C7  UNL     1     -33.204   6.250   2.864  1.00 20.00     0.242 C 
HETATM    2  F9  UNL     1     -33.500   4.965   2.513  1.00 20.00    -0.241 F 
ENDROOT
BRANCH   1   3
HETATM    3  C3  UNL     1     -34.281   6.817   3.768  1.00 20.00     0.157 C 
HETATM    4  C5  UNL     1     -33.922   8.003   4.623  1.00 20.00     0.094 C 
HETATM    5  O8  UNL     1     -35.408   6.322   3.807  1.00 20.00    -0.295 OA
ENDBRANCH   1   3
BRANCH   1   6
HETATM    6  C6  UNL     1     -32.979   7.060   1.590  1.00 20.00     0.072 C 
BRANCH   6   7
HETATM    7  C2  UNL     1     -31.782   7.965   1.679  1.00 20.00    -0.028 C 
HETATM    8  C1  UNL     1     -31.649   9.099   0.976  1.00 20.00    -0.035 C 
HETATM    9  C4  UNL     1     -32.673   9.606   0.016  1.00 20.00     0.036 C 
ENDBRANCH   6   7
ENDBRANCH   1   6
TORSDOF 3
ENDMDL
MODEL 6
REMARK VINA RESULT:      -2.2      1.932      4.425
REMARK  3 active torsions:
REMARK  status: ('A' for Active; 'I' for Inactive)
REMARK    1  A    between atoms: C2_2  and  C6_6 
REMARK    2  A    between atoms: C3_3  and  C7_7 
REMARK    3  A    between atoms: C6_6  and  C7_7 
ROOT
HETATM    1  C7  UNL     1     -33.252   7.161   2.131  1.00 20.00     0.242 C 
HETATM    2  F9  UNL     1     -32.842   5.913   1.761  1.00 20.00    -0.241 F 
ENDROOT
BRANCH   1   3
HETATM    3  C3  UNL     1     -32.208   8.196   1.760  1.00 20.00     0.157 C 
HETATM    4  C5  UNL     1     -31.109   8.467   2.753  1.00 20.00     0.094 C 
HETATM    5  O8  UNL     1     -32.258   8.798   0.686  1.00 20.00    -0.295 OA
ENDBRANCH   1   3
BRANCH   1   6
HETATM    6  C6  UNL     1     -33.593   7.135   3.619  1.00 20.00     0.072 C 
BRANCH   6   7
HETATM    7  C2  UNL     1     -34.967   6.589   3.892  1.00 20.00    -0.028 C 
HETATM    8  C1  UNL     1     -35.213   5.308   4.201  1.00 20.00    -0.035 C 
HETATM    9  C4  UNL     1     -34.155   4.262   4.312  1.00 20.00     0.036 C 
ENDBRANCH   6   7
ENDBRANCH   1   6
TORSDOF 3
ENDMDL
MODEL 7
REMARK VINA RESULT:      -2.2      2.576      4.339
REMARK  3 active torsions:
REMARK  status: ('A' for Active; 'I' for Inactive)
REMARK    1  A    between atoms: C2_2  and  C6_6 
REMARK    2  A    between atoms: C3_3  and  C7_7 
REMARK    3  A    between atoms: C6_6  and  C7_7 
ROOT
HETATM    1  C7  UNL     1     -31.885   8.532   0.390  1.00 20.00     0.242 C 
HETATM    2  F9  UNL     1     -30.550   8.669   0.145  1.00 20.00    -0.241 F 
ENDROOT
BRANCH   1   3
HETATM    3  C3  UNL     1     -32.623   9.813   0.050  1.00 20.00     0.157 C 
HETATM    4  C5  UNL     1     -32.711  10.872   1.117  1.00 20.00     0.094 C 
HETATM    5  O8  UNL     1     -33.137   9.980  -1.056  1.00 20.00    -0.295 OA
ENDBRANCH   1   3
BRANCH   1   6
HETATM    6  C6  UNL     1     -32.067   8.081   1.837  1.00 20.00     0.072 C 
BRANCH   6   7
HETATM    7  C2  UNL     1     -32.733   6.738   1.949  1.00 20.00    -0.028 C 
HETATM    8  C1  UNL     1     -33.654   6.436   2.875  1.00 20.00    -0.035 C 
HETATM    9  C4  UNL     1     -34.133   7.395   3.914  1.00 20.00     0.036 C 
ENDBRANCH   6   7
ENDBRANCH   1   6
TORSDOF 3
ENDMDL
MODEL 8
REMARK VINA RESULT:      -2.1      2.158      2.932
REMARK  3 active torsions:
REMARK  status: ('A' for Active; 'I' for Inactive)
REMARK    1  A    between atoms: C2_2  and  C6_6 
REMARK    2  A    between atoms: C3_3  and  C7_7 
REMARK    3  A    between atoms: C6_6  and  C7_7 
ROOT
HETATM    1  C7  UNL     1     -33.433   5.342   3.418  1.00 20.00     0.242 C 
HETATM    2  F9  UNL     1     -33.208   4.881   2.154  1.00 20.00    -0.241 F 
ENDROOT
BRANCH   1   3
HETATM    3  C3  UNL     1     -34.140   4.291   4.251  1.00 20.00     0.157 C 
HETATM    4  C5  UNL     1     -33.385   3.027   4.568  1.00 20.00     0.094 C 
HETATM    5  O8  UNL     1     -35.292   4.461   4.651  1.00 20.00    -0.295 OA
ENDBRANCH   1   3
BRANCH   1   6
HETATM    6  C6  UNL     1     -34.190   6.664   3.323  1.00 20.00     0.072 C 
BRANCH   6   7
HETATM    7  C2  UNL     1     -33.358   7.843   3.746  1.00 20.00    -0.028 C 
HETATM    8  C1  UNL     1     -32.387   8.381   2.994  1.00 20.00    -0.035 C 
HETATM    9  C4  UNL     1     -32.008   7.876   1.641  1.00 20.00     0.036 C 
ENDBRANCH   6   7
ENDBRANCH   1   6
TORSDOF 3
ENDMDL
MODEL 9
REMARK VINA RESULT:      -2.1      1.754      1.773
REMARK  3 active torsions:
REMARK  status: ('A' for Active; 'I' for Inactive)
REMARK    1  A    between atoms: C2_2  and  C6_6 
REMARK    2  A    between atoms: C3_3  and  C7_7 
REMARK    3  A    between atoms: C6_6  and  C7_7 
ROOT
HETATM    1  C7  UNL     1     -33.811   7.687   3.338  1.00 20.00     0.242 C 
HETATM    2  F9  UNL     1     -34.128   8.234   4.548  1.00 20.00    -0.241 F 
ENDROOT
BRANCH   1   3
HETATM    3  C3  UNL     1     -34.081   6.195   3.340  1.00 20.00     0.157 C 
HETATM    4  C5  UNL     1     -35.206   5.691   4.205  1.00 20.00     0.094 C 
HETATM    5  O8  UNL     1     -33.403   5.422   2.663  1.00 20.00    -0.295 OA
ENDBRANCH   1   3
BRANCH   1   6
HETATM    6  C6  UNL     1     -32.366   8.052   3.008  1.00 20.00     0.072 C 
BRANCH   6   7
HETATM    7  C2  UNL     1     -32.032   7.848   1.556  1.00 20.00    -0.028 C 
HETATM    8  C1  UNL     1     -32.150   8.802   0.622  1.00 20.00    -0.035 C 
HETATM    9  C4  UNL     1     -32.630  10.187   0.904  1.00 20.00     0.036 C 
ENDBRANCH   6   7
ENDBRANCH   1   6
TORSDOF 3
ENDMDL
