MODEL 1
REMARK VINA RESULT:      -2.0      0.000      0.000
REMARK  3 active torsions:
REMARK  status: ('A' for Active; 'I' for Inactive)
REMARK    1  A    between atoms: C1_1  and  C6_6 
REMARK    2  A    between atoms: C7_7  and  C8_8 
REMARK    3  A    between atoms: C8_8  and  O10_10 
ROOT
HETATM    1  C2  UNL     1     -32.337   5.387   1.673  1.00 20.00     0.001 C 
HETATM    2  C3  UNL     1     -32.052   6.772   1.098  1.00 20.00     0.011 C 
HETATM    3  C4  UNL     1     -33.700   5.334   2.362  1.00 20.00     0.007 C 
HETATM    4  C5  UNL     1     -33.548   7.810   2.848  1.00 20.00     0.018 C 
HETATM    5  C6  UNL     1     -32.184   7.850   2.167  1.00 20.00     0.047 C 
HETATM    6  C7  UNL     1     -33.836   6.421   3.438  1.00 20.00     0.010 C 
ENDROOT
BRANCH   6   7
HETATM    7  C8  UNL     1     -35.224   6.381   4.073  1.00 20.00     0.168 C 
BRANCH   7   8
HETATM    8  O10 UNL     1     -35.485   5.056   4.498  1.00 20.00    -0.400 OA
HETATM    9  H24 UNL     1     -35.326   5.027   5.458  1.00 20.00     0.209 HD
ENDBRANCH   7   8
ENDBRANCH   6   7
BRANCH   5  10
HETATM   10  C1  UNL     1     -32.050   9.196   1.481  1.00 20.00     0.235 C 
HETATM   11  O9  UNL     1     -32.365   9.391   0.311  1.00 20.00    -0.306 OA
ENDBRANCH   5  10
TORSDOF 3
ENDMDL
MODEL 2
REMARK VINA RESULT:      -1.6      1.744      2.831
REMARK  3 active torsions:
REMARK  status: ('A' for Active; 'I' for Inactive)
REMARK    1  A    between atoms: C1_1  and  C6_6 
REMARK    2  A    between atoms: C7_7  and  C8_8 
REMARK    3  A    between atoms: C8_8  and  O10_10 
ROOT
HETATM    1  C2  UNL     1     -35.352   6.367   4.021  1.00 20.00     0.001 C 
HETATM    2  C3  UNL     1     -34.208   7.228   3.493  1.00 20.00     0.011 C 
HETATM    3  C4  UNL     1     -34.845   5.035   4.571  1.00 20.00     0.007 C 
HETATM    4  C5  UNL     1     -32.862   5.147   3.009  1.00 20.00     0.018 C 
HETATM    5  C6  UNL     1     -33.382   6.472   2.459  1.00 20.00     0.047 C 
HETATM    6  C7  UNL     1     -34.009   4.272   3.534  1.00 20.00     0.010 C 
ENDROOT
BRANCH   6   7
HETATM    7  C8  UNL     1     -33.471   2.972   4.126  1.00 20.00     0.168 C 
BRANCH   7   8
HETATM    8  O10 UNL     1     -32.804   3.271   5.338  1.00 20.00    -0.400 OA
HETATM    9  H24 UNL     1     -32.017   3.795   5.110  1.00 20.00     0.209 HD
ENDBRANCH   7   8
ENDBRANCH   6   7
BRANCH   5  10
HETATM   10  C1  UNL     1     -32.181   7.331   2.115  1.00 20.00     0.235 C 
HETATM   11  O9  UNL     1     -32.260   8.378   1.480  1.00 20.00    -0.306 OA
ENDBRANCH   5  10
TORSDOF 3
ENDMDL
MODEL 3
REMARK VINA RESULT:      -1.2      1.814      2.700
REMARK  3 active torsions:
REMARK  status: ('A' for Active; 'I' for Inactive)
REMARK    1  A    between atoms: C1_1  and  C6_6 
REMARK    2  A    between atoms: C7_7  and  C8_8 
REMARK    3  A    between atoms: C8_8  and  O10_10 
ROOT
HETATM    1  C2  UNL     1     -32.786   8.369   2.675  1.00 20.00     0.001 C 
HETATM    2  C3  UNL     1     -31.935   7.282   2.024  1.00 20.00     0.011 C 
HETATM    3  C4  UNL     1     -33.647   7.807   3.805  1.00 20.00     0.007 C 
HETATM    4  C5  UNL     1     -33.650   5.546   2.677  1.00 20.00     0.018 C 
HETATM    5  C6  UNL     1     -32.798   6.119   1.548  1.00 20.00     0.047 C 
HETATM    6  C7  UNL     1     -34.515   6.634   3.329  1.00 20.00     0.010 C 
ENDROOT
BRANCH   6   7
HETATM    7  C8  UNL     1     -35.325   6.057   4.488  1.00 20.00     0.168 C 
BRANCH   7   8
HETATM    8  O10 UNL     1     -35.234   4.646   4.442  1.00 20.00    -0.400 OA
HETATM    9  H24 UNL     1     -34.368   4.402   4.810  1.00 20.00     0.209 HD
ENDBRANCH   7   8
ENDBRANCH   6   7
BRANCH   5  10
HETATM   10  C1  UNL     1     -31.866   5.022   1.071  1.00 20.00     0.235 C 
HETATM   11  O9  UNL     1     -32.100   4.313   0.098  1.00 20.00    -0.306 OA
ENDBRANCH   5  10
TORSDOF 3
ENDMDL
MODEL 4
REMARK VINA RESULT:      -0.8      0.484      4.155
REMARK  3 active torsions:
REMARK  status: ('A' for Active; 'I' for Inactive)
REMARK    1  A    between atoms: C1_1  and  C6_6 
REMARK    2  A    between atoms: C7_7  and  C8_8 
REMARK    3  A    between atoms: C8_8  and  O10_10 
ROOT
HETATM    1  C2  UNL     1     -32.525   5.282   1.451  1.00 20.00     0.001 C 
HETATM    2  C3  UNL     1     -33.351   5.110   2.723  1.00 20.00     0.011 C 
HETATM    3  C4  UNL     1     -31.794   6.623   1.432  1.00 20.00     0.007 C 
HETATM    4  C5  UNL     1     -33.585   7.618   2.911  1.00 20.00     0.018 C 
HETATM    5  C6  UNL     1     -34.313   6.277   2.915  1.00 20.00     0.047 C 
HETATM    6  C7  UNL     1     -32.760   7.800   1.629  1.00 20.00     0.010 C 
ENDROOT
BRANCH   6   7
HETATM    7  C8  UNL     1     -31.999   9.123   1.659  1.00 20.00     0.168 C 
BRANCH   7   8
HETATM    8  O10 UNL     1     -32.403   9.900   0.547  1.00 20.00    -0.400 OA
HETATM    9  H24 UNL     1     -31.605  10.326   0.189  1.00 20.00     0.209 HD
ENDBRANCH   7   8
ENDBRANCH   6   7
BRANCH   5  10
HETATM   10  C1  UNL     1     -34.967   6.112   4.274  1.00 20.00     0.235 C 
HETATM   11  O9  UNL     1     -35.533   5.084   4.630  1.00 20.00    -0.306 OA
ENDBRANCH   5  10
TORSDOF 3
ENDMDL
MODEL 5
REMARK VINA RESULT:      -0.8      1.692      4.096
REMARK  3 active torsions:
REMARK  status: ('A' for Active; 'I' for Inactive)
REMARK    1  A    between atoms: C1_1  and  C6_6 
REMARK    2  A    between atoms: C7_7  and  C8_8 
REMARK    3  A    between atoms: C8_8  and  O10_10 
ROOT
HETATM    1  C2  UNL     1     -32.378   8.208   2.709  1.00 20.00     0.001 C 
HETATM    2  C3  UNL     1     -33.741   7.879   3.313  1.00 20.00     0.011 C 
HETATM    3  C4  UNL     1     -32.079   7.339   1.489  1.00 20.00     0.007 C 
HETATM    4  C5  UNL     1     -33.570   5.523   2.420  1.00 20.00     0.018 C 
HETATM    5  C6  UNL     1     -33.854   6.395   3.639  1.00 20.00     0.047 C 
HETATM    6  C7  UNL     1     -32.196   5.843   1.814  1.00 20.00     0.010 C 
ENDROOT
BRANCH   6   7
HETATM    7  C8  UNL     1     -31.945   4.999   0.567  1.00 20.00     0.168 C 
BRANCH   7   8
HETATM    8  O10 UNL     1     -33.189   4.524   0.087  1.00 20.00    -0.400 OA
HETATM    9  H24 UNL     1     -33.678   4.177   0.853  1.00 20.00     0.209 HD
ENDBRANCH   7   8
ENDBRANCH   6   7
BRANCH   5  10
HETATM   10  C1  UNL     1     -35.282   6.129   4.074  1.00 20.00     0.235 C 
HETATM   11  O9  UNL     1     -35.648   5.074   4.583  1.00 20.00    -0.306 OA
ENDBRANCH   5  10
TORSDOF 3
ENDMDL
MODEL 6
REMARK VINA RESULT:      -0.8      1.268      4.619
REMARK  3 active torsions:
REMARK  status: ('A' for Active; 'I' for Inactive)
REMARK    1  A    between atoms: C1_1  and  C6_6 
REMARK    2  A    between atoms: C7_7  and  C8_8 
REMARK    3  A    between atoms: C8_8  and  O10_10 
ROOT
HETATM    1  C2  UNL     1     -34.371   7.859   4.121  1.00 20.00     0.001 C 
HETATM    2  C3  UNL     1     -34.755   6.382   4.092  1.00 20.00     0.011 C 
HETATM    3  C4  UNL     1     -33.715   8.295   2.812  1.00 20.00     0.007 C 
HETATM    4  C5  UNL     1     -32.905   5.931   2.434  1.00 20.00     0.018 C 
HETATM    5  C6  UNL     1     -33.555   5.508   3.747  1.00 20.00     0.047 C 
HETATM    6  C7  UNL     1     -32.507   7.414   2.460  1.00 20.00     0.010 C 
ENDROOT
BRANCH   6   7
HETATM    7  C8  UNL     1     -31.902   7.836   1.124  1.00 20.00     0.168 C 
BRANCH   7   8
HETATM    8  O10 UNL     1     -32.275   9.177   0.865  1.00 20.00    -0.400 OA
HETATM    9  H24 UNL     1     -33.095   9.347   1.360  1.00 20.00     0.209 HD
ENDBRANCH   7   8
ENDBRANCH   6   7
BRANCH   5  10
HETATM   10  C1  UNL     1     -34.057   4.087   3.577  1.00 20.00     0.235 C 
HETATM   11  O9  UNL     1     -33.829   3.190   4.381  1.00 20.00    -0.306 OA
ENDBRANCH   5  10
TORSDOF 3
ENDMDL
MODEL 7
REMARK VINA RESULT:      -0.4      1.340      3.968
REMARK  3 active torsions:
REMARK  status: ('A' for Active; 'I' for Inactive)
REMARK    1  A    between atoms: C1_1  and  C6_6 
REMARK    2  A    between atoms: C7_7  and  C8_8 
REMARK    3  A    between atoms: C8_8  and  O10_10 
ROOT
HETATM    1  C2  UNL     1     -32.846   5.344   1.593  1.00 20.00     0.001 C 
HETATM    2  C3  UNL     1     -33.389   5.613   2.994  1.00 20.00     0.011 C 
HETATM    3  C4  UNL     1     -31.888   6.444   1.140  1.00 20.00     0.007 C 
HETATM    4  C5  UNL     1     -33.077   8.094   2.640  1.00 20.00     0.018 C 
HETATM    5  C6  UNL     1     -34.035   6.991   3.078  1.00 20.00     0.047 C 
HETATM    6  C7  UNL     1     -32.535   7.833   1.227  1.00 20.00     0.010 C 
ENDROOT
BRANCH   6   7
HETATM    7  C8  UNL     1     -31.541   8.918   0.820  1.00 20.00     0.168 C 
BRANCH   7   8
HETATM    8  O10 UNL     1     -32.248   9.952   0.161  1.00 20.00    -0.400 OA
HETATM    9  H24 UNL     1     -33.091   9.573  -0.144  1.00 20.00     0.209 HD
ENDBRANCH   7   8
ENDBRANCH   6   7
BRANCH   5  10
HETATM   10  C1  UNL     1     -34.394   7.241   4.530  1.00 20.00     0.235 C 
HETATM   11  O9  UNL     1     -33.830   8.074   5.231  1.00 20.00    -0.306 OA
ENDBRANCH   5  10
TORSDOF 3
ENDMDL
MODEL 8
REMARK VINA RESULT:      -0.4      1.148      4.541
REMARK  3 active torsions:
REMARK  status: ('A' for Active; 'I' for Inactive)
REMARK    1  A    between atoms: C1_1  and  C6_6 
REMARK    2  A    between atoms: C7_7  and  C8_8 
REMARK    3  A    between atoms: C8_8  and  O10_10 
ROOT
HETATM    1  C2  UNL     1     -32.521   8.481   4.603  1.00 20.00     0.001 C 
HETATM    2  C3  UNL     1     -33.869   7.769   4.688  1.00 20.00     0.011 C 
HETATM    3  C4  UNL     1     -32.160   8.831   3.161  1.00 20.00     0.007 C 
HETATM    4  C5  UNL     1     -33.554   6.888   2.342  1.00 20.00     0.018 C 
HETATM    5  C6  UNL     1     -33.900   6.540   3.786  1.00 20.00     0.047 C 
HETATM    6  C7  UNL     1     -32.194   7.596   2.249  1.00 20.00     0.010 C 
ENDROOT
BRANCH   6   7
HETATM    7  C8  UNL     1     -31.882   7.983   0.806  1.00 20.00     0.168 C 
BRANCH   7   8
HETATM    8  O10 UNL     1     -32.281   9.325   0.603  1.00 20.00    -0.400 OA
HETATM    9  H24 UNL     1     -33.130   9.304   0.129  1.00 20.00     0.209 HD
ENDBRANCH   7   8
ENDBRANCH   6   7
BRANCH   5  10
HETATM   10  C1  UNL     1     -35.315   5.995   3.803  1.00 20.00     0.235 C 
HETATM   11  O9  UNL     1     -35.679   5.084   4.538  1.00 20.00    -0.306 OA
ENDBRANCH   5  10
TORSDOF 3
ENDMDL
MODEL 9
REMARK VINA RESULT:       0.1      2.210      4.021
REMARK  3 active torsions:
REMARK  status: ('A' for Active; 'I' for Inactive)
REMARK    1  A    between atoms: C1_1  and  C6_6 
REMARK    2  A    between atoms: C7_7  and  C8_8 
REMARK    3  A    between atoms: C8_8  and  O10_10 
ROOT
HETATM    1  C2  UNL     1     -32.845   6.012   1.589  1.00 20.00     0.001 C 
HETATM    2  C3  UNL     1     -32.829   4.698   2.365  1.00 20.00     0.011 C 
HETATM    3  C4  UNL     1     -32.856   7.218   2.527  1.00 20.00     0.007 C 
HETATM    4  C5  UNL     1     -33.992   5.824   4.303  1.00 20.00     0.018 C 
HETATM    5  C6  UNL     1     -33.985   4.629   3.355  1.00 20.00     0.047 C 
HETATM    6  C7  UNL     1     -34.018   7.150   3.528  1.00 20.00     0.010 C 
ENDROOT
BRANCH   6   7
HETATM    7  C8  UNL     1     -33.976   8.338   4.486  1.00 20.00     0.168 C 
BRANCH   7   8
HETATM    8  O10 UNL     1     -32.728   8.331   5.155  1.00 20.00    -0.400 OA
HETATM    9  H24 UNL     1     -32.622   9.204   5.571  1.00 20.00     0.209 HD
ENDBRANCH   7   8
ENDBRANCH   6   7
BRANCH   5  10
HETATM   10  C1  UNL     1     -33.798   3.378   4.192  1.00 20.00     0.235 C 
HETATM   11  O9  UNL     1     -32.812   3.175   4.892  1.00 20.00    -0.306 OA
ENDBRANCH   5  10
TORSDOF 3
ENDMDL
