MODEL 1
REMARK VINA RESULT:      -2.5      0.000      0.000
REMARK  0 active torsions:
REMARK  status: ('A' for Active; 'I' for Inactive)
ROOT
HETATM    1  C1  UNL     1     -33.657   5.512   2.321  1.00 20.00     0.047 A 
HETATM    2  C2  UNL     1     -32.681   6.035   1.557  1.00 20.00     0.052 A 
HETATM    3  C3  UNL     1     -34.182   6.257   3.444  1.00 20.00     0.153 A 
HETATM    4  C4  UNL     1     -33.714   7.477   3.754  1.00 20.00     0.167 A 
HETATM    5  C5  UNL     1     -32.640   8.142   2.995  1.00 20.00     0.262 A 
HETATM    6  C6  UNL     1     -32.081   7.360   1.806  1.00 20.00     0.258 A 
HETATM    7  O7  UNL     1     -32.803   8.588   1.642  1.00 20.00    -0.327 OA
HETATM    8  F8  UNL     1     -35.165   5.695   4.174  1.00 20.00    -0.203 F 
HETATM    9  F9  UNL     1     -34.251   8.127   4.811  1.00 20.00    -0.204 F 
HETATM   10  F10 UNL     1     -30.705   7.438   1.627  1.00 20.00    -0.203 F 
ENDROOT
TORSDOF 0
ENDMDL
MODEL 2
REMARK VINA RESULT:      -1.8      1.744      3.371
REMARK  0 active torsions:
REMARK  status: ('A' for Active; 'I' for Inactive)
ROOT
HETATM    1  C1  UNL     1     -32.564   7.236   1.908  1.00 20.00     0.047 A 
HETATM    2  C2  UNL     1     -33.173   8.037   2.801  1.00 20.00     0.052 A 
HETATM    3  C3  UNL     1     -32.728   5.801   1.987  1.00 20.00     0.153 A 
HETATM    4  C4  UNL     1     -33.483   5.235   2.941  1.00 20.00     0.167 A 
HETATM    5  C5  UNL     1     -34.186   6.013   3.977  1.00 20.00     0.262 A 
HETATM    6  C6  UNL     1     -34.017   7.531   3.899  1.00 20.00     0.258 A 
HETATM    7  O7  UNL     1     -35.281   6.890   3.682  1.00 20.00    -0.327 OA
HETATM    8  F8  UNL     1     -32.105   5.041   1.065  1.00 20.00    -0.203 F 
HETATM    9  F9  UNL     1     -33.604   3.888   2.956  1.00 20.00    -0.204 F 
HETATM   10  F10 UNL     1     -33.870   8.183   5.118  1.00 20.00    -0.203 F 
ENDROOT
TORSDOF 0
ENDMDL
MODEL 3
REMARK VINA RESULT:      -1.8      1.666      2.576
REMARK  0 active torsions:
REMARK  status: ('A' for Active; 'I' for Inactive)
ROOT
HETATM    1  C1  UNL     1     -32.726   7.978   2.955  1.00 20.00     0.047 A 
HETATM    2  C2  UNL     1     -32.315   7.169   1.961  1.00 20.00     0.052 A 
HETATM    3  C3  UNL     1     -33.791   7.561   3.840  1.00 20.00     0.153 A 
HETATM    4  C4  UNL     1     -34.394   6.370   3.697  1.00 20.00     0.167 A 
HETATM    5  C5  UNL     1     -34.034   5.410   2.638  1.00 20.00     0.262 A 
HETATM    6  C6  UNL     1     -32.908   5.844   1.699  1.00 20.00     0.258 A 
HETATM    7  O7  UNL     1     -32.769   4.734   2.597  1.00 20.00    -0.327 OA
HETATM    8  F8  UNL     1     -34.162   8.402   4.826  1.00 20.00    -0.203 F 
HETATM    9  F9  UNL     1     -35.377   6.034   4.562  1.00 20.00    -0.204 F 
HETATM   10  F10 UNL     1     -33.084   5.520   0.359  1.00 20.00    -0.203 F 
ENDROOT
TORSDOF 0
ENDMDL
MODEL 4
REMARK VINA RESULT:      -1.7      1.521      3.345
REMARK  0 active torsions:
REMARK  status: ('A' for Active; 'I' for Inactive)
ROOT
HETATM    1  C1  UNL     1     -33.167   4.787   2.653  1.00 20.00     0.047 A 
HETATM    2  C2  UNL     1     -34.143   5.144   3.507  1.00 20.00     0.052 A 
HETATM    3  C3  UNL     1     -32.448   5.795   1.905  1.00 20.00     0.153 A 
HETATM    4  C4  UNL     1     -32.732   7.100   2.041  1.00 20.00     0.167 A 
HETATM    5  C5  UNL     1     -33.787   7.605   2.937  1.00 20.00     0.262 A 
HETATM    6  C6  UNL     1     -34.551   6.544   3.730  1.00 20.00     0.258 A 
HETATM    7  O7  UNL     1     -33.705   7.512   4.366  1.00 20.00    -0.327 OA
HETATM    8  F8  UNL     1     -31.473   5.389   1.069  1.00 20.00    -0.203 F 
HETATM    9  F9  UNL     1     -32.019   7.995   1.320  1.00 20.00    -0.204 F 
HETATM   10  F10 UNL     1     -35.918   6.757   3.860  1.00 20.00    -0.203 F 
ENDROOT
TORSDOF 0
ENDMDL
MODEL 5
REMARK VINA RESULT:      -1.6      1.680      2.553
REMARK  0 active torsions:
REMARK  status: ('A' for Active; 'I' for Inactive)
ROOT
HETATM    1  C1  UNL     1     -33.750   7.284   3.740  1.00 20.00     0.047 A 
HETATM    2  C2  UNL     1     -33.149   8.374   3.231  1.00 20.00     0.052 A 
HETATM    3  C3  UNL     1     -33.635   6.008   3.068  1.00 20.00     0.153 A 
HETATM    4  C4  UNL     1     -32.935   5.878   1.930  1.00 20.00     0.167 A 
HETATM    5  C5  UNL     1     -32.246   7.005   1.277  1.00 20.00     0.262 A 
HETATM    6  C6  UNL     1     -32.364   8.357   1.983  1.00 20.00     0.258 A 
HETATM    7  O7  UNL     1     -31.113   7.666   1.856  1.00 20.00    -0.327 OA
HETATM    8  F8  UNL     1     -34.248   4.943   3.622  1.00 20.00    -0.203 F 
HETATM    9  F9  UNL     1     -32.858   4.657   1.355  1.00 20.00    -0.204 F 
HETATM   10  F10 UNL     1     -32.534   9.457   1.151  1.00 20.00    -0.203 F 
ENDROOT
TORSDOF 0
ENDMDL
MODEL 6
REMARK VINA RESULT:      -1.2      1.383      1.990
REMARK  0 active torsions:
REMARK  status: ('A' for Active; 'I' for Inactive)
ROOT
HETATM    1  C1  UNL     1     -34.223   6.633   3.534  1.00 20.00     0.047 A 
HETATM    2  C2  UNL     1     -33.858   6.031   2.388  1.00 20.00     0.052 A 
HETATM    3  C3  UNL     1     -33.418   7.701   4.085  1.00 20.00     0.153 A 
HETATM    4  C4  UNL     1     -32.295   8.116   3.476  1.00 20.00     0.167 A 
HETATM    5  C5  UNL     1     -31.793   7.521   2.225  1.00 20.00     0.262 A 
HETATM    6  C6  UNL     1     -32.641   6.392   1.637  1.00 20.00     0.258 A 
HETATM    7  O7  UNL     1     -32.478   7.652   0.971  1.00 20.00    -0.327 OA
HETATM    8  F8  UNL     1     -33.830   8.280   5.231  1.00 20.00    -0.203 F 
HETATM    9  F9  UNL     1     -31.591   9.124   4.037  1.00 20.00    -0.204 F 
HETATM   10  F10 UNL     1     -31.931   5.326   1.096  1.00 20.00    -0.203 F 
ENDROOT
TORSDOF 0
ENDMDL
MODEL 7
REMARK VINA RESULT:      -0.7      1.593      3.830
REMARK  0 active torsions:
REMARK  status: ('A' for Active; 'I' for Inactive)
ROOT
HETATM    1  C1  UNL     1     -32.744   8.251   3.271  1.00 20.00     0.047 A 
HETATM    2  C2  UNL     1     -33.811   8.010   4.053  1.00 20.00     0.052 A 
HETATM    3  C3  UNL     1     -32.367   7.307   2.242  1.00 20.00     0.153 A 
HETATM    4  C4  UNL     1     -33.063   6.177   2.041  1.00 20.00     0.167 A 
HETATM    5  C5  UNL     1     -34.241   5.805   2.844  1.00 20.00     0.262 A 
HETATM    6  C6  UNL     1     -34.645   6.799   3.934  1.00 20.00     0.258 A 
HETATM    7  O7  UNL     1     -35.477   6.532   2.797  1.00 20.00    -0.327 OA
HETATM    8  F8  UNL     1     -31.295   7.597   1.478  1.00 20.00    -0.203 F 
HETATM    9  F9  UNL     1     -32.666   5.339   1.057  1.00 20.00    -0.204 F 
HETATM   10  F10 UNL     1     -35.063   6.238   5.135  1.00 20.00    -0.203 F 
ENDROOT
TORSDOF 0
ENDMDL
MODEL 8
REMARK VINA RESULT:      -0.6      1.994      2.818
REMARK  0 active torsions:
REMARK  status: ('A' for Active; 'I' for Inactive)
ROOT
HETATM    1  C1  UNL     1     -31.519   7.714   1.971  1.00 20.00     0.047 A 
HETATM    2  C2  UNL     1     -31.946   6.677   1.227  1.00 20.00     0.052 A 
HETATM    3  C3  UNL     1     -32.243   8.103   3.161  1.00 20.00     0.153 A 
HETATM    4  C4  UNL     1     -33.349   7.449   3.553  1.00 20.00     0.167 A 
HETATM    5  C5  UNL     1     -33.913   6.308   2.809  1.00 20.00     0.262 A 
HETATM    6  C6  UNL     1     -33.152   5.892   1.550  1.00 20.00     0.258 A 
HETATM    7  O7  UNL     1     -33.247   5.042   2.702  1.00 20.00    -0.327 OA
HETATM    8  F8  UNL     1     -31.772   9.142   3.879  1.00 20.00    -0.203 F 
HETATM    9  F9  UNL     1     -33.976   7.855   4.680  1.00 20.00    -0.204 F 
HETATM   10  F10 UNL     1     -33.940   5.528   0.464  1.00 20.00    -0.203 F 
ENDROOT
TORSDOF 0
ENDMDL
MODEL 9
REMARK VINA RESULT:      -0.6      1.740      3.525
REMARK  0 active torsions:
REMARK  status: ('A' for Active; 'I' for Inactive)
ROOT
HETATM    1  C1  UNL     1     -33.664   7.825   3.415  1.00 20.00     0.047 A 
HETATM    2  C2  UNL     1     -34.112   6.559   3.496  1.00 20.00     0.052 A 
HETATM    3  C3  UNL     1     -32.583   8.160   2.514  1.00 20.00     0.153 A 
HETATM    4  C4  UNL     1     -32.002   7.227   1.743  1.00 20.00     0.167 A 
HETATM    5  C5  UNL     1     -32.402   5.809   1.757  1.00 20.00     0.262 A 
HETATM    6  C6  UNL     1     -33.545   5.449   2.707  1.00 20.00     0.258 A 
HETATM    7  O7  UNL     1     -33.677   5.355   1.282  1.00 20.00    -0.327 OA
HETATM    8  F8  UNL     1     -32.175   9.444   2.463  1.00 20.00    -0.203 F 
HETATM    9  F9  UNL     1     -31.002   7.605   0.915  1.00 20.00    -0.204 F 
HETATM   10  F10 UNL     1     -33.408   4.242   3.383  1.00 20.00    -0.203 F 
ENDROOT
TORSDOF 0
ENDMDL
