MODEL 1
REMARK VINA RESULT:      -2.4      0.000      0.000
REMARK  1 active torsions:
REMARK  status: ('A' for Active; 'I' for Inactive)
REMARK    1  A    between atoms: C2_2  and  C3_3 
ROOT
HETATM    1  C1  UNL     1     -33.546   7.403   3.425  1.00 20.00    -0.043 C 
HETATM    2  C2  UNL     1     -32.659   8.261   2.920  1.00 20.00     0.055 C 
HETATM    3  C4  UNL     1     -34.350   7.380   4.704  1.00 20.00     0.040 C 
HETATM    4  C5  UNL     1     -35.234   6.366   3.951  1.00 20.00     0.046 C 
HETATM    5  C6  UNL     1     -34.106   6.082   2.929  1.00 20.00     0.199 C 
HETATM    6  F9  UNL     1     -33.392   4.953   3.157  1.00 20.00    -0.245 F 
ENDROOT
BRANCH   2   7
HETATM    7  C3  UNL     1     -32.016   8.007   1.602  1.00 20.00     0.145 C 
HETATM    8  C7  UNL     1     -32.082   9.119   0.589  1.00 20.00     0.096 C 
HETATM    9  O8  UNL     1     -31.435   6.953   1.352  1.00 20.00    -0.294 OA
ENDBRANCH   2   7
TORSDOF 1
ENDMDL
MODEL 2
REMARK VINA RESULT:      -2.0      2.435      3.919
REMARK  1 active torsions:
REMARK  status: ('A' for Active; 'I' for Inactive)
REMARK    1  A    between atoms: C2_2  and  C3_3 
ROOT
HETATM    1  C1  UNL     1     -33.332   6.795   2.754  1.00 20.00    -0.043 C 
HETATM    2  C2  UNL     1     -34.131   6.612   3.806  1.00 20.00     0.055 C 
HETATM    3  C4  UNL     1     -32.648   8.010   2.175  1.00 20.00     0.040 C 
HETATM    4  C5  UNL     1     -31.745   6.977   1.470  1.00 20.00     0.046 C 
HETATM    5  C6  UNL     1     -32.788   5.855   1.694  1.00 20.00     0.199 C 
HETATM    6  F9  UNL     1     -33.568   5.573   0.622  1.00 20.00    -0.245 F 
ENDROOT
BRANCH   2   7
HETATM    7  C3  UNL     1     -34.665   5.262   4.135  1.00 20.00     0.145 C 
HETATM    8  C7  UNL     1     -33.709   4.106   4.008  1.00 20.00     0.096 C 
HETATM    9  O8  UNL     1     -35.820   5.092   4.517  1.00 20.00    -0.294 OA
ENDBRANCH   2   7
TORSDOF 1
ENDMDL
MODEL 3
REMARK VINA RESULT:      -1.7      2.155      4.072
REMARK  1 active torsions:
REMARK  status: ('A' for Active; 'I' for Inactive)
REMARK    1  A    between atoms: C2_2  and  C3_3 
ROOT
HETATM    1  C1  UNL     1     -32.772   6.931   2.169  1.00 20.00    -0.043 C 
HETATM    2  C2  UNL     1     -33.661   6.090   2.700  1.00 20.00     0.055 C 
HETATM    3  C4  UNL     1     -31.783   6.808   1.035  1.00 20.00     0.040 C 
HETATM    4  C5  UNL     1     -31.791   8.349   1.062  1.00 20.00     0.046 C 
HETATM    5  C6  UNL     1     -32.377   8.359   2.495  1.00 20.00     0.199 C 
HETATM    6  F9  UNL     1     -31.475   8.569   3.485  1.00 20.00    -0.245 F 
ENDROOT
BRANCH   2   7
HETATM    7  C3  UNL     1     -34.519   6.508   3.843  1.00 20.00     0.145 C 
HETATM    8  C7  UNL     1     -35.436   5.463   4.420  1.00 20.00     0.096 C 
HETATM    9  O8  UNL     1     -34.470   7.641   4.316  1.00 20.00    -0.294 OA
ENDBRANCH   2   7
TORSDOF 1
ENDMDL
MODEL 4
REMARK VINA RESULT:      -1.5      1.389      1.719
REMARK  1 active torsions:
REMARK  status: ('A' for Active; 'I' for Inactive)
REMARK    1  A    between atoms: C2_2  and  C3_3 
ROOT
HETATM    1  C1  UNL     1     -32.822   7.719   2.322  1.00 20.00    -0.043 C 
HETATM    2  C2  UNL     1     -32.409   8.918   1.910  1.00 20.00     0.055 C 
HETATM    3  C4  UNL     1     -33.321   7.197   3.649  1.00 20.00     0.040 C 
HETATM    4  C5  UNL     1     -33.901   6.044   2.805  1.00 20.00     0.046 C 
HETATM    5  C6  UNL     1     -32.949   6.374   1.629  1.00 20.00     0.199 C 
HETATM    6  F9  UNL     1     -31.848   5.589   1.541  1.00 20.00    -0.245 F 
ENDROOT
BRANCH   2   7
HETATM    7  C3  UNL     1     -31.965   9.132   0.505  1.00 20.00     0.145 C 
HETATM    8  C7  UNL     1     -32.787  10.077  -0.330  1.00 20.00     0.096 C 
HETATM    9  O8  UNL     1     -30.962   8.587   0.049  1.00 20.00    -0.294 OA
ENDBRANCH   2   7
TORSDOF 1
ENDMDL
MODEL 5
REMARK VINA RESULT:      -1.5      1.669      1.991
REMARK  1 active torsions:
REMARK  status: ('A' for Active; 'I' for Inactive)
REMARK    1  A    between atoms: C2_2  and  C3_3 
ROOT
HETATM    1  C1  UNL     1     -33.705   6.493   3.080  1.00 20.00    -0.043 C 
HETATM    2  C2  UNL     1     -32.827   6.686   2.095  1.00 20.00     0.055 C 
HETATM    3  C4  UNL     1     -34.267   7.393   4.155  1.00 20.00     0.040 C 
HETATM    4  C5  UNL     1     -35.384   6.334   4.245  1.00 20.00     0.046 C 
HETATM    5  C6  UNL     1     -34.496   5.281   3.538  1.00 20.00     0.199 C 
HETATM    6  F9  UNL     1     -33.891   4.391   4.361  1.00 20.00    -0.245 F 
ENDROOT
BRANCH   2   7
HETATM    7  C3  UNL     1     -32.461   5.579   1.170  1.00 20.00     0.145 C 
HETATM    8  C7  UNL     1     -33.512   5.145   0.182  1.00 20.00     0.096 C 
HETATM    9  O8  UNL     1     -31.350   5.055   1.187  1.00 20.00    -0.294 OA
ENDBRANCH   2   7
TORSDOF 1
ENDMDL
MODEL 6
REMARK VINA RESULT:      -1.5      2.238      3.910
REMARK  1 active torsions:
REMARK  status: ('A' for Active; 'I' for Inactive)
REMARK    1  A    between atoms: C2_2  and  C3_3 
ROOT
HETATM    1  C1  UNL     1     -32.835   6.547   2.325  1.00 20.00    -0.043 C 
HETATM    2  C2  UNL     1     -33.417   5.374   2.582  1.00 20.00     0.055 C 
HETATM    3  C4  UNL     1     -31.829   6.997   1.293  1.00 20.00     0.040 C 
HETATM    4  C5  UNL     1     -32.338   8.412   1.635  1.00 20.00     0.046 C 
HETATM    5  C6  UNL     1     -32.935   7.915   2.975  1.00 20.00     0.199 C 
HETATM    6  F9  UNL     1     -32.177   8.164   4.071  1.00 20.00    -0.245 F 
ENDROOT
BRANCH   2   7
HETATM    7  C3  UNL     1     -34.395   5.235   3.696  1.00 20.00     0.145 C 
HETATM    8  C7  UNL     1     -35.336   6.387   3.921  1.00 20.00     0.096 C 
HETATM    9  O8  UNL     1     -34.454   4.221   4.388  1.00 20.00    -0.294 OA
ENDBRANCH   2   7
TORSDOF 1
ENDMDL
MODEL 7
REMARK VINA RESULT:      -1.1      1.980      3.779
REMARK  1 active torsions:
REMARK  status: ('A' for Active; 'I' for Inactive)
REMARK    1  A    between atoms: C2_2  and  C3_3 
ROOT
HETATM    1  C1  UNL     1     -33.025   7.039   2.541  1.00 20.00    -0.043 C 
HETATM    2  C2  UNL     1     -33.794   6.884   3.620  1.00 20.00     0.055 C 
HETATM    3  C4  UNL     1     -32.318   8.229   1.938  1.00 20.00     0.040 C 
HETATM    4  C5  UNL     1     -31.477   7.166   1.204  1.00 20.00     0.046 C 
HETATM    5  C6  UNL     1     -32.552   6.082   1.462  1.00 20.00     0.199 C 
HETATM    6  F9  UNL     1     -33.378   5.829   0.418  1.00 20.00    -0.245 F 
ENDROOT
BRANCH   2   7
HETATM    7  C3  UNL     1     -34.364   5.553   3.967  1.00 20.00     0.145 C 
HETATM    8  C7  UNL     1     -35.788   5.531   4.454  1.00 20.00     0.096 C 
HETATM    9  O8  UNL     1     -33.719   4.515   3.841  1.00 20.00    -0.294 OA
ENDBRANCH   2   7
TORSDOF 1
ENDMDL
MODEL 8
REMARK VINA RESULT:      -1.0      1.597      1.997
REMARK  1 active torsions:
REMARK  status: ('A' for Active; 'I' for Inactive)
REMARK    1  A    between atoms: C2_2  and  C3_3 
ROOT
HETATM    1  C1  UNL     1     -33.325   6.067   2.626  1.00 20.00    -0.043 C 
HETATM    2  C2  UNL     1     -32.418   6.638   1.832  1.00 20.00     0.055 C 
HETATM    3  C4  UNL     1     -33.862   4.661   2.737  1.00 20.00     0.040 C 
HETATM    4  C5  UNL     1     -34.323   5.110   4.138  1.00 20.00     0.046 C 
HETATM    5  C6  UNL     1     -34.206   6.602   3.741  1.00 20.00     0.199 C 
HETATM    6  F9  UNL     1     -35.374   7.203   3.408  1.00 20.00    -0.245 F 
ENDROOT
BRANCH   2   7
HETATM    7  C3  UNL     1     -32.092   8.085   1.961  1.00 20.00     0.145 C 
HETATM    8  C7  UNL     1     -32.373   8.954   0.765  1.00 20.00     0.096 C 
HETATM    9  O8  UNL     1     -31.637   8.560   3.000  1.00 20.00    -0.294 OA
ENDBRANCH   2   7
TORSDOF 1
ENDMDL
MODEL 9
REMARK VINA RESULT:      -1.0      2.778      4.220
REMARK  1 active torsions:
REMARK  status: ('A' for Active; 'I' for Inactive)
REMARK    1  A    between atoms: C2_2  and  C3_3 
ROOT
HETATM    1  C1  UNL     1     -34.469   5.496   4.008  1.00 20.00    -0.043 C 
HETATM    2  C2  UNL     1     -34.653   4.333   4.635  1.00 20.00     0.055 C 
HETATM    3  C4  UNL     1     -35.330   6.724   3.833  1.00 20.00     0.040 C 
HETATM    4  C5  UNL     1     -34.000   7.422   3.487  1.00 20.00     0.046 C 
HETATM    5  C6  UNL     1     -33.317   6.063   3.198  1.00 20.00     0.199 C 
HETATM    6  F9  UNL     1     -33.226   5.731   1.887  1.00 20.00    -0.245 F 
ENDROOT
BRANCH   2   7
HETATM    7  C3  UNL     1     -33.593   3.288   4.633  1.00 20.00     0.145 C 
HETATM    8  C7  UNL     1     -32.572   3.355   5.738  1.00 20.00     0.096 C 
HETATM    9  O8  UNL     1     -33.559   2.395   3.789  1.00 20.00    -0.294 OA
ENDBRANCH   2   7
TORSDOF 1
ENDMDL
