MODEL 1
REMARK VINA RESULT:      -0.6      0.000      0.000
REMARK  0 active torsions:
REMARK  status: ('A' for Active; 'I' for Inactive)
ROOT
HETATM    1  C1  UNL     1     -35.344   4.952   4.672  1.00 20.00     0.015 C 
HETATM    2  C2  UNL     1     -34.665   5.644   3.963  1.00 20.00    -0.076 C 
HETATM    3  C3  UNL     1     -31.975   6.325   1.434  1.00 20.00     0.004 C 
HETATM    4  C4  UNL     1     -31.861   7.843   1.505  1.00 20.00     0.003 C 
HETATM    5  C5  UNL     1     -33.375   5.859   1.824  1.00 20.00     0.055 C 
HETATM    6  C6  UNL     1     -32.020   8.334   2.941  1.00 20.00     0.042 C 
HETATM    7  C7  UNL     1     -33.853   6.469   3.117  1.00 20.00     0.154 A 
HETATM    8  C8  UNL     1     -33.206   7.744   3.659  1.00 20.00     0.102 A 
HETATM    9  C9  UNL     1     -33.361   8.146   5.096  1.00 20.00     0.050 C 
HETATM   10  O10 UNL     1     -34.429   7.780   2.923  1.00 20.00    -0.350 OA
ENDROOT
TORSDOF 0
ENDMDL
MODEL 2
REMARK VINA RESULT:      -0.3      1.033      1.033
REMARK  0 active torsions:
REMARK  status: ('A' for Active; 'I' for Inactive)
ROOT
HETATM    1  C1  UNL     1     -33.955   3.769   4.193  1.00 20.00     0.015 C 
HETATM    2  C2  UNL     1     -33.691   4.755   3.561  1.00 20.00    -0.076 C 
HETATM    3  C3  UNL     1     -31.586   6.893   1.304  1.00 20.00     0.004 C 
HETATM    4  C4  UNL     1     -32.292   8.240   1.407  1.00 20.00     0.003 C 
HETATM    5  C5  UNL     1     -32.557   5.742   1.555  1.00 20.00     0.055 C 
HETATM    6  C6  UNL     1     -32.788   8.487   2.829  1.00 20.00     0.042 C 
HETATM    7  C7  UNL     1     -33.375   5.933   2.806  1.00 20.00     0.154 A 
HETATM    8  C8  UNL     1     -33.535   7.321   3.425  1.00 20.00     0.102 A 
HETATM    9  C9  UNL     1     -33.981   7.495   4.846  1.00 20.00     0.050 C 
HETATM   10  O10 UNL     1     -34.538   6.759   2.578  1.00 20.00    -0.350 OA
ENDROOT
TORSDOF 0
ENDMDL
MODEL 3
REMARK VINA RESULT:       0.1      1.238      3.953
REMARK  0 active torsions:
REMARK  status: ('A' for Active; 'I' for Inactive)
ROOT
HETATM    1  C1  UNL     1     -31.238   8.777   0.935  1.00 20.00     0.015 C 
HETATM    2  C2  UNL     1     -32.066   8.122   1.506  1.00 20.00    -0.076 C 
HETATM    3  C3  UNL     1     -34.265   7.182   4.400  1.00 20.00     0.004 C 
HETATM    4  C4  UNL     1     -34.797   5.824   3.956  1.00 20.00     0.003 C 
HETATM    5  C5  UNL     1     -33.914   8.055   3.198  1.00 20.00     0.055 C 
HETATM    6  C6  UNL     1     -33.715   5.027   3.232  1.00 20.00     0.042 C 
HETATM    7  C7  UNL     1     -33.054   7.338   2.189  1.00 20.00     0.154 A 
HETATM    8  C8  UNL     1     -32.988   5.811   2.170  1.00 20.00     0.102 A 
HETATM    9  C9  UNL     1     -31.871   5.088   1.480  1.00 20.00     0.050 C 
HETATM   10  O10 UNL     1     -33.835   6.535   1.277  1.00 20.00    -0.350 OA
ENDROOT
TORSDOF 0
ENDMDL
MODEL 4
REMARK VINA RESULT:       0.4      1.407      3.397
REMARK  0 active torsions:
REMARK  status: ('A' for Active; 'I' for Inactive)
ROOT
HETATM    1  C1  UNL     1     -32.363  10.002   0.482  1.00 20.00     0.015 C 
HETATM    2  C2  UNL     1     -32.467   8.976   1.097  1.00 20.00    -0.076 C 
HETATM    3  C3  UNL     1     -32.858   5.262   1.486  1.00 20.00     0.004 C 
HETATM    4  C4  UNL     1     -33.142   5.136   2.977  1.00 20.00     0.003 C 
HETATM    5  C5  UNL     1     -32.030   6.509   1.187  1.00 20.00     0.055 C 
HETATM    6  C6  UNL     1     -34.025   6.282   3.463  1.00 20.00     0.042 C 
HETATM    7  C7  UNL     1     -32.592   7.750   1.831  1.00 20.00     0.154 A 
HETATM    8  C8  UNL     1     -33.560   7.642   3.009  1.00 20.00     0.102 A 
HETATM    9  C9  UNL     1     -34.437   8.792   3.406  1.00 20.00     0.050 C 
HETATM   10  O10 UNL     1     -32.168   7.894   3.204  1.00 20.00    -0.350 OA
ENDROOT
TORSDOF 0
ENDMDL
MODEL 5
REMARK VINA RESULT:       0.8      1.243      3.210
REMARK  0 active torsions:
REMARK  status: ('A' for Active; 'I' for Inactive)
ROOT
HETATM    1  C1  UNL     1     -31.437   4.394   0.610  1.00 20.00     0.015 C 
HETATM    2  C2  UNL     1     -32.027   5.241   1.224  1.00 20.00    -0.076 C 
HETATM    3  C3  UNL     1     -32.352   8.438   3.166  1.00 20.00     0.004 C 
HETATM    4  C4  UNL     1     -33.771   8.325   3.710  1.00 20.00     0.003 C 
HETATM    5  C5  UNL     1     -32.200   7.659   1.861  1.00 20.00     0.055 C 
HETATM    6  C6  UNL     1     -34.089   6.887   4.108  1.00 20.00     0.042 C 
HETATM    7  C7  UNL     1     -32.731   6.252   1.958  1.00 20.00     0.154 A 
HETATM    8  C8  UNL     1     -33.721   5.870   3.059  1.00 20.00     0.102 A 
HETATM    9  C9  UNL     1     -33.953   4.437   3.435  1.00 20.00     0.050 C 
HETATM   10  O10 UNL     1     -34.157   6.189   1.737  1.00 20.00    -0.350 OA
ENDROOT
TORSDOF 0
ENDMDL
MODEL 6
REMARK VINA RESULT:       1.2      1.767      3.137
REMARK  0 active torsions:
REMARK  status: ('A' for Active; 'I' for Inactive)
ROOT
HETATM    1  C1  UNL     1     -34.368   7.254   4.101  1.00 20.00     0.015 C 
HETATM    2  C2  UNL     1     -33.647   7.731   3.268  1.00 20.00    -0.076 C 
HETATM    3  C3  UNL     1     -32.774  10.023   0.426  1.00 20.00     0.004 C 
HETATM    4  C4  UNL     1     -31.424   9.470  -0.014  1.00 20.00     0.003 C 
HETATM    5  C5  UNL     1     -33.030   9.742   1.904  1.00 20.00     0.055 C 
HETATM    6  C6  UNL     1     -31.405   7.947   0.073  1.00 20.00     0.042 C 
HETATM    7  C7  UNL     1     -32.785   8.301   2.273  1.00 20.00     0.154 A 
HETATM    8  C8  UNL     1     -31.927   7.406   1.379  1.00 20.00     0.102 A 
HETATM    9  C9  UNL     1     -31.991   5.911   1.482  1.00 20.00     0.050 C 
HETATM   10  O10 UNL     1     -31.392   8.034   2.544  1.00 20.00    -0.350 OA
ENDROOT
TORSDOF 0
ENDMDL
MODEL 7
REMARK VINA RESULT:       1.2      1.414      3.228
REMARK  0 active torsions:
REMARK  status: ('A' for Active; 'I' for Inactive)
ROOT
HETATM    1  C1  UNL     1     -32.315   4.646   0.190  1.00 20.00     0.015 C 
HETATM    2  C2  UNL     1     -32.641   5.309   1.136  1.00 20.00    -0.076 C 
HETATM    3  C3  UNL     1     -34.952   6.439   3.871  1.00 20.00     0.004 C 
HETATM    4  C4  UNL     1     -34.252   7.698   4.367  1.00 20.00     0.003 C 
HETATM    5  C5  UNL     1     -33.953   5.455   3.267  1.00 20.00     0.055 C 
HETATM    6  C6  UNL     1     -33.638   8.473   3.204  1.00 20.00     0.042 C 
HETATM    7  C7  UNL     1     -33.032   6.102   2.266  1.00 20.00     0.154 A 
HETATM    8  C8  UNL     1     -32.831   7.618   2.261  1.00 20.00     0.102 A 
HETATM    9  C9  UNL     1     -32.266   8.325   1.066  1.00 20.00     0.050 C 
HETATM   10  O10 UNL     1     -31.900   6.741   2.897  1.00 20.00    -0.350 OA
ENDROOT
TORSDOF 0
ENDMDL
MODEL 8
REMARK VINA RESULT:       1.9      1.206      2.558
REMARK  0 active torsions:
REMARK  status: ('A' for Active; 'I' for Inactive)
ROOT
HETATM    1  C1  UNL     1     -35.664   5.704   4.129  1.00 20.00     0.015 C 
HETATM    2  C2  UNL     1     -34.660   6.131   3.626  1.00 20.00    -0.076 C 
HETATM    3  C3  UNL     1     -32.261   8.811   2.551  1.00 20.00     0.004 C 
HETATM    4  C4  UNL     1     -31.303   8.030   1.660  1.00 20.00     0.003 C 
HETATM    5  C5  UNL     1     -32.892   7.907   3.608  1.00 20.00     0.055 C 
HETATM    6  C6  UNL     1     -32.053   6.983   0.841  1.00 20.00     0.042 C 
HETATM    7  C7  UNL     1     -33.462   6.640   3.024  1.00 20.00     0.154 A 
HETATM    8  C8  UNL     1     -33.007   6.144   1.652  1.00 20.00     0.102 A 
HETATM    9  C9  UNL     1     -33.816   5.149   0.875  1.00 20.00     0.050 C 
HETATM   10  O10 UNL     1     -32.459   5.614   2.859  1.00 20.00    -0.350 OA
ENDROOT
TORSDOF 0
ENDMDL
MODEL 9
REMARK VINA RESULT:       2.0      0.958      2.508
REMARK  0 active torsions:
REMARK  status: ('A' for Active; 'I' for Inactive)
ROOT
HETATM    1  C1  UNL     1     -33.467   8.639   5.690  1.00 20.00     0.015 C 
HETATM    2  C2  UNL     1     -33.438   8.016   4.664  1.00 20.00    -0.076 C 
HETATM    3  C3  UNL     1     -33.488   4.902   2.568  1.00 20.00     0.004 C 
HETATM    4  C4  UNL     1     -33.090   5.443   1.200  1.00 20.00     0.003 C 
HETATM    5  C5  UNL     1     -34.175   5.976   3.407  1.00 20.00     0.055 C 
HETATM    6  C6  UNL     1     -32.029   6.532   1.334  1.00 20.00     0.042 C 
HETATM    7  C7  UNL     1     -33.404   7.271   3.439  1.00 20.00     0.154 A 
HETATM    8  C8  UNL     1     -32.356   7.577   2.369  1.00 20.00     0.102 A 
HETATM    9  C9  UNL     1     -31.309   8.629   2.583  1.00 20.00     0.050 C 
HETATM   10  O10 UNL     1     -33.682   8.102   2.290  1.00 20.00    -0.350 OA
ENDROOT
TORSDOF 0
ENDMDL
