MODEL 1
REMARK VINA RESULT:      -0.3      0.000      0.000
REMARK  1 active torsions:
REMARK  status: ('A' for Active; 'I' for Inactive)
REMARK    1  A    between atoms: C2_2  and  C6_6 
ROOT
HETATM    1  C1  UNL     1     -33.521   7.376   3.742  1.00 20.00     0.139 C 
HETATM    2  C3  UNL     1     -32.428   8.191   3.083  1.00 20.00     0.089 C 
HETATM    3  C4  UNL     1     -32.461   8.066   1.569  1.00 20.00     0.081 C 
HETATM    4  C5  UNL     1     -32.784   5.407   2.375  1.00 20.00     0.093 C 
HETATM    5  C6  UNL     1     -33.967   6.099   3.045  1.00 20.00     0.133 C 
HETATM    6  O8  UNL     1     -34.016   7.740   4.810  1.00 20.00    -0.297 OA
HETATM    7  S10 UNL     1     -32.084   6.377   0.999  1.00 20.00    -0.168 SA
ENDROOT
BRANCH   5   8
HETATM    8  C2  UNL     1     -34.614   5.132   3.990  1.00 20.00     0.135 C 
HETATM    9  C7  UNL     1     -33.843   3.881   4.312  1.00 20.00     0.091 C 
HETATM   10  O9  UNL     1     -35.722   5.351   4.479  1.00 20.00    -0.298 OA
ENDBRANCH   5   8
TORSDOF 1
ENDMDL
MODEL 2
REMARK VINA RESULT:      -0.0      2.632      4.370
REMARK  1 active torsions:
REMARK  status: ('A' for Active; 'I' for Inactive)
REMARK    1  A    between atoms: C2_2  and  C6_6 
ROOT
HETATM    1  C1  UNL     1     -33.198   6.120   2.119  1.00 20.00     0.139 C 
HETATM    2  C3  UNL     1     -33.883   5.368   3.242  1.00 20.00     0.089 C 
HETATM    3  C4  UNL     1     -34.961   6.205   3.910  1.00 20.00     0.081 C 
HETATM    4  C5  UNL     1     -32.857   8.035   3.701  1.00 20.00     0.093 C 
HETATM    5  C6  UNL     1     -33.086   7.631   2.248  1.00 20.00     0.133 C 
HETATM    6  O8  UNL     1     -32.743   5.515   1.147  1.00 20.00    -0.297 OA
HETATM    7  S10 UNL     1     -34.282   7.658   4.773  1.00 20.00    -0.168 SA
ENDROOT
BRANCH   5   8
HETATM    8  C2  UNL     1     -31.972   8.191   1.415  1.00 20.00     0.135 C 
HETATM    9  C7  UNL     1     -32.317   9.343   0.510  1.00 20.00     0.091 C 
HETATM   10  O9  UNL     1     -30.832   7.733   1.470  1.00 20.00    -0.298 OA
ENDBRANCH   5   8
TORSDOF 1
ENDMDL
MODEL 3
REMARK VINA RESULT:       1.0      1.823      2.284
REMARK  1 active torsions:
REMARK  status: ('A' for Active; 'I' for Inactive)
REMARK    1  A    between atoms: C2_2  and  C6_6 
ROOT
HETATM    1  C1  UNL     1     -33.060   6.221   1.905  1.00 20.00     0.139 C 
HETATM    2  C3  UNL     1     -32.382   7.404   1.244  1.00 20.00     0.089 C 
HETATM    3  C4  UNL     1     -31.398   8.088   2.178  1.00 20.00     0.081 C 
HETATM    4  C5  UNL     1     -33.609   7.707   3.848  1.00 20.00     0.093 C 
HETATM    5  C6  UNL     1     -33.281   6.284   3.408  1.00 20.00     0.133 C 
HETATM    6  O8  UNL     1     -33.423   5.253   1.234  1.00 20.00    -0.297 OA
HETATM    7  S10 UNL     1     -32.216   8.859   3.611  1.00 20.00    -0.168 SA
ENDROOT
BRANCH   5   8
HETATM    8  C2  UNL     1     -34.387   5.378   3.859  1.00 20.00     0.135 C 
HETATM    9  C7  UNL     1     -34.020   3.944   4.130  1.00 20.00     0.091 C 
HETATM   10  O9  UNL     1     -35.538   5.787   4.000  1.00 20.00    -0.298 OA
ENDBRANCH   5   8
TORSDOF 1
ENDMDL
MODEL 4
REMARK VINA RESULT:       1.3      1.672      3.615
REMARK  1 active torsions:
REMARK  status: ('A' for Active; 'I' for Inactive)
REMARK    1  A    between atoms: C2_2  and  C6_6 
ROOT
HETATM    1  C1  UNL     1     -34.108   7.337   3.759  1.00 20.00     0.139 C 
HETATM    2  C3  UNL     1     -35.156   6.261   3.957  1.00 20.00     0.089 C 
HETATM    3  C4  UNL     1     -34.531   4.892   4.170  1.00 20.00     0.081 C 
HETATM    4  C5  UNL     1     -33.040   5.881   2.020  1.00 20.00     0.093 C 
HETATM    5  C6  UNL     1     -32.799   6.934   3.098  1.00 20.00     0.133 C 
HETATM    6  O8  UNL     1     -34.325   8.496   4.117  1.00 20.00    -0.297 OA
HETATM    7  S10 UNL     1     -33.636   4.297   2.699  1.00 20.00    -0.168 SA
ENDROOT
BRANCH   5   8
HETATM    8  C2  UNL     1     -32.093   8.101   2.476  1.00 20.00     0.135 C 
HETATM    9  C7  UNL     1     -32.442   8.422   1.049  1.00 20.00     0.091 C 
HETATM   10  O9  UNL     1     -31.269   8.765   3.103  1.00 20.00    -0.298 OA
ENDBRANCH   5   8
TORSDOF 1
ENDMDL
MODEL 5
REMARK VINA RESULT:       1.8      2.822      3.420
REMARK  1 active torsions:
REMARK  status: ('A' for Active; 'I' for Inactive)
REMARK    1  A    between atoms: C2_2  and  C6_6 
ROOT
HETATM    1  C1  UNL     1     -32.500   7.535   2.274  1.00 20.00     0.139 C 
HETATM    2  C3  UNL     1     -33.305   8.496   3.124  1.00 20.00     0.089 C 
HETATM    3  C4  UNL     1     -33.736   7.867   4.439  1.00 20.00     0.081 C 
HETATM    4  C5  UNL     1     -34.308   5.831   2.610  1.00 20.00     0.093 C 
HETATM    5  C6  UNL     1     -32.813   6.052   2.397  1.00 20.00     0.133 C 
HETATM    6  O8  UNL     1     -31.632   7.955   1.507  1.00 20.00    -0.297 OA
HETATM    7  S10 UNL     1     -34.901   6.487   4.204  1.00 20.00    -0.168 SA
ENDROOT
BRANCH   5   8
HETATM    8  C2  UNL     1     -32.383   5.278   1.188  1.00 20.00     0.135 C 
HETATM    9  C7  UNL     1     -33.433   5.011   0.145  1.00 20.00     0.091 C 
HETATM   10  O9  UNL     1     -31.226   4.881   1.054  1.00 20.00    -0.298 OA
ENDBRANCH   5   8
TORSDOF 1
ENDMDL
MODEL 6
REMARK VINA RESULT:       2.0      1.578      2.612
REMARK  1 active torsions:
REMARK  status: ('A' for Active; 'I' for Inactive)
REMARK    1  A    between atoms: C2_2  and  C6_6 
ROOT
HETATM    1  C1  UNL     1     -33.143   5.806   2.607  1.00 20.00     0.139 C 
HETATM    2  C3  UNL     1     -32.480   5.675   1.251  1.00 20.00     0.089 C 
HETATM    3  C4  UNL     1     -31.330   6.653   1.085  1.00 20.00     0.081 C 
HETATM    4  C5  UNL     1     -33.309   8.276   2.211  1.00 20.00     0.093 C 
HETATM    5  C6  UNL     1     -33.148   7.180   3.260  1.00 20.00     0.133 C 
HETATM    6  O8  UNL     1     -33.665   4.829   3.146  1.00 20.00    -0.297 OA
HETATM    7  S10 UNL     1     -31.883   8.388   1.081  1.00 20.00    -0.168 SA
ENDROOT
BRANCH   5   8
HETATM    8  C2  UNL     1     -34.243   7.324   4.273  1.00 20.00     0.135 C 
HETATM    9  C7  UNL     1     -35.489   6.513   4.044  1.00 20.00     0.091 C 
HETATM   10  O9  UNL     1     -34.128   8.068   5.247  1.00 20.00    -0.298 OA
ENDBRANCH   5   8
TORSDOF 1
ENDMDL
MODEL 7
REMARK VINA RESULT:       2.3      1.499      2.672
REMARK  1 active torsions:
REMARK  status: ('A' for Active; 'I' for Inactive)
REMARK    1  A    between atoms: C2_2  and  C6_6 
ROOT
HETATM    1  C1  UNL     1     -33.289   5.662   2.633  1.00 20.00     0.139 C 
HETATM    2  C3  UNL     1     -32.652   5.422   1.280  1.00 20.00     0.089 C 
HETATM    3  C4  UNL     1     -31.406   6.269   1.080  1.00 20.00     0.081 C 
HETATM    4  C5  UNL     1     -33.196   8.124   2.164  1.00 20.00     0.093 C 
HETATM    5  C6  UNL     1     -33.145   7.048   3.245  1.00 20.00     0.133 C 
HETATM    6  O8  UNL     1     -33.906   4.762   3.203  1.00 20.00    -0.297 OA
HETATM    7  S10 UNL     1     -31.774   8.052   1.025  1.00 20.00    -0.168 SA
ENDROOT
BRANCH   5   8
HETATM    8  C2  UNL     1     -34.212   7.336   4.257  1.00 20.00     0.135 C 
HETATM    9  C7  UNL     1     -33.858   8.295   5.360  1.00 20.00     0.091 C 
HETATM   10  O9  UNL     1     -35.324   6.814   4.188  1.00 20.00    -0.298 OA
ENDBRANCH   5   8
TORSDOF 1
ENDMDL
MODEL 8
REMARK VINA RESULT:       2.4      1.491      1.866
REMARK  1 active torsions:
REMARK  status: ('A' for Active; 'I' for Inactive)
REMARK    1  A    between atoms: C2_2  and  C6_6 
ROOT
HETATM    1  C1  UNL     1     -32.372   7.949   2.935  1.00 20.00     0.139 C 
HETATM    2  C3  UNL     1     -31.286   7.684   1.912  1.00 20.00     0.089 C 
HETATM    3  C4  UNL     1     -31.860   7.241   0.577  1.00 20.00     0.081 C 
HETATM    4  C5  UNL     1     -33.344   5.705   2.382  1.00 20.00     0.093 C 
HETATM    5  C6  UNL     1     -33.649   7.129   2.836  1.00 20.00     0.133 C 
HETATM    6  O8  UNL     1     -32.209   8.793   3.817  1.00 20.00    -0.297 OA
HETATM    7  S10 UNL     1     -32.699   5.627   0.679  1.00 20.00    -0.168 SA
ENDROOT
BRANCH   5   8
HETATM    8  C2  UNL     1     -34.388   7.068   4.138  1.00 20.00     0.135 C 
HETATM    9  C7  UNL     1     -35.380   5.948   4.303  1.00 20.00     0.091 C 
HETATM   10  O9  UNL     1     -34.193   7.893   5.030  1.00 20.00    -0.298 OA
ENDBRANCH   5   8
TORSDOF 1
ENDMDL
MODEL 9
REMARK VINA RESULT:       2.6      2.569      4.060
REMARK  1 active torsions:
REMARK  status: ('A' for Active; 'I' for Inactive)
REMARK    1  A    between atoms: C2_2  and  C6_6 
ROOT
HETATM    1  C1  UNL     1     -33.550   5.133   2.864  1.00 20.00     0.139 C 
HETATM    2  C3  UNL     1     -34.379   4.983   4.123  1.00 20.00     0.089 C 
HETATM    3  C4  UNL     1     -35.419   6.083   4.252  1.00 20.00     0.081 C 
HETATM    4  C5  UNL     1     -33.145   7.525   3.497  1.00 20.00     0.093 C 
HETATM    5  C6  UNL     1     -33.308   6.541   2.342  1.00 20.00     0.133 C 
HETATM    6  O8  UNL     1     -33.086   4.142   2.298  1.00 20.00    -0.297 OA
HETATM    7  S10 UNL     1     -34.672   7.729   4.473  1.00 20.00    -0.168 SA
ENDROOT
BRANCH   5   8
HETATM    8  C2  UNL     1     -32.091   6.623   1.470  1.00 20.00     0.135 C 
HETATM    9  C7  UNL     1     -31.540   7.997   1.204  1.00 20.00     0.091 C 
HETATM   10  O9  UNL     1     -31.569   5.615   0.995  1.00 20.00    -0.298 OA
ENDBRANCH   5   8
TORSDOF 1
ENDMDL
