MODEL 1
REMARK VINA RESULT:      -1.5      0.000      0.000
REMARK  1 active torsions:
REMARK  status: ('A' for Active; 'I' for Inactive)
REMARK    1  A    between atoms: C4_4  and  C6_6 
ROOT
HETATM    1  C1  UNL     1     -35.425   5.974   4.341  1.00 20.00     0.009 A 
HETATM    2  C2  UNL     1     -35.028   4.757   4.723  1.00 20.00     0.082 A 
HETATM    3  C3  UNL     1     -34.732   6.683   3.305  1.00 20.00     0.037 A 
HETATM    4  C4  UNL     1     -33.677   6.098   2.727  1.00 20.00     0.079 A 
HETATM    5  C5  UNL     1     -33.861   4.115   4.082  1.00 20.00     0.288 A 
HETATM    6  O10 UNL     1     -33.493   2.998   4.429  1.00 20.00    -0.260 OA
HETATM    7  O11 UNL     1     -33.220   4.818   3.095  1.00 20.00    -0.276 OA
ENDROOT
BRANCH   4   8
HETATM    8  C6  UNL     1     -32.895   6.724   1.660  1.00 20.00     0.039 C 
HETATM    9  C7  UNL     1     -32.131   7.819   1.810  1.00 20.00    -0.085 C 
HETATM   10  C8  UNL     1     -31.315   8.489   0.740  1.00 20.00     0.043 C 
HETATM   11  C9  UNL     1     -32.041   8.490   3.157  1.00 20.00     0.043 C 
ENDBRANCH   4   8
TORSDOF 1
ENDMDL
MODEL 2
REMARK VINA RESULT:      -0.2      1.851      3.022
REMARK  1 active torsions:
REMARK  status: ('A' for Active; 'I' for Inactive)
REMARK    1  A    between atoms: C4_4  and  C6_6 
ROOT
HETATM    1  C1  UNL     1     -32.481   5.457   1.724  1.00 20.00     0.009 A 
HETATM    2  C2  UNL     1     -33.456   5.250   2.614  1.00 20.00     0.082 A 
HETATM    3  C3  UNL     1     -32.038   6.785   1.414  1.00 20.00     0.037 A 
HETATM    4  C4  UNL     1     -32.622   7.814   2.037  1.00 20.00     0.079 A 
HETATM    5  C5  UNL     1     -34.098   6.390   3.300  1.00 20.00     0.288 A 
HETATM    6  O10 UNL     1     -34.994   6.205   4.118  1.00 20.00    -0.260 OA
HETATM    7  O11 UNL     1     -33.653   7.647   2.982  1.00 20.00    -0.276 OA
ENDROOT
BRANCH   4   8
HETATM    8  C6  UNL     1     -32.252   9.211   1.803  1.00 20.00     0.039 C 
HETATM    9  C7  UNL     1     -32.328   9.836   0.617  1.00 20.00    -0.085 C 
HETATM   10  C8  UNL     1     -31.958  11.267   0.338  1.00 20.00     0.043 C 
HETATM   11  C9  UNL     1     -32.823   9.086  -0.594  1.00 20.00     0.043 C 
ENDBRANCH   4   8
TORSDOF 1
ENDMDL
MODEL 3
REMARK VINA RESULT:      -0.1      1.983      2.771
REMARK  1 active torsions:
REMARK  status: ('A' for Active; 'I' for Inactive)
REMARK    1  A    between atoms: C4_4  and  C6_6 
ROOT
HETATM    1  C1  UNL     1     -32.857   8.435   4.906  1.00 20.00     0.009 A 
HETATM    2  C2  UNL     1     -33.945   7.662   4.958  1.00 20.00     0.082 A 
HETATM    3  C3  UNL     1     -32.112   8.576   3.688  1.00 20.00     0.037 A 
HETATM    4  C4  UNL     1     -32.532   7.915   2.604  1.00 20.00     0.079 A 
HETATM    5  C5  UNL     1     -34.405   6.934   3.757  1.00 20.00     0.288 A 
HETATM    6  O10 UNL     1     -35.404   6.223   3.801  1.00 20.00    -0.260 OA
HETATM    7  O11 UNL     1     -33.672   7.089   2.609  1.00 20.00    -0.276 OA
ENDROOT
BRANCH   4   8
HETATM    8  C6  UNL     1     -31.855   7.984   1.308  1.00 20.00     0.039 C 
HETATM    9  C7  UNL     1     -31.947   9.011   0.447  1.00 20.00    -0.085 C 
HETATM   10  C8  UNL     1     -31.268   9.118  -0.889  1.00 20.00     0.043 C 
HETATM   11  C9  UNL     1     -32.801  10.205   0.797  1.00 20.00     0.043 C 
ENDBRANCH   4   8
TORSDOF 1
ENDMDL
MODEL 4
REMARK VINA RESULT:      -0.1      1.716      4.344
REMARK  1 active torsions:
REMARK  status: ('A' for Active; 'I' for Inactive)
REMARK    1  A    between atoms: C4_4  and  C6_6 
ROOT
HETATM    1  C1  UNL     1     -34.470   7.426   4.009  1.00 20.00     0.009 A 
HETATM    2  C2  UNL     1     -33.572   7.907   3.145  1.00 20.00     0.082 A 
HETATM    3  C3  UNL     1     -34.631   6.012   4.191  1.00 20.00     0.037 A 
HETATM    4  C4  UNL     1     -33.862   5.185   3.474  1.00 20.00     0.079 A 
HETATM    5  C5  UNL     1     -32.725   6.990   2.356  1.00 20.00     0.288 A 
HETATM    6  O10 UNL     1     -31.899   7.428   1.561  1.00 20.00    -0.260 OA
HETATM    7  O11 UNL     1     -32.903   5.645   2.551  1.00 20.00    -0.276 OA
ENDROOT
BRANCH   4   8
HETATM    8  C6  UNL     1     -33.936   3.727   3.576  1.00 20.00     0.039 C 
HETATM    9  C7  UNL     1     -33.312   2.991   4.511  1.00 20.00    -0.085 C 
HETATM   10  C8  UNL     1     -33.365   1.495   4.648  1.00 20.00     0.043 C 
HETATM   11  C9  UNL     1     -32.460   3.671   5.553  1.00 20.00     0.043 C 
ENDBRANCH   4   8
TORSDOF 1
ENDMDL
MODEL 5
REMARK VINA RESULT:       0.3      2.171      2.763
REMARK  1 active torsions:
REMARK  status: ('A' for Active; 'I' for Inactive)
REMARK    1  A    between atoms: C4_4  and  C6_6 
ROOT
HETATM    1  C1  UNL     1     -34.228   5.613   2.940  1.00 20.00     0.009 A 
HETATM    2  C2  UNL     1     -34.496   6.390   3.993  1.00 20.00     0.082 A 
HETATM    3  C3  UNL     1     -33.260   6.011   1.959  1.00 20.00     0.037 A 
HETATM    4  C4  UNL     1     -32.631   7.180   2.122  1.00 20.00     0.079 A 
HETATM    5  C5  UNL     1     -33.797   7.680   4.169  1.00 20.00     0.288 A 
HETATM    6  O10 UNL     1     -34.041   8.397   5.135  1.00 20.00    -0.260 OA
HETATM    7  O11 UNL     1     -32.879   8.033   3.215  1.00 20.00    -0.276 OA
ENDROOT
BRANCH   4   8
HETATM    8  C6  UNL     1     -31.624   7.688   1.189  1.00 20.00     0.039 C 
HETATM    9  C7  UNL     1     -31.726   8.838   0.502  1.00 20.00    -0.085 C 
HETATM   10  C8  UNL     1     -30.716   9.393  -0.463  1.00 20.00     0.043 C 
HETATM   11  C9  UNL     1     -32.951   9.703   0.669  1.00 20.00     0.043 C 
ENDBRANCH   4   8
TORSDOF 1
ENDMDL
MODEL 6
REMARK VINA RESULT:       0.5      1.410      1.975
REMARK  1 active torsions:
REMARK  status: ('A' for Active; 'I' for Inactive)
REMARK    1  A    between atoms: C4_4  and  C6_6 
ROOT
HETATM    1  C1  UNL     1     -33.256   3.856   3.657  1.00 20.00     0.009 A 
HETATM    2  C2  UNL     1     -34.298   4.347   4.333  1.00 20.00     0.082 A 
HETATM    3  C3  UNL     1     -32.629   4.619   2.617  1.00 20.00     0.037 A 
HETATM    4  C4  UNL     1     -33.112   5.835   2.338  1.00 20.00     0.079 A 
HETATM    5  C5  UNL     1     -34.828   5.691   4.022  1.00 20.00     0.288 A 
HETATM    6  O10 UNL     1     -35.785   6.145   4.641  1.00 20.00    -0.260 OA
HETATM    7  O11 UNL     1     -34.207   6.395   3.023  1.00 20.00    -0.276 OA
ENDROOT
BRANCH   4   8
HETATM    8  C6  UNL     1     -32.553   6.704   1.301  1.00 20.00     0.039 C 
HETATM    9  C7  UNL     1     -32.022   7.918   1.522  1.00 20.00    -0.085 C 
HETATM   10  C8  UNL     1     -31.440   8.838   0.485  1.00 20.00     0.043 C 
HETATM   11  C9  UNL     1     -31.978   8.471   2.924  1.00 20.00     0.043 C 
ENDBRANCH   4   8
TORSDOF 1
ENDMDL
MODEL 7
REMARK VINA RESULT:       0.8      2.014      2.852
REMARK  1 active torsions:
REMARK  status: ('A' for Active; 'I' for Inactive)
REMARK    1  A    between atoms: C4_4  and  C6_6 
ROOT
HETATM    1  C1  UNL     1     -33.970   6.233   3.354  1.00 20.00     0.009 A 
HETATM    2  C2  UNL     1     -33.362   5.278   2.645  1.00 20.00     0.082 A 
HETATM    3  C3  UNL     1     -33.666   7.617   3.135  1.00 20.00     0.037 A 
HETATM    4  C4  UNL     1     -32.761   7.932   2.203  1.00 20.00     0.079 A 
HETATM    5  C5  UNL     1     -32.363   5.630   1.615  1.00 20.00     0.288 A 
HETATM    6  O10 UNL     1     -31.803   4.756   0.961  1.00 20.00    -0.260 OA
HETATM    7  O11 UNL     1     -32.095   6.962   1.429  1.00 20.00    -0.276 OA
ENDROOT
BRANCH   4   8
HETATM    8  C6  UNL     1     -32.373   9.308   1.890  1.00 20.00     0.039 C 
HETATM    9  C7  UNL     1     -32.385   9.849   0.660  1.00 20.00    -0.085 C 
HETATM   10  C8  UNL     1     -31.995  11.255   0.301  1.00 20.00     0.043 C 
HETATM   11  C9  UNL     1     -32.820   9.015  -0.519  1.00 20.00     0.043 C 
ENDBRANCH   4   8
TORSDOF 1
ENDMDL
MODEL 8
REMARK VINA RESULT:       0.9      1.399      4.337
REMARK  1 active torsions:
REMARK  status: ('A' for Active; 'I' for Inactive)
REMARK    1  A    between atoms: C4_4  and  C6_6 
ROOT
HETATM    1  C1  UNL     1     -31.956   8.155   1.945  1.00 20.00     0.009 A 
HETATM    2  C2  UNL     1     -31.529   7.184   1.133  1.00 20.00     0.082 A 
HETATM    3  C3  UNL     1     -33.025   7.921   2.872  1.00 20.00     0.037 A 
HETATM    4  C4  UNL     1     -33.586   6.707   2.907  1.00 20.00     0.079 A 
HETATM    5  C5  UNL     1     -32.151   5.845   1.175  1.00 20.00     0.288 A 
HETATM    6  O10 UNL     1     -31.761   4.951   0.431  1.00 20.00    -0.260 OA
HETATM    7  O11 UNL     1     -33.170   5.653   2.072  1.00 20.00    -0.276 OA
ENDROOT
BRANCH   4   8
HETATM    8  C6  UNL     1     -34.680   6.352   3.811  1.00 20.00     0.039 C 
HETATM    9  C7  UNL     1     -34.840   5.148   4.387  1.00 20.00    -0.085 C 
HETATM   10  C8  UNL     1     -35.948   4.747   5.319  1.00 20.00     0.043 C 
HETATM   11  C9  UNL     1     -33.845   4.049   4.109  1.00 20.00     0.043 C 
ENDBRANCH   4   8
TORSDOF 1
ENDMDL
MODEL 9
REMARK VINA RESULT:       1.1      2.507      5.132
REMARK  1 active torsions:
REMARK  status: ('A' for Active; 'I' for Inactive)
REMARK    1  A    between atoms: C4_4  and  C6_6 
ROOT
HETATM    1  C1  UNL     1     -30.765   7.898   0.904  1.00 20.00     0.009 A 
HETATM    2  C2  UNL     1     -31.216   9.104   0.547  1.00 20.00     0.082 A 
HETATM    3  C3  UNL     1     -31.624   6.956   1.561  1.00 20.00     0.037 A 
HETATM    4  C4  UNL     1     -32.889   7.312   1.809  1.00 20.00     0.079 A 
HETATM    5  C5  UNL     1     -32.615   9.492   0.822  1.00 20.00     0.288 A 
HETATM    6  O10 UNL     1     -33.034  10.598   0.495  1.00 20.00    -0.260 OA
HETATM    7  O11 UNL     1     -33.411   8.570   1.452  1.00 20.00    -0.276 OA
ENDROOT
BRANCH   4   8
HETATM    8  C6  UNL     1     -33.856   6.435   2.471  1.00 20.00     0.039 C 
HETATM    9  C7  UNL     1     -34.366   6.641   3.696  1.00 20.00    -0.085 C 
HETATM   10  C8  UNL     1     -35.359   5.765   4.408  1.00 20.00     0.043 C 
HETATM   11  C9  UNL     1     -33.940   7.852   4.489  1.00 20.00     0.043 C 
ENDBRANCH   4   8
TORSDOF 1
ENDMDL
