MODEL 1
REMARK VINA RESULT:      -2.0      0.000      0.000
REMARK  0 active torsions:
REMARK  status: ('A' for Active; 'I' for Inactive)
ROOT
HETATM    1  C1  UNL     1     -34.091   6.375   3.659  1.00 20.00     0.012 C 
HETATM    2  C2  UNL     1     -33.873   7.830   3.230  1.00 20.00     0.077 C 
HETATM    3  C3  UNL     1     -33.445   5.323   2.737  1.00 20.00     0.082 C 
HETATM    4  C4  UNL     1     -31.862   7.038   1.879  1.00 20.00     0.264 A 
HETATM    5  C5  UNL     1     -32.458   8.051   2.811  1.00 20.00     0.237 A 
HETATM    6  C6  UNL     1     -32.749   5.901   1.512  1.00 20.00     0.274 C 
HETATM    7  O7  UNL     1     -32.265   8.331   1.419  1.00 20.00    -0.332 OA
HETATM    8  F8  UNL     1     -31.598   8.668   3.705  1.00 20.00    -0.209 F 
HETATM    9  F9  UNL     1     -33.683   6.304   0.611  1.00 20.00    -0.203 F 
HETATM   10  F10 UNL     1     -32.023   4.930   0.902  1.00 20.00    -0.203 F 
ENDROOT
TORSDOF 0
ENDMDL
MODEL 2
REMARK VINA RESULT:      -1.3      1.933      2.949
REMARK  0 active torsions:
REMARK  status: ('A' for Active; 'I' for Inactive)
ROOT
HETATM    1  C1  UNL     1     -32.521   8.228   3.222  1.00 20.00     0.012 C 
HETATM    2  C2  UNL     1     -32.509   7.723   1.775  1.00 20.00     0.077 C 
HETATM    3  C3  UNL     1     -33.509   7.501   4.154  1.00 20.00     0.082 C 
HETATM    4  C4  UNL     1     -33.526   5.545   2.620  1.00 20.00     0.264 A 
HETATM    5  C5  UNL     1     -32.527   6.232   1.736  1.00 20.00     0.237 A 
HETATM    6  C6  UNL     1     -34.359   6.439   3.468  1.00 20.00     0.274 C 
HETATM    7  O7  UNL     1     -33.723   5.646   1.207  1.00 20.00    -0.332 OA
HETATM    8  F8  UNL     1     -31.336   5.567   1.494  1.00 20.00    -0.209 F 
HETATM    9  F9  UNL     1     -35.315   7.045   2.716  1.00 20.00    -0.203 F 
HETATM   10  F10 UNL     1     -35.014   5.707   4.404  1.00 20.00    -0.203 F 
ENDROOT
TORSDOF 0
ENDMDL
MODEL 3
REMARK VINA RESULT:      -1.2      1.938      2.660
REMARK  0 active torsions:
REMARK  status: ('A' for Active; 'I' for Inactive)
ROOT
HETATM    1  C1  UNL     1     -32.434   8.138   2.462  1.00 20.00     0.012 C 
HETATM    2  C2  UNL     1     -32.944   7.487   3.751  1.00 20.00     0.077 C 
HETATM    3  C3  UNL     1     -32.294   7.181   1.262  1.00 20.00     0.082 C 
HETATM    4  C4  UNL     1     -33.909   5.613   2.318  1.00 20.00     0.264 A 
HETATM    5  C5  UNL     1     -34.082   6.567   3.464  1.00 20.00     0.237 A 
HETATM    6  C6  UNL     1     -32.626   5.728   1.574  1.00 20.00     0.274 C 
HETATM    7  O7  UNL     1     -33.817   5.175   3.677  1.00 20.00    -0.332 OA
HETATM    8  F8  UNL     1     -35.368   7.013   3.723  1.00 20.00    -0.209 F 
HETATM    9  F9  UNL     1     -31.612   5.178   2.294  1.00 20.00    -0.203 F 
HETATM   10  F10 UNL     1     -32.700   5.021   0.417  1.00 20.00    -0.203 F 
ENDROOT
TORSDOF 0
ENDMDL
MODEL 4
REMARK VINA RESULT:      -1.1      1.522      3.247
REMARK  0 active torsions:
REMARK  status: ('A' for Active; 'I' for Inactive)
ROOT
HETATM    1  C1  UNL     1     -34.413   4.932   3.837  1.00 20.00     0.012 C 
HETATM    2  C2  UNL     1     -33.045   4.909   3.145  1.00 20.00     0.077 C 
HETATM    3  C3  UNL     1     -34.989   6.338   4.090  1.00 20.00     0.082 C 
HETATM    4  C4  UNL     1     -33.534   7.262   2.298  1.00 20.00     0.264 A 
HETATM    5  C5  UNL     1     -33.007   5.886   2.018  1.00 20.00     0.237 A 
HETATM    6  C6  UNL     1     -34.073   7.480   3.667  1.00 20.00     0.274 C 
HETATM    7  O7  UNL     1     -32.130   7.004   2.202  1.00 20.00    -0.332 OA
HETATM    8  F8  UNL     1     -33.156   5.404   0.728  1.00 20.00    -0.209 F 
HETATM    9  F9  UNL     1     -33.056   7.596   4.562  1.00 20.00    -0.203 F 
HETATM   10  F10 UNL     1     -34.757   8.651   3.712  1.00 20.00    -0.203 F 
ENDROOT
TORSDOF 0
ENDMDL
MODEL 5
REMARK VINA RESULT:      -0.7      1.889      3.093
REMARK  0 active torsions:
REMARK  status: ('A' for Active; 'I' for Inactive)
ROOT
HETATM    1  C1  UNL     1     -32.425   5.774   1.222  1.00 20.00     0.012 C 
HETATM    2  C2  UNL     1     -33.877   5.842   1.708  1.00 20.00     0.077 C 
HETATM    3  C3  UNL     1     -31.519   6.916   1.724  1.00 20.00     0.082 C 
HETATM    4  C4  UNL     1     -33.076   7.325   3.619  1.00 20.00     0.264 A 
HETATM    5  C5  UNL     1     -33.933   6.183   3.159  1.00 20.00     0.237 A 
HETATM    6  C6  UNL     1     -32.234   7.961   2.571  1.00 20.00     0.274 C 
HETATM    7  O7  UNL     1     -34.491   7.466   3.468  1.00 20.00    -0.332 OA
HETATM    8  F8  UNL     1     -34.159   5.159   4.065  1.00 20.00    -0.209 F 
HETATM    9  F9  UNL     1     -32.997   8.748   1.766  1.00 20.00    -0.203 F 
HETATM   10  F10 UNL     1     -31.318   8.779   3.149  1.00 20.00    -0.203 F 
ENDROOT
TORSDOF 0
ENDMDL
MODEL 6
REMARK VINA RESULT:      -0.7      2.305      3.786
REMARK  0 active torsions:
REMARK  status: ('A' for Active; 'I' for Inactive)
ROOT
HETATM    1  C1  UNL     1     -32.426   6.997   2.049  1.00 20.00     0.012 C 
HETATM    2  C2  UNL     1     -33.633   6.063   1.914  1.00 20.00     0.077 C 
HETATM    3  C3  UNL     1     -32.491   7.973   3.240  1.00 20.00     0.082 C 
HETATM    4  C4  UNL     1     -34.123   6.483   4.379  1.00 20.00     0.264 A 
HETATM    5  C5  UNL     1     -34.024   5.508   3.243  1.00 20.00     0.237 A 
HETATM    6  C6  UNL     1     -33.778   7.892   4.051  1.00 20.00     0.274 C 
HETATM    7  O7  UNL     1     -35.290   5.952   3.746  1.00 20.00    -0.332 OA
HETATM    8  F8  UNL     1     -33.637   4.215   3.553  1.00 20.00    -0.209 F 
HETATM    9  F9  UNL     1     -34.788   8.475   3.353  1.00 20.00    -0.203 F 
HETATM   10  F10 UNL     1     -33.639   8.610   5.195  1.00 20.00    -0.203 F 
ENDROOT
TORSDOF 0
ENDMDL
MODEL 7
REMARK VINA RESULT:      -0.7      1.830      2.916
REMARK  0 active torsions:
REMARK  status: ('A' for Active; 'I' for Inactive)
ROOT
HETATM    1  C1  UNL     1     -33.132   5.688   1.758  1.00 20.00     0.012 C 
HETATM    2  C2  UNL     1     -31.802   6.448   1.707  1.00 20.00     0.077 C 
HETATM    3  C3  UNL     1     -34.149   6.230   2.781  1.00 20.00     0.082 C 
HETATM    4  C4  UNL     1     -32.996   8.432   2.771  1.00 20.00     0.264 A 
HETATM    5  C5  UNL     1     -32.034   7.921   1.739  1.00 20.00     0.237 A 
HETATM    6  C6  UNL     1     -33.641   7.395   3.620  1.00 20.00     0.274 C 
HETATM    7  O7  UNL     1     -31.583   8.589   2.924  1.00 20.00    -0.332 OA
HETATM    8  F8  UNL     1     -31.955   8.624   0.548  1.00 20.00    -0.209 F 
HETATM    9  F9  UNL     1     -32.761   6.931   4.547  1.00 20.00    -0.203 F 
HETATM   10  F10 UNL     1     -34.673   7.942   4.311  1.00 20.00    -0.203 F 
ENDROOT
TORSDOF 0
ENDMDL
MODEL 8
REMARK VINA RESULT:      -0.6      1.223      3.066
REMARK  0 active torsions:
REMARK  status: ('A' for Active; 'I' for Inactive)
ROOT
HETATM    1  C1  UNL     1     -34.284   6.645   3.484  1.00 20.00     0.012 C 
HETATM    2  C2  UNL     1     -33.297   5.543   3.083  1.00 20.00     0.077 C 
HETATM    3  C3  UNL     1     -33.894   8.063   3.025  1.00 20.00     0.082 C 
HETATM    4  C4  UNL     1     -32.443   7.097   1.253  1.00 20.00     0.264 A 
HETATM    5  C5  UNL     1     -32.858   5.716   1.668  1.00 20.00     0.237 A 
HETATM    6  C6  UNL     1     -32.557   8.146   2.302  1.00 20.00     0.274 C 
HETATM    7  O7  UNL     1     -31.480   6.066   1.490  1.00 20.00    -0.332 OA
HETATM    8  F8  UNL     1     -33.438   4.914   0.699  1.00 20.00    -0.209 F 
HETATM    9  F9  UNL     1     -31.548   8.023   3.204  1.00 20.00    -0.203 F 
HETATM   10  F10 UNL     1     -32.420   9.375   1.740  1.00 20.00    -0.203 F 
ENDROOT
TORSDOF 0
ENDMDL
MODEL 9
REMARK VINA RESULT:       0.7      1.705      3.413
REMARK  0 active torsions:
REMARK  status: ('A' for Active; 'I' for Inactive)
ROOT
HETATM    1  C1  UNL     1     -31.833   8.171   1.186  1.00 20.00     0.012 C 
HETATM    2  C2  UNL     1     -32.663   6.971   0.717  1.00 20.00     0.077 C 
HETATM    3  C3  UNL     1     -32.010   8.541   2.671  1.00 20.00     0.082 C 
HETATM    4  C4  UNL     1     -32.823   6.242   3.154  1.00 20.00     0.264 A 
HETATM    5  C5  UNL     1     -32.606   5.866   1.718  1.00 20.00     0.237 A 
HETATM    6  C6  UNL     1     -33.032   7.691   3.416  1.00 20.00     0.274 C 
HETATM    7  O7  UNL     1     -33.839   5.583   2.392  1.00 20.00    -0.332 OA
HETATM    8  F8  UNL     1     -31.762   4.796   1.467  1.00 20.00    -0.209 F 
HETATM    9  F9  UNL     1     -34.285   8.063   3.041  1.00 20.00    -0.203 F 
HETATM   10  F10 UNL     1     -32.942   7.936   4.748  1.00 20.00    -0.203 F 
ENDROOT
TORSDOF 0
ENDMDL
