MODEL 1
REMARK VINA RESULT:      -2.5      0.000      0.000
REMARK  1 active torsions:
REMARK  status: ('A' for Active; 'I' for Inactive)
REMARK    1  A    between atoms: C1_1  and  C2_2 
ROOT
HETATM    1  C2  UNL     1     -34.153   7.148   2.618  1.00 20.00     0.154 A 
HETATM    2  C3  UNL     1     -34.170   7.697   4.035  1.00 20.00     0.073 A 
HETATM    3  C4  UNL     1     -34.715   6.345   3.741  1.00 20.00     0.259 A 
HETATM    4  C5  UNL     1     -32.927   7.844   4.843  1.00 20.00     0.017 C 
HETATM    5  F7  UNL     1     -36.069   6.111   3.817  1.00 20.00    -0.205 F 
HETATM    6  F8  UNL     1     -34.078   5.210   4.189  1.00 20.00    -0.205 F 
ENDROOT
BRANCH   1   7
HETATM    7  C1  UNL     1     -32.893   6.739   1.988  1.00 20.00     0.229 C 
HETATM    8  O6  UNL     1     -32.643   5.559   1.753  1.00 20.00    -0.279 OA
HETATM    9 CL9  UNL     1     -31.863   8.094   1.644  1.00 20.00    -0.043 Cl
ENDBRANCH   1   7
TORSDOF 1
ENDMDL
MODEL 2
REMARK VINA RESULT:      -2.2      3.108      3.761
REMARK  1 active torsions:
REMARK  status: ('A' for Active; 'I' for Inactive)
REMARK    1  A    between atoms: C1_1  and  C2_2 
ROOT
HETATM    1  C2  UNL     1     -33.596   7.682   2.298  1.00 20.00     0.154 A 
HETATM    2  C3  UNL     1     -32.858   6.705   1.397  1.00 20.00     0.073 A 
HETATM    3  C4  UNL     1     -32.231   7.996   1.786  1.00 20.00     0.259 A 
HETATM    4  C5  UNL     1     -32.303   5.420   1.909  1.00 20.00     0.017 C 
HETATM    5  F7  UNL     1     -32.053   8.991   0.851  1.00 20.00    -0.205 F 
HETATM    6  F8  UNL     1     -31.147   8.033   2.633  1.00 20.00    -0.205 F 
ENDROOT
BRANCH   1   7
HETATM    7  C1  UNL     1     -33.789   7.388   3.722  1.00 20.00     0.229 C 
HETATM    8  O6  UNL     1     -33.064   7.876   4.586  1.00 20.00    -0.279 OA
HETATM    9 CL9  UNL     1     -35.122   6.307   3.992  1.00 20.00    -0.043 Cl
ENDBRANCH   1   7
TORSDOF 1
ENDMDL
MODEL 3
REMARK VINA RESULT:      -1.6      2.509      3.307
REMARK  1 active torsions:
REMARK  status: ('A' for Active; 'I' for Inactive)
REMARK    1  A    between atoms: C1_1  and  C2_2 
ROOT
HETATM    1  C2  UNL     1     -32.683   6.519   2.880  1.00 20.00     0.154 A 
HETATM    2  C3  UNL     1     -32.000   7.374   1.825  1.00 20.00     0.073 A 
HETATM    3  C4  UNL     1     -32.663   6.098   1.450  1.00 20.00     0.259 A 
HETATM    4  C5  UNL     1     -32.568   8.674   1.370  1.00 20.00     0.017 C 
HETATM    5  F7  UNL     1     -31.911   5.014   1.056  1.00 20.00    -0.205 F 
HETATM    6  F8  UNL     1     -33.816   6.090   0.697  1.00 20.00    -0.205 F 
ENDROOT
BRANCH   1   7
HETATM    7  C1  UNL     1     -33.942   6.951   3.495  1.00 20.00     0.229 C 
HETATM    8  O6  UNL     1     -35.021   6.462   3.168  1.00 20.00    -0.279 OA
HETATM    9 CL9  UNL     1     -33.697   8.190   4.687  1.00 20.00    -0.043 Cl
ENDBRANCH   1   7
TORSDOF 1
ENDMDL
MODEL 4
REMARK VINA RESULT:      -1.1      1.711      2.315
REMARK  1 active torsions:
REMARK  status: ('A' for Active; 'I' for Inactive)
REMARK    1  A    between atoms: C1_1  and  C2_2 
ROOT
HETATM    1  C2  UNL     1     -33.269   6.599   3.544  1.00 20.00     0.154 A 
HETATM    2  C3  UNL     1     -34.699   6.494   4.046  1.00 20.00     0.073 A 
HETATM    3  C4  UNL     1     -33.948   7.771   4.165  1.00 20.00     0.259 A 
HETATM    4  C5  UNL     1     -35.860   6.393   3.116  1.00 20.00     0.017 C 
HETATM    5  F7  UNL     1     -33.550   8.229   5.401  1.00 20.00    -0.205 F 
HETATM    6  F8  UNL     1     -34.292   8.872   3.413  1.00 20.00    -0.205 F 
ENDROOT
BRANCH   1   7
HETATM    7  C1  UNL     1     -32.977   6.603   2.107  1.00 20.00     0.229 C 
HETATM    8  O6  UNL     1     -33.261   5.648   1.388  1.00 20.00    -0.279 OA
HETATM    9 CL9  UNL     1     -32.211   8.077   1.599  1.00 20.00    -0.043 Cl
ENDBRANCH   1   7
TORSDOF 1
ENDMDL
MODEL 5
REMARK VINA RESULT:      -0.7      2.482      2.853
REMARK  1 active torsions:
REMARK  status: ('A' for Active; 'I' for Inactive)
REMARK    1  A    between atoms: C1_1  and  C2_2 
ROOT
HETATM    1  C2  UNL     1     -33.021   7.192   1.078  1.00 20.00     0.154 A 
HETATM    2  C3  UNL     1     -33.783   6.414   2.137  1.00 20.00     0.073 A 
HETATM    3  C4  UNL     1     -32.653   5.785   1.405  1.00 20.00     0.259 A 
HETATM    4  C5  UNL     1     -33.656   6.718   3.591  1.00 20.00     0.017 C 
HETATM    5  F7  UNL     1     -32.888   4.778   0.496  1.00 20.00    -0.205 F 
HETATM    6  F8  UNL     1     -31.468   5.492   2.042  1.00 20.00    -0.205 F 
ENDROOT
BRANCH   1   7
HETATM    7  C1  UNL     1     -32.121   8.287   1.457  1.00 20.00     0.229 C 
HETATM    8  O6  UNL     1     -31.260   8.145   2.321  1.00 20.00    -0.279 OA
HETATM    9 CL9  UNL     1     -32.435   9.735   0.551  1.00 20.00    -0.043 Cl
ENDBRANCH   1   7
TORSDOF 1
ENDMDL
MODEL 6
REMARK VINA RESULT:      -0.5      2.746      3.122
REMARK  1 active torsions:
REMARK  status: ('A' for Active; 'I' for Inactive)
REMARK    1  A    between atoms: C1_1  and  C2_2 
ROOT
HETATM    1  C2  UNL     1     -33.589   6.562   1.992  1.00 20.00     0.154 A 
HETATM    2  C3  UNL     1     -33.828   5.148   2.493  1.00 20.00     0.073 A 
HETATM    3  C4  UNL     1     -32.803   5.417   1.450  1.00 20.00     0.259 A 
HETATM    4  C5  UNL     1     -33.412   4.708   3.855  1.00 20.00     0.017 C 
HETATM    5  F7  UNL     1     -33.000   4.991   0.156  1.00 20.00    -0.205 F 
HETATM    6  F8  UNL     1     -31.460   5.287   1.724  1.00 20.00    -0.205 F 
ENDROOT
BRANCH   1   7
HETATM    7  C1  UNL     1     -32.932   7.558   2.845  1.00 20.00     0.229 C 
HETATM    8  O6  UNL     1     -31.858   8.067   2.534  1.00 20.00    -0.279 OA
HETATM    9 CL9  UNL     1     -33.847   7.894   4.283  1.00 20.00    -0.043 Cl
ENDBRANCH   1   7
TORSDOF 1
ENDMDL
MODEL 7
REMARK VINA RESULT:      -0.2      2.260      2.515
REMARK  1 active torsions:
REMARK  status: ('A' for Active; 'I' for Inactive)
REMARK    1  A    between atoms: C1_1  and  C2_2 
ROOT
HETATM    1  C2  UNL     1     -34.094   6.676   2.889  1.00 20.00     0.154 A 
HETATM    2  C3  UNL     1     -33.391   7.971   2.519  1.00 20.00     0.073 A 
HETATM    3  C4  UNL     1     -33.636   7.625   3.943  1.00 20.00     0.259 A 
HETATM    4  C5  UNL     1     -32.000   7.994   1.983  1.00 20.00     0.017 C 
HETATM    5  F7  UNL     1     -34.555   8.336   4.682  1.00 20.00    -0.205 F 
HETATM    6  F8  UNL     1     -32.597   7.302   4.786  1.00 20.00    -0.205 F 
ENDROOT
BRANCH   1   7
HETATM    7  C1  UNL     1     -33.417   5.384   2.728  1.00 20.00     0.229 C 
HETATM    8  O6  UNL     1     -32.658   5.166   1.788  1.00 20.00    -0.279 OA
HETATM    9 CL9  UNL     1     -33.827   4.269   3.996  1.00 20.00    -0.043 Cl
ENDBRANCH   1   7
TORSDOF 1
ENDMDL
MODEL 8
REMARK VINA RESULT:      -0.2      2.762      3.109
REMARK  1 active torsions:
REMARK  status: ('A' for Active; 'I' for Inactive)
REMARK    1  A    between atoms: C1_1  and  C2_2 
ROOT
HETATM    1  C2  UNL     1     -32.954   8.228   1.244  1.00 20.00     0.154 A 
HETATM    2  C3  UNL     1     -32.785   7.953   2.728  1.00 20.00     0.073 A 
HETATM    3  C4  UNL     1     -32.416   6.923   1.722  1.00 20.00     0.259 A 
HETATM    4  C5  UNL     1     -31.727   8.616   3.542  1.00 20.00     0.017 C 
HETATM    5  F7  UNL     1     -33.166   5.775   1.596  1.00 20.00    -0.205 F 
HETATM    6  F8  UNL     1     -31.101   6.577   1.507  1.00 20.00    -0.205 F 
ENDROOT
BRANCH   1   7
HETATM    7  C1  UNL     1     -32.069   9.171   0.551  1.00 20.00     0.229 C 
HETATM    8  O6  UNL     1     -31.005   8.812   0.054  1.00 20.00    -0.279 OA
HETATM    9 CL9  UNL     1     -32.713  10.785   0.539  1.00 20.00    -0.043 Cl
ENDBRANCH   1   7
TORSDOF 1
ENDMDL
MODEL 9
REMARK VINA RESULT:      -0.2      2.461      3.197
REMARK  1 active torsions:
REMARK  status: ('A' for Active; 'I' for Inactive)
REMARK    1  A    between atoms: C1_1  and  C2_2 
ROOT
HETATM    1  C2  UNL     1     -31.841   8.193   2.184  1.00 20.00     0.154 A 
HETATM    2  C3  UNL     1     -32.293   6.744   2.252  1.00 20.00     0.073 A 
HETATM    3  C4  UNL     1     -32.963   7.784   3.076  1.00 20.00     0.259 A 
HETATM    4  C5  UNL     1     -33.027   6.088   1.132  1.00 20.00     0.017 C 
HETATM    5  F7  UNL     1     -32.802   7.797   4.443  1.00 20.00    -0.205 F 
HETATM    6  F8  UNL     1     -34.257   8.175   2.813  1.00 20.00    -0.205 F 
ENDROOT
BRANCH   1   7
HETATM    7  C1  UNL     1     -32.116   9.008   0.995  1.00 20.00     0.229 C 
HETATM    8  O6  UNL     1     -33.008   9.852   0.984  1.00 20.00    -0.279 OA
HETATM    9 CL9  UNL     1     -31.050   8.624  -0.322  1.00 20.00    -0.043 Cl
ENDBRANCH   1   7
TORSDOF 1
ENDMDL
