MODEL 1
REMARK VINA RESULT:       1.0      0.000      0.000
REMARK  0 active torsions:
REMARK  status: ('A' for Active; 'I' for Inactive)
ROOT
HETATM    1  C1  UNL     1     -31.293   4.519   0.415  1.00 20.00     0.017 C 
HETATM    2  C2  UNL     1     -31.929   5.264   1.108  1.00 20.00    -0.082 C 
HETATM    3  C3  UNL     1     -32.684   6.152   1.932  1.00 20.00     0.000 C 
HETATM    4  C4  UNL     1     -32.523   7.491   1.857  1.00 20.00    -0.041 C 
HETATM    5  C5  UNL     1     -33.689   5.540   2.882  1.00 20.00     0.083 C 
HETATM    6  C6  UNL     1     -33.323   8.424   2.750  1.00 20.00     0.307 C 
HETATM    7  C7  UNL     1     -34.680   6.566   3.466  1.00 20.00     0.223 C 
HETATM    8  C8  UNL     1     -31.585   8.198   0.914  1.00 20.00     0.046 C 
HETATM    9  C9  UNL     1     -35.541   5.932   4.563  1.00 20.00     0.043 C 
HETATM   10  C10 UNL     1     -33.099   7.638   5.033  1.00 20.00     0.310 C 
HETATM   11  N11 UNL     1     -34.009   7.805   3.898  1.00 20.00     0.092 N 
ENDROOT
TORSDOF 0
ENDMDL
MODEL 2
REMARK VINA RESULT:       1.4      0.859      2.709
REMARK  0 active torsions:
REMARK  status: ('A' for Active; 'I' for Inactive)
ROOT
HETATM    1  C1  UNL     1     -31.316   8.785  -0.037  1.00 20.00     0.017 C 
HETATM    2  C2  UNL     1     -31.874   8.195   0.847  1.00 20.00    -0.082 C 
HETATM    3  C3  UNL     1     -32.537   7.492   1.897  1.00 20.00     0.000 C 
HETATM    4  C4  UNL     1     -32.768   6.163   1.819  1.00 20.00    -0.041 C 
HETATM    5  C5  UNL     1     -32.957   8.285   3.114  1.00 20.00     0.083 C 
HETATM    6  C6  UNL     1     -33.488   5.429   2.937  1.00 20.00     0.307 C 
HETATM    7  C7  UNL     1     -33.344   7.401   4.315  1.00 20.00     0.223 C 
HETATM    8  C8  UNL     1     -32.349   5.278   0.674  1.00 20.00     0.046 C 
HETATM    9  C9  UNL     1     -33.945   8.244   5.444  1.00 20.00     0.043 C 
HETATM   10  C10 UNL     1     -35.525   6.648   3.433  1.00 20.00     0.310 C 
HETATM   11  N11 UNL     1     -34.199   6.267   3.920  1.00 20.00     0.092 N 
ENDROOT
TORSDOF 0
ENDMDL
MODEL 3
REMARK VINA RESULT:       1.9      1.346      3.849
REMARK  0 active torsions:
REMARK  status: ('A' for Active; 'I' for Inactive)
ROOT
HETATM    1  C1  UNL     1     -35.888   5.394   4.616  1.00 20.00     0.017 C 
HETATM    2  C2  UNL     1     -34.948   5.864   4.039  1.00 20.00    -0.082 C 
HETATM    3  C3  UNL     1     -33.829   6.425   3.353  1.00 20.00     0.000 C 
HETATM    4  C4  UNL     1     -33.260   7.581   3.759  1.00 20.00    -0.041 C 
HETATM    5  C5  UNL     1     -33.288   5.668   2.160  1.00 20.00     0.083 C 
HETATM    6  C6  UNL     1     -32.078   8.175   3.012  1.00 20.00     0.307 C 
HETATM    7  C7  UNL     1     -31.899   6.157   1.705  1.00 20.00     0.223 C 
HETATM    8  C8  UNL     1     -33.694   8.383   4.959  1.00 20.00     0.046 C 
HETATM    9  C9  UNL     1     -31.492   5.496   0.385  1.00 20.00     0.043 C 
HETATM   10  C10 UNL     1     -32.659   8.263   0.658  1.00 20.00     0.310 C 
HETATM   11  N11 UNL     1     -31.811   7.628   1.669  1.00 20.00     0.092 N 
ENDROOT
TORSDOF 0
ENDMDL
MODEL 4
REMARK VINA RESULT:       2.4      1.334      4.448
REMARK  0 active torsions:
REMARK  status: ('A' for Active; 'I' for Inactive)
ROOT
HETATM    1  C1  UNL     1     -33.602   8.645   6.098  1.00 20.00     0.017 C 
HETATM    2  C2  UNL     1     -33.482   8.158   5.008  1.00 20.00    -0.082 C 
HETATM    3  C3  UNL     1     -33.340   7.577   3.713  1.00 20.00     0.000 C 
HETATM    4  C4  UNL     1     -34.096   6.526   3.325  1.00 20.00    -0.041 C 
HETATM    5  C5  UNL     1     -32.323   8.191   2.777  1.00 20.00     0.083 C 
HETATM    6  C6  UNL     1     -33.926   5.908   1.948  1.00 20.00     0.307 C 
HETATM    7  C7  UNL     1     -32.481   7.730   1.315  1.00 20.00     0.223 C 
HETATM    8  C8  UNL     1     -35.165   5.874   4.163  1.00 20.00     0.046 C 
HETATM    9  C9  UNL     1     -31.314   8.225   0.456  1.00 20.00     0.043 C 
HETATM   10  C10 UNL     1     -31.565   5.457   1.625  1.00 20.00     0.310 C 
HETATM   11  N11 UNL     1     -32.704   6.277   1.210  1.00 20.00     0.092 N 
ENDROOT
TORSDOF 0
ENDMDL
MODEL 5
REMARK VINA RESULT:       3.4      1.688      3.950
REMARK  0 active torsions:
REMARK  status: ('A' for Active; 'I' for Inactive)
ROOT
HETATM    1  C1  UNL     1     -35.532   6.078   4.469  1.00 20.00     0.017 C 
HETATM    2  C2  UNL     1     -34.704   6.449   3.684  1.00 20.00    -0.082 C 
HETATM    3  C3  UNL     1     -33.719   6.888   2.749  1.00 20.00     0.000 C 
HETATM    4  C4  UNL     1     -32.873   6.018   2.156  1.00 20.00    -0.041 C 
HETATM    5  C5  UNL     1     -33.667   8.366   2.431  1.00 20.00     0.083 C 
HETATM    6  C6  UNL     1     -31.820   6.501   1.173  1.00 20.00     0.307 C 
HETATM    7  C7  UNL     1     -32.824   8.692   1.182  1.00 20.00     0.223 C 
HETATM    8  C8  UNL     1     -32.876   4.527   2.370  1.00 20.00     0.046 C 
HETATM    9  C9  UNL     1     -32.644  10.204   1.024  1.00 20.00     0.043 C 
HETATM   10  C10 UNL     1     -30.612   8.325   2.220  1.00 20.00     0.310 C 
HETATM   11  N11 UNL     1     -31.550   7.950   1.161  1.00 20.00     0.092 N 
ENDROOT
TORSDOF 0
ENDMDL
MODEL 6
REMARK VINA RESULT:       3.7      1.536      2.719
REMARK  0 active torsions:
REMARK  status: ('A' for Active; 'I' for Inactive)
ROOT
HETATM    1  C1  UNL     1     -33.421   2.876   4.201  1.00 20.00     0.017 C 
HETATM    2  C2  UNL     1     -33.353   3.975   3.724  1.00 20.00    -0.082 C 
HETATM    3  C3  UNL     1     -33.270   5.281   3.155  1.00 20.00     0.000 C 
HETATM    4  C4  UNL     1     -32.634   5.501   1.984  1.00 20.00    -0.041 C 
HETATM    5  C5  UNL     1     -33.938   6.413   3.903  1.00 20.00     0.083 C 
HETATM    6  C6  UNL     1     -32.541   6.899   1.396  1.00 20.00     0.307 C 
HETATM    7  C7  UNL     1     -34.093   7.694   3.059  1.00 20.00     0.223 C 
HETATM    8  C8  UNL     1     -31.979   4.436   1.142  1.00 20.00     0.046 C 
HETATM    9  C9  UNL     1     -34.591   8.859   3.920  1.00 20.00     0.043 C 
HETATM   10  C10 UNL     1     -31.720   8.379   3.133  1.00 20.00     0.310 C 
HETATM   11  N11 UNL     1     -32.869   8.014   2.302  1.00 20.00     0.092 N 
ENDROOT
TORSDOF 0
ENDMDL
