MODEL 1
REMARK VINA RESULT:      -2.3      0.000      0.000
REMARK  2 active torsions:
REMARK  status: ('A' for Active; 'I' for Inactive)
REMARK    1  A    between atoms: C2_2  and  C5_5 
REMARK    2  A    between atoms: C4_4  and  C8_8 
ROOT
HETATM    1  C1  UNL     1     -33.149   5.814   2.064  1.00 20.00    -0.015 C 
HETATM    2  C2  UNL     1     -33.188   6.982   2.711  1.00 20.00    -0.009 C 
HETATM    3  C6  UNL     1     -32.113   5.834   0.989  1.00 20.00     0.028 C 
HETATM    4  C7  UNL     1     -31.290   7.080   1.333  1.00 20.00     0.017 C 
HETATM    5  C8  UNL     1     -32.197   7.975   2.195  1.00 20.00     0.044 C 
ENDROOT
BRANCH   2   6
HETATM    6  C5  UNL     1     -34.100   7.237   3.814  1.00 20.00     0.152 C 
HETATM    7  C9  UNL     1     -35.330   6.366   3.948  1.00 20.00     0.096 C 
HETATM    8  O10 UNL     1     -33.884   8.148   4.625  1.00 20.00    -0.293 OA
ENDBRANCH   2   6
BRANCH   5   9
HETATM    9  C4  UNL     1     -32.836   9.067   1.397  1.00 20.00    -0.027 C 
HETATM   10  C3  UNL     1     -32.288   9.615   0.307  1.00 20.00     0.007 C 
ENDBRANCH   5   9
TORSDOF 2
ENDMDL
MODEL 2
REMARK VINA RESULT:      -1.6      1.899      3.788
REMARK  2 active torsions:
REMARK  status: ('A' for Active; 'I' for Inactive)
REMARK    1  A    between atoms: C2_2  and  C5_5 
REMARK    2  A    between atoms: C4_4  and  C8_8 
ROOT
HETATM    1  C1  UNL     1     -33.589   4.847   3.466  1.00 20.00    -0.015 C 
HETATM    2  C2  UNL     1     -33.513   6.024   2.841  1.00 20.00    -0.009 C 
HETATM    3  C6  UNL     1     -34.719   4.833   4.442  1.00 20.00     0.028 C 
HETATM    4  C7  UNL     1     -35.531   6.069   4.039  1.00 20.00     0.017 C 
HETATM    5  C8  UNL     1     -34.566   6.992   3.276  1.00 20.00     0.044 C 
ENDROOT
BRANCH   2   6
HETATM    6  C5  UNL     1     -32.509   6.311   1.830  1.00 20.00     0.152 C 
HETATM    7  C9  UNL     1     -32.042   7.741   1.662  1.00 20.00     0.096 C 
HETATM    8  O10 UNL     1     -32.046   5.412   1.114  1.00 20.00    -0.293 OA
ENDBRANCH   2   6
BRANCH   5   9
HETATM    9  C4  UNL     1     -34.025   8.083   4.143  1.00 20.00    -0.027 C 
HETATM   10  C3  UNL     1     -33.169   7.883   5.150  1.00 20.00     0.007 C 
ENDBRANCH   5   9
TORSDOF 2
ENDMDL
MODEL 3
REMARK VINA RESULT:      -1.5      2.016      3.687
REMARK  2 active torsions:
REMARK  status: ('A' for Active; 'I' for Inactive)
REMARK    1  A    between atoms: C2_2  and  C5_5 
REMARK    2  A    between atoms: C4_4  and  C8_8 
ROOT
HETATM    1  C1  UNL     1     -33.580   4.805   3.462  1.00 20.00    -0.015 C 
HETATM    2  C2  UNL     1     -33.575   6.003   2.872  1.00 20.00    -0.009 C 
HETATM    3  C6  UNL     1     -34.676   4.712   4.472  1.00 20.00     0.028 C 
HETATM    4  C7  UNL     1     -35.553   5.923   4.135  1.00 20.00     0.017 C 
HETATM    5  C8  UNL     1     -34.654   6.910   3.371  1.00 20.00     0.044 C 
ENDROOT
BRANCH   2   6
HETATM    6  C5  UNL     1     -32.618   6.365   1.839  1.00 20.00     0.152 C 
HETATM    7  C9  UNL     1     -32.071   5.270   0.949  1.00 20.00     0.096 C 
HETATM    8  O10 UNL     1     -32.251   7.538   1.690  1.00 20.00    -0.293 OA
ENDBRANCH   2   6
BRANCH   5   9
HETATM    9  C4  UNL     1     -34.131   7.998   4.255  1.00 20.00    -0.027 C 
HETATM   10  C3  UNL     1     -33.020   7.893   4.992  1.00 20.00     0.007 C 
ENDBRANCH   5   9
TORSDOF 2
ENDMDL
MODEL 4
REMARK VINA RESULT:      -1.4      1.385      2.750
REMARK  2 active torsions:
REMARK  status: ('A' for Active; 'I' for Inactive)
REMARK    1  A    between atoms: C2_2  and  C5_5 
REMARK    2  A    between atoms: C4_4  and  C8_8 
ROOT
HETATM    1  C1  UNL     1     -33.048   7.765   3.836  1.00 20.00    -0.015 C 
HETATM    2  C2  UNL     1     -33.582   6.749   3.152  1.00 20.00    -0.009 C 
HETATM    3  C6  UNL     1     -32.031   8.484   3.013  1.00 20.00     0.028 C 
HETATM    4  C7  UNL     1     -32.301   7.957   1.599  1.00 20.00     0.017 C 
HETATM    5  C8  UNL     1     -33.028   6.613   1.770  1.00 20.00     0.044 C 
ENDROOT
BRANCH   2   6
HETATM    6  C5  UNL     1     -34.608   5.883   3.709  1.00 20.00     0.152 C 
HETATM    7  C9  UNL     1     -34.237   4.459   4.061  1.00 20.00     0.096 C 
HETATM    8  O10 UNL     1     -35.763   6.294   3.887  1.00 20.00    -0.293 OA
ENDBRANCH   2   6
BRANCH   5   9
HETATM    9  C4  UNL     1     -32.101   5.447   1.632  1.00 20.00    -0.027 C 
HETATM   10  C3  UNL     1     -32.014   4.687   0.535  1.00 20.00     0.007 C 
ENDBRANCH   5   9
TORSDOF 2
ENDMDL
MODEL 5
REMARK VINA RESULT:      -1.1      1.228      3.471
REMARK  2 active torsions:
REMARK  status: ('A' for Active; 'I' for Inactive)
REMARK    1  A    between atoms: C2_2  and  C5_5 
REMARK    2  A    between atoms: C4_4  and  C8_8 
ROOT
HETATM    1  C1  UNL     1     -34.402   7.529   3.693  1.00 20.00    -0.015 C 
HETATM    2  C2  UNL     1     -33.250   7.219   3.093  1.00 20.00    -0.009 C 
HETATM    3  C6  UNL     1     -35.214   6.303   3.955  1.00 20.00     0.028 C 
HETATM    4  C7  UNL     1     -34.202   5.172   3.739  1.00 20.00     0.017 C 
HETATM    5  C8  UNL     1     -33.086   5.752   2.854  1.00 20.00     0.044 C 
ENDROOT
BRANCH   2   6
HETATM    6  C5  UNL     1     -32.261   8.220   2.731  1.00 20.00     0.152 C 
HETATM    7  C9  UNL     1     -32.155   8.637   1.280  1.00 20.00     0.096 C 
HETATM    8  O10 UNL     1     -31.515   8.720   3.584  1.00 20.00    -0.293 OA
ENDBRANCH   2   6
BRANCH   5   9
HETATM    9  C4  UNL     1     -33.255   5.379   1.415  1.00 20.00    -0.027 C 
HETATM   10  C3  UNL     1     -32.257   4.968   0.627  1.00 20.00     0.007 C 
ENDBRANCH   5   9
TORSDOF 2
ENDMDL
MODEL 6
REMARK VINA RESULT:      -0.9      1.197      3.084
REMARK  2 active torsions:
REMARK  status: ('A' for Active; 'I' for Inactive)
REMARK    1  A    between atoms: C2_2  and  C5_5 
REMARK    2  A    between atoms: C4_4  and  C8_8 
ROOT
HETATM    1  C1  UNL     1     -32.498   7.576   2.456  1.00 20.00    -0.015 C 
HETATM    2  C2  UNL     1     -33.426   6.758   2.959  1.00 20.00    -0.009 C 
HETATM    3  C6  UNL     1     -31.689   6.885   1.409  1.00 20.00     0.028 C 
HETATM    4  C7  UNL     1     -32.519   5.631   1.111  1.00 20.00     0.017 C 
HETATM    5  C8  UNL     1     -33.408   5.396   2.344  1.00 20.00     0.044 C 
ENDROOT
BRANCH   2   6
HETATM    6  C5  UNL     1     -34.363   7.175   3.990  1.00 20.00     0.152 C 
HETATM    7  C9  UNL     1     -35.687   6.451   4.097  1.00 20.00     0.096 C 
HETATM    8  O10 UNL     1     -34.091   8.106   4.761  1.00 20.00    -0.293 OA
ENDBRANCH   2   6
BRANCH   5   9
HETATM    9  C4  UNL     1     -32.842   4.357   3.258  1.00 20.00    -0.027 C 
HETATM   10  C3  UNL     1     -33.578   3.607   4.085  1.00 20.00     0.007 C 
ENDBRANCH   5   9
TORSDOF 2
ENDMDL
MODEL 7
REMARK VINA RESULT:      -0.7      1.690      3.488
REMARK  2 active torsions:
REMARK  status: ('A' for Active; 'I' for Inactive)
REMARK    1  A    between atoms: C2_2  and  C5_5 
REMARK    2  A    between atoms: C4_4  and  C8_8 
ROOT
HETATM    1  C1  UNL     1     -33.292   5.570   2.633  1.00 20.00    -0.015 C 
HETATM    2  C2  UNL     1     -33.232   6.904   2.681  1.00 20.00    -0.009 C 
HETATM    3  C6  UNL     1     -34.350   5.051   3.549  1.00 20.00     0.028 C 
HETATM    4  C7  UNL     1     -35.159   6.309   3.884  1.00 20.00     0.017 C 
HETATM    5  C8  UNL     1     -34.228   7.505   3.620  1.00 20.00     0.044 C 
ENDROOT
BRANCH   2   6
HETATM    6  C5  UNL     1     -32.296   7.675   1.880  1.00 20.00     0.152 C 
HETATM    7  C9  UNL     1     -32.772   8.974   1.267  1.00 20.00     0.096 C 
HETATM    8  O10 UNL     1     -31.137   7.281   1.694  1.00 20.00    -0.293 OA
ENDBRANCH   2   6
BRANCH   5   9
HETATM    9  C4  UNL     1     -33.599   8.020   4.876  1.00 20.00    -0.027 C 
HETATM   10  C3  UNL     1     -32.419   8.646   4.919  1.00 20.00     0.007 C 
ENDBRANCH   5   9
TORSDOF 2
ENDMDL
MODEL 8
REMARK VINA RESULT:      -0.3      1.246      3.339
REMARK  2 active torsions:
REMARK  status: ('A' for Active; 'I' for Inactive)
REMARK    1  A    between atoms: C2_2  and  C5_5 
REMARK    2  A    between atoms: C4_4  and  C8_8 
ROOT
HETATM    1  C1  UNL     1     -31.409   6.134   1.223  1.00 20.00    -0.015 C 
HETATM    2  C2  UNL     1     -32.302   7.008   1.694  1.00 20.00    -0.009 C 
HETATM    3  C6  UNL     1     -32.018   4.778   1.073  1.00 20.00     0.028 C 
HETATM    4  C7  UNL     1     -33.519   5.065   1.190  1.00 20.00     0.017 C 
HETATM    5  C8  UNL     1     -33.648   6.404   1.935  1.00 20.00     0.044 C 
ENDROOT
BRANCH   2   6
HETATM    6  C5  UNL     1     -31.982   8.407   1.928  1.00 20.00     0.152 C 
HETATM    7  C9  UNL     1     -32.217   9.397   0.808  1.00 20.00     0.096 C 
HETATM    8  O10 UNL     1     -31.521   8.784   3.014  1.00 20.00    -0.293 OA
ENDBRANCH   2   6
BRANCH   5   9
HETATM    9  C4  UNL     1     -33.945   6.215   3.389  1.00 20.00    -0.027 C 
HETATM   10  C3  UNL     1     -35.116   6.519   3.959  1.00 20.00     0.007 C 
ENDBRANCH   5   9
TORSDOF 2
ENDMDL
MODEL 9
REMARK VINA RESULT:      -0.2      2.041      3.072
REMARK  2 active torsions:
REMARK  status: ('A' for Active; 'I' for Inactive)
REMARK    1  A    between atoms: C2_2  and  C5_5 
REMARK    2  A    between atoms: C4_4  and  C8_8 
ROOT
HETATM    1  C1  UNL     1     -33.183   5.053   1.997  1.00 20.00    -0.015 C 
HETATM    2  C2  UNL     1     -33.530   5.297   3.264  1.00 20.00    -0.009 C 
HETATM    3  C6  UNL     1     -32.729   6.303   1.319  1.00 20.00     0.028 C 
HETATM    4  C7  UNL     1     -32.517   7.269   2.491  1.00 20.00     0.017 C 
HETATM    5  C8  UNL     1     -33.367   6.730   3.655  1.00 20.00     0.044 C 
ENDROOT
BRANCH   2   6
HETATM    6  C5  UNL     1     -34.001   4.255   4.161  1.00 20.00     0.152 C 
HETATM    7  C9  UNL     1     -33.078   3.096   4.469  1.00 20.00     0.096 C 
HETATM    8  O10 UNL     1     -35.134   4.305   4.661  1.00 20.00    -0.293 OA
ENDBRANCH   2   6
BRANCH   5   9
HETATM    9  C4  UNL     1     -34.674   7.447   3.778  1.00 20.00    -0.027 C 
HETATM   10  C3  UNL     1     -35.839   6.960   3.339  1.00 20.00     0.007 C 
ENDBRANCH   5   9
TORSDOF 2
ENDMDL
