MODEL 1
REMARK VINA RESULT:       0.5      0.000      0.000
REMARK  2 active torsions:
REMARK  status: ('A' for Active; 'I' for Inactive)
REMARK    1  A    between atoms: C2_2  and  C7_7 
REMARK    2  A    between atoms: C3_3  and  C6_6 
ROOT
HETATM    1  C4  UNL     1     -32.438   5.702   0.958  1.00 20.00     0.014 C 
HETATM    2  C5  UNL     1     -33.928   5.671   1.339  1.00 20.00     0.015 C 
HETATM    3  C6  UNL     1     -32.155   6.454   2.286  1.00 20.00     0.067 C 
HETATM    4  C7  UNL     1     -33.512   5.875   2.826  1.00 20.00    -0.011 C 
HETATM    5  C10 UNL     1     -33.371   4.574   3.617  1.00 20.00     0.021 C 
ENDROOT
BRANCH   4   6
HETATM    6  C2  UNL     1     -34.363   6.850   3.559  1.00 20.00    -0.084 C 
HETATM    7  C1  UNL     1     -33.855   7.680   4.481  1.00 20.00     0.015 C 
HETATM    8  C8  UNL     1     -35.820   6.852   3.205  1.00 20.00     0.043 C 
ENDBRANCH   4   6
BRANCH   3   9
HETATM    9  C3  UNL     1     -31.977   7.980   2.186  1.00 20.00     0.128 C 
HETATM   10  C9  UNL     1     -32.475   8.637   0.927  1.00 20.00     0.091 C 
HETATM   11  O11 UNL     1     -31.455   8.629   3.090  1.00 20.00    -0.298 OA
ENDBRANCH   3   9
TORSDOF 2
ENDMDL
MODEL 2
REMARK VINA RESULT:       0.6      0.092      1.060
REMARK  2 active torsions:
REMARK  status: ('A' for Active; 'I' for Inactive)
REMARK    1  A    between atoms: C2_2  and  C7_7 
REMARK    2  A    between atoms: C3_3  and  C6_6 
ROOT
HETATM    1  C4  UNL     1     -32.382   5.682   1.001  1.00 20.00     0.014 C 
HETATM    2  C5  UNL     1     -33.883   5.626   1.329  1.00 20.00     0.015 C 
HETATM    3  C6  UNL     1     -32.162   6.458   2.326  1.00 20.00     0.067 C 
HETATM    4  C7  UNL     1     -33.526   5.859   2.827  1.00 20.00    -0.011 C 
HETATM    5  C10 UNL     1     -33.386   4.572   3.642  1.00 20.00     0.021 C 
ENDROOT
BRANCH   4   6
HETATM    6  C2  UNL     1     -34.421   6.825   3.515  1.00 20.00    -0.084 C 
HETATM    7  C1  UNL     1     -35.703   6.984   3.154  1.00 20.00     0.015 C 
HETATM    8  C8  UNL     1     -33.810   7.610   4.636  1.00 20.00     0.043 C 
ENDBRANCH   4   6
BRANCH   3   9
HETATM    9  C3  UNL     1     -32.012   7.987   2.211  1.00 20.00     0.128 C 
HETATM   10  C9  UNL     1     -32.483   8.616   0.928  1.00 20.00     0.091 C 
HETATM   11  O11 UNL     1     -31.533   8.659   3.122  1.00 20.00    -0.298 OA
ENDBRANCH   3   9
TORSDOF 2
ENDMDL
MODEL 3
REMARK VINA RESULT:       0.8      1.997      3.984
REMARK  2 active torsions:
REMARK  status: ('A' for Active; 'I' for Inactive)
REMARK    1  A    between atoms: C2_2  and  C7_7 
REMARK    2  A    between atoms: C3_3  and  C6_6 
ROOT
HETATM    1  C4  UNL     1     -34.338   7.556   4.180  1.00 20.00     0.014 C 
HETATM    2  C5  UNL     1     -34.375   7.723   2.651  1.00 20.00     0.015 C 
HETATM    3  C6  UNL     1     -33.450   6.299   3.980  1.00 20.00     0.067 C 
HETATM    4  C7  UNL     1     -33.077   6.869   2.564  1.00 20.00    -0.011 C 
HETATM    5  C10 UNL     1     -31.789   7.694   2.538  1.00 20.00     0.021 C 
ENDROOT
BRANCH   4   6
HETATM    6  C2  UNL     1     -33.088   5.870   1.463  1.00 20.00    -0.084 C 
HETATM    7  C1  UNL     1     -34.174   5.664   0.703  1.00 20.00     0.015 C 
HETATM    8  C8  UNL     1     -31.814   5.108   1.249  1.00 20.00     0.043 C 
ENDBRANCH   4   6
BRANCH   3   9
HETATM    9  C3  UNL     1     -34.159   4.935   4.077  1.00 20.00     0.128 C 
HETATM   10  C9  UNL     1     -33.277   3.717   4.117  1.00 20.00     0.091 C 
HETATM   11  O11 UNL     1     -35.385   4.847   4.120  1.00 20.00    -0.298 OA
ENDBRANCH   3   9
TORSDOF 2
ENDMDL
MODEL 4
REMARK VINA RESULT:       0.9      2.021      4.087
REMARK  2 active torsions:
REMARK  status: ('A' for Active; 'I' for Inactive)
REMARK    1  A    between atoms: C2_2  and  C7_7 
REMARK    2  A    between atoms: C3_3  and  C6_6 
ROOT
HETATM    1  C4  UNL     1     -35.673   5.736   4.469  1.00 20.00     0.014 C 
HETATM    2  C5  UNL     1     -35.499   6.481   3.135  1.00 20.00     0.015 C 
HETATM    3  C6  UNL     1     -34.144   5.471   4.473  1.00 20.00     0.067 C 
HETATM    4  C7  UNL     1     -33.997   6.686   3.488  1.00 20.00    -0.011 C 
HETATM    5  C10 UNL     1     -33.695   8.019   4.175  1.00 20.00     0.021 C 
ENDROOT
BRANCH   4   6
HETATM    6  C2  UNL     1     -33.075   6.459   2.345  1.00 20.00    -0.084 C 
HETATM    7  C1  UNL     1     -33.217   5.414   1.516  1.00 20.00     0.015 C 
HETATM    8  C8  UNL     1     -31.978   7.467   2.170  1.00 20.00     0.043 C 
ENDBRANCH   4   6
BRANCH   3   9
HETATM    9  C3  UNL     1     -33.688   4.073   4.014  1.00 20.00     0.128 C 
HETATM   10  C9  UNL     1     -32.573   3.435   4.797  1.00 20.00     0.091 C 
HETATM   11  O11 UNL     1     -34.211   3.507   3.056  1.00 20.00    -0.298 OA
ENDBRANCH   3   9
TORSDOF 2
ENDMDL
MODEL 5
REMARK VINA RESULT:       1.1      1.669      3.430
REMARK  2 active torsions:
REMARK  status: ('A' for Active; 'I' for Inactive)
REMARK    1  A    between atoms: C2_2  and  C7_7 
REMARK    2  A    between atoms: C3_3  and  C6_6 
ROOT
HETATM    1  C4  UNL     1     -34.835   6.282   3.401  1.00 20.00     0.014 C 
HETATM    2  C5  UNL     1     -34.719   7.780   3.071  1.00 20.00     0.015 C 
HETATM    3  C6  UNL     1     -33.324   6.136   3.079  1.00 20.00     0.067 C 
HETATM    4  C7  UNL     1     -33.187   7.680   3.333  1.00 20.00    -0.011 C 
HETATM    5  C10 UNL     1     -32.774   8.049   4.759  1.00 20.00     0.021 C 
ENDROOT
BRANCH   4   6
HETATM    6  C2  UNL     1     -32.359   8.409   2.337  1.00 20.00    -0.084 C 
HETATM    7  C1  UNL     1     -32.898   8.984   1.252  1.00 20.00     0.015 C 
HETATM    8  C8  UNL     1     -30.887   8.467   2.617  1.00 20.00     0.043 C 
ENDBRANCH   4   6
BRANCH   3   9
HETATM    9  C3  UNL     1     -32.970   5.570   1.691  1.00 20.00     0.128 C 
HETATM   10  C9  UNL     1     -31.594   4.981   1.533  1.00 20.00     0.091 C 
HETATM   11  O11 UNL     1     -33.772   5.597   0.759  1.00 20.00    -0.298 OA
ENDBRANCH   3   9
TORSDOF 2
ENDMDL
MODEL 6
REMARK VINA RESULT:       1.1      0.777      2.742
REMARK  2 active torsions:
REMARK  status: ('A' for Active; 'I' for Inactive)
REMARK    1  A    between atoms: C2_2  and  C7_7 
REMARK    2  A    between atoms: C3_3  and  C6_6 
ROOT
HETATM    1  C4  UNL     1     -33.514   8.512   4.449  1.00 20.00     0.014 C 
HETATM    2  C5  UNL     1     -33.439   7.022   4.825  1.00 20.00     0.015 C 
HETATM    3  C6  UNL     1     -33.617   8.089   2.960  1.00 20.00     0.067 C 
HETATM    4  C7  UNL     1     -34.108   6.683   3.461  1.00 20.00    -0.011 C 
HETATM    5  C10 UNL     1     -35.629   6.537   3.533  1.00 20.00     0.021 C 
ENDROOT
BRANCH   4   6
HETATM    6  C2  UNL     1     -33.497   5.521   2.765  1.00 20.00    -0.084 C 
HETATM    7  C1  UNL     1     -33.132   5.577   1.476  1.00 20.00     0.015 C 
HETATM    8  C8  UNL     1     -33.311   4.281   3.588  1.00 20.00     0.043 C 
ENDBRANCH   4   6
BRANCH   3   9
HETATM    9  C3  UNL     1     -32.324   8.180   2.129  1.00 20.00     0.128 C 
HETATM   10  C9  UNL     1     -32.423   8.874   0.798  1.00 20.00     0.091 C 
HETATM   11  O11 UNL     1     -31.262   7.709   2.535  1.00 20.00    -0.298 OA
ENDBRANCH   3   9
TORSDOF 2
ENDMDL
MODEL 7
REMARK VINA RESULT:       1.2      1.527      2.783
REMARK  2 active torsions:
REMARK  status: ('A' for Active; 'I' for Inactive)
REMARK    1  A    between atoms: C2_2  and  C7_7 
REMARK    2  A    between atoms: C3_3  and  C6_6 
ROOT
HETATM    1  C4  UNL     1     -31.981   8.080   2.288  1.00 20.00     0.014 C 
HETATM    2  C5  UNL     1     -32.315   7.611   3.714  1.00 20.00     0.015 C 
HETATM    3  C6  UNL     1     -33.117   7.163   1.763  1.00 20.00     0.067 C 
HETATM    4  C7  UNL     1     -33.731   7.208   3.209  1.00 20.00    -0.011 C 
HETATM    5  C10 UNL     1     -34.794   8.290   3.408  1.00 20.00     0.021 C 
ENDROOT
BRANCH   4   6
HETATM    6  C2  UNL     1     -34.205   5.899   3.730  1.00 20.00    -0.084 C 
HETATM    7  C1  UNL     1     -33.391   4.838   3.830  1.00 20.00     0.015 C 
HETATM    8  C8  UNL     1     -35.646   5.834   4.141  1.00 20.00     0.043 C 
ENDBRANCH   4   6
BRANCH   3   9
HETATM    9  C3  UNL     1     -32.688   5.808   1.172  1.00 20.00     0.128 C 
HETATM   10  C9  UNL     1     -33.688   5.108   0.292  1.00 20.00     0.091 C 
HETATM   11  O11 UNL     1     -31.583   5.322   1.407  1.00 20.00    -0.298 OA
ENDBRANCH   3   9
TORSDOF 2
ENDMDL
MODEL 8
REMARK VINA RESULT:       1.7      1.661      3.325
REMARK  2 active torsions:
REMARK  status: ('A' for Active; 'I' for Inactive)
REMARK    1  A    between atoms: C2_2  and  C7_7 
REMARK    2  A    between atoms: C3_3  and  C6_6 
ROOT
HETATM    1  C4  UNL     1     -32.608   5.600   1.169  1.00 20.00     0.014 C 
HETATM    2  C5  UNL     1     -31.551   6.522   1.800  1.00 20.00     0.015 C 
HETATM    3  C6  UNL     1     -33.693   6.351   1.985  1.00 20.00     0.067 C 
HETATM    4  C7  UNL     1     -32.682   7.549   2.101  1.00 20.00    -0.011 C 
HETATM    5  C10 UNL     1     -32.852   8.622   1.024  1.00 20.00     0.021 C 
ENDROOT
BRANCH   4   6
HETATM    6  C2  UNL     1     -32.591   8.165   3.451  1.00 20.00    -0.084 C 
HETATM    7  C1  UNL     1     -33.588   8.070   4.342  1.00 20.00     0.015 C 
HETATM    8  C8  UNL     1     -31.318   8.896   3.759  1.00 20.00     0.043 C 
ENDBRANCH   4   6
BRANCH   3   9
HETATM    9  C3  UNL     1     -34.187   5.661   3.269  1.00 20.00     0.128 C 
HETATM   10  C9  UNL     1     -35.465   6.183   3.868  1.00 20.00     0.091 C 
HETATM   11  O11 UNL     1     -33.569   4.728   3.779  1.00 20.00    -0.298 OA
ENDBRANCH   3   9
TORSDOF 2
ENDMDL
MODEL 9
REMARK VINA RESULT:       2.1      1.586      3.029
REMARK  2 active torsions:
REMARK  status: ('A' for Active; 'I' for Inactive)
REMARK    1  A    between atoms: C2_2  and  C7_7 
REMARK    2  A    between atoms: C3_3  and  C6_6 
ROOT
HETATM    1  C4  UNL     1     -31.759   9.025   3.065  1.00 20.00     0.014 C 
HETATM    2  C5  UNL     1     -31.521   7.508   3.151  1.00 20.00     0.015 C 
HETATM    3  C6  UNL     1     -32.692   8.770   1.851  1.00 20.00     0.067 C 
HETATM    4  C7  UNL     1     -32.850   7.294   2.367  1.00 20.00    -0.011 C 
HETATM    5  C10 UNL     1     -34.071   7.067   3.261  1.00 20.00     0.021 C 
ENDROOT
BRANCH   4   6
HETATM    6  C2  UNL     1     -32.764   6.249   1.314  1.00 20.00    -0.084 C 
HETATM    7  C1  UNL     1     -31.709   5.426   1.216  1.00 20.00     0.015 C 
HETATM    8  C8  UNL     1     -33.926   6.165   0.370  1.00 20.00     0.043 C 
ENDBRANCH   4   6
BRANCH   3   9
HETATM    9  C3  UNL     1     -32.087   9.016   0.457  1.00 20.00     0.128 C 
HETATM   10  C9  UNL     1     -32.883   9.881  -0.482  1.00 20.00     0.091 C 
HETATM   11  O11 UNL     1     -31.006   8.531   0.128  1.00 20.00    -0.298 OA
ENDBRANCH   3   9
TORSDOF 2
ENDMDL
