MODEL 1
REMARK VINA RESULT:      -0.8      0.000      0.000
REMARK  0 active torsions:
REMARK  status: ('A' for Active; 'I' for Inactive)
ROOT
HETATM    1  C1  UNL     1     -34.288   7.625   3.861  1.00 20.00     0.041 A 
HETATM    2  C2  UNL     1     -33.271   7.520   2.866  1.00 20.00    -0.008 A 
HETATM    3  C3  UNL     1     -34.593   6.322   4.086  1.00 20.00     0.041 A 
HETATM    4  C4  UNL     1     -33.036   6.195   2.568  1.00 20.00     0.064 A 
HETATM    5  C5  UNL     1     -35.241   5.180   4.655  1.00 20.00     0.047 A 
HETATM    6  C6  UNL     1     -32.033   6.094   1.586  1.00 20.00     0.141 A 
HETATM    7  C7  UNL     1     -34.457   4.401   3.853  1.00 20.00     0.100 A 
HETATM    8  C8  UNL     1     -32.366   8.326   2.029  1.00 20.00     0.189 A 
HETATM    9  N9  UNL     1     -31.595   7.272   1.222  1.00 20.00    -0.295 NA
HETATM   10  N10 UNL     1     -33.864   5.508   3.336  1.00 20.00    -0.320 N 
ENDROOT
TORSDOF 0
ENDMDL
MODEL 2
REMARK VINA RESULT:      -0.8      1.056      3.965
REMARK  0 active torsions:
REMARK  status: ('A' for Active; 'I' for Inactive)
ROOT
HETATM    1  C1  UNL     1     -32.440   5.585   1.741  1.00 20.00     0.041 A 
HETATM    2  C2  UNL     1     -33.455   5.648   2.742  1.00 20.00    -0.008 A 
HETATM    3  C3  UNL     1     -32.155   6.898   1.552  1.00 20.00     0.041 A 
HETATM    4  C4  UNL     1     -33.705   6.960   3.080  1.00 20.00     0.064 A 
HETATM    5  C5  UNL     1     -31.525   8.065   1.014  1.00 20.00     0.047 A 
HETATM    6  C6  UNL     1     -34.706   7.018   4.068  1.00 20.00     0.141 A 
HETATM    7  C7  UNL     1     -32.314   8.810   1.843  1.00 20.00     0.100 A 
HETATM    8  C8  UNL     1     -34.345   4.805   3.558  1.00 20.00     0.189 A 
HETATM    9  N9  UNL     1     -35.128   5.825   4.398  1.00 20.00    -0.295 NA
HETATM   10  N10 UNL     1     -32.890   7.680   2.330  1.00 20.00    -0.320 N 
ENDROOT
TORSDOF 0
ENDMDL
MODEL 3
REMARK VINA RESULT:      -0.7      0.987      3.481
REMARK  0 active torsions:
REMARK  status: ('A' for Active; 'I' for Inactive)
ROOT
HETATM    1  C1  UNL     1     -34.106   7.974   3.398  1.00 20.00     0.041 A 
HETATM    2  C2  UNL     1     -34.457   6.648   3.789  1.00 20.00    -0.008 A 
HETATM    3  C3  UNL     1     -33.080   7.748   2.539  1.00 20.00     0.041 A 
HETATM    4  C4  UNL     1     -33.642   5.735   3.155  1.00 20.00     0.064 A 
HETATM    5  C5  UNL     1     -32.022   8.028   1.617  1.00 20.00     0.047 A 
HETATM    6  C6  UNL     1     -33.992   4.429   3.542  1.00 20.00     0.141 A 
HETATM    7  C7  UNL     1     -31.812   6.681   1.528  1.00 20.00     0.100 A 
HETATM    8  C8  UNL     1     -35.391   5.888   4.638  1.00 20.00     0.189 A 
HETATM    9  N9  UNL     1     -34.986   4.427   4.393  1.00 20.00    -0.295 NA
HETATM   10  N10 UNL     1     -32.824   6.454   2.406  1.00 20.00    -0.320 N 
ENDROOT
TORSDOF 0
ENDMDL
MODEL 4
REMARK VINA RESULT:       0.4      0.948      1.926
REMARK  0 active torsions:
REMARK  status: ('A' for Active; 'I' for Inactive)
ROOT
HETATM    1  C1  UNL     1     -33.401   5.189   2.249  1.00 20.00     0.041 A 
HETATM    2  C2  UNL     1     -32.649   6.334   1.850  1.00 20.00    -0.008 A 
HETATM    3  C3  UNL     1     -34.193   5.702   3.224  1.00 20.00     0.041 A 
HETATM    4  C4  UNL     1     -33.030   7.432   2.591  1.00 20.00     0.064 A 
HETATM    5  C5  UNL     1     -35.185   5.749   4.254  1.00 20.00     0.047 A 
HETATM    6  C6  UNL     1     -32.287   8.559   2.194  1.00 20.00     0.141 A 
HETATM    7  C7  UNL     1     -34.905   7.078   4.393  1.00 20.00     0.100 A 
HETATM    8  C8  UNL     1     -31.598   6.775   0.918  1.00 20.00     0.189 A 
HETATM    9  N9  UNL     1     -31.442   8.269   1.239  1.00 20.00    -0.295 NA
HETATM   10  N10 UNL     1     -33.970   6.996   3.411  1.00 20.00    -0.320 N 
ENDROOT
TORSDOF 0
ENDMDL
MODEL 5
REMARK VINA RESULT:       0.6      1.145      3.315
REMARK  0 active torsions:
REMARK  status: ('A' for Active; 'I' for Inactive)
ROOT
HETATM    1  C1  UNL     1     -32.273   7.771   2.319  1.00 20.00     0.041 A 
HETATM    2  C2  UNL     1     -33.357   7.410   3.173  1.00 20.00    -0.008 A 
HETATM    3  C3  UNL     1     -32.092   6.633   1.603  1.00 20.00     0.041 A 
HETATM    4  C4  UNL     1     -33.747   6.113   2.920  1.00 20.00     0.064 A 
HETATM    5  C5  UNL     1     -31.531   5.733   0.641  1.00 20.00     0.047 A 
HETATM    6  C6  UNL     1     -34.817   5.760   3.764  1.00 20.00     0.141 A 
HETATM    7  C7  UNL     1     -32.441   4.803   1.057  1.00 20.00     0.100 A 
HETATM    8  C8  UNL     1     -34.225   7.929   4.243  1.00 20.00     0.189 A 
HETATM    9  N9  UNL     1     -35.152   6.746   4.555  1.00 20.00    -0.295 NA
HETATM   10  N10 UNL     1     -32.948   5.685   1.958  1.00 20.00    -0.320 N 
ENDROOT
TORSDOF 0
ENDMDL
