MODEL 1
REMARK VINA RESULT:      -1.2      0.000      0.000
REMARK  3 active torsions:
REMARK  status: ('A' for Active; 'I' for Inactive)
REMARK    1  A    between atoms: C2_2  and  C6_6 
REMARK    2  A    between atoms: C3_3  and  C5_5 
REMARK    3  A    between atoms: C3_3  and  O10_10 
ROOT
HETATM    1  C4  UNL     1     -33.521   5.882   1.301  1.00 20.00     0.033 A 
HETATM    2  C5  UNL     1     -32.277   6.442   1.937  1.00 20.00     0.101 A 
HETATM    3  C6  UNL     1     -33.364   5.831   2.805  1.00 20.00     0.023 A 
HETATM    4  C7  UNL     1     -33.085   4.492   3.436  1.00 20.00     0.023 C 
ENDROOT
BRANCH   2   5
HETATM    5  C3  UNL     1     -32.046   7.892   1.909  1.00 20.00     0.263 C 
HETATM    6  O9  UNL     1     -31.352   8.492   2.719  1.00 20.00    -0.265 OA
BRANCH   5   7
HETATM    7  O10 UNL     1     -32.719   8.441   0.857  1.00 20.00    -0.326 OA
HETATM    8  C8  UNL     1     -32.292   9.750   0.469  1.00 20.00     0.213 C 
ENDBRANCH   5   7
ENDBRANCH   2   5
BRANCH   3   9
HETATM    9  C2  UNL     1     -34.224   6.725   3.589  1.00 20.00     0.093 C 
HETATM   10  C1  UNL     1     -35.558   6.652   3.669  1.00 20.00     0.052 C 
HETATM   11  F11 UNL     1     -33.615   7.708   4.292  1.00 20.00    -0.211 F 
ENDBRANCH   3   9
TORSDOF 3
ENDMDL
MODEL 2
REMARK VINA RESULT:      -0.7      1.309      2.248
REMARK  3 active torsions:
REMARK  status: ('A' for Active; 'I' for Inactive)
REMARK    1  A    between atoms: C2_2  and  C6_6 
REMARK    2  A    between atoms: C3_3  and  C5_5 
REMARK    3  A    between atoms: C3_3  and  O10_10 
ROOT
HETATM    1  C4  UNL     1     -33.277   7.573   4.405  1.00 20.00     0.033 A 
HETATM    2  C5  UNL     1     -33.474   8.037   2.987  1.00 20.00     0.101 A 
HETATM    3  C6  UNL     1     -34.093   6.729   3.452  1.00 20.00     0.023 A 
HETATM    4  C7  UNL     1     -35.587   6.694   3.648  1.00 20.00     0.023 C 
ENDROOT
BRANCH   2   5
HETATM    5  C3  UNL     1     -32.326   8.056   2.072  1.00 20.00     0.263 C 
HETATM    6  O9  UNL     1     -31.177   7.795   2.406  1.00 20.00    -0.265 OA
BRANCH   5   7
HETATM    7  O10 UNL     1     -32.745   8.404   0.821  1.00 20.00    -0.326 OA
HETATM    8  C8  UNL     1     -32.403   9.729   0.405  1.00 20.00     0.213 C 
ENDBRANCH   5   7
ENDBRANCH   2   5
BRANCH   3   9
HETATM    9  C2  UNL     1     -33.490   5.468   3.006  1.00 20.00     0.093 C 
HETATM   10  C1  UNL     1     -33.433   4.336   3.718  1.00 20.00     0.052 C 
HETATM   11  F11 UNL     1     -32.945   5.447   1.767  1.00 20.00    -0.211 F 
ENDBRANCH   3   9
TORSDOF 3
ENDMDL
MODEL 3
REMARK VINA RESULT:      -0.5      2.634      4.372
REMARK  3 active torsions:
REMARK  status: ('A' for Active; 'I' for Inactive)
REMARK    1  A    between atoms: C2_2  and  C6_6 
REMARK    2  A    between atoms: C3_3  and  C5_5 
REMARK    3  A    between atoms: C3_3  and  O10_10 
ROOT
HETATM    1  C4  UNL     1     -35.325   6.628   3.473  1.00 20.00     0.033 A 
HETATM    2  C5  UNL     1     -34.276   5.829   4.197  1.00 20.00     0.101 A 
HETATM    3  C6  UNL     1     -33.925   7.184   3.608  1.00 20.00     0.023 A 
HETATM    4  C7  UNL     1     -33.714   8.329   4.564  1.00 20.00     0.023 C 
ENDROOT
BRANCH   2   5
HETATM    5  C3  UNL     1     -33.781   4.583   3.597  1.00 20.00     0.263 C 
HETATM    6  O9  UNL     1     -33.166   4.528   2.540  1.00 20.00    -0.265 OA
BRANCH   5   7
HETATM    7  O10 UNL     1     -34.113   3.528   4.395  1.00 20.00    -0.326 OA
HETATM    8  C8  UNL     1     -33.013   2.761   4.892  1.00 20.00     0.213 C 
ENDBRANCH   5   7
ENDBRANCH   2   5
BRANCH   3   9
HETATM    9  C2  UNL     1     -33.113   7.231   2.387  1.00 20.00     0.093 C 
HETATM   10  C1  UNL     1     -31.941   7.865   2.252  1.00 20.00     0.052 C 
HETATM   11  F11 UNL     1     -33.591   6.576   1.302  1.00 20.00    -0.211 F 
ENDBRANCH   3   9
TORSDOF 3
ENDMDL
MODEL 4
REMARK VINA RESULT:      -0.2      2.782      4.413
REMARK  3 active torsions:
REMARK  status: ('A' for Active; 'I' for Inactive)
REMARK    1  A    between atoms: C2_2  and  C6_6 
REMARK    2  A    between atoms: C3_3  and  C5_5 
REMARK    3  A    between atoms: C3_3  and  O10_10 
ROOT
HETATM    1  C4  UNL     1     -34.618   7.352   2.990  1.00 20.00     0.033 A 
HETATM    2  C5  UNL     1     -33.869   6.443   3.926  1.00 20.00     0.101 A 
HETATM    3  C6  UNL     1     -33.215   6.910   2.637  1.00 20.00     0.023 A 
HETATM    4  C7  UNL     1     -32.110   7.929   2.742  1.00 20.00     0.023 C 
ENDROOT
BRANCH   2   5
HETATM    5  C3  UNL     1     -34.322   5.056   4.095  1.00 20.00     0.263 C 
HETATM    6  O9  UNL     1     -35.473   4.738   4.364  1.00 20.00    -0.265 OA
BRANCH   5   7
HETATM    7  O10 UNL     1     -33.271   4.207   3.908  1.00 20.00    -0.326 OA
HETATM    8  C8  UNL     1     -33.285   3.024   4.711  1.00 20.00     0.213 C 
ENDBRANCH   5   7
ENDBRANCH   2   5
BRANCH   3   9
HETATM    9  C2  UNL     1     -33.084   5.956   1.530  1.00 20.00     0.093 C 
HETATM   10  C1  UNL     1     -31.978   5.269   1.218  1.00 20.00     0.052 C 
HETATM   11  F11 UNL     1     -34.176   5.753   0.756  1.00 20.00    -0.211 F 
ENDBRANCH   3   9
TORSDOF 3
ENDMDL
MODEL 5
REMARK VINA RESULT:      -0.2      1.981      2.841
REMARK  3 active torsions:
REMARK  status: ('A' for Active; 'I' for Inactive)
REMARK    1  A    between atoms: C2_2  and  C6_6 
REMARK    2  A    between atoms: C3_3  and  C5_5 
REMARK    3  A    between atoms: C3_3  and  O10_10 
ROOT
HETATM    1  C4  UNL     1     -31.485   7.956   2.752  1.00 20.00     0.033 A 
HETATM    2  C5  UNL     1     -32.360   8.702   1.781  1.00 20.00     0.101 A 
HETATM    3  C6  UNL     1     -32.803   7.352   2.319  1.00 20.00     0.023 A 
HETATM    4  C7  UNL     1     -33.928   7.333   3.321  1.00 20.00     0.023 C 
ENDROOT
BRANCH   2   5
HETATM    5  C3  UNL     1     -31.916   8.862   0.390  1.00 20.00     0.263 C 
HETATM    6  O9  UNL     1     -30.899   8.358  -0.068  1.00 20.00    -0.265 OA
BRANCH   5   7
HETATM    7  O10 UNL     1     -32.804   9.647  -0.284  1.00 20.00    -0.326 OA
HETATM    8  C8  UNL     1     -33.035  10.941   0.281  1.00 20.00     0.213 C 
ENDBRANCH   5   7
ENDBRANCH   2   5
BRANCH   3   9
HETATM    9  C2  UNL     1     -32.734   6.184   1.433  1.00 20.00     0.093 C 
HETATM   10  C1  UNL     1     -31.770   5.255   1.440  1.00 20.00     0.052 C 
HETATM   11  F11 UNL     1     -33.732   6.034   0.531  1.00 20.00    -0.211 F 
ENDBRANCH   3   9
TORSDOF 3
ENDMDL
MODEL 6
REMARK VINA RESULT:      -0.0      1.626      2.542
REMARK  3 active torsions:
REMARK  status: ('A' for Active; 'I' for Inactive)
REMARK    1  A    between atoms: C2_2  and  C6_6 
REMARK    2  A    between atoms: C3_3  and  C5_5 
REMARK    3  A    between atoms: C3_3  and  O10_10 
ROOT
HETATM    1  C4  UNL     1     -33.423   7.314   4.023  1.00 20.00     0.033 A 
HETATM    2  C5  UNL     1     -33.847   7.111   2.594  1.00 20.00     0.101 A 
HETATM    3  C6  UNL     1     -34.261   6.109   3.658  1.00 20.00     0.023 A 
HETATM    4  C7  UNL     1     -35.705   6.102   4.088  1.00 20.00     0.023 C 
ENDROOT
BRANCH   2   5
HETATM    5  C3  UNL     1     -32.833   6.779   1.584  1.00 20.00     0.263 C 
HETATM    6  O9  UNL     1     -32.939   5.860   0.783  1.00 20.00    -0.265 OA
BRANCH   5   7
HETATM    7  O10 UNL     1     -31.784   7.644   1.689  1.00 20.00    -0.326 OA
HETATM    8  C8  UNL     1     -31.934   8.882   0.988  1.00 20.00     0.213 C 
ENDBRANCH   5   7
ENDBRANCH   2   5
BRANCH   3   9
HETATM    9  C2  UNL     1     -33.591   4.804   3.694  1.00 20.00     0.093 C 
HETATM   10  C1  UNL     1     -33.949   3.763   4.455  1.00 20.00     0.052 C 
HETATM   11  F11 UNL     1     -32.517   4.639   2.886  1.00 20.00    -0.211 F 
ENDBRANCH   3   9
TORSDOF 3
ENDMDL
MODEL 7
REMARK VINA RESULT:       0.4      2.250      3.803
REMARK  3 active torsions:
REMARK  status: ('A' for Active; 'I' for Inactive)
REMARK    1  A    between atoms: C2_2  and  C6_6 
REMARK    2  A    between atoms: C3_3  and  C5_5 
REMARK    3  A    between atoms: C3_3  and  O10_10 
ROOT
HETATM    1  C4  UNL     1     -31.916   6.422   1.717  1.00 20.00     0.033 A 
HETATM    2  C5  UNL     1     -33.399   6.566   1.924  1.00 20.00     0.101 A 
HETATM    3  C6  UNL     1     -32.490   7.774   2.079  1.00 20.00     0.023 A 
HETATM    4  C7  UNL     1     -32.537   8.827   1.003  1.00 20.00     0.023 C 
ENDROOT
BRANCH   2   5
HETATM    5  C3  UNL     1     -34.028   5.929   3.089  1.00 20.00     0.263 C 
HETATM    6  O9  UNL     1     -35.048   6.337   3.627  1.00 20.00    -0.265 OA
BRANCH   5   7
HETATM    7  O10 UNL     1     -33.300   4.836   3.459  1.00 20.00    -0.326 OA
HETATM    8  C8  UNL     1     -33.972   3.912   4.320  1.00 20.00     0.213 C 
ENDBRANCH   5   7
ENDBRANCH   2   5
BRANCH   3   9
HETATM    9  C2  UNL     1     -32.205   8.271   3.430  1.00 20.00     0.093 C 
HETATM   10  C1  UNL     1     -33.069   8.294   4.452  1.00 20.00     0.052 C 
HETATM   11  F11 UNL     1     -30.959   8.746   3.663  1.00 20.00    -0.211 F 
ENDBRANCH   3   9
TORSDOF 3
ENDMDL
MODEL 8
REMARK VINA RESULT:       0.5      1.952      3.596
REMARK  3 active torsions:
REMARK  status: ('A' for Active; 'I' for Inactive)
REMARK    1  A    between atoms: C2_2  and  C6_6 
REMARK    2  A    between atoms: C3_3  and  C5_5 
REMARK    3  A    between atoms: C3_3  and  O10_10 
ROOT
HETATM    1  C4  UNL     1     -32.367   5.524   2.471  1.00 20.00     0.033 A 
HETATM    2  C5  UNL     1     -33.693   6.202   2.681  1.00 20.00     0.101 A 
HETATM    3  C6  UNL     1     -32.826   6.582   1.493  1.00 20.00     0.023 A 
HETATM    4  C7  UNL     1     -33.274   6.129   0.127  1.00 20.00     0.023 C 
ENDROOT
BRANCH   2   5
HETATM    5  C3  UNL     1     -33.863   7.109   3.824  1.00 20.00     0.263 C 
HETATM    6  O9  UNL     1     -33.010   7.899   4.205  1.00 20.00    -0.265 OA
BRANCH   5   7
HETATM    7  O10 UNL     1     -35.098   6.925   4.373  1.00 20.00    -0.326 OA
HETATM    8  C8  UNL     1     -35.563   5.572   4.402  1.00 20.00     0.213 C 
ENDBRANCH   5   7
ENDBRANCH   2   5
BRANCH   3   9
HETATM    9  C2  UNL     1     -32.112   7.864   1.524  1.00 20.00     0.093 C 
HETATM   10  C1  UNL     1     -32.475   8.976   0.873  1.00 20.00     0.052 C 
HETATM   11  F11 UNL     1     -30.989   7.927   2.278  1.00 20.00    -0.211 F 
ENDBRANCH   3   9
TORSDOF 3
ENDMDL
MODEL 9
REMARK VINA RESULT:       0.9      0.748      1.421
REMARK  3 active torsions:
REMARK  status: ('A' for Active; 'I' for Inactive)
REMARK    1  A    between atoms: C2_2  and  C6_6 
REMARK    2  A    between atoms: C3_3  and  C5_5 
REMARK    3  A    between atoms: C3_3  and  O10_10 
ROOT
HETATM    1  C4  UNL     1     -33.599   5.745   1.278  1.00 20.00     0.033 A 
HETATM    2  C5  UNL     1     -32.363   6.337   1.898  1.00 20.00     0.101 A 
HETATM    3  C6  UNL     1     -33.458   5.767   2.785  1.00 20.00     0.023 A 
HETATM    4  C7  UNL     1     -33.183   4.461   3.483  1.00 20.00     0.023 C 
ENDROOT
BRANCH   2   5
HETATM    5  C3  UNL     1     -32.134   7.785   1.802  1.00 20.00     0.263 C 
HETATM    6  O9  UNL     1     -32.762   8.531   1.063  1.00 20.00    -0.265 OA
BRANCH   5   7
HETATM    7  O10 UNL     1     -31.130   8.146   2.652  1.00 20.00    -0.326 OA
HETATM    8  C8  UNL     1     -31.496   9.074   3.678  1.00 20.00     0.213 C 
ENDBRANCH   5   7
ENDBRANCH   2   5
BRANCH   3   9
HETATM    9  C2  UNL     1     -34.327   6.697   3.515  1.00 20.00     0.093 C 
HETATM   10  C1  UNL     1     -35.659   6.776   3.397  1.00 20.00     0.052 C 
HETATM   11  F11 UNL     1     -33.731   7.547   4.383  1.00 20.00    -0.211 F 
ENDBRANCH   3   9
TORSDOF 3
ENDMDL
