MODEL 1
REMARK VINA RESULT:      -1.1      0.000      0.000
REMARK  1 active torsions:
REMARK  status: ('A' for Active; 'I' for Inactive)
REMARK    1  A    between atoms: C1_1  and  C3_3 
ROOT
HETATM    1  C2  UNL     1     -35.577   6.280   3.541  1.00 20.00     0.056 A 
HETATM    2  C3  UNL     1     -34.627   5.577   4.451  1.00 20.00     0.067 A 
HETATM    3  C4  UNL     1     -34.131   6.691   3.584  1.00 20.00     0.122 A 
HETATM    4 CL7  UNL     1     -33.144   6.369   2.163  1.00 20.00    -0.101 Cl
HETATM    5 CL8  UNL     1     -33.726   8.210   4.383  1.00 20.00    -0.101 Cl
ENDROOT
BRANCH   2   6
HETATM    6  C1  UNL     1     -34.262   4.160   4.139  1.00 20.00     0.090 C 
HETATM    7  N6  UNL     1     -33.450   3.508   4.896  1.00 20.00    -0.310 NA
HETATM    8  C5  UNL     1     -33.205   2.143   4.441  1.00 20.00     0.176 C 
ENDBRANCH   2   6
TORSDOF 1
ENDMDL
MODEL 2
REMARK VINA RESULT:      -0.9      2.618      3.571
REMARK  1 active torsions:
REMARK  status: ('A' for Active; 'I' for Inactive)
REMARK    1  A    between atoms: C1_1  and  C3_3 
ROOT
HETATM    1  C2  UNL     1     -31.600   6.694   1.477  1.00 20.00     0.056 A 
HETATM    2  C3  UNL     1     -33.076   6.817   1.657  1.00 20.00     0.067 A 
HETATM    3  C4  UNL     1     -32.201   8.006   1.901  1.00 20.00     0.122 A 
HETATM    4 CL7  UNL     1     -31.868   8.572   3.534  1.00 20.00    -0.101 Cl
HETATM    5 CL8  UNL     1     -32.266   9.307   0.713  1.00 20.00    -0.101 Cl
ENDROOT
BRANCH   2   6
HETATM    6  C1  UNL     1     -33.713   6.102   2.806  1.00 20.00     0.090 C 
HETATM    7  N6  UNL     1     -34.767   6.578   3.372  1.00 20.00    -0.310 NA
HETATM    8  C5  UNL     1     -35.251   5.754   4.476  1.00 20.00     0.176 C 
ENDBRANCH   2   6
TORSDOF 1
ENDMDL
MODEL 3
REMARK VINA RESULT:      -0.8      3.519      4.843
REMARK  1 active torsions:
REMARK  status: ('A' for Active; 'I' for Inactive)
REMARK    1  A    between atoms: C1_1  and  C3_3 
ROOT
HETATM    1  C2  UNL     1     -33.415   5.776   1.253  1.00 20.00     0.056 A 
HETATM    2  C3  UNL     1     -32.343   6.496   1.999  1.00 20.00     0.067 A 
HETATM    3  C4  UNL     1     -33.495   5.904   2.750  1.00 20.00     0.122 A 
HETATM    4 CL7  UNL     1     -34.764   6.922   3.420  1.00 20.00    -0.101 Cl
HETATM    5 CL8  UNL     1     -33.167   4.469   3.720  1.00 20.00    -0.101 Cl
ENDROOT
BRANCH   2   6
HETATM    6  C1  UNL     1     -32.234   7.979   1.834  1.00 20.00     0.090 C 
HETATM    7  N6  UNL     1     -32.372   8.523   0.675  1.00 20.00    -0.310 NA
HETATM    8  C5  UNL     1     -32.233   9.976   0.699  1.00 20.00     0.176 C 
ENDBRANCH   2   6
TORSDOF 1
ENDMDL
MODEL 4
REMARK VINA RESULT:      -0.2      3.993      5.335
REMARK  1 active torsions:
REMARK  status: ('A' for Active; 'I' for Inactive)
REMARK    1  A    between atoms: C1_1  and  C3_3 
ROOT
HETATM    1  C2  UNL     1     -31.663   6.013   1.749  1.00 20.00     0.056 A 
HETATM    2  C3  UNL     1     -32.174   7.400   1.950  1.00 20.00     0.067 A 
HETATM    3  C4  UNL     1     -33.144   6.271   1.800  1.00 20.00     0.122 A 
HETATM    4 CL7  UNL     1     -34.067   6.054   0.318  1.00 20.00    -0.101 Cl
HETATM    5 CL8  UNL     1     -34.020   5.770   3.246  1.00 20.00    -0.101 Cl
ENDROOT
BRANCH   2   6
HETATM    6  C1  UNL     1     -31.994   8.391   0.844  1.00 20.00     0.090 C 
HETATM    7  N6  UNL     1     -32.638   9.506   0.849  1.00 20.00    -0.310 NA
HETATM    8  C5  UNL     1     -32.344  10.348  -0.307  1.00 20.00     0.176 C 
ENDBRANCH   2   6
TORSDOF 1
ENDMDL
MODEL 5
REMARK VINA RESULT:      -0.2      3.355      4.474
REMARK  1 active torsions:
REMARK  status: ('A' for Active; 'I' for Inactive)
REMARK    1  A    between atoms: C1_1  and  C3_3 
ROOT
HETATM    1  C2  UNL     1     -33.221   7.509   4.403  1.00 20.00     0.056 A 
HETATM    2  C3  UNL     1     -33.552   7.905   3.004  1.00 20.00     0.067 A 
HETATM    3  C4  UNL     1     -33.998   6.573   3.519  1.00 20.00     0.122 A 
HETATM    4 CL7  UNL     1     -33.210   5.087   3.002  1.00 20.00    -0.101 Cl
HETATM    5 CL8  UNL     1     -35.720   6.372   3.839  1.00 20.00    -0.101 Cl
ENDROOT
BRANCH   2   6
HETATM    6  C1  UNL     1     -32.439   7.994   2.008  1.00 20.00     0.090 C 
HETATM    7  N6  UNL     1     -32.439   8.909   1.102  1.00 20.00    -0.310 NA
HETATM    8  C5  UNL     1     -31.280   8.844   0.216  1.00 20.00     0.176 C 
ENDBRANCH   2   6
TORSDOF 1
ENDMDL
MODEL 6
REMARK VINA RESULT:      -0.1      3.158      4.322
REMARK  1 active torsions:
REMARK  status: ('A' for Active; 'I' for Inactive)
REMARK    1  A    between atoms: C1_1  and  C3_3 
ROOT
HETATM    1  C2  UNL     1     -31.230   8.467   2.395  1.00 20.00     0.056 A 
HETATM    2  C3  UNL     1     -32.273   7.544   1.861  1.00 20.00     0.067 A 
HETATM    3  C4  UNL     1     -31.938   8.794   1.109  1.00 20.00     0.122 A 
HETATM    4 CL7  UNL     1     -33.031  10.174   1.102  1.00 20.00    -0.101 Cl
HETATM    5 CL8  UNL     1     -31.042   8.608  -0.398  1.00 20.00    -0.101 Cl
ENDROOT
BRANCH   2   6
HETATM    6  C1  UNL     1     -33.570   7.434   2.599  1.00 20.00     0.090 C 
HETATM    7  N6  UNL     1     -33.847   6.382   3.287  1.00 20.00    -0.310 NA
HETATM    8  C5  UNL     1     -35.153   6.445   3.937  1.00 20.00     0.176 C 
ENDBRANCH   2   6
TORSDOF 1
ENDMDL
MODEL 7
REMARK VINA RESULT:       0.2      2.845      3.269
REMARK  1 active torsions:
REMARK  status: ('A' for Active; 'I' for Inactive)
REMARK    1  A    between atoms: C1_1  and  C3_3 
ROOT
HETATM    1  C2  UNL     1     -33.496   7.325   3.915  1.00 20.00     0.056 A 
HETATM    2  C3  UNL     1     -33.628   6.924   2.485  1.00 20.00     0.067 A 
HETATM    3  C4  UNL     1     -34.438   6.218   3.527  1.00 20.00     0.122 A 
HETATM    4 CL7  UNL     1     -34.037   4.582   4.038  1.00 20.00    -0.101 Cl
HETATM    5 CL8  UNL     1     -36.168   6.554   3.562  1.00 20.00    -0.101 Cl
ENDROOT
BRANCH   2   6
HETATM    6  C1  UNL     1     -32.474   6.231   1.831  1.00 20.00     0.090 C 
HETATM    7  N6  UNL     1     -32.666   5.220   1.059  1.00 20.00    -0.310 NA
HETATM    8  C5  UNL     1     -31.430   4.669   0.511  1.00 20.00     0.176 C 
ENDBRANCH   2   6
TORSDOF 1
ENDMDL
MODEL 8
REMARK VINA RESULT:       0.6      2.338      2.566
REMARK  1 active torsions:
REMARK  status: ('A' for Active; 'I' for Inactive)
REMARK    1  A    between atoms: C1_1  and  C3_3 
ROOT
HETATM    1  C2  UNL     1     -34.950   7.198   3.350  1.00 20.00     0.056 A 
HETATM    2  C3  UNL     1     -33.952   6.125   3.629  1.00 20.00     0.067 A 
HETATM    3  C4  UNL     1     -33.536   7.560   3.715  1.00 20.00     0.122 A 
HETATM    4 CL7  UNL     1     -32.529   8.292   2.471  1.00 20.00    -0.101 Cl
HETATM    5 CL8  UNL     1     -33.239   8.214   5.325  1.00 20.00    -0.101 Cl
ENDROOT
BRANCH   2   6
HETATM    6  C1  UNL     1     -33.488   5.273   2.490  1.00 20.00     0.090 C 
HETATM    7  N6  UNL     1     -32.667   5.737   1.614  1.00 20.00    -0.310 NA
HETATM    8  C5  UNL     1     -32.325   4.771   0.574  1.00 20.00     0.176 C 
ENDBRANCH   2   6
TORSDOF 1
ENDMDL
MODEL 9
REMARK VINA RESULT:       0.9      3.751      5.087
REMARK  1 active torsions:
REMARK  status: ('A' for Active; 'I' for Inactive)
REMARK    1  A    between atoms: C1_1  and  C3_3 
ROOT
HETATM    1  C2  UNL     1     -32.760   6.438   2.687  1.00 20.00     0.056 A 
HETATM    2  C3  UNL     1     -32.309   7.833   2.411  1.00 20.00     0.067 A 
HETATM    3  C4  UNL     1     -33.376   7.591   3.432  1.00 20.00     0.122 A 
HETATM    4 CL7  UNL     1     -35.060   7.978   3.099  1.00 20.00    -0.101 Cl
HETATM    5 CL8  UNL     1     -32.932   7.812   5.124  1.00 20.00    -0.101 Cl
ENDROOT
BRANCH   2   6
HETATM    6  C1  UNL     1     -32.656   8.444   1.090  1.00 20.00     0.090 C 
HETATM    7  N6  UNL     1     -32.280   9.640   0.800  1.00 20.00    -0.310 NA
HETATM    8  C5  UNL     1     -32.708  10.075  -0.527  1.00 20.00     0.176 C 
ENDBRANCH   2   6
TORSDOF 1
ENDMDL
