MODEL 1
REMARK VINA RESULT:      -0.4      0.000      0.000
REMARK  3 active torsions:
REMARK  status: ('A' for Active; 'I' for Inactive)
REMARK    1  A    between atoms: C1_1  and  C4_4 
REMARK    2  A    between atoms: C2_2  and  C8_8 
REMARK    3  A    between atoms: C8_8  and  O10_10 
ROOT
HETATM    1  C1  UNL     1     -32.641   8.322   1.619  1.00 20.00    -0.069 C 
HETATM    2  C2  UNL     1     -33.186   7.716   2.501  1.00 20.00    -0.066 C 
ENDROOT
BRANCH   2   3
HETATM    3  C8  UNL     1     -33.853   6.973   3.585  1.00 20.00     0.116 C 
HETATM    4  C5  UNL     1     -35.357   6.888   3.332  1.00 20.00     0.060 C 
HETATM    5  C6  UNL     1     -33.573   7.638   4.932  1.00 20.00     0.060 C 
BRANCH   3   6
HETATM    6  O10 UNL     1     -33.326   5.647   3.646  1.00 20.00    -0.373 OA
HETATM    7  C7  UNL     1     -34.310   4.722   4.080  1.00 20.00     0.204 C 
ENDBRANCH   3   6
ENDBRANCH   2   3
BRANCH   1   8
HETATM    8  C4  UNL     1     -31.979   9.060   0.544  1.00 20.00     0.224 A 
HETATM    9  C3  UNL     1     -32.355  10.480   0.315  1.00 20.00     0.214 A 
HETATM   10  O9  UNL     1     -32.886   9.420  -0.490  1.00 20.00    -0.368 OA
ENDBRANCH   1   8
TORSDOF 3
ENDMDL
MODEL 2
REMARK VINA RESULT:       0.2      0.803      1.731
REMARK  3 active torsions:
REMARK  status: ('A' for Active; 'I' for Inactive)
REMARK    1  A    between atoms: C1_1  and  C4_4 
REMARK    2  A    between atoms: C2_2  and  C8_8 
REMARK    3  A    between atoms: C8_8  and  O10_10 
ROOT
HETATM    1  C1  UNL     1     -32.551   8.362   1.442  1.00 20.00    -0.069 C 
HETATM    2  C2  UNL     1     -33.032   7.634   2.267  1.00 20.00    -0.066 C 
ENDROOT
BRANCH   2   3
HETATM    3  C8  UNL     1     -33.621   6.742   3.281  1.00 20.00     0.116 C 
HETATM    4  C5  UNL     1     -33.302   5.282   2.963  1.00 20.00     0.060 C 
HETATM    5  C6  UNL     1     -35.132   6.955   3.358  1.00 20.00     0.060 C 
BRANCH   3   6
HETATM    6  O10 UNL     1     -33.080   7.058   4.564  1.00 20.00    -0.373 OA
HETATM    7  C7  UNL     1     -33.571   8.303   5.036  1.00 20.00     0.204 C 
ENDBRANCH   3   6
ENDBRANCH   2   3
BRANCH   1   8
HETATM    8  C4  UNL     1     -31.965   9.248   0.437  1.00 20.00     0.224 A 
HETATM    9  C3  UNL     1     -32.569  10.592   0.230  1.00 20.00     0.214 A 
HETATM   10  O9  UNL     1     -32.860   9.491  -0.641  1.00 20.00    -0.368 OA
ENDBRANCH   1   8
TORSDOF 3
ENDMDL
MODEL 3
REMARK VINA RESULT:       0.3      1.829      4.492
REMARK  3 active torsions:
REMARK  status: ('A' for Active; 'I' for Inactive)
REMARK    1  A    between atoms: C1_1  and  C4_4 
REMARK    2  A    between atoms: C2_2  and  C8_8 
REMARK    3  A    between atoms: C8_8  and  O10_10 
ROOT
HETATM    1  C1  UNL     1     -33.965   7.181   3.469  1.00 20.00    -0.069 C 
HETATM    2  C2  UNL     1     -33.076   7.549   2.750  1.00 20.00    -0.066 C 
ENDROOT
BRANCH   2   3
HETATM    3  C8  UNL     1     -31.986   7.999   1.867  1.00 20.00     0.116 C 
HETATM    4  C5  UNL     1     -30.848   8.608   2.685  1.00 20.00     0.060 C 
HETATM    5  C6  UNL     1     -32.512   9.009   0.848  1.00 20.00     0.060 C 
BRANCH   3   6
HETATM    6  O10 UNL     1     -31.475   6.884   1.136  1.00 20.00    -0.373 OA
HETATM    7  C7  UNL     1     -32.317   5.750   1.273  1.00 20.00     0.204 C 
ENDBRANCH   3   6
ENDBRANCH   2   3
BRANCH   1   8
HETATM    8  C4  UNL     1     -35.046   6.734   4.345  1.00 20.00     0.224 A 
HETATM    9  C3  UNL     1     -35.333   5.277   4.439  1.00 20.00     0.214 A 
HETATM   10  O9  UNL     1     -36.114   6.148   3.612  1.00 20.00    -0.368 OA
ENDBRANCH   1   8
TORSDOF 3
ENDMDL
MODEL 4
REMARK VINA RESULT:       0.4      1.460      4.840
REMARK  3 active torsions:
REMARK  status: ('A' for Active; 'I' for Inactive)
REMARK    1  A    between atoms: C1_1  and  C4_4 
REMARK    2  A    between atoms: C2_2  and  C8_8 
REMARK    3  A    between atoms: C8_8  and  O10_10 
ROOT
HETATM    1  C1  UNL     1     -33.952   7.187   3.521  1.00 20.00    -0.069 C 
HETATM    2  C2  UNL     1     -33.130   7.661   2.784  1.00 20.00    -0.066 C 
ENDROOT
BRANCH   2   3
HETATM    3  C8  UNL     1     -32.122   8.240   1.879  1.00 20.00     0.116 C 
HETATM    4  C5  UNL     1     -31.772   7.256   0.763  1.00 20.00     0.060 C 
HETATM    5  C6  UNL     1     -30.869   8.629   2.662  1.00 20.00     0.060 C 
BRANCH   3   6
HETATM    6  O10 UNL     1     -32.643   9.432   1.288  1.00 20.00    -0.373 OA
HETATM    7  C7  UNL     1     -32.240   9.552  -0.067  1.00 20.00     0.204 C 
ENDBRANCH   3   6
ENDBRANCH   2   3
BRANCH   1   8
HETATM    8  C4  UNL     1     -34.952   6.612   4.419  1.00 20.00     0.224 A 
HETATM    9  C3  UNL     1     -35.173   5.141   4.394  1.00 20.00     0.214 A 
HETATM   10  O9  UNL     1     -36.043   6.047   3.704  1.00 20.00    -0.368 OA
ENDBRANCH   1   8
TORSDOF 3
ENDMDL
MODEL 5
REMARK VINA RESULT:       0.6      1.778      2.496
REMARK  3 active torsions:
REMARK  status: ('A' for Active; 'I' for Inactive)
REMARK    1  A    between atoms: C1_1  and  C4_4 
REMARK    2  A    between atoms: C2_2  and  C8_8 
REMARK    3  A    between atoms: C8_8  and  O10_10 
ROOT
HETATM    1  C1  UNL     1     -32.138   8.263   1.016  1.00 20.00    -0.069 C 
HETATM    2  C2  UNL     1     -32.384   7.121   1.298  1.00 20.00    -0.066 C 
ENDROOT
BRANCH   2   3
HETATM    3  C8  UNL     1     -32.685   5.722   1.646  1.00 20.00     0.116 C 
HETATM    4  C5  UNL     1     -31.433   4.855   1.523  1.00 20.00     0.060 C 
HETATM    5  C6  UNL     1     -33.800   5.182   0.751  1.00 20.00     0.060 C 
BRANCH   3   6
HETATM    6  O10 UNL     1     -33.153   5.657   2.994  1.00 20.00    -0.373 OA
HETATM    7  C7  UNL     1     -34.200   6.587   3.220  1.00 20.00     0.204 C 
ENDBRANCH   3   6
ENDBRANCH   2   3
BRANCH   1   8
HETATM    8  C4  UNL     1     -31.839   9.652   0.672  1.00 20.00     0.224 A 
HETATM    9  C3  UNL     1     -32.932  10.658   0.748  1.00 20.00     0.214 A 
HETATM   10  O9  UNL     1     -32.533  10.070  -0.496  1.00 20.00    -0.368 OA
ENDBRANCH   1   8
TORSDOF 3
ENDMDL
MODEL 6
REMARK VINA RESULT:       0.8      1.904      5.315
REMARK  3 active torsions:
REMARK  status: ('A' for Active; 'I' for Inactive)
REMARK    1  A    between atoms: C1_1  and  C4_4 
REMARK    2  A    between atoms: C2_2  and  C8_8 
REMARK    3  A    between atoms: C8_8  and  O10_10 
ROOT
HETATM    1  C1  UNL     1     -33.781   4.313   4.126  1.00 20.00    -0.069 C 
HETATM    2  C2  UNL     1     -34.001   5.444   3.785  1.00 20.00    -0.066 C 
ENDROOT
BRANCH   2   3
HETATM    3  C8  UNL     1     -34.271   6.829   3.364  1.00 20.00     0.116 C 
HETATM    4  C5  UNL     1     -33.762   7.819   4.412  1.00 20.00     0.060 C 
HETATM    5  C6  UNL     1     -35.767   7.027   3.124  1.00 20.00     0.060 C 
BRANCH   3   6
HETATM    6  O10 UNL     1     -33.603   7.090   2.129  1.00 20.00    -0.373 OA
HETATM    7  C7  UNL     1     -32.396   7.805   2.338  1.00 20.00     0.204 C 
ENDBRANCH   3   6
ENDBRANCH   2   3
BRANCH   1   8
HETATM    8  C4  UNL     1     -33.512   2.938   4.542  1.00 20.00     0.224 A 
HETATM    9  C3  UNL     1     -32.703   2.707   5.769  1.00 20.00     0.214 A 
HETATM   10  O9  UNL     1     -32.129   2.619   4.459  1.00 20.00    -0.368 OA
ENDBRANCH   1   8
TORSDOF 3
ENDMDL
MODEL 7
REMARK VINA RESULT:       1.1      2.342      5.546
REMARK  3 active torsions:
REMARK  status: ('A' for Active; 'I' for Inactive)
REMARK    1  A    between atoms: C1_1  and  C4_4 
REMARK    2  A    between atoms: C2_2  and  C8_8 
REMARK    3  A    between atoms: C8_8  and  O10_10 
ROOT
HETATM    1  C1  UNL     1     -33.565   4.455   3.593  1.00 20.00    -0.069 C 
HETATM    2  C2  UNL     1     -33.279   5.165   2.668  1.00 20.00    -0.066 C 
ENDROOT
BRANCH   2   3
HETATM    3  C8  UNL     1     -32.930   6.036   1.531  1.00 20.00     0.116 C 
HETATM    4  C5  UNL     1     -33.904   5.825   0.373  1.00 20.00     0.060 C 
HETATM    5  C6  UNL     1     -31.495   5.767   1.080  1.00 20.00     0.060 C 
BRANCH   3   6
HETATM    6  O10 UNL     1     -32.998   7.403   1.941  1.00 20.00    -0.373 OA
HETATM    7  C7  UNL     1     -31.754   8.058   1.755  1.00 20.00     0.204 C 
ENDBRANCH   3   6
ENDBRANCH   2   3
BRANCH   1   8
HETATM    8  C4  UNL     1     -33.912   3.591   4.719  1.00 20.00     0.224 A 
HETATM    9  C3  UNL     1     -32.815   2.948   5.492  1.00 20.00     0.214 A 
HETATM   10  O9  UNL     1     -33.543   2.238   4.483  1.00 20.00    -0.368 OA
ENDBRANCH   1   8
TORSDOF 3
ENDMDL
MODEL 8
REMARK VINA RESULT:       1.1      2.050      2.353
REMARK  3 active torsions:
REMARK  status: ('A' for Active; 'I' for Inactive)
REMARK    1  A    between atoms: C1_1  and  C4_4 
REMARK    2  A    between atoms: C2_2  and  C8_8 
REMARK    3  A    between atoms: C8_8  and  O10_10 
ROOT
HETATM    1  C1  UNL     1     -32.244   8.417   0.975  1.00 20.00    -0.069 C 
HETATM    2  C2  UNL     1     -32.519   7.296   1.310  1.00 20.00    -0.066 C 
ENDROOT
BRANCH   2   3
HETATM    3  C8  UNL     1     -32.854   5.922   1.722  1.00 20.00     0.116 C 
HETATM    4  C5  UNL     1     -33.686   5.225   0.646  1.00 20.00     0.060 C 
HETATM    5  C6  UNL     1     -33.604   5.937   3.053  1.00 20.00     0.060 C 
BRANCH   3   6
HETATM    6  O10 UNL     1     -31.651   5.178   1.920  1.00 20.00    -0.373 OA
HETATM    7  C7  UNL     1     -31.297   4.453   0.753  1.00 20.00     0.204 C 
ENDBRANCH   3   6
ENDBRANCH   2   3
BRANCH   1   8
HETATM    8  C4  UNL     1     -31.911   9.780   0.567  1.00 20.00     0.224 A 
HETATM    9  C3  UNL     1     -32.981  10.813   0.583  1.00 20.00     0.214 A 
HETATM   10  O9  UNL     1     -32.584  10.156  -0.627  1.00 20.00    -0.368 OA
ENDBRANCH   1   8
TORSDOF 3
ENDMDL
MODEL 9
REMARK VINA RESULT:       1.5      1.908      4.656
REMARK  3 active torsions:
REMARK  status: ('A' for Active; 'I' for Inactive)
REMARK    1  A    between atoms: C1_1  and  C4_4 
REMARK    2  A    between atoms: C2_2  and  C8_8 
REMARK    3  A    between atoms: C8_8  and  O10_10 
ROOT
HETATM    1  C1  UNL     1     -34.011   7.138   3.429  1.00 20.00    -0.069 C 
HETATM    2  C2  UNL     1     -33.130   7.506   2.700  1.00 20.00    -0.066 C 
ENDROOT
BRANCH   2   3
HETATM    3  C8  UNL     1     -32.050   7.956   1.804  1.00 20.00     0.116 C 
HETATM    4  C5  UNL     1     -32.542   9.076   0.889  1.00 20.00     0.060 C 
HETATM    5  C6  UNL     1     -31.524   6.782   0.979  1.00 20.00     0.060 C 
BRANCH   3   6
HETATM    6  O10 UNL     1     -30.961   8.450   2.584  1.00 20.00    -0.373 OA
HETATM    7  C7  UNL     1     -31.420   9.065   3.778  1.00 20.00     0.204 C 
ENDBRANCH   3   6
ENDBRANCH   2   3
BRANCH   1   8
HETATM    8  C4  UNL     1     -35.082   6.691   4.318  1.00 20.00     0.224 A 
HETATM    9  C3  UNL     1     -35.334   5.231   4.456  1.00 20.00     0.214 A 
HETATM   10  O9  UNL     1     -36.135   6.057   3.601  1.00 20.00    -0.368 OA
ENDBRANCH   1   8
TORSDOF 3
ENDMDL
