MODEL 1
REMARK VINA RESULT:      -1.8      0.000      0.000
REMARK  1 active torsions:
REMARK  status: ('A' for Active; 'I' for Inactive)
REMARK    1  A    between atoms: C5_5  and  O10_10 
ROOT
HETATM    1  C1  UNL     1     -34.161   7.899   3.643  1.00 20.00     0.011 A 
HETATM    2  C2  UNL     1     -34.949   6.981   4.343  1.00 20.00     0.040 A 
HETATM    3  C3  UNL     1     -33.242   7.411   2.729  1.00 20.00    -0.049 A 
HETATM    4  C4  UNL     1     -33.111   6.037   2.500  1.00 20.00    -0.010 A 
HETATM    5  C5  UNL     1     -34.816   5.602   4.113  1.00 20.00     0.104 A 
HETATM    6  C6  UNL     1     -33.896   5.120   3.180  1.00 20.00     0.156 A 
HETATM    7  C7  UNL     1     -32.324   8.189   1.842  1.00 20.00     0.039 C 
HETATM    8  C8  UNL     1     -32.093   5.768   1.436  1.00 20.00     0.042 C 
HETATM    9  C9  UNL     1     -31.327   7.100   1.416  1.00 20.00     0.009 C 
HETATM   10  F11 UNL     1     -33.776   3.808   2.948  1.00 20.00    -0.203 F 
ENDROOT
BRANCH   5  11
HETATM   11  O10 UNL     1     -35.600   4.728   4.804  1.00 20.00    -0.358 OA
HETATM   12  H20 UNL     1     -35.061   4.204   5.415  1.00 20.00     0.217 HD
ENDBRANCH   5  11
TORSDOF 1
ENDMDL
MODEL 2
REMARK VINA RESULT:      -1.0      1.520      2.419
REMARK  1 active torsions:
REMARK  status: ('A' for Active; 'I' for Inactive)
REMARK    1  A    between atoms: C5_5  and  O10_10 
ROOT
HETATM    1  C1  UNL     1     -32.919   5.213   1.852  1.00 20.00     0.011 A 
HETATM    2  C2  UNL     1     -33.882   4.747   2.750  1.00 20.00     0.040 A 
HETATM    3  C3  UNL     1     -32.567   6.552   1.904  1.00 20.00    -0.049 A 
HETATM    4  C4  UNL     1     -33.150   7.416   2.839  1.00 20.00    -0.010 A 
HETATM    5  C5  UNL     1     -34.466   5.614   3.687  1.00 20.00     0.104 A 
HETATM    6  C6  UNL     1     -34.096   6.959   3.741  1.00 20.00     0.156 A 
HETATM    7  C7  UNL     1     -31.545   7.268   1.081  1.00 20.00     0.039 C 
HETATM    8  C8  UNL     1     -32.569   8.790   2.729  1.00 20.00     0.042 C 
HETATM    9  C9  UNL     1     -31.936   8.733   1.330  1.00 20.00     0.009 C 
HETATM   10  F11 UNL     1     -34.640   7.786   4.642  1.00 20.00    -0.203 F 
ENDROOT
BRANCH   5  11
HETATM   11  O10 UNL     1     -35.399   5.134   4.556  1.00 20.00    -0.358 OA
HETATM   12  H20 UNL     1     -35.799   5.862   5.056  1.00 20.00     0.217 HD
ENDBRANCH   5  11
TORSDOF 1
ENDMDL
MODEL 3
REMARK VINA RESULT:      -0.7      2.563      4.164
REMARK  1 active torsions:
REMARK  status: ('A' for Active; 'I' for Inactive)
REMARK    1  A    between atoms: C5_5  and  O10_10 
ROOT
HETATM    1  C1  UNL     1     -32.364   5.368   1.851  1.00 20.00     0.011 A 
HETATM    2  C2  UNL     1     -31.978   6.640   1.419  1.00 20.00     0.040 A 
HETATM    3  C3  UNL     1     -33.369   5.275   2.800  1.00 20.00    -0.049 A 
HETATM    4  C4  UNL     1     -33.992   6.422   3.306  1.00 20.00    -0.010 A 
HETATM    5  C5  UNL     1     -32.604   7.789   1.928  1.00 20.00     0.104 A 
HETATM    6  C6  UNL     1     -33.624   7.685   2.875  1.00 20.00     0.156 A 
HETATM    7  C7  UNL     1     -33.974   4.038   3.382  1.00 20.00     0.039 C 
HETATM    8  C8  UNL     1     -35.074   6.057   4.274  1.00 20.00     0.042 C 
HETATM    9  C9  UNL     1     -34.689   4.609   4.616  1.00 20.00     0.009 C 
HETATM   10  F11 UNL     1     -34.233   8.777   3.353  1.00 20.00    -0.203 F 
ENDROOT
BRANCH   5  11
HETATM   11  O10 UNL     1     -32.213   9.017   1.486  1.00 20.00    -0.358 OA
HETATM   12  H20 UNL     1     -32.674   9.714   1.979  1.00 20.00     0.217 HD
ENDBRANCH   5  11
TORSDOF 1
ENDMDL
MODEL 4
REMARK VINA RESULT:      -0.5      2.319      3.598
REMARK  1 active torsions:
REMARK  status: ('A' for Active; 'I' for Inactive)
REMARK    1  A    between atoms: C5_5  and  O10_10 
ROOT
HETATM    1  C1  UNL     1     -33.601   8.359   3.441  1.00 20.00     0.011 A 
HETATM    2  C2  UNL     1     -32.653   8.606   2.446  1.00 20.00     0.040 A 
HETATM    3  C3  UNL     1     -33.993   7.049   3.663  1.00 20.00    -0.049 A 
HETATM    4  C4  UNL     1     -33.446   5.997   2.921  1.00 20.00    -0.010 A 
HETATM    5  C5  UNL     1     -32.106   7.550   1.701  1.00 20.00     0.104 A 
HETATM    6  C6  UNL     1     -32.496   6.231   1.940  1.00 20.00     0.156 A 
HETATM    7  C7  UNL     1     -34.953   6.536   4.688  1.00 20.00     0.039 C 
HETATM    8  C8  UNL     1     -33.989   4.681   3.381  1.00 20.00     0.042 C 
HETATM    9  C9  UNL     1     -35.245   5.129   4.144  1.00 20.00     0.009 C 
HETATM   10  F11 UNL     1     -31.967   5.220   1.242  1.00 20.00    -0.203 F 
ENDROOT
BRANCH   5  11
HETATM   11  O10 UNL     1     -31.178   7.817   0.739  1.00 20.00    -0.358 OA
HETATM   12  H20 UNL     1     -30.814   8.707   0.861  1.00 20.00     0.217 HD
ENDBRANCH   5  11
TORSDOF 1
ENDMDL
MODEL 5
REMARK VINA RESULT:       0.4      1.891      3.094
REMARK  1 active torsions:
REMARK  status: ('A' for Active; 'I' for Inactive)
REMARK    1  A    between atoms: C5_5  and  O10_10 
ROOT
HETATM    1  C1  UNL     1     -31.860   6.430   0.953  1.00 20.00     0.011 A 
HETATM    2  C2  UNL     1     -32.519   5.625   1.886  1.00 20.00     0.040 A 
HETATM    3  C3  UNL     1     -32.064   7.799   1.008  1.00 20.00    -0.049 A 
HETATM    4  C4  UNL     1     -32.897   8.366   1.979  1.00 20.00    -0.010 A 
HETATM    5  C5  UNL     1     -33.356   6.195   2.858  1.00 20.00     0.104 A 
HETATM    6  C6  UNL     1     -33.546   7.577   2.915  1.00 20.00     0.156 A 
HETATM    7  C7  UNL     1     -31.446   8.857   0.152  1.00 20.00     0.039 C 
HETATM    8  C8  UNL     1     -32.913   9.858   1.863  1.00 20.00     0.042 C 
HETATM    9  C9  UNL     1     -32.372  10.050   0.437  1.00 20.00     0.009 C 
HETATM   10  F11 UNL     1     -34.331   8.126   3.849  1.00 20.00    -0.203 F 
ENDROOT
BRANCH   5  11
HETATM   11  O10 UNL     1     -33.983   5.389   3.761  1.00 20.00    -0.358 OA
HETATM   12  H20 UNL     1     -33.895   5.754   4.655  1.00 20.00     0.217 HD
ENDBRANCH   5  11
TORSDOF 1
ENDMDL
MODEL 6
REMARK VINA RESULT:       0.7      2.926      4.442
REMARK  1 active torsions:
REMARK  status: ('A' for Active; 'I' for Inactive)
REMARK    1  A    between atoms: C5_5  and  O10_10 
ROOT
HETATM    1  C1  UNL     1     -32.630   5.468   1.844  1.00 20.00     0.011 A 
HETATM    2  C2  UNL     1     -31.754   6.204   1.042  1.00 20.00     0.040 A 
HETATM    3  C3  UNL     1     -33.450   6.156   2.722  1.00 20.00    -0.049 A 
HETATM    4  C4  UNL     1     -33.415   7.553   2.799  1.00 20.00    -0.010 A 
HETATM    5  C5  UNL     1     -31.718   7.605   1.121  1.00 20.00     0.104 A 
HETATM    6  C6  UNL     1     -32.558   8.292   2.000  1.00 20.00     0.156 A 
HETATM    7  C7  UNL     1     -34.486   5.597   3.644  1.00 20.00     0.039 C 
HETATM    8  C8  UNL     1     -34.426   8.059   3.779  1.00 20.00     0.042 C 
HETATM    9  C9  UNL     1     -34.715   6.786   4.591  1.00 20.00     0.009 C 
HETATM   10  F11 UNL     1     -32.538   9.628   2.068  1.00 20.00    -0.203 F 
ENDROOT
BRANCH   5  11
HETATM   11  O10 UNL     1     -30.859   8.301   0.324  1.00 20.00    -0.358 OA
HETATM   12  H20 UNL     1     -30.298   7.690  -0.178  1.00 20.00     0.217 HD
ENDBRANCH   5  11
TORSDOF 1
ENDMDL
