MODEL 1
REMARK VINA RESULT:      -2.6      0.000      0.000
REMARK  5 active torsions:
REMARK  status: ('A' for Active; 'I' for Inactive)
REMARK    1  A    between atoms: C1_1  and  C5_5 
REMARK    2  A    between atoms: C2_2  and  C7_7 
REMARK    3  A    between atoms: C5_5  and  O10_10 
REMARK    4  A    between atoms: C7_7  and  C9_9 
REMARK    5  A    between atoms: C8_8  and  C9_9 
ROOT
HETATM    1  C1  UNL     1     -33.328   7.397   3.063  1.00 20.00    -0.068 C 
HETATM    2  C2  UNL     1     -34.276   6.802   3.497  1.00 20.00    -0.103 C 
ENDROOT
BRANCH   1   3
HETATM    3  C5  UNL     1     -32.172   8.123   2.536  1.00 20.00     0.121 A 
HETATM    4  C3  UNL     1     -31.477   7.580   1.340  1.00 20.00     0.055 A 
HETATM    5  C4  UNL     1     -32.306   8.827   1.234  1.00 20.00     0.055 A 
BRANCH   3   6
HETATM    6  O10 UNL     1     -31.399   8.725   3.567  1.00 20.00    -0.378 OA
HETATM    7  H24 UNL     1     -30.728   9.271   3.129  1.00 20.00     0.211 HD
ENDBRANCH   3   6
ENDBRANCH   1   3
BRANCH   2   8
HETATM    8  C7  UNL     1     -35.437   6.074   4.025  1.00 20.00     0.094 C 
BRANCH   8   9
HETATM    9  C9  UNL     1     -35.008   4.779   4.716  1.00 20.00     0.012 C 
BRANCH   9  10
HETATM   10  C8  UNL     1     -33.936   4.046   3.909  1.00 20.00    -0.004 C 
HETATM   11  C6  UNL     1     -33.232   2.991   4.748  1.00 20.00     0.005 C 
ENDBRANCH   9  10
ENDBRANCH   8   9
ENDBRANCH   2   8
TORSDOF 5
ENDMDL
MODEL 2
REMARK VINA RESULT:      -1.9      1.641      2.582
REMARK  5 active torsions:
REMARK  status: ('A' for Active; 'I' for Inactive)
REMARK    1  A    between atoms: C1_1  and  C5_5 
REMARK    2  A    between atoms: C2_2  and  C7_7 
REMARK    3  A    between atoms: C5_5  and  O10_10 
REMARK    4  A    between atoms: C7_7  and  C9_9 
REMARK    5  A    between atoms: C8_8  and  C9_9 
ROOT
HETATM    1  C1  UNL     1     -32.420   8.433   1.429  1.00 20.00    -0.068 C 
HETATM    2  C2  UNL     1     -32.765   7.677   2.295  1.00 20.00    -0.103 C 
ENDROOT
BRANCH   1   3
HETATM    3  C5  UNL     1     -31.998   9.355   0.375  1.00 20.00     0.121 A 
HETATM    4  C3  UNL     1     -33.024   9.882  -0.563  1.00 20.00     0.055 A 
HETATM    5  C4  UNL     1     -32.408  10.781   0.469  1.00 20.00     0.055 A 
BRANCH   3   6
HETATM    6  O10 UNL     1     -30.704   9.043  -0.127  1.00 20.00    -0.378 OA
HETATM    7  H24 UNL     1     -30.388   9.833  -0.594  1.00 20.00     0.211 HD
ENDBRANCH   3   6
ENDBRANCH   1   3
BRANCH   2   8
HETATM    8  C7  UNL     1     -33.190   6.751   3.353  1.00 20.00     0.094 C 
BRANCH   8   9
HETATM    9  C9  UNL     1     -34.619   7.052   3.808  1.00 20.00     0.012 C 
BRANCH   9  10
HETATM   10  C8  UNL     1     -35.349   5.777   4.227  1.00 20.00    -0.004 C 
HETATM   11  C6  UNL     1     -34.432   4.565   4.171  1.00 20.00     0.005 C 
ENDBRANCH   9  10
ENDBRANCH   8   9
ENDBRANCH   2   8
TORSDOF 5
ENDMDL
MODEL 3
REMARK VINA RESULT:      -1.8      2.285      5.462
REMARK  5 active torsions:
REMARK  status: ('A' for Active; 'I' for Inactive)
REMARK    1  A    between atoms: C1_1  and  C5_5 
REMARK    2  A    between atoms: C2_2  and  C7_7 
REMARK    3  A    between atoms: C5_5  and  O10_10 
REMARK    4  A    between atoms: C7_7  and  C9_9 
REMARK    5  A    between atoms: C8_8  and  C9_9 
ROOT
HETATM    1  C1  UNL     1     -33.414   4.971   3.205  1.00 20.00    -0.068 C 
HETATM    2  C2  UNL     1     -33.001   5.698   2.344  1.00 20.00    -0.103 C 
ENDROOT
BRANCH   1   3
HETATM    3  C5  UNL     1     -33.916   4.084   4.254  1.00 20.00     0.121 A 
HETATM    4  C3  UNL     1     -33.533   2.648   4.215  1.00 20.00     0.055 A 
HETATM    5  C4  UNL     1     -32.958   3.558   5.262  1.00 20.00     0.055 A 
BRANCH   3   6
HETATM    6  O10 UNL     1     -35.230   4.434   4.671  1.00 20.00    -0.378 OA
HETATM    7  H24 UNL     1     -35.620   3.637   5.064  1.00 20.00     0.211 HD
ENDBRANCH   3   6
ENDBRANCH   1   3
BRANCH   2   8
HETATM    8  C7  UNL     1     -32.499   6.590   1.290  1.00 20.00     0.094 C 
BRANCH   8   9
HETATM    9  C9  UNL     1     -32.245   7.997   1.833  1.00 20.00     0.012 C 
BRANCH   9  10
HETATM   10  C8  UNL     1     -31.617   8.898   0.771  1.00 20.00    -0.004 C 
HETATM   11  C6  UNL     1     -32.582   9.984   0.319  1.00 20.00     0.005 C 
ENDBRANCH   9  10
ENDBRANCH   8   9
ENDBRANCH   2   8
TORSDOF 5
ENDMDL
MODEL 4
REMARK VINA RESULT:      -1.5      1.644      5.278
REMARK  5 active torsions:
REMARK  status: ('A' for Active; 'I' for Inactive)
REMARK    1  A    between atoms: C1_1  and  C5_5 
REMARK    2  A    between atoms: C2_2  and  C7_7 
REMARK    3  A    between atoms: C5_5  and  O10_10 
REMARK    4  A    between atoms: C7_7  and  C9_9 
REMARK    5  A    between atoms: C8_8  and  C9_9 
ROOT
HETATM    1  C1  UNL     1     -33.337   7.144   2.863  1.00 20.00    -0.068 C 
HETATM    2  C2  UNL     1     -32.538   7.304   1.981  1.00 20.00    -0.103 C 
ENDROOT
BRANCH   1   3
HETATM    3  C5  UNL     1     -34.310   6.950   3.937  1.00 20.00     0.121 A 
HETATM    4  C3  UNL     1     -35.696   6.552   3.579  1.00 20.00     0.055 A 
HETATM    5  C4  UNL     1     -34.773   5.570   4.239  1.00 20.00     0.055 A 
BRANCH   3   6
HETATM    6  O10 UNL     1     -34.112   7.860   5.013  1.00 20.00    -0.378 OA
HETATM    7  H24 UNL     1     -34.979   7.996   5.426  1.00 20.00     0.211 HD
ENDBRANCH   3   6
ENDBRANCH   1   3
BRANCH   2   8
HETATM    8  C7  UNL     1     -31.560   7.497   0.902  1.00 20.00     0.094 C 
BRANCH   8   9
HETATM    9  C9  UNL     1     -31.303   8.984   0.651  1.00 20.00     0.012 C 
BRANCH   9  10
HETATM   10  C8  UNL     1     -32.443   9.620  -0.144  1.00 20.00    -0.004 C 
HETATM   11  C6  UNL     1     -32.924  10.908   0.507  1.00 20.00     0.005 C 
ENDBRANCH   9  10
ENDBRANCH   8   9
ENDBRANCH   2   8
TORSDOF 5
ENDMDL
MODEL 5
REMARK VINA RESULT:      -1.5      1.526      2.104
REMARK  5 active torsions:
REMARK  status: ('A' for Active; 'I' for Inactive)
REMARK    1  A    between atoms: C1_1  and  C5_5 
REMARK    2  A    between atoms: C2_2  and  C7_7 
REMARK    3  A    between atoms: C5_5  and  O10_10 
REMARK    4  A    between atoms: C7_7  and  C9_9 
REMARK    5  A    between atoms: C8_8  and  C9_9 
ROOT
HETATM    1  C1  UNL     1     -32.687   8.305   1.628  1.00 20.00    -0.068 C 
HETATM    2  C2  UNL     1     -33.182   7.607   2.470  1.00 20.00    -0.103 C 
ENDROOT
BRANCH   1   3
HETATM    3  C5  UNL     1     -32.086   9.155   0.601  1.00 20.00     0.121 A 
HETATM    4  C3  UNL     1     -32.956   9.688  -0.481  1.00 20.00     0.055 A 
HETATM    5  C4  UNL     1     -32.427  10.603   0.585  1.00 20.00     0.055 A 
BRANCH   3   6
HETATM    6  O10 UNL     1     -30.758   8.757   0.282  1.00 20.00    -0.378 OA
HETATM    7  H24 UNL     1     -30.436   9.377  -0.391  1.00 20.00     0.211 HD
ENDBRANCH   3   6
ENDBRANCH   1   3
BRANCH   2   8
HETATM    8  C7  UNL     1     -33.784   6.752   3.502  1.00 20.00     0.094 C 
BRANCH   8   9
HETATM    9  C9  UNL     1     -33.617   5.272   3.158  1.00 20.00     0.012 C 
BRANCH   9  10
HETATM   10  C8  UNL     1     -34.287   4.379   4.201  1.00 20.00    -0.004 C 
HETATM   11  C6  UNL     1     -33.427   3.170   4.536  1.00 20.00     0.005 C 
ENDBRANCH   9  10
ENDBRANCH   8   9
ENDBRANCH   2   8
TORSDOF 5
ENDMDL
MODEL 6
REMARK VINA RESULT:      -1.3      2.065      3.053
REMARK  5 active torsions:
REMARK  status: ('A' for Active; 'I' for Inactive)
REMARK    1  A    between atoms: C1_1  and  C5_5 
REMARK    2  A    between atoms: C2_2  and  C7_7 
REMARK    3  A    between atoms: C5_5  and  O10_10 
REMARK    4  A    between atoms: C7_7  and  C9_9 
REMARK    5  A    between atoms: C8_8  and  C9_9 
ROOT
HETATM    1  C1  UNL     1     -32.406   8.031   1.177  1.00 20.00    -0.068 C 
HETATM    2  C2  UNL     1     -32.753   7.064   1.798  1.00 20.00    -0.103 C 
ENDROOT
BRANCH   1   3
HETATM    3  C5  UNL     1     -31.984   9.208   0.418  1.00 20.00     0.121 A 
HETATM    4  C3  UNL     1     -32.962   9.851  -0.499  1.00 20.00     0.055 A 
HETATM    5  C4  UNL     1     -32.561  10.531   0.778  1.00 20.00     0.055 A 
BRANCH   3   6
HETATM    6  O10 UNL     1     -30.619   9.136   0.028  1.00 20.00    -0.378 OA
HETATM    7  H24 UNL     1     -30.243   8.358   0.469  1.00 20.00     0.211 HD
ENDBRANCH   3   6
ENDBRANCH   1   3
BRANCH   2   8
HETATM    8  C7  UNL     1     -33.175   5.881   2.560  1.00 20.00     0.094 C 
BRANCH   8   9
HETATM    9  C9  UNL     1     -34.292   6.229   3.545  1.00 20.00     0.012 C 
BRANCH   9  10
HETATM   10  C8  UNL     1     -34.285   7.717   3.890  1.00 20.00    -0.004 C 
HETATM   11  C6  UNL     1     -33.383   8.009   5.080  1.00 20.00     0.005 C 
ENDBRANCH   9  10
ENDBRANCH   8   9
ENDBRANCH   2   8
TORSDOF 5
ENDMDL
MODEL 7
REMARK VINA RESULT:      -1.2      2.124      5.386
REMARK  5 active torsions:
REMARK  status: ('A' for Active; 'I' for Inactive)
REMARK    1  A    between atoms: C1_1  and  C5_5 
REMARK    2  A    between atoms: C2_2  and  C7_7 
REMARK    3  A    between atoms: C5_5  and  O10_10 
REMARK    4  A    between atoms: C7_7  and  C9_9 
REMARK    5  A    between atoms: C8_8  and  C9_9 
ROOT
HETATM    1  C1  UNL     1     -33.211   7.025   2.739  1.00 20.00    -0.068 C 
HETATM    2  C2  UNL     1     -32.450   7.742   2.148  1.00 20.00    -0.103 C 
ENDROOT
BRANCH   1   3
HETATM    3  C5  UNL     1     -34.139   6.155   3.460  1.00 20.00     0.121 A 
HETATM    4  C3  UNL     1     -34.815   6.685   4.674  1.00 20.00     0.055 A 
HETATM    5  C4  UNL     1     -35.593   6.464   3.409  1.00 20.00     0.055 A 
BRANCH   3   6
HETATM    6  O10 UNL     1     -33.724   4.794   3.442  1.00 20.00    -0.378 OA
HETATM    7  H24 UNL     1     -34.433   4.281   3.861  1.00 20.00     0.211 HD
ENDBRANCH   3   6
ENDBRANCH   1   3
BRANCH   2   8
HETATM    8  C7  UNL     1     -31.517   8.615   1.424  1.00 20.00     0.094 C 
BRANCH   8   9
HETATM    9  C9  UNL     1     -31.855   8.667  -0.067  1.00 20.00     0.012 C 
BRANCH   9  10
HETATM   10  C8  UNL     1     -32.728   9.876  -0.397  1.00 20.00    -0.004 C 
HETATM   11  C6  UNL     1     -32.665  10.926   0.702  1.00 20.00     0.005 C 
ENDBRANCH   9  10
ENDBRANCH   8   9
ENDBRANCH   2   8
TORSDOF 5
ENDMDL
MODEL 8
REMARK VINA RESULT:      -1.0      1.859      3.160
REMARK  5 active torsions:
REMARK  status: ('A' for Active; 'I' for Inactive)
REMARK    1  A    between atoms: C1_1  and  C5_5 
REMARK    2  A    between atoms: C2_2  and  C7_7 
REMARK    3  A    between atoms: C5_5  and  O10_10 
REMARK    4  A    between atoms: C7_7  and  C9_9 
REMARK    5  A    between atoms: C8_8  and  C9_9 
ROOT
HETATM    1  C1  UNL     1     -32.352   8.707   1.026  1.00 20.00    -0.068 C 
HETATM    2  C2  UNL     1     -32.244   7.596   1.467  1.00 20.00    -0.103 C 
ENDROOT
BRANCH   1   3
HETATM    3  C5  UNL     1     -32.483  10.062   0.490  1.00 20.00     0.121 A 
HETATM    4  C3  UNL     1     -31.607  10.467  -0.640  1.00 20.00     0.055 A 
HETATM    5  C4  UNL     1     -33.074  10.239  -0.862  1.00 20.00     0.055 A 
BRANCH   3   6
HETATM    6  O10 UNL     1     -32.784  11.014   1.503  1.00 20.00    -0.378 OA
HETATM    7  H24 UNL     1     -33.055  10.510   2.287  1.00 20.00     0.211 HD
ENDBRANCH   3   6
ENDBRANCH   1   3
BRANCH   2   8
HETATM    8  C7  UNL     1     -32.113   6.235   2.004  1.00 20.00     0.094 C 
BRANCH   8   9
HETATM    9  C9  UNL     1     -33.454   5.716   2.526  1.00 20.00     0.012 C 
BRANCH   9  10
HETATM   10  C8  UNL     1     -34.092   6.707   3.499  1.00 20.00    -0.004 C 
HETATM   11  C6  UNL     1     -35.369   6.146   4.107  1.00 20.00     0.005 C 
ENDBRANCH   9  10
ENDBRANCH   8   9
ENDBRANCH   2   8
TORSDOF 5
ENDMDL
MODEL 9
REMARK VINA RESULT:      -0.3      2.283      5.076
REMARK  5 active torsions:
REMARK  status: ('A' for Active; 'I' for Inactive)
REMARK    1  A    between atoms: C1_1  and  C5_5 
REMARK    2  A    between atoms: C2_2  and  C7_7 
REMARK    3  A    between atoms: C5_5  and  O10_10 
REMARK    4  A    between atoms: C7_7  and  C9_9 
REMARK    5  A    between atoms: C8_8  and  C9_9 
ROOT
HETATM    1  C1  UNL     1     -33.421   4.675   3.184  1.00 20.00    -0.068 C 
HETATM    2  C2  UNL     1     -33.053   5.324   2.243  1.00 20.00    -0.103 C 
ENDROOT
BRANCH   1   3
HETATM    3  C5  UNL     1     -33.869   3.886   4.331  1.00 20.00     0.121 A 
HETATM    4  C3  UNL     1     -33.480   2.453   4.404  1.00 20.00     0.055 A 
HETATM    5  C4  UNL     1     -32.862   3.454   5.336  1.00 20.00     0.055 A 
BRANCH   3   6
HETATM    6  O10 UNL     1     -35.164   4.270   4.775  1.00 20.00    -0.378 OA
HETATM    7  H24 UNL     1     -35.514   3.527   5.292  1.00 20.00     0.211 HD
ENDBRANCH   3   6
ENDBRANCH   1   3
BRANCH   2   8
HETATM    8  C7  UNL     1     -32.603   6.116   1.091  1.00 20.00     0.094 C 
BRANCH   8   9
HETATM    9  C9  UNL     1     -31.596   7.185   1.516  1.00 20.00     0.012 C 
BRANCH   9  10
HETATM   10  C8  UNL     1     -32.301   8.445   2.018  1.00 20.00    -0.004 C 
HETATM   11  C6  UNL     1     -32.781   8.281   3.452  1.00 20.00     0.005 C 
ENDBRANCH   9  10
ENDBRANCH   8   9
ENDBRANCH   2   8
TORSDOF 5
ENDMDL
