MODEL 1
REMARK VINA RESULT:       0.7      0.000      0.000
REMARK  2 active torsions:
REMARK  status: ('A' for Active; 'I' for Inactive)
REMARK    1  A    between atoms: C3_3  and  C5_5 
REMARK    2  A    between atoms: C4_4  and  C9_9 
ROOT
HETATM    1  C1  UNL     1     -33.348   7.900   3.095  1.00 20.00     0.005 C 
HETATM    2  C2  UNL     1     -32.554   8.405   2.159  1.00 20.00     0.132 C 
HETATM    3  C4  UNL     1     -33.029   6.459   3.258  1.00 20.00     0.050 C 
HETATM    4  C5  UNL     1     -32.071   6.239   2.074  1.00 20.00     0.204 C 
HETATM    5  O11 UNL     1     -31.680   7.527   1.556  1.00 20.00    -0.350 OA
ENDROOT
BRANCH   3   6
HETATM    6  C9  UNL     1     -34.257   5.561   3.299  1.00 20.00    -0.012 C 
HETATM    7  C7  UNL     1     -33.949   4.255   4.033  1.00 20.00     0.010 C 
HETATM    8  C8  UNL     1     -35.432   6.281   3.961  1.00 20.00     0.010 C 
ENDBRANCH   3   6
BRANCH   4   9
HETATM    9  C3  UNL     1     -32.653   5.507   0.901  1.00 20.00     0.152 C 
HETATM   10  C6  UNL     1     -31.853   4.353   0.359  1.00 20.00     0.093 C 
HETATM   11  O10 UNL     1     -33.731   5.832   0.408  1.00 20.00    -0.296 OA
ENDBRANCH   4   9
TORSDOF 2
ENDMDL
MODEL 2
REMARK VINA RESULT:       0.8      1.209      3.130
REMARK  2 active torsions:
REMARK  status: ('A' for Active; 'I' for Inactive)
REMARK    1  A    between atoms: C3_3  and  C5_5 
REMARK    2  A    between atoms: C4_4  and  C9_9 
ROOT
HETATM    1  C1  UNL     1     -32.660   5.431   1.755  1.00 20.00     0.005 C 
HETATM    2  C2  UNL     1     -31.813   6.313   1.238  1.00 20.00     0.132 C 
HETATM    3  C4  UNL     1     -33.762   6.171   2.422  1.00 20.00     0.050 C 
HETATM    4  C5  UNL     1     -33.225   7.612   2.359  1.00 20.00     0.204 C 
HETATM    5  O11 UNL     1     -32.107   7.643   1.447  1.00 20.00    -0.350 OA
ENDROOT
BRANCH   3   6
HETATM    6  C9  UNL     1     -34.099   5.646   3.810  1.00 20.00    -0.012 C 
HETATM    7  C7  UNL     1     -35.566   5.910   4.148  1.00 20.00     0.010 C 
HETATM    8  C8  UNL     1     -33.789   4.152   3.914  1.00 20.00     0.010 C 
ENDBRANCH   3   6
BRANCH   4   9
HETATM    9  C3  UNL     1     -32.691   8.159   3.649  1.00 20.00     0.152 C 
HETATM   10  C6  UNL     1     -33.653   8.222   4.805  1.00 20.00     0.093 C 
HETATM   11  O10 UNL     1     -31.526   8.536   3.758  1.00 20.00    -0.296 OA
ENDBRANCH   4   9
TORSDOF 2
ENDMDL
MODEL 3
REMARK VINA RESULT:       1.1      1.655      3.379
REMARK  2 active torsions:
REMARK  status: ('A' for Active; 'I' for Inactive)
REMARK    1  A    between atoms: C3_3  and  C5_5 
REMARK    2  A    between atoms: C4_4  and  C9_9 
ROOT
HETATM    1  C1  UNL     1     -33.557   8.242   4.078  1.00 20.00     0.005 C 
HETATM    2  C2  UNL     1     -34.321   7.350   4.696  1.00 20.00     0.132 C 
HETATM    3  C4  UNL     1     -33.523   7.910   2.631  1.00 20.00     0.050 C 
HETATM    4  C5  UNL     1     -34.229   6.543   2.629  1.00 20.00     0.204 C 
HETATM    5  O11 UNL     1     -34.859   6.353   3.913  1.00 20.00    -0.350 OA
ENDROOT
BRANCH   3   6
HETATM    6  C9  UNL     1     -32.125   7.940   2.029  1.00 20.00    -0.012 C 
HETATM    7  C7  UNL     1     -32.102   8.783   0.754  1.00 20.00     0.010 C 
HETATM    8  C8  UNL     1     -31.112   8.476   3.041  1.00 20.00     0.010 C 
ENDBRANCH   3   6
BRANCH   4   9
HETATM    9  C3  UNL     1     -33.331   5.354   2.455  1.00 20.00     0.152 C 
HETATM   10  C6  UNL     1     -33.397   4.296   3.523  1.00 20.00     0.093 C 
HETATM   11  O10 UNL     1     -32.581   5.248   1.487  1.00 20.00    -0.296 OA
ENDBRANCH   4   9
TORSDOF 2
ENDMDL
MODEL 4
REMARK VINA RESULT:       1.4      1.589      3.371
REMARK  2 active torsions:
REMARK  status: ('A' for Active; 'I' for Inactive)
REMARK    1  A    between atoms: C3_3  and  C5_5 
REMARK    2  A    between atoms: C4_4  and  C9_9 
ROOT
HETATM    1  C1  UNL     1     -31.828   7.339   1.853  1.00 20.00     0.005 C 
HETATM    2  C2  UNL     1     -32.075   8.046   2.948  1.00 20.00     0.132 C 
HETATM    3  C4  UNL     1     -33.082   6.661   1.436  1.00 20.00     0.050 C 
HETATM    4  C5  UNL     1     -33.988   6.960   2.643  1.00 20.00     0.204 C 
HETATM    5  O11 UNL     1     -33.357   7.977   3.448  1.00 20.00    -0.350 OA
ENDROOT
BRANCH   3   6
HETATM    6  C9  UNL     1     -32.897   5.191   1.088  1.00 20.00    -0.012 C 
HETATM    7  C7  UNL     1     -33.772   4.802  -0.103  1.00 20.00     0.010 C 
HETATM    8  C8  UNL     1     -31.429   4.885   0.793  1.00 20.00     0.010 C 
ENDBRANCH   3   6
BRANCH   4   9
HETATM    9  C3  UNL     1     -34.218   5.810   3.578  1.00 20.00     0.152 C 
HETATM   10  C6  UNL     1     -35.481   5.845   4.395  1.00 20.00     0.093 C 
HETATM   11  O10 UNL     1     -33.415   4.883   3.670  1.00 20.00    -0.296 OA
ENDBRANCH   4   9
TORSDOF 2
ENDMDL
MODEL 5
REMARK VINA RESULT:       1.5      2.084      3.349
REMARK  2 active torsions:
REMARK  status: ('A' for Active; 'I' for Inactive)
REMARK    1  A    between atoms: C3_3  and  C5_5 
REMARK    2  A    between atoms: C4_4  and  C9_9 
ROOT
HETATM    1  C1  UNL     1     -32.620   7.619   2.997  1.00 20.00     0.005 C 
HETATM    2  C2  UNL     1     -33.085   7.963   4.191  1.00 20.00     0.132 C 
HETATM    3  C4  UNL     1     -33.652   6.807   2.304  1.00 20.00     0.050 C 
HETATM    4  C5  UNL     1     -34.665   6.593   3.443  1.00 20.00     0.204 C 
HETATM    5  O11 UNL     1     -34.338   7.493   4.521  1.00 20.00    -0.350 OA
ENDROOT
BRANCH   3   6
HETATM    6  C9  UNL     1     -33.104   5.546   1.653  1.00 20.00    -0.012 C 
HETATM    7  C7  UNL     1     -33.832   5.253   0.341  1.00 20.00     0.010 C 
HETATM    8  C8  UNL     1     -31.599   5.672   1.412  1.00 20.00     0.010 C 
ENDBRANCH   3   6
BRANCH   4   9
HETATM    9  C3  UNL     1     -34.661   5.226   4.061  1.00 20.00     0.152 C 
HETATM   10  C6  UNL     1     -33.409   4.410   3.886  1.00 20.00     0.093 C 
HETATM   11  O10 UNL     1     -35.631   4.795   4.681  1.00 20.00    -0.296 OA
ENDBRANCH   4   9
TORSDOF 2
ENDMDL
MODEL 6
REMARK VINA RESULT:       1.5      1.686      3.914
REMARK  2 active torsions:
REMARK  status: ('A' for Active; 'I' for Inactive)
REMARK    1  A    between atoms: C3_3  and  C5_5 
REMARK    2  A    between atoms: C4_4  and  C9_9 
ROOT
HETATM    1  C1  UNL     1     -32.708   6.174   0.942  1.00 20.00     0.005 C 
HETATM    2  C2  UNL     1     -33.474   5.145   1.281  1.00 20.00     0.132 C 
HETATM    3  C4  UNL     1     -32.220   6.828   2.184  1.00 20.00     0.050 C 
HETATM    4  C5  UNL     1     -33.054   6.090   3.247  1.00 20.00     0.204 C 
HETATM    5  O11 UNL     1     -33.664   4.938   2.630  1.00 20.00    -0.350 OA
ENDROOT
BRANCH   3   6
HETATM    6  C9  UNL     1     -32.350   8.344   2.169  1.00 20.00    -0.012 C 
HETATM    7  C7  UNL     1     -31.308   8.986   3.085  1.00 20.00     0.010 C 
HETATM    8  C8  UNL     1     -32.214   8.885   0.745  1.00 20.00     0.010 C 
ENDBRANCH   3   6
BRANCH   4   9
HETATM    9  C3  UNL     1     -34.194   6.871   3.829  1.00 20.00     0.152 C 
HETATM   10  C6  UNL     1     -35.558   6.242   3.742  1.00 20.00     0.093 C 
HETATM   11  O10 UNL     1     -34.022   7.970   4.353  1.00 20.00    -0.296 OA
ENDBRANCH   4   9
TORSDOF 2
ENDMDL
MODEL 7
REMARK VINA RESULT:       1.8      1.402      2.900
REMARK  2 active torsions:
REMARK  status: ('A' for Active; 'I' for Inactive)
REMARK    1  A    between atoms: C3_3  and  C5_5 
REMARK    2  A    between atoms: C4_4  and  C9_9 
ROOT
HETATM    1  C1  UNL     1     -32.867   5.133   2.814  1.00 20.00     0.005 C 
HETATM    2  C2  UNL     1     -31.780   5.026   2.060  1.00 20.00     0.132 C 
HETATM    3  C4  UNL     1     -33.717   6.220   2.265  1.00 20.00     0.050 C 
HETATM    4  C5  UNL     1     -32.772   6.824   1.211  1.00 20.00     0.204 C 
HETATM    5  O11 UNL     1     -31.669   5.915   1.013  1.00 20.00    -0.350 OA
ENDROOT
BRANCH   3   6
HETATM    6  C9  UNL     1     -34.238   7.182   3.323  1.00 20.00    -0.012 C 
HETATM    7  C7  UNL     1     -35.498   6.627   3.988  1.00 20.00     0.010 C 
HETATM    8  C8  UNL     1     -33.163   7.467   4.372  1.00 20.00     0.010 C 
ENDBRANCH   3   6
BRANCH   4   9
HETATM    9  C3  UNL     1     -32.139   8.130   1.586  1.00 20.00     0.152 C 
HETATM   10  C6  UNL     1     -32.594   9.345   0.823  1.00 20.00     0.093 C 
HETATM   11  O10 UNL     1     -31.291   8.206   2.473  1.00 20.00    -0.296 OA
ENDBRANCH   4   9
TORSDOF 2
ENDMDL
MODEL 8
REMARK VINA RESULT:       1.8      1.608      3.128
REMARK  2 active torsions:
REMARK  status: ('A' for Active; 'I' for Inactive)
REMARK    1  A    between atoms: C3_3  and  C5_5 
REMARK    2  A    between atoms: C4_4  and  C9_9 
ROOT
HETATM    1  C1  UNL     1     -32.281   5.730   1.945  1.00 20.00     0.005 C 
HETATM    2  C2  UNL     1     -31.755   6.898   1.596  1.00 20.00     0.132 C 
HETATM    3  C4  UNL     1     -33.611   5.978   2.558  1.00 20.00     0.050 C 
HETATM    4  C5  UNL     1     -33.596   7.512   2.675  1.00 20.00     0.204 C 
HETATM    5  O11 UNL     1     -32.499   8.019   1.888  1.00 20.00    -0.350 OA
ENDROOT
BRANCH   3   6
HETATM    6  C9  UNL     1     -33.839   5.212   3.854  1.00 20.00    -0.012 C 
HETATM    7  C7  UNL     1     -35.251   5.457   4.387  1.00 20.00     0.010 C 
HETATM    8  C8  UNL     1     -33.600   3.716   3.648  1.00 20.00     0.010 C 
ENDBRANCH   3   6
BRANCH   4   9
HETATM    9  C3  UNL     1     -33.368   8.051   4.056  1.00 20.00     0.152 C 
HETATM   10  C6  UNL     1     -32.050   8.733   4.306  1.00 20.00     0.093 C 
HETATM   11  O10 UNL     1     -34.217   7.944   4.939  1.00 20.00    -0.296 OA
ENDBRANCH   4   9
TORSDOF 2
ENDMDL
MODEL 9
REMARK VINA RESULT:       1.8      1.991      3.604
REMARK  2 active torsions:
REMARK  status: ('A' for Active; 'I' for Inactive)
REMARK    1  A    between atoms: C3_3  and  C5_5 
REMARK    2  A    between atoms: C4_4  and  C9_9 
ROOT
HETATM    1  C1  UNL     1     -34.265   7.029   3.446  1.00 20.00     0.005 C 
HETATM    2  C2  UNL     1     -34.891   6.502   4.491  1.00 20.00     0.132 C 
HETATM    3  C4  UNL     1     -33.934   5.937   2.495  1.00 20.00     0.050 C 
HETATM    4  C5  UNL     1     -34.301   4.700   3.334  1.00 20.00     0.204 C 
HETATM    5  O11 UNL     1     -35.060   5.135   4.481  1.00 20.00    -0.350 OA
ENDROOT
BRANCH   3   6
HETATM    6  C9  UNL     1     -32.505   5.991   1.975  1.00 20.00    -0.012 C 
HETATM    7  C7  UNL     1     -32.394   5.290   0.621  1.00 20.00     0.010 C 
HETATM    8  C8  UNL     1     -32.022   7.437   1.868  1.00 20.00     0.010 C 
ENDBRANCH   3   6
BRANCH   4   9
HETATM    9  C3  UNL     1     -33.140   3.938   3.901  1.00 20.00     0.152 C 
HETATM   10  C6  UNL     1     -33.463   2.856   4.895  1.00 20.00     0.093 C 
HETATM   11  O10 UNL     1     -31.982   4.184   3.568  1.00 20.00    -0.296 OA
ENDBRANCH   4   9
TORSDOF 2
ENDMDL
