MODEL 1
REMARK VINA RESULT:      -0.4      0.000      0.000
REMARK  1 active torsions:
REMARK  status: ('A' for Active; 'I' for Inactive)
REMARK    1  A    between atoms: C6_6  and  N7_7 
ROOT
HETATM    1  C1  UNL     1     -33.566   5.808   1.997  1.00 20.00     0.284 C 
HETATM    2  C2  UNL     1     -32.164   6.188   1.540  1.00 20.00     0.106 C 
HETATM    3  C3  UNL     1     -33.358   7.801   3.258  1.00 20.00     0.280 C 
HETATM    4  C4  UNL     1     -32.869   8.322   4.604  1.00 20.00     0.055 C 
HETATM    5  N7  UNL     1     -33.747   6.385   3.337  1.00 20.00     0.102 N 
HETATM    6  S8  UNL     1     -32.005   7.918   2.033  1.00 20.00    -0.132 SA
ENDROOT
BRANCH   5   7
HETATM    7  C6  UNL     1     -35.116   6.205   3.807  1.00 20.00     0.269 C 
HETATM    8  C5  UNL     1     -35.253   4.948   4.599  1.00 20.00     0.037 C 
ENDBRANCH   5   7
TORSDOF 1
ENDMDL
MODEL 2
REMARK VINA RESULT:      -0.2      2.052      3.989
REMARK  1 active torsions:
REMARK  status: ('A' for Active; 'I' for Inactive)
REMARK    1  A    between atoms: C6_6  and  N7_7 
ROOT
HETATM    1  C1  UNL     1     -32.910   8.487   2.945  1.00 20.00     0.284 C 
HETATM    2  C2  UNL     1     -33.499   7.605   4.036  1.00 20.00     0.106 C 
HETATM    3  C3  UNL     1     -33.033   6.483   1.691  1.00 20.00     0.280 C 
HETATM    4  C4  UNL     1     -32.234   5.230   1.353  1.00 20.00     0.055 C 
HETATM    5  N7  UNL     1     -32.151   7.605   2.048  1.00 20.00     0.102 N 
HETATM    6  S8  UNL     1     -34.096   6.154   3.142  1.00 20.00    -0.132 SA
ENDROOT
BRANCH   5   7
HETATM    7  C6  UNL     1     -31.667   8.332   0.879  1.00 20.00     0.269 C 
HETATM    8  C5  UNL     1     -32.506   9.535   0.608  1.00 20.00     0.037 C 
ENDBRANCH   5   7
TORSDOF 1
ENDMDL
MODEL 3
REMARK VINA RESULT:       0.1      1.866      3.109
REMARK  1 active torsions:
REMARK  status: ('A' for Active; 'I' for Inactive)
REMARK    1  A    between atoms: C6_6  and  N7_7 
ROOT
HETATM    1  C1  UNL     1     -34.950   4.955   4.514  1.00 20.00     0.284 C 
HETATM    2  C2  UNL     1     -35.496   6.331   4.159  1.00 20.00     0.106 C 
HETATM    3  C3  UNL     1     -33.165   5.647   3.121  1.00 20.00     0.280 C 
HETATM    4  C4  UNL     1     -32.711   5.647   1.666  1.00 20.00     0.055 C 
HETATM    5  N7  UNL     1     -34.090   4.538   3.397  1.00 20.00     0.102 N 
HETATM    6  S8  UNL     1     -34.067   7.199   3.476  1.00 20.00    -0.132 SA
ENDROOT
BRANCH   5   7
HETATM    7  C6  UNL     1     -33.396   3.292   3.704  1.00 20.00     0.269 C 
HETATM    8  C5  UNL     1     -33.115   3.177   5.164  1.00 20.00     0.037 C 
ENDBRANCH   5   7
TORSDOF 1
ENDMDL
MODEL 4
REMARK VINA RESULT:       0.1      1.607      3.002
REMARK  1 active torsions:
REMARK  status: ('A' for Active; 'I' for Inactive)
REMARK    1  A    between atoms: C6_6  and  N7_7 
ROOT
HETATM    1  C1  UNL     1     -33.840   5.567   3.113  1.00 20.00     0.284 C 
HETATM    2  C2  UNL     1     -34.728   6.588   3.809  1.00 20.00     0.106 C 
HETATM    3  C3  UNL     1     -32.530   7.484   2.650  1.00 20.00     0.280 C 
HETATM    4  C4  UNL     1     -32.356   8.597   1.623  1.00 20.00     0.055 C 
HETATM    5  N7  UNL     1     -33.125   6.282   2.046  1.00 20.00     0.102 N 
HETATM    6  S8  UNL     1     -33.671   8.044   3.965  1.00 20.00    -0.132 SA
ENDROOT
BRANCH   5   7
HETATM    7  C6  UNL     1     -32.131   5.423   1.412  1.00 20.00     0.269 C 
HETATM    8  C5  UNL     1     -32.745   4.593   0.335  1.00 20.00     0.037 C 
ENDBRANCH   5   7
TORSDOF 1
ENDMDL
MODEL 5
REMARK VINA RESULT:       0.2      0.979      2.414
REMARK  1 active torsions:
REMARK  status: ('A' for Active; 'I' for Inactive)
REMARK    1  A    between atoms: C6_6  and  N7_7 
ROOT
HETATM    1  C1  UNL     1     -33.227   7.566   3.518  1.00 20.00     0.284 C 
HETATM    2  C2  UNL     1     -32.564   8.532   2.546  1.00 20.00     0.106 C 
HETATM    3  C3  UNL     1     -32.623   5.980   1.867  1.00 20.00     0.280 C 
HETATM    4  C4  UNL     1     -33.136   5.325   0.591  1.00 20.00     0.055 C 
HETATM    5  N7  UNL     1     -33.730   6.439   2.720  1.00 20.00     0.102 N 
HETATM    6  S8  UNL     1     -31.631   7.455   1.437  1.00 20.00    -0.132 SA
ENDROOT
BRANCH   5   7
HETATM    7  C6  UNL     1     -34.254   5.380   3.576  1.00 20.00     0.269 C 
HETATM    8  C5  UNL     1     -35.448   5.845   4.339  1.00 20.00     0.037 C 
ENDBRANCH   5   7
TORSDOF 1
ENDMDL
MODEL 6
REMARK VINA RESULT:       0.3      2.026      3.280
REMARK  1 active torsions:
REMARK  status: ('A' for Active; 'I' for Inactive)
REMARK    1  A    between atoms: C6_6  and  N7_7 
ROOT
HETATM    1  C1  UNL     1     -32.223   6.215   1.315  1.00 20.00     0.284 C 
HETATM    2  C2  UNL     1     -33.125   5.010   1.541  1.00 20.00     0.106 C 
HETATM    3  C3  UNL     1     -33.197   6.935   3.349  1.00 20.00     0.280 C 
HETATM    4  C4  UNL     1     -34.389   7.710   3.899  1.00 20.00     0.055 C 
HETATM    5  N7  UNL     1     -32.864   7.358   1.980  1.00 20.00     0.102 N 
HETATM    6  S8  UNL     1     -33.610   5.155   3.275  1.00 20.00    -0.132 SA
ENDROOT
BRANCH   5   7
HETATM    7  C6  UNL     1     -32.003   8.536   1.951  1.00 20.00     0.269 C 
HETATM    8  C5  UNL     1     -32.239   9.344   0.720  1.00 20.00     0.037 C 
ENDBRANCH   5   7
TORSDOF 1
ENDMDL
MODEL 7
REMARK VINA RESULT:       0.4      1.970      3.671
REMARK  1 active torsions:
REMARK  status: ('A' for Active; 'I' for Inactive)
REMARK    1  A    between atoms: C6_6  and  N7_7 
ROOT
HETATM    1  C1  UNL     1     -33.617   7.417   2.994  1.00 20.00     0.284 C 
HETATM    2  C2  UNL     1     -34.403   7.574   4.288  1.00 20.00     0.106 C 
HETATM    3  C3  UNL     1     -34.215   5.143   3.270  1.00 20.00     0.280 C 
HETATM    4  C4  UNL     1     -33.741   3.850   3.921  1.00 20.00     0.055 C 
HETATM    5  N7  UNL     1     -33.090   6.045   2.980  1.00 20.00     0.102 N 
HETATM    6  S8  UNL     1     -35.330   6.029   4.419  1.00 20.00    -0.132 SA
ENDROOT
BRANCH   5   7
HETATM    7  C6  UNL     1     -32.444   5.743   1.707  1.00 20.00     0.269 C 
HETATM    8  C5  UNL     1     -31.822   6.963   1.116  1.00 20.00     0.037 C 
ENDBRANCH   5   7
TORSDOF 1
ENDMDL
MODEL 8
REMARK VINA RESULT:       0.5      1.632      3.163
REMARK  1 active torsions:
REMARK  status: ('A' for Active; 'I' for Inactive)
REMARK    1  A    between atoms: C6_6  and  N7_7 
ROOT
HETATM    1  C1  UNL     1     -32.450   7.583   2.034  1.00 20.00     0.284 C 
HETATM    2  C2  UNL     1     -32.474   8.274   3.390  1.00 20.00     0.106 C 
HETATM    3  C3  UNL     1     -34.115   6.234   3.042  1.00 20.00     0.280 C 
HETATM    4  C4  UNL     1     -34.291   4.973   3.879  1.00 20.00     0.055 C 
HETATM    5  N7  UNL     1     -32.870   6.192   2.259  1.00 20.00     0.102 N 
HETATM    6  S8  UNL     1     -34.005   7.688   4.147  1.00 20.00    -0.132 SA
ENDROOT
BRANCH   5   7
HETATM    7  C6  UNL     1     -33.026   5.479   0.996  1.00 20.00     0.269 C 
HETATM    8  C5  UNL     1     -31.790   4.719   0.651  1.00 20.00     0.037 C 
ENDBRANCH   5   7
TORSDOF 1
ENDMDL
MODEL 9
REMARK VINA RESULT:       1.0      1.515      1.836
REMARK  1 active torsions:
REMARK  status: ('A' for Active; 'I' for Inactive)
REMARK    1  A    between atoms: C6_6  and  N7_7 
ROOT
HETATM    1  C1  UNL     1     -33.571   5.153   3.098  1.00 20.00     0.284 C 
HETATM    2  C2  UNL     1     -32.470   4.509   2.269  1.00 20.00     0.106 C 
HETATM    3  C3  UNL     1     -32.954   7.073   1.857  1.00 20.00     0.280 C 
HETATM    4  C4  UNL     1     -31.999   8.259   1.882  1.00 20.00     0.055 C 
HETATM    5  N7  UNL     1     -33.237   6.580   3.214  1.00 20.00     0.102 N 
HETATM    6  S8  UNL     1     -32.186   5.692   0.935  1.00 20.00    -0.132 SA
ENDROOT
BRANCH   5   7
HETATM    7  C6  UNL     1     -34.311   7.321   3.867  1.00 20.00     0.269 C 
HETATM    8  C5  UNL     1     -35.513   6.462   4.068  1.00 20.00     0.037 C 
ENDBRANCH   5   7
TORSDOF 1
ENDMDL
