MODEL 1
REMARK VINA RESULT:      -3.1      0.000      0.000
REMARK  2 active torsions:
REMARK  status: ('A' for Active; 'I' for Inactive)
REMARK    1  A    between atoms: C4_4  and  C5_5 
REMARK    2  A    between atoms: C9_9  and  C11_11 
ROOT
HETATM    1  C1  UNL     1     -32.876  10.635  -0.425  1.00 20.00     0.012 C 
HETATM    2  C2  UNL     1     -32.329   9.783   0.221  1.00 20.00    -0.117 C 
HETATM    3  C11 UNL     1     -31.649   8.747   1.004  1.00 20.00     0.098 C 
ENDROOT
BRANCH   3   4
HETATM    4  C9  UNL     1     -32.658   7.810   1.664  1.00 20.00     0.000 C 
HETATM    5  C6  UNL     1     -32.271   6.339   1.429  1.00 20.00     0.033 C 
HETATM    6  C3  UNL     1     -33.030   5.377   2.298  1.00 20.00    -0.016 C 
HETATM    7  C4  UNL     1     -33.741   5.775   3.362  1.00 20.00    -0.016 C 
HETATM    8  C7  UNL     1     -33.835   7.198   3.820  1.00 20.00     0.042 C 
HETATM    9  C8  UNL     1     -32.782   8.100   3.167  1.00 20.00     0.010 C 
BRANCH   7  10
HETATM   10  C5  UNL     1     -34.447   4.747   4.131  1.00 20.00     0.151 C 
HETATM   11  C10 UNL     1     -33.726   3.454   4.418  1.00 20.00     0.096 C 
HETATM   12  O12 UNL     1     -35.600   4.938   4.523  1.00 20.00    -0.293 OA
ENDBRANCH   7  10
ENDBRANCH   3   4
TORSDOF 2
ENDMDL
MODEL 2
REMARK VINA RESULT:      -2.6      0.508      1.536
REMARK  2 active torsions:
REMARK  status: ('A' for Active; 'I' for Inactive)
REMARK    1  A    between atoms: C4_4  and  C5_5 
REMARK    2  A    between atoms: C9_9  and  C11_11 
ROOT
HETATM    1  C1  UNL     1     -33.102  10.296  -0.165  1.00 20.00     0.012 C 
HETATM    2  C2  UNL     1     -32.245   9.589   0.292  1.00 20.00    -0.117 C 
HETATM    3  C11 UNL     1     -31.191   8.733   0.843  1.00 20.00     0.098 C 
ENDROOT
BRANCH   3   4
HETATM    4  C9  UNL     1     -31.772   7.699   1.805  1.00 20.00     0.000 C 
HETATM    5  C6  UNL     1     -32.740   8.363   2.801  1.00 20.00     0.033 C 
HETATM    6  C3  UNL     1     -33.577   7.377   3.566  1.00 20.00    -0.016 C 
HETATM    7  C4  UNL     1     -33.682   6.090   3.207  1.00 20.00    -0.016 C 
HETATM    8  C7  UNL     1     -33.013   5.501   2.003  1.00 20.00     0.042 C 
HETATM    9  C8  UNL     1     -32.477   6.568   1.042  1.00 20.00     0.010 C 
BRANCH   7  10
HETATM   10  C5  UNL     1     -34.521   5.219   4.033  1.00 20.00     0.151 C 
HETATM   11  C10 UNL     1     -33.987   3.857   4.398  1.00 20.00     0.096 C 
HETATM   12  O12 UNL     1     -35.634   5.593   4.410  1.00 20.00    -0.293 OA
ENDBRANCH   7  10
ENDBRANCH   3   4
TORSDOF 2
ENDMDL
MODEL 3
REMARK VINA RESULT:      -2.5      2.132      5.540
REMARK  2 active torsions:
REMARK  status: ('A' for Active; 'I' for Inactive)
REMARK    1  A    between atoms: C4_4  and  C5_5 
REMARK    2  A    between atoms: C9_9  and  C11_11 
ROOT
HETATM    1  C1  UNL     1     -33.207   2.911   4.567  1.00 20.00     0.012 C 
HETATM    2  C2  UNL     1     -33.936   3.863   4.489  1.00 20.00    -0.117 C 
HETATM    3  C11 UNL     1     -34.833   5.018   4.403  1.00 20.00     0.098 C 
ENDROOT
BRANCH   3   4
HETATM    4  C9  UNL     1     -34.371   5.991   3.321  1.00 20.00     0.000 C 
HETATM    5  C6  UNL     1     -33.976   7.345   3.938  1.00 20.00     0.033 C 
HETATM    6  C3  UNL     1     -33.227   8.236   2.987  1.00 20.00    -0.016 C 
HETATM    7  C4  UNL     1     -32.704   7.786   1.838  1.00 20.00    -0.016 C 
HETATM    8  C7  UNL     1     -32.776   6.358   1.390  1.00 20.00     0.042 C 
HETATM    9  C8  UNL     1     -33.204   5.406   2.513  1.00 20.00     0.010 C 
BRANCH   7  10
HETATM   10  C5  UNL     1     -32.001   8.749   0.987  1.00 20.00     0.151 C 
HETATM   11  C10 UNL     1     -32.682  10.061   0.687  1.00 20.00     0.096 C 
HETATM   12  O12 UNL     1     -30.889   8.485   0.526  1.00 20.00    -0.293 OA
ENDBRANCH   7  10
ENDBRANCH   3   4
TORSDOF 2
ENDMDL
MODEL 4
REMARK VINA RESULT:      -2.2      2.178      5.467
REMARK  2 active torsions:
REMARK  status: ('A' for Active; 'I' for Inactive)
REMARK    1  A    between atoms: C4_4  and  C5_5 
REMARK    2  A    between atoms: C9_9  and  C11_11 
ROOT
HETATM    1  C1  UNL     1     -33.101   2.626   4.836  1.00 20.00     0.012 C 
HETATM    2  C2  UNL     1     -33.713   3.603   4.500  1.00 20.00    -0.117 C 
HETATM    3  C11 UNL     1     -34.472   4.789   4.093  1.00 20.00     0.098 C 
ENDROOT
BRANCH   3   4
HETATM    4  C9  UNL     1     -33.555   5.836   3.464  1.00 20.00     0.000 C 
HETATM    5  C6  UNL     1     -33.281   5.504   1.986  1.00 20.00     0.033 C 
HETATM    6  C3  UNL     1     -32.651   6.638   1.228  1.00 20.00    -0.016 C 
HETATM    7  C4  UNL     1     -32.610   7.889   1.706  1.00 20.00    -0.016 C 
HETATM    8  C7  UNL     1     -33.207   8.303   3.017  1.00 20.00     0.042 C 
HETATM    9  C8  UNL     1     -34.151   7.245   3.598  1.00 20.00     0.010 C 
BRANCH   7  10
HETATM   10  C5  UNL     1     -31.963   8.912   0.882  1.00 20.00     0.151 C 
HETATM   11  C10 UNL     1     -32.684  10.221   0.677  1.00 20.00     0.096 C 
HETATM   12  O12 UNL     1     -30.863   8.700   0.366  1.00 20.00    -0.293 OA
ENDBRANCH   7  10
ENDBRANCH   3   4
TORSDOF 2
ENDMDL
