MODEL 1
REMARK VINA RESULT:      -1.9      0.000      0.000
REMARK  1 active torsions:
REMARK  status: ('A' for Active; 'I' for Inactive)
REMARK    1  A    between atoms: C3_3  and  C7_7 
ROOT
HETATM    1  C1  UNL     1     -32.419   6.234   1.722  1.00 20.00     0.218 C 
HETATM    2  C4  UNL     1     -32.182   7.729   1.744  1.00 20.00     0.103 C 
HETATM    3  C5  UNL     1     -32.252   8.249   3.174  1.00 20.00     0.012 C 
HETATM    4  C6  UNL     1     -33.555   7.872   3.888  1.00 20.00     0.029 C 
HETATM    5  C7  UNL     1     -34.354   6.799   3.149  1.00 20.00     0.106 C 
HETATM    6  N8  UNL     1     -33.484   5.833   2.508  1.00 20.00    -0.353 N 
HETATM    7  O9  UNL     1     -31.737   5.468   1.045  1.00 20.00    -0.274 OA
HETATM    8  H20 UNL     1     -33.652   4.874   2.633  1.00 20.00     0.163 HD
ENDROOT
BRANCH   5   9
HETATM    9  C3  UNL     1     -35.276   6.149   4.158  1.00 20.00    -0.012 C 
HETATM   10  C2  UNL     1     -35.148   4.887   4.586  1.00 20.00     0.009 C 
ENDBRANCH   5   9
TORSDOF 1
ENDMDL
MODEL 2
REMARK VINA RESULT:      -1.7      1.806      2.297
REMARK  1 active torsions:
REMARK  status: ('A' for Active; 'I' for Inactive)
REMARK    1  A    between atoms: C3_3  and  C7_7 
ROOT
HETATM    1  C1  UNL     1     -32.324   8.431   1.461  1.00 20.00     0.218 C 
HETATM    2  C4  UNL     1     -31.477   7.190   1.281  1.00 20.00     0.103 C 
HETATM    3  C5  UNL     1     -32.362   5.949   1.282  1.00 20.00     0.012 C 
HETATM    4  C6  UNL     1     -33.257   5.848   2.521  1.00 20.00     0.029 C 
HETATM    5  C7  UNL     1     -33.318   7.148   3.324  1.00 20.00     0.106 C 
HETATM    6  N8  UNL     1     -33.275   8.310   2.458  1.00 20.00    -0.353 N 
HETATM    7  O9  UNL     1     -32.152   9.449   0.795  1.00 20.00    -0.274 OA
HETATM    8  H20 UNL     1     -33.934   9.028   2.582  1.00 20.00     0.163 HD
ENDROOT
BRANCH   5   9
HETATM    9  C3  UNL     1     -34.583   7.106   4.153  1.00 20.00    -0.012 C 
HETATM   10  C2  UNL     1     -35.462   6.098   4.128  1.00 20.00     0.009 C 
ENDBRANCH   5   9
TORSDOF 1
ENDMDL
MODEL 3
REMARK VINA RESULT:      -1.4      2.239      4.121
REMARK  1 active torsions:
REMARK  status: ('A' for Active; 'I' for Inactive)
REMARK    1  A    between atoms: C3_3  and  C7_7 
ROOT
HETATM    1  C1  UNL     1     -33.863   7.537   4.113  1.00 20.00     0.218 C 
HETATM    2  C4  UNL     1     -34.539   6.271   3.631  1.00 20.00     0.103 C 
HETATM    3  C5  UNL     1     -33.531   5.377   2.920  1.00 20.00     0.012 C 
HETATM    4  C6  UNL     1     -32.791   6.091   1.783  1.00 20.00     0.029 C 
HETATM    5  C7  UNL     1     -32.973   7.608   1.809  1.00 20.00     0.106 C 
HETATM    6  N8  UNL     1     -33.036   8.114   3.166  1.00 20.00    -0.353 N 
HETATM    7  O9  UNL     1     -34.061   8.006   5.230  1.00 20.00    -0.274 OA
HETATM    8  H20 UNL     1     -32.480   8.883   3.421  1.00 20.00     0.163 HD
ENDROOT
BRANCH   5   9
HETATM    9  C3  UNL     1     -31.825   8.213   1.032  1.00 20.00    -0.012 C 
HETATM   10  C2  UNL     1     -31.915   9.340   0.316  1.00 20.00     0.009 C 
ENDBRANCH   5   9
TORSDOF 1
ENDMDL
MODEL 4
REMARK VINA RESULT:      -0.9      1.741      3.638
REMARK  1 active torsions:
REMARK  status: ('A' for Active; 'I' for Inactive)
REMARK    1  A    between atoms: C3_3  and  C7_7 
ROOT
HETATM    1  C1  UNL     1     -33.987   4.258   3.966  1.00 20.00     0.218 C 
HETATM    2  C4  UNL     1     -34.899   5.134   4.799  1.00 20.00     0.103 C 
HETATM    3  C5  UNL     1     -35.605   6.149   3.908  1.00 20.00     0.012 C 
HETATM    4  C6  UNL     1     -34.638   6.982   3.061  1.00 20.00     0.029 C 
HETATM    5  C7  UNL     1     -33.219   6.414   3.038  1.00 20.00     0.106 C 
HETATM    6  N8  UNL     1     -33.225   4.965   3.054  1.00 20.00    -0.353 N 
HETATM    7  O9  UNL     1     -33.924   3.040   4.118  1.00 20.00    -0.274 OA
HETATM    8  H20 UNL     1     -32.677   4.473   2.405  1.00 20.00     0.163 HD
ENDROOT
BRANCH   5   9
HETATM    9  C3  UNL     1     -32.534   6.965   1.807  1.00 20.00    -0.012 C 
HETATM   10  C2  UNL     1     -31.953   8.169   1.747  1.00 20.00     0.009 C 
ENDBRANCH   5   9
TORSDOF 1
ENDMDL
MODEL 5
REMARK VINA RESULT:      -0.8      1.432      3.372
REMARK  1 active torsions:
REMARK  status: ('A' for Active; 'I' for Inactive)
REMARK    1  A    between atoms: C3_3  and  C7_7 
ROOT
HETATM    1  C1  UNL     1     -32.840   5.617   1.491  1.00 20.00     0.218 C 
HETATM    2  C4  UNL     1     -33.226   5.451   2.945  1.00 20.00     0.103 C 
HETATM    3  C5  UNL     1     -34.101   6.616   3.391  1.00 20.00     0.012 C 
HETATM    4  C6  UNL     1     -33.461   7.983   3.128  1.00 20.00     0.029 C 
HETATM    5  C7  UNL     1     -32.252   7.910   2.197  1.00 20.00     0.106 C 
HETATM    6  N8  UNL     1     -32.428   6.899   1.174  1.00 20.00    -0.353 N 
HETATM    7  O9  UNL     1     -32.871   4.687   0.690  1.00 20.00    -0.274 OA
HETATM    8  H20 UNL     1     -32.252   7.126   0.234  1.00 20.00     0.163 HD
ENDROOT
BRANCH   5   9
HETATM    9  C3  UNL     1     -32.057   9.289   1.603  1.00 20.00    -0.012 C 
HETATM   10  C2  UNL     1     -32.393   9.619   0.351  1.00 20.00     0.009 C 
ENDBRANCH   5   9
TORSDOF 1
ENDMDL
MODEL 6
REMARK VINA RESULT:      -0.8      1.133      1.349
REMARK  1 active torsions:
REMARK  status: ('A' for Active; 'I' for Inactive)
REMARK    1  A    between atoms: C3_3  and  C7_7 
ROOT
HETATM    1  C1  UNL     1     -32.576   6.828   2.024  1.00 20.00     0.218 C 
HETATM    2  C4  UNL     1     -33.312   8.109   2.354  1.00 20.00     0.103 C 
HETATM    3  C5  UNL     1     -33.592   8.181   3.850  1.00 20.00     0.012 C 
HETATM    4  C6  UNL     1     -34.332   6.950   4.384  1.00 20.00     0.029 C 
HETATM    5  C7  UNL     1     -34.345   5.784   3.395  1.00 20.00     0.106 C 
HETATM    6  N8  UNL     1     -33.110   5.711   2.641  1.00 20.00    -0.353 N 
HETATM    7  O9  UNL     1     -31.615   6.798   1.260  1.00 20.00    -0.274 OA
HETATM    8  H20 UNL     1     -32.641   4.852   2.564  1.00 20.00     0.163 HD
ENDROOT
BRANCH   5   9
HETATM    9  C3  UNL     1     -34.598   4.522   4.192  1.00 20.00    -0.012 C 
HETATM   10  C2  UNL     1     -33.693   3.551   4.363  1.00 20.00     0.009 C 
ENDBRANCH   5   9
TORSDOF 1
ENDMDL
MODEL 7
REMARK VINA RESULT:      -0.7      2.172      3.846
REMARK  1 active torsions:
REMARK  status: ('A' for Active; 'I' for Inactive)
REMARK    1  A    between atoms: C3_3  and  C7_7 
ROOT
HETATM    1  C1  UNL     1     -34.138   7.383   4.091  1.00 20.00     0.218 C 
HETATM    2  C4  UNL     1     -35.194   6.301   4.170  1.00 20.00     0.103 C 
HETATM    3  C5  UNL     1     -34.540   4.926   4.102  1.00 20.00     0.012 C 
HETATM    4  C6  UNL     1     -33.637   4.748   2.877  1.00 20.00     0.029 C 
HETATM    5  C7  UNL     1     -33.325   6.065   2.166  1.00 20.00     0.106 C 
HETATM    6  N8  UNL     1     -33.192   7.159   3.107  1.00 20.00    -0.353 N 
HETATM    7  O9  UNL     1     -34.151   8.370   4.822  1.00 20.00    -0.274 OA
HETATM    8  H20 UNL     1     -32.415   7.757   3.046  1.00 20.00     0.163 HD
ENDROOT
BRANCH   5   9
HETATM    9  C3  UNL     1     -32.062   5.854   1.361  1.00 20.00    -0.012 C 
HETATM   10  C2  UNL     1     -31.822   4.769   0.615  1.00 20.00     0.009 C 
ENDBRANCH   5   9
TORSDOF 1
ENDMDL
MODEL 8
REMARK VINA RESULT:      -0.7      1.941      3.397
REMARK  1 active torsions:
REMARK  status: ('A' for Active; 'I' for Inactive)
REMARK    1  A    between atoms: C3_3  and  C7_7 
ROOT
HETATM    1  C1  UNL     1     -34.295   6.616   3.566  1.00 20.00     0.218 C 
HETATM    2  C4  UNL     1     -33.275   7.666   3.954  1.00 20.00     0.103 C 
HETATM    3  C5  UNL     1     -32.721   8.342   2.707  1.00 20.00     0.012 C 
HETATM    4  C6  UNL     1     -32.151   7.351   1.687  1.00 20.00     0.029 C 
HETATM    5  C7  UNL     1     -32.545   5.902   1.975  1.00 20.00     0.106 C 
HETATM    6  N8  UNL     1     -33.886   5.813   2.517  1.00 20.00    -0.353 N 
HETATM    7  O9  UNL     1     -35.365   6.488   4.154  1.00 20.00    -0.274 OA
HETATM    8  H20 UNL     1     -34.520   5.169   2.132  1.00 20.00     0.163 HD
ENDROOT
BRANCH   5   9
HETATM    9  C3  UNL     1     -32.405   5.131   0.681  1.00 20.00    -0.012 C 
HETATM   10  C2  UNL     1     -31.358   4.353   0.382  1.00 20.00     0.009 C 
ENDBRANCH   5   9
TORSDOF 1
ENDMDL
MODEL 9
REMARK VINA RESULT:      -0.5      2.284      2.859
REMARK  1 active torsions:
REMARK  status: ('A' for Active; 'I' for Inactive)
REMARK    1  A    between atoms: C3_3  and  C7_7 
ROOT
HETATM    1  C1  UNL     1     -33.951   7.443   3.517  1.00 20.00     0.218 C 
HETATM    2  C4  UNL     1     -32.759   7.574   2.593  1.00 20.00     0.103 C 
HETATM    3  C5  UNL     1     -32.798   6.481   1.532  1.00 20.00     0.012 C 
HETATM    4  C6  UNL     1     -32.903   5.071   2.124  1.00 20.00     0.029 C 
HETATM    5  C7  UNL     1     -33.271   5.070   3.607  1.00 20.00     0.106 C 
HETATM    6  N8  UNL     1     -34.189   6.145   3.929  1.00 20.00    -0.353 N 
HETATM    7  O9  UNL     1     -34.615   8.412   3.877  1.00 20.00    -0.274 OA
HETATM    8  H20 UNL     1     -34.997   5.949   4.451  1.00 20.00     0.163 HD
ENDROOT
BRANCH   5   9
HETATM    9  C3  UNL     1     -33.856   3.711   3.925  1.00 20.00    -0.012 C 
HETATM   10  C2  UNL     1     -33.248   2.793   4.685  1.00 20.00     0.009 C 
ENDBRANCH   5   9
TORSDOF 1
ENDMDL
