MODEL 1
REMARK VINA RESULT:       2.9      0.000      0.000
REMARK  0 active torsions:
REMARK  status: ('A' for Active; 'I' for Inactive)
ROOT
HETATM    1  C1  UNL     1     -31.926   8.911   1.162  1.00 20.00     0.014 C 
HETATM    2  C2  UNL     1     -32.292   8.083   1.950  1.00 20.00    -0.081 C 
HETATM    3  C3  UNL     1     -35.659   6.721   2.784  1.00 20.00     0.035 C 
HETATM    4  C4  UNL     1     -34.421   5.329   4.427  1.00 20.00     0.035 C 
HETATM    5  C5  UNL     1     -33.699   7.669   3.968  1.00 20.00     0.053 C 
HETATM    6  C6  UNL     1     -34.689   6.258   1.686  1.00 20.00     0.274 C 
HETATM    7  C7  UNL     1     -33.565   4.831   3.251  1.00 20.00     0.274 C 
HETATM    8  C8  UNL     1     -32.742   7.065   2.917  1.00 20.00     0.300 C 
HETATM    9  C9  UNL     1     -34.923   6.752   4.131  1.00 20.00    -0.008 C 
HETATM   10  N10 UNL     1     -33.362   5.895   2.237  1.00 20.00     0.104 N 
ENDROOT
TORSDOF 0
ENDMDL
MODEL 2
REMARK VINA RESULT:       3.0      1.631      2.889
REMARK  0 active torsions:
REMARK  status: ('A' for Active; 'I' for Inactive)
ROOT
HETATM    1  C1  UNL     1     -32.072  10.096  -0.386  1.00 20.00     0.014 C 
HETATM    2  C2  UNL     1     -32.580   9.330   0.386  1.00 20.00    -0.081 C 
HETATM    3  C3  UNL     1     -31.578   5.956   1.609  1.00 20.00     0.035 C 
HETATM    4  C4  UNL     1     -33.672   6.082   2.938  1.00 20.00     0.035 C 
HETATM    5  C5  UNL     1     -33.578   7.059   0.648  1.00 20.00     0.053 C 
HETATM    6  C6  UNL     1     -31.166   7.330   2.159  1.00 20.00     0.274 C 
HETATM    7  C7  UNL     1     -33.134   7.399   3.524  1.00 20.00     0.274 C 
HETATM    8  C8  UNL     1     -33.204   8.391   1.336  1.00 20.00     0.300 C 
HETATM    9  C9  UNL     1     -33.109   5.883   1.522  1.00 20.00    -0.008 C 
HETATM   10  N10 UNL     1     -32.341   8.155   2.525  1.00 20.00     0.104 N 
ENDROOT
TORSDOF 0
ENDMDL
MODEL 3
REMARK VINA RESULT:       3.2      1.029      1.252
REMARK  0 active torsions:
REMARK  status: ('A' for Active; 'I' for Inactive)
ROOT
HETATM    1  C1  UNL     1     -32.281   9.805   0.455  1.00 20.00     0.014 C 
HETATM    2  C2  UNL     1     -32.247   8.822   1.143  1.00 20.00    -0.081 C 
HETATM    3  C3  UNL     1     -34.901   6.499   2.344  1.00 20.00     0.035 C 
HETATM    4  C4  UNL     1     -33.024   5.320   3.464  1.00 20.00     0.035 C 
HETATM    5  C5  UNL     1     -33.018   7.805   3.287  1.00 20.00     0.053 C 
HETATM    6  C6  UNL     1     -34.120   6.452   1.021  1.00 20.00     0.274 C 
HETATM    7  C7  UNL     1     -32.360   5.217   2.080  1.00 20.00     0.274 C 
HETATM    8  C8  UNL     1     -32.204   7.614   1.988  1.00 20.00     0.300 C 
HETATM    9  C9  UNL     1     -33.912   6.574   3.515  1.00 20.00    -0.008 C 
HETATM   10  N10 UNL     1     -32.656   6.406   1.245  1.00 20.00     0.104 N 
ENDROOT
TORSDOF 0
ENDMDL
MODEL 4
REMARK VINA RESULT:       3.2      1.310      3.637
REMARK  0 active torsions:
REMARK  status: ('A' for Active; 'I' for Inactive)
ROOT
HETATM    1  C1  UNL     1     -33.858   3.967   4.312  1.00 20.00     0.014 C 
HETATM    2  C2  UNL     1     -33.867   4.929   3.594  1.00 20.00    -0.081 C 
HETATM    3  C3  UNL     1     -31.137   6.999   2.129  1.00 20.00     0.035 C 
HETATM    4  C4  UNL     1     -32.996   8.298   1.116  1.00 20.00     0.035 C 
HETATM    5  C5  UNL     1     -33.237   7.335   3.400  1.00 20.00     0.053 C 
HETATM    6  C6  UNL     1     -31.758   5.708   1.573  1.00 20.00     0.274 C 
HETATM    7  C7  UNL     1     -33.489   6.976   0.504  1.00 20.00     0.274 C 
HETATM    8  C8  UNL     1     -33.878   6.110   2.712  1.00 20.00     0.300 C 
HETATM    9  C9  UNL     1     -32.253   8.010   2.430  1.00 20.00    -0.008 C 
HETATM   10  N10 UNL     1     -33.226   5.827   1.405  1.00 20.00     0.104 N 
ENDROOT
TORSDOF 0
ENDMDL
MODEL 5
REMARK VINA RESULT:       3.2      1.288      3.656
REMARK  0 active torsions:
REMARK  status: ('A' for Active; 'I' for Inactive)
ROOT
HETATM    1  C1  UNL     1     -35.176   5.747   4.340  1.00 20.00     0.014 C 
HETATM    2  C2  UNL     1     -34.603   6.532   3.635  1.00 20.00    -0.081 C 
HETATM    3  C3  UNL     1     -31.319   6.406   1.880  1.00 20.00     0.035 C 
HETATM    4  C4  UNL     1     -31.923   8.685   1.099  1.00 20.00     0.035 C 
HETATM    5  C5  UNL     1     -32.555   7.935   3.389  1.00 20.00     0.053 C 
HETATM    6  C6  UNL     1     -32.682   5.895   1.389  1.00 20.00     0.274 C 
HETATM    7  C7  UNL     1     -33.216   8.071   0.538  1.00 20.00     0.274 C 
HETATM    8  C8  UNL     1     -33.901   7.497   2.769  1.00 20.00     0.300 C 
HETATM    9  C9  UNL     1     -31.454   7.872   2.316  1.00 20.00    -0.008 C 
HETATM   10  N10 UNL     1     -33.709   6.964   1.393  1.00 20.00     0.104 N 
ENDROOT
TORSDOF 0
ENDMDL
MODEL 6
REMARK VINA RESULT:       3.6      1.523      3.507
REMARK  0 active torsions:
REMARK  status: ('A' for Active; 'I' for Inactive)
ROOT
HETATM    1  C1  UNL     1     -32.747   2.960   5.179  1.00 20.00     0.014 C 
HETATM    2  C2  UNL     1     -33.403   3.679   4.477  1.00 20.00    -0.081 C 
HETATM    3  C3  UNL     1     -34.009   7.356   4.508  1.00 20.00     0.035 C 
HETATM    4  C4  UNL     1     -35.439   6.893   2.532  1.00 20.00     0.035 C 
HETATM    5  C5  UNL     1     -35.331   5.262   4.412  1.00 20.00     0.053 C 
HETATM    6  C6  UNL     1     -32.861   6.584   3.838  1.00 20.00     0.274 C 
HETATM    7  C7  UNL     1     -34.208   6.234   1.887  1.00 20.00     0.274 C 
HETATM    8  C8  UNL     1     -34.209   4.562   3.613  1.00 20.00     0.300 C 
HETATM    9  C9  UNL     1     -35.351   6.759   4.061  1.00 20.00    -0.008 C 
HETATM   10  N10 UNL     1     -33.362   5.554   2.897  1.00 20.00     0.104 N 
ENDROOT
TORSDOF 0
ENDMDL
MODEL 7
REMARK VINA RESULT:       3.8      1.533      3.763
REMARK  0 active torsions:
REMARK  status: ('A' for Active; 'I' for Inactive)
ROOT
HETATM    1  C1  UNL     1     -35.546   6.270   3.866  1.00 20.00     0.014 C 
HETATM    2  C2  UNL     1     -34.415   6.534   3.564  1.00 20.00    -0.081 C 
HETATM    3  C3  UNL     1     -32.963   8.688   0.893  1.00 20.00     0.035 C 
HETATM    4  C4  UNL     1     -30.781   7.974   1.840  1.00 20.00     0.035 C 
HETATM    5  C5  UNL     1     -32.696   6.383   1.762  1.00 20.00     0.053 C 
HETATM    6  C6  UNL     1     -33.423   9.095   2.301  1.00 20.00     0.274 C 
HETATM    7  C7  UNL     1     -31.277   8.509   3.194  1.00 20.00     0.274 C 
HETATM    8  C8  UNL     1     -33.026   6.859   3.194  1.00 20.00     0.300 C 
HETATM    9  C9  UNL     1     -31.983   7.511   0.999  1.00 20.00    -0.008 C 
HETATM   10  N10 UNL     1     -32.738   8.310   3.356  1.00 20.00     0.104 N 
ENDROOT
TORSDOF 0
ENDMDL
MODEL 8
REMARK VINA RESULT:       3.9      1.815      2.668
REMARK  0 active torsions:
REMARK  status: ('A' for Active; 'I' for Inactive)
ROOT
HETATM    1  C1  UNL     1     -32.645   9.905  -0.748  1.00 20.00     0.014 C 
HETATM    2  C2  UNL     1     -32.656   9.646   0.424  1.00 20.00    -0.081 C 
HETATM    3  C3  UNL     1     -33.276   6.483   2.293  1.00 20.00     0.035 C 
HETATM    4  C4  UNL     1     -32.899   7.885   4.308  1.00 20.00     0.035 C 
HETATM    5  C5  UNL     1     -34.060   8.833   2.319  1.00 20.00     0.053 C 
HETATM    6  C6  UNL     1     -31.953   7.000   1.707  1.00 20.00     0.274 C 
HETATM    7  C7  UNL     1     -31.539   8.266   3.699  1.00 20.00     0.274 C 
HETATM    8  C8  UNL     1     -32.670   9.328   1.863  1.00 20.00     0.300 C 
HETATM    9  C9  UNL     1     -33.897   7.570   3.181  1.00 20.00    -0.008 C 
HETATM   10  N10 UNL     1     -31.609   8.347   2.220  1.00 20.00     0.104 N 
ENDROOT
TORSDOF 0
ENDMDL
MODEL 9
REMARK VINA RESULT:       4.0      1.481      3.518
REMARK  0 active torsions:
REMARK  status: ('A' for Active; 'I' for Inactive)
ROOT
HETATM    1  C1  UNL     1     -35.722   6.086   4.265  1.00 20.00     0.014 C 
HETATM    2  C2  UNL     1     -34.633   6.268   3.794  1.00 20.00    -0.081 C 
HETATM    3  C3  UNL     1     -33.174   5.491   0.455  1.00 20.00     0.035 C 
HETATM    4  C4  UNL     1     -31.113   6.515   1.386  1.00 20.00     0.035 C 
HETATM    5  C5  UNL     1     -32.610   5.160   2.844  1.00 20.00     0.053 C 
HETATM    6  C6  UNL     1     -33.966   6.736   0.882  1.00 20.00     0.274 C 
HETATM    7  C7  UNL     1     -31.956   7.768   1.681  1.00 20.00     0.274 C 
HETATM    8  C8  UNL     1     -33.296   6.493   3.216  1.00 20.00     0.300 C 
HETATM    9  C9  UNL     1     -32.011   5.269   1.432  1.00 20.00    -0.008 C 
HETATM   10  N10 UNL     1     -33.348   7.413   2.047  1.00 20.00     0.104 N 
ENDROOT
TORSDOF 0
ENDMDL
