MODEL 1
REMARK VINA RESULT:      -0.2      0.000      0.000
REMARK  1 active torsions:
REMARK  status: ('A' for Active; 'I' for Inactive)
REMARK    1  A    between atoms: C3_3  and  C8_8 
ROOT
HETATM    1  C1  UNL     1     -33.281   5.544   3.086  1.00 20.00    -0.025 C 
HETATM    2  C2  UNL     1     -33.809   6.742   3.378  1.00 20.00    -0.022 C 
HETATM    3  C4  UNL     1     -33.876   6.526   1.078  1.00 20.00     0.021 C 
HETATM    4  C5  UNL     1     -31.555   6.533   1.614  1.00 20.00     0.063 C 
HETATM    5  C6  UNL     1     -32.795   5.608   1.657  1.00 20.00     0.012 C 
HETATM    6  C7  UNL     1     -33.663   7.607   2.146  1.00 20.00     0.059 C 
HETATM    7  C8  UNL     1     -32.160   7.923   1.960  1.00 20.00     0.202 C 
HETATM    8  F11 UNL     1     -31.633   8.385   3.123  1.00 20.00    -0.231 F 
ENDROOT
BRANCH   7   9
HETATM    9  C3  UNL     1     -31.952   8.932   0.873  1.00 20.00     0.338 C 
HETATM   10  O9  UNL     1     -32.605   9.954   0.731  1.00 20.00    -0.256 OA
HETATM   11  F10 UNL     1     -30.948   8.718   0.010  1.00 20.00    -0.161 F 
ENDBRANCH   7   9
TORSDOF 1
ENDMDL
MODEL 2
REMARK VINA RESULT:       0.7      2.424      3.613
REMARK  1 active torsions:
REMARK  status: ('A' for Active; 'I' for Inactive)
REMARK    1  A    between atoms: C3_3  and  C8_8 
ROOT
HETATM    1  C1  UNL     1     -31.496   8.493   0.633  1.00 20.00    -0.025 C 
HETATM    2  C2  UNL     1     -32.778   8.828   0.838  1.00 20.00    -0.022 C 
HETATM    3  C4  UNL     1     -31.889   8.295   2.903  1.00 20.00     0.021 C 
HETATM    4  C5  UNL     1     -31.792   6.263   1.663  1.00 20.00     0.063 C 
HETATM    5  C6  UNL     1     -31.070   7.626   1.794  1.00 20.00     0.012 C 
HETATM    6  C7  UNL     1     -33.210   8.173   2.131  1.00 20.00     0.059 C 
HETATM    7  C8  UNL     1     -33.280   6.646   1.892  1.00 20.00     0.202 C 
HETATM    8  F11 UNL     1     -34.008   6.382   0.777  1.00 20.00    -0.231 F 
ENDROOT
BRANCH   7   9
HETATM    9  C3  UNL     1     -33.884   5.944   3.070  1.00 20.00     0.338 C 
HETATM   10  O9  UNL     1     -34.733   6.419   3.809  1.00 20.00    -0.256 OA
HETATM   11  F10 UNL     1     -33.493   4.685   3.311  1.00 20.00    -0.161 F 
ENDBRANCH   7   9
TORSDOF 1
ENDMDL
MODEL 3
REMARK VINA RESULT:       0.8      3.098      3.953
REMARK  1 active torsions:
REMARK  status: ('A' for Active; 'I' for Inactive)
REMARK    1  A    between atoms: C3_3  and  C8_8 
ROOT
HETATM    1  C1  UNL     1     -31.581   6.808   1.727  1.00 20.00    -0.025 C 
HETATM    2  C2  UNL     1     -32.116   5.598   1.513  1.00 20.00    -0.022 C 
HETATM    3  C4  UNL     1     -33.844   7.126   1.375  1.00 20.00     0.021 C 
HETATM    4  C5  UNL     1     -33.092   7.271   3.631  1.00 20.00     0.063 C 
HETATM    5  C6  UNL     1     -32.695   7.712   2.202  1.00 20.00     0.012 C 
HETATM    6  C7  UNL     1     -33.586   5.692   1.859  1.00 20.00     0.059 C 
HETATM    7  C8  UNL     1     -33.706   5.864   3.391  1.00 20.00     0.202 C 
HETATM    8  F11 UNL     1     -32.968   4.916   4.025  1.00 20.00    -0.231 F 
ENDROOT
BRANCH   7   9
HETATM    9  C3  UNL     1     -35.135   5.773   3.833  1.00 20.00     0.338 C 
HETATM   10  O9  UNL     1     -35.579   4.932   4.599  1.00 20.00    -0.256 OA
HETATM   11  F10 UNL     1     -35.985   6.708   3.384  1.00 20.00    -0.161 F 
ENDBRANCH   7   9
TORSDOF 1
ENDMDL
MODEL 4
REMARK VINA RESULT:       0.9      1.655      2.560
REMARK  1 active torsions:
REMARK  status: ('A' for Active; 'I' for Inactive)
REMARK    1  A    between atoms: C3_3  and  C8_8 
ROOT
HETATM    1  C1  UNL     1     -35.207   5.544   4.035  1.00 20.00    -0.025 C 
HETATM    2  C2  UNL     1     -33.931   5.140   4.110  1.00 20.00    -0.022 C 
HETATM    3  C4  UNL     1     -33.924   7.432   4.405  1.00 20.00     0.021 C 
HETATM    4  C5  UNL     1     -34.724   7.113   2.184  1.00 20.00     0.063 C 
HETATM    5  C6  UNL     1     -35.191   7.006   3.656  1.00 20.00     0.012 C 
HETATM    6  C7  UNL     1     -33.064   6.331   3.768  1.00 20.00     0.059 C 
HETATM    7  C8  UNL     1     -33.247   6.638   2.263  1.00 20.00     0.202 C 
HETATM    8  F11 UNL     1     -33.080   5.505   1.533  1.00 20.00    -0.231 F 
ENDROOT
BRANCH   7   9
HETATM    9  C3  UNL     1     -32.277   7.684   1.805  1.00 20.00     0.338 C 
HETATM   10  O9  UNL     1     -32.585   8.789   1.386  1.00 20.00    -0.256 OA
HETATM   11  F10 UNL     1     -30.970   7.402   1.895  1.00 20.00    -0.161 F 
ENDBRANCH   7   9
TORSDOF 1
ENDMDL
MODEL 5
REMARK VINA RESULT:       1.1      2.008      2.864
REMARK  1 active torsions:
REMARK  status: ('A' for Active; 'I' for Inactive)
REMARK    1  A    between atoms: C3_3  and  C8_8 
ROOT
HETATM    1  C1  UNL     1     -35.451   6.400   4.085  1.00 20.00    -0.025 C 
HETATM    2  C2  UNL     1     -34.732   5.298   3.825  1.00 20.00    -0.022 C 
HETATM    3  C4  UNL     1     -33.236   6.931   4.485  1.00 20.00     0.021 C 
HETATM    4  C5  UNL     1     -34.174   7.759   2.458  1.00 20.00     0.063 C 
HETATM    5  C6  UNL     1     -34.519   7.582   3.957  1.00 20.00     0.012 C 
HETATM    6  C7  UNL     1     -33.322   5.748   3.511  1.00 20.00     0.059 C 
HETATM    7  C8  UNL     1     -33.347   6.481   2.149  1.00 20.00     0.202 C 
HETATM    8  F11 UNL     1     -33.989   5.721   1.223  1.00 20.00    -0.231 F 
ENDROOT
BRANCH   7   9
HETATM    9  C3  UNL     1     -31.959   6.789   1.677  1.00 20.00     0.338 C 
HETATM   10  O9  UNL     1     -31.442   7.895   1.696  1.00 20.00    -0.256 OA
HETATM   11  F10 UNL     1     -31.211   5.767   1.236  1.00 20.00    -0.161 F 
ENDBRANCH   7   9
TORSDOF 1
ENDMDL
MODEL 6
REMARK VINA RESULT:       1.4      2.901      3.895
REMARK  1 active torsions:
REMARK  status: ('A' for Active; 'I' for Inactive)
REMARK    1  A    between atoms: C3_3  and  C8_8 
ROOT
HETATM    1  C1  UNL     1     -32.428   7.929   1.305  1.00 20.00    -0.025 C 
HETATM    2  C2  UNL     1     -32.136   7.969   2.613  1.00 20.00    -0.022 C 
HETATM    3  C4  UNL     1     -32.073   5.747   1.983  1.00 20.00     0.021 C 
HETATM    4  C5  UNL     1     -34.341   6.400   1.660  1.00 20.00     0.063 C 
HETATM    5  C6  UNL     1     -32.946   6.541   1.006  1.00 20.00     0.012 C 
HETATM    6  C7  UNL     1     -32.471   6.611   3.188  1.00 20.00     0.059 C 
HETATM    7  C8  UNL     1     -34.010   6.454   3.177  1.00 20.00     0.202 C 
HETATM    8  F11 UNL     1     -34.592   7.542   3.745  1.00 20.00    -0.231 F 
ENDROOT
BRANCH   7   9
HETATM    9  C3  UNL     1     -34.430   5.215   3.906  1.00 20.00     0.338 C 
HETATM   10  O9  UNL     1     -35.490   5.075   4.497  1.00 20.00    -0.256 OA
HETATM   11  F10 UNL     1     -33.597   4.165   3.880  1.00 20.00    -0.161 F 
ENDBRANCH   7   9
TORSDOF 1
ENDMDL
MODEL 7
REMARK VINA RESULT:       1.7      2.488      3.632
REMARK  1 active torsions:
REMARK  status: ('A' for Active; 'I' for Inactive)
REMARK    1  A    between atoms: C3_3  and  C8_8 
ROOT
HETATM    1  C1  UNL     1     -31.796   8.553   1.453  1.00 20.00    -0.025 C 
HETATM    2  C2  UNL     1     -31.276   7.544   2.167  1.00 20.00    -0.022 C 
HETATM    3  C4  UNL     1     -33.109   6.694   1.045  1.00 20.00     0.021 C 
HETATM    4  C5  UNL     1     -34.013   8.326   2.527  1.00 20.00     0.063 C 
HETATM    5  C6  UNL     1     -33.244   8.214   1.189  1.00 20.00     0.012 C 
HETATM    6  C7  UNL     1     -32.383   6.537   2.388  1.00 20.00     0.059 C 
HETATM    7  C8  UNL     1     -33.409   7.162   3.362  1.00 20.00     0.202 C 
HETATM    8  F11 UNL     1     -32.773   7.654   4.457  1.00 20.00    -0.231 F 
ENDROOT
BRANCH   7   9
HETATM    9  C3  UNL     1     -34.437   6.156   3.781  1.00 20.00     0.338 C 
HETATM   10  O9  UNL     1     -35.620   6.397   3.963  1.00 20.00    -0.256 OA
HETATM   11  F10 UNL     1     -34.037   4.886   3.933  1.00 20.00    -0.161 F 
ENDBRANCH   7   9
TORSDOF 1
ENDMDL
MODEL 8
REMARK VINA RESULT:       1.8      3.399      4.525
REMARK  1 active torsions:
REMARK  status: ('A' for Active; 'I' for Inactive)
REMARK    1  A    between atoms: C3_3  and  C8_8 
ROOT
HETATM    1  C1  UNL     1     -33.427   8.530   2.480  1.00 20.00    -0.025 C 
HETATM    2  C2  UNL     1     -34.340   8.645   3.455  1.00 20.00    -0.022 C 
HETATM    3  C4  UNL     1     -32.716   7.194   4.229  1.00 20.00     0.021 C 
HETATM    4  C5  UNL     1     -33.689   6.072   2.366  1.00 20.00     0.063 C 
HETATM    5  C6  UNL     1     -32.705   7.220   2.697  1.00 20.00     0.012 C 
HETATM    6  C7  UNL     1     -34.234   7.405   4.315  1.00 20.00     0.059 C 
HETATM    7  C8  UNL     1     -34.754   6.206   3.489  1.00 20.00     0.202 C 
HETATM    8  F11 UNL     1     -35.966   6.500   2.952  1.00 20.00    -0.231 F 
ENDROOT
BRANCH   7   9
HETATM    9  C3  UNL     1     -34.861   4.974   4.335  1.00 20.00     0.338 C 
HETATM   10  O9  UNL     1     -34.139   3.993   4.240  1.00 20.00    -0.256 OA
HETATM   11  F10 UNL     1     -35.795   4.960   5.297  1.00 20.00    -0.161 F 
ENDBRANCH   7   9
TORSDOF 1
ENDMDL
MODEL 9
REMARK VINA RESULT:       2.0      1.466      2.264
REMARK  1 active torsions:
REMARK  status: ('A' for Active; 'I' for Inactive)
REMARK    1  A    between atoms: C3_3  and  C8_8 
ROOT
HETATM    1  C1  UNL     1     -31.883   6.138   1.792  1.00 20.00    -0.025 C 
HETATM    2  C2  UNL     1     -31.061   7.135   2.149  1.00 20.00    -0.022 C 
HETATM    3  C4  UNL     1     -33.218   7.922   2.411  1.00 20.00     0.021 C 
HETATM    4  C5  UNL     1     -33.003   7.521   0.072  1.00 20.00     0.063 C 
HETATM    5  C6  UNL     1     -33.203   6.764   1.407  1.00 20.00     0.012 C 
HETATM    6  C7  UNL     1     -31.830   8.427   1.991  1.00 20.00     0.059 C 
HETATM    7  C8  UNL     1     -32.043   8.674   0.479  1.00 20.00     0.202 C 
HETATM    8  F11 UNL     1     -30.863   8.556  -0.183  1.00 20.00    -0.231 F 
ENDROOT
BRANCH   7   9
HETATM    9  C3  UNL     1     -32.630  10.030   0.232  1.00 20.00     0.338 C 
HETATM   10  O9  UNL     1     -33.275  10.345  -0.756  1.00 20.00    -0.256 OA
HETATM   11  F10 UNL     1     -32.467  10.961   1.184  1.00 20.00    -0.161 F 
ENDBRANCH   7   9
TORSDOF 1
ENDMDL
