MODEL 1
REMARK VINA RESULT:      -2.0      0.000      0.000
REMARK  1 active torsions:
REMARK  status: ('A' for Active; 'I' for Inactive)
REMARK    1  A    between atoms: C1_1  and  C3_3 
ROOT
HETATM    1  C2  UNL     1     -34.107   7.370   4.288  1.00 20.00     0.030 A 
HETATM    2  C3  UNL     1     -34.206   7.092   2.811  1.00 20.00     0.070 A 
HETATM    3  C4  UNL     1     -34.850   6.158   3.803  1.00 20.00     0.070 A 
HETATM    4 BR7  UNL     1     -34.095   4.441   4.164  1.00 20.00    -0.090 Br
ENDROOT
BRANCH   2   5
HETATM    5  C1  UNL     1     -32.998   6.717   2.067  1.00 20.00     0.128 C 
HETATM    6  C5  UNL     1     -31.902   7.745   1.991  1.00 20.00     0.091 C 
HETATM    7  O6  UNL     1     -32.887   5.614   1.533  1.00 20.00    -0.298 OA
ENDBRANCH   2   5
TORSDOF 1
ENDMDL
MODEL 2
REMARK VINA RESULT:      -1.6      2.171      2.610
REMARK  1 active torsions:
REMARK  status: ('A' for Active; 'I' for Inactive)
REMARK    1  A    between atoms: C1_1  and  C3_3 
ROOT
HETATM    1  C2  UNL     1     -33.270   6.031   0.989  1.00 20.00     0.030 A 
HETATM    2  C3  UNL     1     -32.100   6.579   1.762  1.00 20.00     0.070 A 
HETATM    3  C4  UNL     1     -33.186   5.812   2.472  1.00 20.00     0.070 A 
HETATM    4 BR7  UNL     1     -34.452   6.711   3.583  1.00 20.00    -0.090 Br
ENDROOT
BRANCH   2   5
HETATM    5  C1  UNL     1     -31.954   8.031   1.913  1.00 20.00     0.128 C 
HETATM    6  C5  UNL     1     -32.307   8.875   0.718  1.00 20.00     0.091 C 
HETATM    7  O6  UNL     1     -31.563   8.534   2.966  1.00 20.00    -0.298 OA
ENDBRANCH   2   5
TORSDOF 1
ENDMDL
MODEL 3
REMARK VINA RESULT:      -1.4      1.058      1.279
REMARK  1 active torsions:
REMARK  status: ('A' for Active; 'I' for Inactive)
REMARK    1  A    between atoms: C1_1  and  C3_3 
ROOT
HETATM    1  C2  UNL     1     -34.189   7.418   4.378  1.00 20.00     0.030 A 
HETATM    2  C3  UNL     1     -34.165   7.234   2.883  1.00 20.00     0.070 A 
HETATM    3  C4  UNL     1     -34.821   6.202   3.763  1.00 20.00     0.070 A 
HETATM    4 BR7  UNL     1     -33.994   4.509   4.073  1.00 20.00    -0.090 Br
ENDROOT
BRANCH   2   5
HETATM    5  C1  UNL     1     -32.887   6.975   2.210  1.00 20.00     0.128 C 
HETATM    6  C5  UNL     1     -32.821   5.759   1.326  1.00 20.00     0.091 C 
HETATM    7  O6  UNL     1     -31.916   7.716   2.360  1.00 20.00    -0.298 OA
ENDBRANCH   2   5
TORSDOF 1
ENDMDL
MODEL 4
REMARK VINA RESULT:      -0.9      2.183      3.250
REMARK  1 active torsions:
REMARK  status: ('A' for Active; 'I' for Inactive)
REMARK    1  A    between atoms: C1_1  and  C3_3 
ROOT
HETATM    1  C2  UNL     1     -32.066   5.539   1.467  1.00 20.00     0.030 A 
HETATM    2  C3  UNL     1     -33.508   5.781   1.824  1.00 20.00     0.070 A 
HETATM    3  C4  UNL     1     -32.619   6.935   1.440  1.00 20.00     0.070 A 
HETATM    4 BR7  UNL     1     -31.995   8.172   2.754  1.00 20.00    -0.090 Br
ENDROOT
BRANCH   2   5
HETATM    5  C1  UNL     1     -33.952   5.576   3.208  1.00 20.00     0.128 C 
HETATM    6  C5  UNL     1     -34.877   6.614   3.784  1.00 20.00     0.091 C 
HETATM    7  O6  UNL     1     -33.587   4.601   3.865  1.00 20.00    -0.298 OA
ENDBRANCH   2   5
TORSDOF 1
ENDMDL
MODEL 5
REMARK VINA RESULT:      -0.9      2.392      3.437
REMARK  1 active torsions:
REMARK  status: ('A' for Active; 'I' for Inactive)
REMARK    1  A    between atoms: C1_1  and  C3_3 
ROOT
HETATM    1  C2  UNL     1     -32.048   5.420   1.586  1.00 20.00     0.030 A 
HETATM    2  C3  UNL     1     -33.498   5.736   1.840  1.00 20.00     0.070 A 
HETATM    3  C4  UNL     1     -32.565   6.808   1.339  1.00 20.00     0.070 A 
HETATM    4 BR7  UNL     1     -31.967   8.206   2.495  1.00 20.00    -0.090 Br
ENDROOT
BRANCH   2   5
HETATM    5  C1  UNL     1     -34.004   5.734   3.218  1.00 20.00     0.128 C 
HETATM    6  C5  UNL     1     -33.910   4.436   3.973  1.00 20.00     0.091 C 
HETATM    7  O6  UNL     1     -34.481   6.746   3.731  1.00 20.00    -0.298 OA
ENDBRANCH   2   5
TORSDOF 1
ENDMDL
MODEL 6
REMARK VINA RESULT:      -0.8      2.127      3.090
REMARK  1 active torsions:
REMARK  status: ('A' for Active; 'I' for Inactive)
REMARK    1  A    between atoms: C1_1  and  C3_3 
ROOT
HETATM    1  C2  UNL     1     -33.939   8.343   3.089  1.00 20.00     0.030 A 
HETATM    2  C3  UNL     1     -34.026   7.198   4.063  1.00 20.00     0.070 A 
HETATM    3  C4  UNL     1     -32.876   7.282   3.093  1.00 20.00     0.070 A 
HETATM    4 BR7  UNL     1     -32.774   6.110   1.589  1.00 20.00    -0.090 Br
ENDROOT
BRANCH   2   5
HETATM    5  C1  UNL     1     -35.094   6.203   3.910  1.00 20.00     0.128 C 
HETATM    6  C5  UNL     1     -34.810   4.819   4.431  1.00 20.00     0.091 C 
HETATM    7  O6  UNL     1     -36.170   6.486   3.385  1.00 20.00    -0.298 OA
ENDBRANCH   2   5
TORSDOF 1
ENDMDL
MODEL 7
REMARK VINA RESULT:      -0.7      1.974      3.071
REMARK  1 active torsions:
REMARK  status: ('A' for Active; 'I' for Inactive)
REMARK    1  A    between atoms: C1_1  and  C3_3 
ROOT
HETATM    1  C2  UNL     1     -32.539   8.462   1.345  1.00 20.00     0.030 A 
HETATM    2  C3  UNL     1     -32.314   8.041   2.773  1.00 20.00     0.070 A 
HETATM    3  C4  UNL     1     -31.663   7.280   1.647  1.00 20.00     0.070 A 
HETATM    4 BR7  UNL     1     -32.290   5.548   1.143  1.00 20.00    -0.090 Br
ENDROOT
BRANCH   2   5
HETATM    5  C1  UNL     1     -33.431   7.478   3.542  1.00 20.00     0.128 C 
HETATM    6  C5  UNL     1     -33.696   8.083   4.894  1.00 20.00     0.091 C 
HETATM    7  O6  UNL     1     -34.117   6.556   3.101  1.00 20.00    -0.298 OA
ENDBRANCH   2   5
TORSDOF 1
ENDMDL
MODEL 8
REMARK VINA RESULT:      -0.6      2.223      2.877
REMARK  1 active torsions:
REMARK  status: ('A' for Active; 'I' for Inactive)
REMARK    1  A    between atoms: C1_1  and  C3_3 
ROOT
HETATM    1  C2  UNL     1     -35.491   6.766   3.377  1.00 20.00     0.030 A 
HETATM    2  C3  UNL     1     -34.651   5.849   4.226  1.00 20.00     0.070 A 
HETATM    3  C4  UNL     1     -34.284   7.305   4.090  1.00 20.00     0.070 A 
HETATM    4 BR7  UNL     1     -32.787   7.844   3.036  1.00 20.00    -0.090 Br
ENDROOT
BRANCH   2   5
HETATM    5  C1  UNL     1     -33.864   4.791   3.582  1.00 20.00     0.128 C 
HETATM    6  C5  UNL     1     -33.648   3.530   4.375  1.00 20.00     0.091 C 
HETATM    7  O6  UNL     1     -33.405   4.927   2.449  1.00 20.00    -0.298 OA
ENDBRANCH   2   5
TORSDOF 1
ENDMDL
MODEL 9
REMARK VINA RESULT:      -0.6      2.433      3.248
REMARK  1 active torsions:
REMARK  status: ('A' for Active; 'I' for Inactive)
REMARK    1  A    between atoms: C1_1  and  C3_3 
ROOT
HETATM    1  C2  UNL     1     -32.977   6.194   2.532  1.00 20.00     0.030 A 
HETATM    2  C3  UNL     1     -34.391   5.841   2.910  1.00 20.00     0.070 A 
HETATM    3  C4  UNL     1     -33.873   7.239   3.131  1.00 20.00     0.070 A 
HETATM    4 BR7  UNL     1     -33.468   7.868   4.887  1.00 20.00    -0.090 Br
ENDROOT
BRANCH   2   5
HETATM    5  C1  UNL     1     -34.629   4.921   4.027  1.00 20.00     0.128 C 
HETATM    6  C5  UNL     1     -33.619   3.824   4.229  1.00 20.00     0.091 C 
HETATM    7  O6  UNL     1     -35.607   5.041   4.765  1.00 20.00    -0.298 OA
ENDBRANCH   2   5
TORSDOF 1
ENDMDL
