MODEL 1
REMARK VINA RESULT:      -1.2      0.000      0.000
REMARK  2 active torsions:
REMARK  status: ('A' for Active; 'I' for Inactive)
REMARK    1  A    between atoms: C1_1  and  C8_8 
REMARK    2  A    between atoms: C3_3  and  C8_8 
ROOT
HETATM    1  C2  UNL     1     -32.615   8.834   0.647  1.00 20.00     0.153 A 
HETATM    2  C3  UNL     1     -32.427   7.911   1.837  1.00 20.00     0.093 A 
HETATM    3  C5  UNL     1     -32.412  10.306   0.713  1.00 20.00     0.042 C 
HETATM    4  C6  UNL     1     -32.017   8.437   3.176  1.00 20.00     0.049 C 
HETATM    5  O10 UNL     1     -31.423   8.056   0.818  1.00 20.00    -0.369 OA
ENDROOT
BRANCH   2   6
HETATM    6  C8  UNL     1     -33.109   6.578   1.822  1.00 20.00     0.087 C 
HETATM    7  C7  UNL     1     -32.124   5.436   1.528  1.00 20.00     0.021 C 
BRANCH   6   8
HETATM    8  C1  UNL     1     -33.831   6.318   3.152  1.00 20.00     0.129 C 
HETATM    9  C4  UNL     1     -33.835   4.896   3.654  1.00 20.00     0.091 C 
HETATM   10  O9  UNL     1     -34.422   7.204   3.769  1.00 20.00    -0.298 OA
ENDBRANCH   6   8
ENDBRANCH   2   6
TORSDOF 2
ENDMDL
MODEL 2
REMARK VINA RESULT:      -0.0      1.444      2.310
REMARK  2 active torsions:
REMARK  status: ('A' for Active; 'I' for Inactive)
REMARK    1  A    between atoms: C1_1  and  C8_8 
REMARK    2  A    between atoms: C3_3  and  C8_8 
ROOT
HETATM    1  C2  UNL     1     -32.023   8.159   2.062  1.00 20.00     0.153 A 
HETATM    2  C3  UNL     1     -32.938   6.994   2.391  1.00 20.00     0.093 A 
HETATM    3  C5  UNL     1     -31.162   8.207   0.850  1.00 20.00     0.042 C 
HETATM    4  C6  UNL     1     -33.031   5.798   1.498  1.00 20.00     0.049 C 
HETATM    5  O10 UNL     1     -33.432   8.207   1.799  1.00 20.00    -0.369 OA
ENDROOT
BRANCH   2   6
HETATM    6  C8  UNL     1     -33.367   6.801   3.813  1.00 20.00     0.087 C 
HETATM    7  C7  UNL     1     -33.683   8.139   4.500  1.00 20.00     0.021 C 
BRANCH   6   8
HETATM    8  C1  UNL     1     -34.585   5.870   3.895  1.00 20.00     0.129 C 
HETATM    9  C4  UNL     1     -34.308   4.415   4.179  1.00 20.00     0.091 C 
HETATM   10  O9  UNL     1     -35.735   6.264   3.696  1.00 20.00    -0.298 OA
ENDBRANCH   6   8
ENDBRANCH   2   6
TORSDOF 2
ENDMDL
MODEL 3
REMARK VINA RESULT:       0.1      1.319      3.876
REMARK  2 active torsions:
REMARK  status: ('A' for Active; 'I' for Inactive)
REMARK    1  A    between atoms: C1_1  and  C8_8 
REMARK    2  A    between atoms: C3_3  and  C8_8 
ROOT
HETATM    1  C2  UNL     1     -34.486   5.422   3.580  1.00 20.00     0.153 A 
HETATM    2  C3  UNL     1     -33.733   6.713   3.320  1.00 20.00     0.093 A 
HETATM    3  C5  UNL     1     -35.375   5.215   4.755  1.00 20.00     0.042 C 
HETATM    4  C6  UNL     1     -33.843   7.881   4.248  1.00 20.00     0.049 C 
HETATM    5  O10 UNL     1     -34.956   6.392   2.636  1.00 20.00    -0.369 OA
ENDROOT
BRANCH   2   6
HETATM    6  C8  UNL     1     -32.524   6.671   2.439  1.00 20.00     0.087 C 
HETATM    7  C7  UNL     1     -32.812   5.961   1.107  1.00 20.00     0.021 C 
BRANCH   6   8
HETATM    8  C1  UNL     1     -31.989   8.085   2.174  1.00 20.00     0.129 C 
HETATM    9  C4  UNL     1     -32.440   8.752   0.899  1.00 20.00     0.091 C 
HETATM   10  O9  UNL     1     -31.194   8.645   2.929  1.00 20.00    -0.298 OA
ENDBRANCH   6   8
ENDBRANCH   2   6
TORSDOF 2
ENDMDL
MODEL 4
REMARK VINA RESULT:       0.4      2.011      2.973
REMARK  2 active torsions:
REMARK  status: ('A' for Active; 'I' for Inactive)
REMARK    1  A    between atoms: C1_1  and  C8_8 
REMARK    2  A    between atoms: C3_3  and  C8_8 
ROOT
HETATM    1  C2  UNL     1     -31.748   5.448   1.678  1.00 20.00     0.153 A 
HETATM    2  C3  UNL     1     -33.056   6.150   1.993  1.00 20.00     0.093 A 
HETATM    3  C5  UNL     1     -31.500   4.706   0.413  1.00 20.00     0.042 C 
HETATM    4  C6  UNL     1     -34.200   6.138   1.029  1.00 20.00     0.049 C 
HETATM    5  O10 UNL     1     -31.901   6.865   1.522  1.00 20.00    -0.369 OA
ENDROOT
BRANCH   2   6
HETATM    6  C8  UNL     1     -33.392   6.428   3.425  1.00 20.00     0.087 C 
HETATM    7  C7  UNL     1     -33.874   7.873   3.628  1.00 20.00     0.021 C 
BRANCH   6   8
HETATM    8  C1  UNL     1     -34.453   5.445   3.939  1.00 20.00     0.129 C 
HETATM    9  C4  UNL     1     -34.019   4.012   4.119  1.00 20.00     0.091 C 
HETATM   10  O9  UNL     1     -35.618   5.781   4.153  1.00 20.00    -0.298 OA
ENDBRANCH   6   8
ENDBRANCH   2   6
TORSDOF 2
ENDMDL
MODEL 5
REMARK VINA RESULT:       0.4      1.511      3.828
REMARK  2 active torsions:
REMARK  status: ('A' for Active; 'I' for Inactive)
REMARK    1  A    between atoms: C1_1  and  C8_8 
REMARK    2  A    between atoms: C3_3  and  C8_8 
ROOT
HETATM    1  C2  UNL     1     -34.626   5.575   3.481  1.00 20.00     0.153 A 
HETATM    2  C3  UNL     1     -33.888   6.894   3.345  1.00 20.00     0.093 A 
HETATM    3  C5  UNL     1     -34.936   4.942   4.792  1.00 20.00     0.042 C 
HETATM    4  C6  UNL     1     -33.419   7.654   4.545  1.00 20.00     0.049 C 
HETATM    5  O10 UNL     1     -35.318   6.805   3.231  1.00 20.00    -0.369 OA
ENDROOT
BRANCH   2   6
HETATM    6  C8  UNL     1     -33.200   7.197   2.050  1.00 20.00     0.087 C 
HETATM    7  C7  UNL     1     -32.062   8.214   2.234  1.00 20.00     0.021 C 
BRANCH   6   8
HETATM    8  C1  UNL     1     -32.657   5.914   1.405  1.00 20.00     0.129 C 
HETATM    9  C4  UNL     1     -33.544   5.237   0.391  1.00 20.00     0.091 C 
HETATM   10  O9  UNL     1     -31.574   5.421   1.722  1.00 20.00    -0.298 OA
ENDBRANCH   6   8
ENDBRANCH   2   6
TORSDOF 2
ENDMDL
MODEL 6
REMARK VINA RESULT:       0.5      1.129      4.100
REMARK  2 active torsions:
REMARK  status: ('A' for Active; 'I' for Inactive)
REMARK    1  A    between atoms: C1_1  and  C8_8 
REMARK    2  A    between atoms: C3_3  and  C8_8 
ROOT
HETATM    1  C2  UNL     1     -34.424   7.293   3.828  1.00 20.00     0.153 A 
HETATM    2  C3  UNL     1     -33.253   7.310   2.863  1.00 20.00     0.093 A 
HETATM    3  C5  UNL     1     -35.454   6.219   3.847  1.00 20.00     0.042 C 
HETATM    4  C6  UNL     1     -33.058   6.225   1.852  1.00 20.00     0.049 C 
HETATM    5  O10 UNL     1     -33.112   6.874   4.225  1.00 20.00    -0.369 OA
ENDROOT
BRANCH   2   6
HETATM    6  C8  UNL     1     -32.581   8.617   2.578  1.00 20.00     0.087 C 
HETATM    7  C7  UNL     1     -31.465   8.917   3.592  1.00 20.00     0.021 C 
BRANCH   6   8
HETATM    8  C1  UNL     1     -32.012   8.641   1.152  1.00 20.00     0.129 C 
HETATM    9  C4  UNL     1     -32.555   9.697   0.223  1.00 20.00     0.091 C 
HETATM   10  O9  UNL     1     -31.188   7.817   0.754  1.00 20.00    -0.298 OA
ENDBRANCH   6   8
ENDBRANCH   2   6
TORSDOF 2
ENDMDL
MODEL 7
REMARK VINA RESULT:       0.5      1.497      3.699
REMARK  2 active torsions:
REMARK  status: ('A' for Active; 'I' for Inactive)
REMARK    1  A    between atoms: C1_1  and  C8_8 
REMARK    2  A    between atoms: C3_3  and  C8_8 
ROOT
HETATM    1  C2  UNL     1     -32.078   5.686   1.156  1.00 20.00     0.153 A 
HETATM    2  C3  UNL     1     -33.133   5.976   2.207  1.00 20.00     0.093 A 
HETATM    3  C5  UNL     1     -31.313   4.412   1.093  1.00 20.00     0.042 C 
HETATM    4  C6  UNL     1     -33.475   4.976   3.266  1.00 20.00     0.049 C 
HETATM    5  O10 UNL     1     -33.478   5.559   0.876  1.00 20.00    -0.369 OA
ENDROOT
BRANCH   2   6
HETATM    6  C8  UNL     1     -33.479   7.403   2.499  1.00 20.00     0.087 C 
HETATM    7  C7  UNL     1     -33.964   7.589   3.945  1.00 20.00     0.021 C 
BRANCH   6   8
HETATM    8  C1  UNL     1     -32.280   8.323   2.227  1.00 20.00     0.129 C 
HETATM    9  C4  UNL     1     -32.280   9.066   0.914  1.00 20.00     0.091 C 
HETATM   10  O9  UNL     1     -31.334   8.426   3.008  1.00 20.00    -0.298 OA
ENDBRANCH   6   8
ENDBRANCH   2   6
TORSDOF 2
ENDMDL
MODEL 8
REMARK VINA RESULT:       0.5      1.415      4.186
REMARK  2 active torsions:
REMARK  status: ('A' for Active; 'I' for Inactive)
REMARK    1  A    between atoms: C1_1  and  C8_8 
REMARK    2  A    between atoms: C3_3  and  C8_8 
ROOT
HETATM    1  C2  UNL     1     -33.246   5.179   3.487  1.00 20.00     0.153 A 
HETATM    2  C3  UNL     1     -34.096   6.427   3.334  1.00 20.00     0.093 A 
HETATM    3  C5  UNL     1     -33.757   3.905   4.061  1.00 20.00     0.042 C 
HETATM    4  C6  UNL     1     -35.529   6.452   3.761  1.00 20.00     0.049 C 
HETATM    5  O10 UNL     1     -33.829   5.547   2.230  1.00 20.00    -0.369 OA
ENDROOT
BRANCH   2   6
HETATM    6  C8  UNL     1     -33.407   7.752   3.227  1.00 20.00     0.087 C 
HETATM    7  C7  UNL     1     -32.691   8.130   4.533  1.00 20.00     0.021 C 
BRANCH   6   8
HETATM    8  C1  UNL     1     -32.407   7.756   2.062  1.00 20.00     0.129 C 
HETATM    9  C4  UNL     1     -32.495   8.913   1.098  1.00 20.00     0.091 C 
HETATM   10  O9  UNL     1     -31.599   6.846   1.879  1.00 20.00    -0.298 OA
ENDBRANCH   6   8
ENDBRANCH   2   6
TORSDOF 2
ENDMDL
MODEL 9
REMARK VINA RESULT:       0.5      1.930      2.849
REMARK  2 active torsions:
REMARK  status: ('A' for Active; 'I' for Inactive)
REMARK    1  A    between atoms: C1_1  and  C8_8 
REMARK    2  A    between atoms: C3_3  and  C8_8 
ROOT
HETATM    1  C2  UNL     1     -33.826   7.452   4.613  1.00 20.00     0.153 A 
HETATM    2  C3  UNL     1     -33.519   7.080   3.174  1.00 20.00     0.093 A 
HETATM    3  C5  UNL     1     -33.074   8.488   5.370  1.00 20.00     0.042 C 
HETATM    4  C6  UNL     1     -32.417   7.747   2.414  1.00 20.00     0.049 C 
HETATM    5  O10 UNL     1     -34.605   7.955   3.519  1.00 20.00    -0.369 OA
ENDROOT
BRANCH   2   6
HETATM    6  C8  UNL     1     -33.962   5.741   2.671  1.00 20.00     0.087 C 
HETATM    7  C7  UNL     1     -32.885   5.073   1.802  1.00 20.00     0.021 C 
BRANCH   6   8
HETATM    8  C1  UNL     1     -34.342   4.817   3.837  1.00 20.00     0.129 C 
HETATM    9  C4  UNL     1     -33.395   3.683   4.140  1.00 20.00     0.091 C 
HETATM   10  O9  UNL     1     -35.387   4.950   4.473  1.00 20.00    -0.298 OA
ENDBRANCH   6   8
ENDBRANCH   2   6
TORSDOF 2
ENDMDL
