MODEL 1
REMARK VINA RESULT:      -0.4      0.000      0.000
REMARK  1 active torsions:
REMARK  status: ('A' for Active; 'I' for Inactive)
REMARK    1  A    between atoms: C3_3  and  C7_7 
ROOT
HETATM    1  C1  UNL     1     -33.541   6.295   2.273  1.00 20.00    -0.020 C 
HETATM    2  C2  UNL     1     -33.535   7.309   3.155  1.00 20.00    -0.086 C 
HETATM    3  C4  UNL     1     -32.524   8.428   3.093  1.00 20.00     0.045 C 
HETATM    4  C5  UNL     1     -31.316   7.063   1.331  1.00 20.00     0.020 C 
HETATM    5  C6  UNL     1     -32.538   6.143   1.157  1.00 20.00     0.005 C 
HETATM    6  C7  UNL     1     -31.695   8.466   1.804  1.00 20.00     0.059 C 
HETATM    7  C8  UNL     1     -34.545   7.397   4.262  1.00 20.00     0.043 C 
HETATM    8  C10 UNL     1     -32.082   4.688   1.033  1.00 20.00     0.014 C 
ENDROOT
BRANCH   6   9
HETATM    9  C3  UNL     1     -32.421   9.204   0.716  1.00 20.00     0.127 C 
HETATM   10  C9  UNL     1     -32.833  10.619   1.016  1.00 20.00     0.091 C 
HETATM   11  O11 UNL     1     -32.666   8.676  -0.369  1.00 20.00    -0.298 OA
ENDBRANCH   6   9
TORSDOF 1
ENDMDL
MODEL 2
REMARK VINA RESULT:       1.1      2.104      3.843
REMARK  1 active torsions:
REMARK  status: ('A' for Active; 'I' for Inactive)
REMARK    1  A    between atoms: C3_3  and  C7_7 
ROOT
HETATM    1  C1  UNL     1     -32.507   8.051   3.330  1.00 20.00    -0.020 C 
HETATM    2  C2  UNL     1     -33.560   7.755   4.112  1.00 20.00    -0.086 C 
HETATM    3  C4  UNL     1     -34.557   6.682   3.751  1.00 20.00     0.045 C 
HETATM    4  C5  UNL     1     -33.423   6.571   1.486  1.00 20.00     0.020 C 
HETATM    5  C6  UNL     1     -32.222   7.378   2.012  1.00 20.00     0.005 C 
HETATM    6  C7  UNL     1     -34.130   5.780   2.587  1.00 20.00     0.059 C 
HETATM    7  C8  UNL     1     -33.808   8.475   5.405  1.00 20.00     0.043 C 
HETATM    8  C10 UNL     1     -31.784   8.403   0.963  1.00 20.00     0.014 C 
ENDROOT
BRANCH   6   9
HETATM    9  C3  UNL     1     -33.254   4.658   3.066  1.00 20.00     0.127 C 
HETATM   10  C9  UNL     1     -33.762   3.853   4.230  1.00 20.00     0.091 C 
HETATM   11  O11 UNL     1     -32.174   4.409   2.530  1.00 20.00    -0.298 OA
ENDBRANCH   6   9
TORSDOF 1
ENDMDL
MODEL 3
REMARK VINA RESULT:       1.5      1.952      3.541
REMARK  1 active torsions:
REMARK  status: ('A' for Active; 'I' for Inactive)
REMARK    1  A    between atoms: C3_3  and  C7_7 
ROOT
HETATM    1  C1  UNL     1     -33.366   5.129   2.988  1.00 20.00    -0.020 C 
HETATM    2  C2  UNL     1     -32.829   5.741   1.918  1.00 20.00    -0.086 C 
HETATM    3  C4  UNL     1     -32.976   7.223   1.677  1.00 20.00     0.045 C 
HETATM    4  C5  UNL     1     -34.638   7.238   3.592  1.00 20.00     0.020 C 
HETATM    5  C6  UNL     1     -34.188   5.835   4.037  1.00 20.00     0.005 C 
HETATM    6  C7  UNL     1     -33.534   8.010   2.868  1.00 20.00     0.059 C 
HETATM    7  C8  UNL     1     -32.040   4.982   0.891  1.00 20.00     0.043 C 
HETATM    8  C10 UNL     1     -35.407   4.996   4.425  1.00 20.00     0.014 C 
ENDROOT
BRANCH   6   9
HETATM    9  C3  UNL     1     -32.442   8.381   3.830  1.00 20.00     0.127 C 
HETATM   10  C9  UNL     1     -32.818   8.454   5.285  1.00 20.00     0.091 C 
HETATM   11  O11 UNL     1     -31.296   8.613   3.447  1.00 20.00    -0.298 OA
ENDBRANCH   6   9
TORSDOF 1
ENDMDL
MODEL 4
REMARK VINA RESULT:       1.5      2.020      3.632
REMARK  1 active torsions:
REMARK  status: ('A' for Active; 'I' for Inactive)
REMARK    1  A    between atoms: C3_3  and  C7_7 
ROOT
HETATM    1  C1  UNL     1     -32.271   8.331   3.187  1.00 20.00    -0.020 C 
HETATM    2  C2  UNL     1     -33.224   7.888   4.025  1.00 20.00    -0.086 C 
HETATM    3  C4  UNL     1     -34.253   6.865   3.609  1.00 20.00     0.045 C 
HETATM    4  C5  UNL     1     -33.390   7.151   1.242  1.00 20.00     0.020 C 
HETATM    5  C6  UNL     1     -32.139   7.888   1.752  1.00 20.00     0.005 C 
HETATM    6  C7  UNL     1     -33.961   6.175   2.271  1.00 20.00     0.059 C 
HETATM    7  C8  UNL     1     -33.323   8.383   5.438  1.00 20.00     0.043 C 
HETATM    8  C10 UNL     1     -31.830   9.080   0.843  1.00 20.00     0.014 C 
ENDROOT
BRANCH   6   9
HETATM    9  C3  UNL     1     -33.031   5.010   2.456  1.00 20.00     0.127 C 
HETATM   10  C9  UNL     1     -32.009   4.783   1.376  1.00 20.00     0.091 C 
HETATM   11  O11 UNL     1     -33.102   4.279   3.443  1.00 20.00    -0.298 OA
ENDBRANCH   6   9
TORSDOF 1
ENDMDL
MODEL 5
REMARK VINA RESULT:       1.6      1.786      3.737
REMARK  1 active torsions:
REMARK  status: ('A' for Active; 'I' for Inactive)
REMARK    1  A    between atoms: C3_3  and  C7_7 
ROOT
HETATM    1  C1  UNL     1     -32.943   7.057   0.590  1.00 20.00    -0.020 C 
HETATM    2  C2  UNL     1     -32.938   5.844   1.169  1.00 20.00    -0.086 C 
HETATM    3  C4  UNL     1     -32.747   5.658   2.654  1.00 20.00     0.045 C 
HETATM    4  C5  UNL     1     -32.175   8.126   2.757  1.00 20.00     0.020 C 
HETATM    5  C6  UNL     1     -32.732   8.348   1.340  1.00 20.00     0.005 C 
HETATM    6  C7  UNL     1     -32.838   6.950   3.474  1.00 20.00     0.059 C 
HETATM    7  C8  UNL     1     -33.129   4.589   0.368  1.00 20.00     0.043 C 
HETATM    8  C10 UNL     1     -31.807   9.284   0.557  1.00 20.00     0.014 C 
ENDROOT
BRANCH   6   9
HETATM    9  C3  UNL     1     -34.265   7.281   3.806  1.00 20.00     0.127 C 
HETATM   10  C9  UNL     1     -35.221   6.124   3.910  1.00 20.00     0.091 C 
HETATM   11  O11 UNL     1     -34.634   8.441   3.984  1.00 20.00    -0.298 OA
ENDBRANCH   6   9
TORSDOF 1
ENDMDL
MODEL 6
REMARK VINA RESULT:       2.3      2.050      3.304
REMARK  1 active torsions:
REMARK  status: ('A' for Active; 'I' for Inactive)
REMARK    1  A    between atoms: C3_3  and  C7_7 
ROOT
HETATM    1  C1  UNL     1     -34.311   5.584   3.883  1.00 20.00    -0.020 C 
HETATM    2  C2  UNL     1     -33.886   6.789   3.467  1.00 20.00    -0.086 C 
HETATM    3  C4  UNL     1     -32.817   6.949   2.414  1.00 20.00     0.045 C 
HETATM    4  C5  UNL     1     -32.441   4.448   2.601  1.00 20.00     0.020 C 
HETATM    5  C6  UNL     1     -33.760   4.275   3.377  1.00 20.00     0.005 C 
HETATM    6  C7  UNL     1     -32.461   5.658   1.667  1.00 20.00     0.059 C 
HETATM    7  C8  UNL     1     -34.455   8.061   4.025  1.00 20.00     0.043 C 
HETATM    8  C10 UNL     1     -33.560   3.288   4.530  1.00 20.00     0.014 C 
ENDROOT
BRANCH   6   9
HETATM    9  C3  UNL     1     -33.404   5.417   0.523  1.00 20.00     0.127 C 
HETATM   10  C9  UNL     1     -33.275   4.102  -0.195  1.00 20.00     0.091 C 
HETATM   11  O11 UNL     1     -34.243   6.255   0.191  1.00 20.00    -0.298 OA
ENDBRANCH   6   9
TORSDOF 1
ENDMDL
MODEL 7
REMARK VINA RESULT:       2.4      1.863      3.622
REMARK  1 active torsions:
REMARK  status: ('A' for Active; 'I' for Inactive)
REMARK    1  A    between atoms: C3_3  and  C7_7 
ROOT
HETATM    1  C1  UNL     1     -33.221   7.185   0.421  1.00 20.00    -0.020 C 
HETATM    2  C2  UNL     1     -33.163   5.927   0.892  1.00 20.00    -0.086 C 
HETATM    3  C4  UNL     1     -32.727   5.611   2.301  1.00 20.00     0.045 C 
HETATM    4  C5  UNL     1     -32.051   8.047   2.499  1.00 20.00     0.020 C 
HETATM    5  C6  UNL     1     -32.834   8.402   1.222  1.00 20.00     0.005 C 
HETATM    6  C7  UNL     1     -32.626   6.831   3.225  1.00 20.00     0.059 C 
HETATM    7  C8  UNL     1     -33.537   4.749   0.040  1.00 20.00     0.043 C 
HETATM    8  C10 UNL     1     -32.023   9.379   0.368  1.00 20.00     0.014 C 
ENDROOT
BRANCH   6   9
HETATM    9  C3  UNL     1     -33.961   7.166   3.825  1.00 20.00     0.127 C 
HETATM   10  C9  UNL     1     -34.000   8.324   4.784  1.00 20.00     0.091 C 
HETATM   11  O11 UNL     1     -34.974   6.526   3.545  1.00 20.00    -0.298 OA
ENDBRANCH   6   9
TORSDOF 1
ENDMDL
MODEL 8
REMARK VINA RESULT:       2.6      1.486      3.785
REMARK  1 active torsions:
REMARK  status: ('A' for Active; 'I' for Inactive)
REMARK    1  A    between atoms: C3_3  and  C7_7 
ROOT
HETATM    1  C1  UNL     1     -33.490   7.671   2.642  1.00 20.00    -0.020 C 
HETATM    2  C2  UNL     1     -32.343   7.653   1.942  1.00 20.00    -0.086 C 
HETATM    3  C4  UNL     1     -31.759   6.379   1.382  1.00 20.00     0.045 C 
HETATM    4  C5  UNL     1     -33.513   5.137   2.726  1.00 20.00     0.020 C 
HETATM    5  C6  UNL     1     -34.296   6.439   2.971  1.00 20.00     0.005 C 
HETATM    6  C7  UNL     1     -32.701   5.170   1.431  1.00 20.00     0.059 C 
HETATM    7  C8  UNL     1     -31.568   8.908   1.665  1.00 20.00     0.043 C 
HETATM    8  C10 UNL     1     -34.792   6.486   4.418  1.00 20.00     0.014 C 
ENDROOT
BRANCH   6   9
HETATM    9  C3  UNL     1     -33.617   5.150   0.241  1.00 20.00     0.127 C 
HETATM   10  C9  UNL     1     -33.787   3.829  -0.458  1.00 20.00     0.091 C 
HETATM   11  O11 UNL     1     -34.200   6.164  -0.142  1.00 20.00    -0.298 OA
ENDBRANCH   6   9
TORSDOF 1
ENDMDL
MODEL 9
REMARK VINA RESULT:       2.6      2.101      3.459
REMARK  1 active torsions:
REMARK  status: ('A' for Active; 'I' for Inactive)
REMARK    1  A    between atoms: C3_3  and  C7_7 
ROOT
HETATM    1  C1  UNL     1     -31.388   6.690   1.515  1.00 20.00    -0.020 C 
HETATM    2  C2  UNL     1     -32.062   7.848   1.614  1.00 20.00    -0.086 C 
HETATM    3  C4  UNL     1     -33.560   7.898   1.796  1.00 20.00     0.045 C 
HETATM    4  C5  UNL     1     -33.566   5.401   1.353  1.00 20.00     0.020 C 
HETATM    5  C6  UNL     1     -32.040   5.331   1.543  1.00 20.00     0.005 C 
HETATM    6  C7  UNL     1     -34.205   6.549   2.135  1.00 20.00     0.059 C 
HETATM    7  C8  UNL     1     -31.363   9.175   1.555  1.00 20.00     0.043 C 
HETATM    8  C10 UNL     1     -31.425   4.412   0.484  1.00 20.00     0.014 C 
ENDROOT
BRANCH   6   9
HETATM    9  C3  UNL     1     -34.140   6.274   3.610  1.00 20.00     0.127 C 
HETATM   10  C9  UNL     1     -34.015   7.468   4.516  1.00 20.00     0.091 C 
HETATM   11  O11 UNL     1     -34.189   5.127   4.055  1.00 20.00    -0.298 OA
ENDBRANCH   6   9
TORSDOF 1
ENDMDL
