MODEL 1
REMARK VINA RESULT:      -1.4      0.000      0.000
REMARK  2 active torsions:
REMARK  status: ('A' for Active; 'I' for Inactive)
REMARK    1  A    between atoms: C4_4  and  C6_6 
REMARK    2  A    between atoms: C7_7  and  O10_10 
ROOT
HETATM    1  C1  UNL     1     -34.807   6.481   3.987  1.00 20.00     0.218 C 
HETATM    2  C4  UNL     1     -33.937   7.292   3.462  1.00 20.00     0.043 C 
HETATM    3  O9  UNL     1     -35.596   5.748   4.462  1.00 20.00    -0.284 OA
ENDROOT
BRANCH   2   4
HETATM    4  C6  UNL     1     -33.518   7.285   2.027  1.00 20.00     0.064 C 
HETATM    5  C3  UNL     1     -33.065   5.926   1.583  1.00 20.00    -0.020 C 
HETATM    6  C2  UNL     1     -31.745   5.871   1.380  1.00 20.00    -0.027 C 
HETATM    7  C5  UNL     1     -31.083   7.179   1.662  1.00 20.00     0.059 C 
HETATM    8  C7  UNL     1     -32.266   8.146   1.764  1.00 20.00     0.135 C 
BRANCH   8   9
HETATM    9  O10 UNL     1     -32.411   8.824   0.514  1.00 20.00    -0.389 OA
HETATM   10  C8  UNL     1     -32.585  10.219   0.705  1.00 20.00     0.202 C 
ENDBRANCH   8   9
ENDBRANCH   2   4
TORSDOF 2
ENDMDL
MODEL 2
REMARK VINA RESULT:      -1.2      1.273      3.843
REMARK  2 active torsions:
REMARK  status: ('A' for Active; 'I' for Inactive)
REMARK    1  A    between atoms: C4_4  and  C6_6 
REMARK    2  A    between atoms: C7_7  and  O10_10 
ROOT
HETATM    1  C1  UNL     1     -32.428   9.734   0.498  1.00 20.00     0.218 C 
HETATM    2  C4  UNL     1     -31.720   8.664   0.706  1.00 20.00     0.043 C 
HETATM    3  O9  UNL     1     -33.069  10.703   0.309  1.00 20.00    -0.284 OA
ENDROOT
BRANCH   2   4
HETATM    4  C6  UNL     1     -31.884   7.743   1.872  1.00 20.00     0.064 C 
HETATM    5  C3  UNL     1     -31.434   6.349   1.552  1.00 20.00    -0.020 C 
HETATM    6  C2  UNL     1     -32.456   5.493   1.459  1.00 20.00    -0.027 C 
HETATM    7  C5  UNL     1     -33.769   6.166   1.689  1.00 20.00     0.059 C 
HETATM    8  C7  UNL     1     -33.360   7.526   2.263  1.00 20.00     0.135 C 
BRANCH   8   9
HETATM    9  O10 UNL     1     -33.471   7.473   3.686  1.00 20.00    -0.389 OA
HETATM   10  C8  UNL     1     -34.676   6.839   4.084  1.00 20.00     0.202 C 
ENDBRANCH   8   9
ENDBRANCH   2   4
TORSDOF 2
ENDMDL
MODEL 3
REMARK VINA RESULT:      -0.4      1.191      1.260
REMARK  2 active torsions:
REMARK  status: ('A' for Active; 'I' for Inactive)
REMARK    1  A    between atoms: C4_4  and  C6_6 
REMARK    2  A    between atoms: C7_7  and  O10_10 
ROOT
HETATM    1  C1  UNL     1     -33.738   7.667   4.369  1.00 20.00     0.218 C 
HETATM    2  C4  UNL     1     -34.165   6.908   3.404  1.00 20.00     0.043 C 
HETATM    3  O9  UNL     1     -33.351   8.354   5.242  1.00 20.00    -0.284 OA
ENDROOT
BRANCH   2   4
HETATM    4  C6  UNL     1     -33.689   6.975   1.988  1.00 20.00     0.064 C 
HETATM    5  C3  UNL     1     -33.017   5.703   1.564  1.00 20.00    -0.020 C 
HETATM    6  C2  UNL     1     -31.697   5.850   1.417  1.00 20.00    -0.027 C 
HETATM    7  C5  UNL     1     -31.253   7.241   1.728  1.00 20.00     0.059 C 
HETATM    8  C7  UNL     1     -32.573   8.017   1.779  1.00 20.00     0.135 C 
BRANCH   8   9
HETATM    9  O10 UNL     1     -32.765   8.674   0.524  1.00 20.00    -0.389 OA
HETATM   10  C8  UNL     1     -32.462  10.057   0.617  1.00 20.00     0.202 C 
ENDBRANCH   8   9
ENDBRANCH   2   4
TORSDOF 2
ENDMDL
MODEL 4
REMARK VINA RESULT:      -0.2      1.519      2.635
REMARK  2 active torsions:
REMARK  status: ('A' for Active; 'I' for Inactive)
REMARK    1  A    between atoms: C4_4  and  C6_6 
REMARK    2  A    between atoms: C7_7  and  O10_10 
ROOT
HETATM    1  C1  UNL     1     -34.952   6.425   4.048  1.00 20.00     0.218 C 
HETATM    2  C4  UNL     1     -34.138   7.356   3.647  1.00 20.00     0.043 C 
HETATM    3  O9  UNL     1     -35.689   5.582   4.410  1.00 20.00    -0.284 OA
ENDROOT
BRANCH   2   4
HETATM    4  C6  UNL     1     -32.788   7.115   3.052  1.00 20.00     0.064 C 
HETATM    5  C3  UNL     1     -32.094   8.397   2.701  1.00 20.00    -0.020 C 
HETATM    6  C2  UNL     1     -32.015   8.588   1.380  1.00 20.00    -0.027 C 
HETATM    7  C5  UNL     1     -32.652   7.474   0.618  1.00 20.00     0.059 C 
HETATM    8  C7  UNL     1     -32.853   6.397   1.689  1.00 20.00     0.135 C 
BRANCH   8   9
HETATM    9  O10 UNL     1     -31.782   5.456   1.597  1.00 20.00    -0.389 OA
HETATM   10  C8  UNL     1     -31.941   4.606   0.471  1.00 20.00     0.202 C 
ENDBRANCH   8   9
ENDBRANCH   2   4
TORSDOF 2
ENDMDL
MODEL 5
REMARK VINA RESULT:      -0.2      2.353      3.986
REMARK  2 active torsions:
REMARK  status: ('A' for Active; 'I' for Inactive)
REMARK    1  A    between atoms: C4_4  and  C6_6 
REMARK    2  A    between atoms: C7_7  and  O10_10 
ROOT
HETATM    1  C1  UNL     1     -32.337   5.380   1.066  1.00 20.00     0.218 C 
HETATM    2  C4  UNL     1     -33.113   6.200   1.710  1.00 20.00     0.043 C 
HETATM    3  O9  UNL     1     -31.634   4.639   0.482  1.00 20.00    -0.284 OA
ENDROOT
BRANCH   2   4
HETATM    4  C6  UNL     1     -33.264   6.245   3.197  1.00 20.00     0.064 C 
HETATM    5  C3  UNL     1     -33.659   4.913   3.760  1.00 20.00    -0.020 C 
HETATM    6  C2  UNL     1     -34.921   4.901   4.202  1.00 20.00    -0.027 C 
HETATM    7  C5  UNL     1     -35.593   6.219   4.002  1.00 20.00     0.059 C 
HETATM    8  C7  UNL     1     -34.426   7.149   3.655  1.00 20.00     0.135 C 
BRANCH   8   9
HETATM    9  O10 UNL     1     -34.040   7.857   4.835  1.00 20.00    -0.389 OA
HETATM   10  C8  UNL     1     -32.725   8.376   4.714  1.00 20.00     0.202 C 
ENDBRANCH   8   9
ENDBRANCH   2   4
TORSDOF 2
ENDMDL
MODEL 6
REMARK VINA RESULT:      -0.2      1.476      4.008
REMARK  2 active torsions:
REMARK  status: ('A' for Active; 'I' for Inactive)
REMARK    1  A    between atoms: C4_4  and  C6_6 
REMARK    2  A    between atoms: C7_7  and  O10_10 
ROOT
HETATM    1  C1  UNL     1     -32.409   7.792   1.322  1.00 20.00     0.218 C 
HETATM    2  C4  UNL     1     -32.840   6.691   1.862  1.00 20.00     0.043 C 
HETATM    3  O9  UNL     1     -32.019   8.789   0.834  1.00 20.00    -0.284 OA
ENDROOT
BRANCH   2   4
HETATM    4  C6  UNL     1     -33.130   6.507   3.317  1.00 20.00     0.064 C 
HETATM    5  C3  UNL     1     -33.554   5.103   3.630  1.00 20.00    -0.020 C 
HETATM    6  C2  UNL     1     -34.851   5.020   3.942  1.00 20.00    -0.027 C 
HETATM    7  C5  UNL     1     -35.524   6.351   3.882  1.00 20.00     0.059 C 
HETATM    8  C7  UNL     1     -34.346   7.326   3.794  1.00 20.00     0.135 C 
BRANCH   8   9
HETATM    9  O10 UNL     1     -34.085   7.846   5.100  1.00 20.00    -0.389 OA
HETATM   10  C8  UNL     1     -32.804   8.454   5.163  1.00 20.00     0.202 C 
ENDBRANCH   8   9
ENDBRANCH   2   4
TORSDOF 2
ENDMDL
MODEL 7
REMARK VINA RESULT:       0.2      2.404      3.730
REMARK  2 active torsions:
REMARK  status: ('A' for Active; 'I' for Inactive)
REMARK    1  A    between atoms: C4_4  and  C6_6 
REMARK    2  A    between atoms: C7_7  and  O10_10 
ROOT
HETATM    1  C1  UNL     1     -32.669   8.426   4.323  1.00 20.00     0.218 C 
HETATM    2  C4  UNL     1     -33.823   7.840   4.443  1.00 20.00     0.043 C 
HETATM    3  O9  UNL     1     -31.624   8.955   4.214  1.00 20.00    -0.284 OA
ENDROOT
BRANCH   2   4
HETATM    4  C6  UNL     1     -34.360   6.806   3.506  1.00 20.00     0.064 C 
HETATM    5  C3  UNL     1     -35.514   6.056   4.102  1.00 20.00    -0.020 C 
HETATM    6  C2  UNL     1     -35.197   4.795   4.410  1.00 20.00    -0.027 C 
HETATM    7  C5  UNL     1     -33.774   4.483   4.084  1.00 20.00     0.059 C 
HETATM    8  C7  UNL     1     -33.352   5.675   3.220  1.00 20.00     0.135 C 
BRANCH   8   9
HETATM    9  O10 UNL     1     -33.442   5.297   1.844  1.00 20.00    -0.389 OA
HETATM   10  C8  UNL     1     -32.302   5.726   1.118  1.00 20.00     0.202 C 
ENDBRANCH   8   9
ENDBRANCH   2   4
TORSDOF 2
ENDMDL
MODEL 8
REMARK VINA RESULT:       0.5      1.990      3.128
REMARK  2 active torsions:
REMARK  status: ('A' for Active; 'I' for Inactive)
REMARK    1  A    between atoms: C4_4  and  C6_6 
REMARK    2  A    between atoms: C7_7  and  O10_10 
ROOT
HETATM    1  C1  UNL     1     -33.225   3.530   4.076  1.00 20.00     0.218 C 
HETATM    2  C4  UNL     1     -32.746   4.421   3.259  1.00 20.00     0.043 C 
HETATM    3  O9  UNL     1     -33.658   2.724   4.816  1.00 20.00    -0.284 OA
ENDROOT
BRANCH   2   4
HETATM    4  C6  UNL     1     -33.512   5.585   2.717  1.00 20.00     0.064 C 
HETATM    5  C3  UNL     1     -32.966   6.049   1.399  1.00 20.00    -0.020 C 
HETATM    6  C2  UNL     1     -32.344   7.228   1.493  1.00 20.00    -0.027 C 
HETATM    7  C5  UNL     1     -32.355   7.754   2.890  1.00 20.00     0.059 C 
HETATM    8  C7  UNL     1     -33.376   6.849   3.588  1.00 20.00     0.135 C 
BRANCH   8   9
HETATM    9  O10 UNL     1     -34.632   7.530   3.635  1.00 20.00    -0.389 OA
HETATM   10  C8  UNL     1     -35.706   6.615   3.785  1.00 20.00     0.202 C 
ENDBRANCH   8   9
ENDBRANCH   2   4
TORSDOF 2
ENDMDL
MODEL 9
REMARK VINA RESULT:       0.5      1.755      4.648
REMARK  2 active torsions:
REMARK  status: ('A' for Active; 'I' for Inactive)
REMARK    1  A    between atoms: C4_4  and  C6_6 
REMARK    2  A    between atoms: C7_7  and  O10_10 
ROOT
HETATM    1  C1  UNL     1     -32.181   7.540   1.629  1.00 20.00     0.218 C 
HETATM    2  C4  UNL     1     -32.297   6.264   1.851  1.00 20.00     0.043 C 
HETATM    3  O9  UNL     1     -32.077   8.695   1.428  1.00 20.00    -0.284 OA
ENDROOT
BRANCH   2   4
HETATM    4  C6  UNL     1     -33.547   5.586   2.312  1.00 20.00     0.064 C 
HETATM    5  C3  UNL     1     -34.720   6.520   2.319  1.00 20.00    -0.020 C 
HETATM    6  C2  UNL     1     -35.112   6.836   3.558  1.00 20.00    -0.027 C 
HETATM    7  C5  UNL     1     -34.263   6.178   4.595  1.00 20.00     0.059 C 
HETATM    8  C7  UNL     1     -33.478   5.140   3.787  1.00 20.00     0.135 C 
BRANCH   8   9
HETATM    9  O10 UNL     1     -34.119   3.871   3.929  1.00 20.00    -0.389 OA
HETATM   10  C8  UNL     1     -33.317   2.972   4.677  1.00 20.00     0.202 C 
ENDBRANCH   8   9
ENDBRANCH   2   4
TORSDOF 2
ENDMDL
