MODEL 1
REMARK VINA RESULT:       0.1      0.000      0.000
REMARK  3 active torsions:
REMARK  status: ('A' for Active; 'I' for Inactive)
REMARK    1  A    between atoms: C1_1  and  C4_4 
REMARK    2  A    between atoms: C3_3  and  C10_10 
REMARK    3  A    between atoms: C5_5  and  C10_10 
ROOT
HETATM    1  C1  UNL     1     -34.092   4.829   3.916  1.00 20.00    -0.101 C 
HETATM    2  C2  UNL     1     -33.643   3.821   4.391  1.00 20.00    -0.111 C 
HETATM    3  C7  UNL     1     -33.096   2.595   4.971  1.00 20.00     0.112 C 
ENDROOT
BRANCH   1   4
HETATM    4  C4  UNL     1     -34.627   6.032   3.349  1.00 20.00     0.078 A 
HETATM    5  C5  UNL     1     -33.828   6.839   2.350  1.00 20.00     0.017 A 
HETATM    6  C6  UNL     1     -34.070   7.395   3.744  1.00 20.00    -0.028 A 
HETATM    7  C8  UNL     1     -32.927   7.502   4.723  1.00 20.00     0.016 C 
HETATM    8  C9  UNL     1     -35.056   8.533   3.862  1.00 20.00     0.016 C 
BRANCH   5   9
HETATM    9  C10 UNL     1     -32.477   6.427   1.868  1.00 20.00     0.076 C 
BRANCH   9  10
HETATM   10  C3  UNL     1     -31.599   7.593   1.451  1.00 20.00     0.231 C 
HETATM   11  O11 UNL     1     -32.034   8.681   1.091  1.00 20.00    -0.307 OA
ENDBRANCH   9  10
ENDBRANCH   5   9
ENDBRANCH   1   4
TORSDOF 3
ENDMDL
MODEL 2
REMARK VINA RESULT:       0.9      2.368      4.343
REMARK  3 active torsions:
REMARK  status: ('A' for Active; 'I' for Inactive)
REMARK    1  A    between atoms: C1_1  and  C4_4 
REMARK    2  A    between atoms: C3_3  and  C10_10 
REMARK    3  A    between atoms: C5_5  and  C10_10 
ROOT
HETATM    1  C1  UNL     1     -32.393   8.784   1.548  1.00 20.00    -0.101 C 
HETATM    2  C2  UNL     1     -32.511   9.400   0.524  1.00 20.00    -0.111 C 
HETATM    3  C7  UNL     1     -32.654  10.149  -0.724  1.00 20.00     0.112 C 
ENDROOT
BRANCH   1   4
HETATM    4  C4  UNL     1     -32.252   8.048   2.771  1.00 20.00     0.078 A 
HETATM    5  C5  UNL     1     -32.784   6.637   2.891  1.00 20.00     0.017 A 
HETATM    6  C6  UNL     1     -33.461   7.763   3.654  1.00 20.00    -0.028 A 
HETATM    7  C8  UNL     1     -34.837   8.231   3.245  1.00 20.00     0.016 C 
HETATM    8  C9  UNL     1     -33.246   7.801   5.148  1.00 20.00     0.016 C 
BRANCH   5   9
HETATM    9  C10 UNL     1     -33.440   5.918   1.760  1.00 20.00     0.076 C 
BRANCH   9  10
HETATM   10  C3  UNL     1     -32.473   5.111   0.912  1.00 20.00     0.231 C 
HETATM   11  O11 UNL     1     -31.274   5.012   1.149  1.00 20.00    -0.307 OA
ENDBRANCH   9  10
ENDBRANCH   5   9
ENDBRANCH   1   4
TORSDOF 3
ENDMDL
MODEL 3
REMARK VINA RESULT:       1.0      2.516      3.926
REMARK  3 active torsions:
REMARK  status: ('A' for Active; 'I' for Inactive)
REMARK    1  A    between atoms: C1_1  and  C4_4 
REMARK    2  A    between atoms: C3_3  and  C10_10 
REMARK    3  A    between atoms: C5_5  and  C10_10 
ROOT
HETATM    1  C1  UNL     1     -32.893   5.644   1.224  1.00 20.00    -0.101 C 
HETATM    2  C2  UNL     1     -33.440   4.990   0.378  1.00 20.00    -0.111 C 
HETATM    3  C7  UNL     1     -34.105   4.192  -0.651  1.00 20.00     0.112 C 
ENDROOT
BRANCH   1   4
HETATM    4  C4  UNL     1     -32.240   6.425   2.233  1.00 20.00     0.078 A 
HETATM    5  C5  UNL     1     -33.042   7.275   3.194  1.00 20.00     0.017 A 
HETATM    6  C6  UNL     1     -32.188   7.946   2.131  1.00 20.00    -0.028 A 
HETATM    7  C8  UNL     1     -32.845   8.660   0.975  1.00 20.00     0.016 C 
HETATM    8  C9  UNL     1     -30.923   8.624   2.600  1.00 20.00     0.016 C 
BRANCH   5   9
HETATM    9  C10 UNL     1     -34.533   7.325   3.183  1.00 20.00     0.076 C 
BRANCH   9  10
HETATM   10  C3  UNL     1     -35.181   6.310   4.108  1.00 20.00     0.231 C 
HETATM   11  O11 UNL     1     -34.870   5.125   4.148  1.00 20.00    -0.307 OA
ENDBRANCH   9  10
ENDBRANCH   5   9
ENDBRANCH   1   4
TORSDOF 3
ENDMDL
MODEL 4
REMARK VINA RESULT:       1.0      1.967      3.423
REMARK  3 active torsions:
REMARK  status: ('A' for Active; 'I' for Inactive)
REMARK    1  A    between atoms: C1_1  and  C4_4 
REMARK    2  A    between atoms: C3_3  and  C10_10 
REMARK    3  A    between atoms: C5_5  and  C10_10 
ROOT
HETATM    1  C1  UNL     1     -33.570   5.800   3.167  1.00 20.00    -0.101 C 
HETATM    2  C2  UNL     1     -34.588   5.900   3.795  1.00 20.00    -0.111 C 
HETATM    3  C7  UNL     1     -35.829   6.024   4.559  1.00 20.00     0.112 C 
ENDROOT
BRANCH   1   4
HETATM    4  C4  UNL     1     -32.354   5.680   2.417  1.00 20.00     0.078 A 
HETATM    5  C5  UNL     1     -31.880   6.806   1.525  1.00 20.00     0.017 A 
HETATM    6  C6  UNL     1     -32.385   5.515   0.902  1.00 20.00    -0.028 A 
HETATM    7  C8  UNL     1     -33.699   5.499   0.159  1.00 20.00     0.016 C 
HETATM    8  C9  UNL     1     -31.349   4.604   0.287  1.00 20.00     0.016 C 
BRANCH   5   9
HETATM    9  C10 UNL     1     -32.608   8.103   1.400  1.00 20.00     0.076 C 
BRANCH   9  10
HETATM   10  C3  UNL     1     -31.953   9.076   0.436  1.00 20.00     0.231 C 
HETATM   11  O11 UNL     1     -32.391  10.194   0.189  1.00 20.00    -0.307 OA
ENDBRANCH   9  10
ENDBRANCH   5   9
ENDBRANCH   1   4
TORSDOF 3
ENDMDL
MODEL 5
REMARK VINA RESULT:       1.1      2.723      4.076
REMARK  3 active torsions:
REMARK  status: ('A' for Active; 'I' for Inactive)
REMARK    1  A    between atoms: C1_1  and  C4_4 
REMARK    2  A    between atoms: C3_3  and  C10_10 
REMARK    3  A    between atoms: C5_5  and  C10_10 
ROOT
HETATM    1  C1  UNL     1     -33.512   5.499   1.515  1.00 20.00    -0.101 C 
HETATM    2  C2  UNL     1     -33.802   4.990   0.467  1.00 20.00    -0.111 C 
HETATM    3  C7  UNL     1     -34.156   4.368  -0.808  1.00 20.00     0.112 C 
ENDROOT
BRANCH   1   4
HETATM    4  C4  UNL     1     -33.166   6.108   2.767  1.00 20.00     0.078 A 
HETATM    5  C5  UNL     1     -33.498   5.427   4.076  1.00 20.00     0.017 A 
HETATM    6  C6  UNL     1     -34.243   6.689   3.675  1.00 20.00    -0.028 A 
HETATM    7  C8  UNL     1     -35.699   6.614   3.284  1.00 20.00     0.016 C 
HETATM    8  C9  UNL     1     -33.900   7.952   4.428  1.00 20.00     0.016 C 
BRANCH   5   9
HETATM    9  C10 UNL     1     -34.155   4.090   4.152  1.00 20.00     0.076 C 
BRANCH   9  10
HETATM   10  C3  UNL     1     -33.210   2.970   4.552  1.00 20.00     0.231 C 
HETATM   11  O11 UNL     1     -32.622   2.923   5.626  1.00 20.00    -0.307 OA
ENDBRANCH   9  10
ENDBRANCH   5   9
ENDBRANCH   1   4
TORSDOF 3
ENDMDL
MODEL 6
REMARK VINA RESULT:       1.6      2.284      4.566
REMARK  3 active torsions:
REMARK  status: ('A' for Active; 'I' for Inactive)
REMARK    1  A    between atoms: C1_1  and  C4_4 
REMARK    2  A    between atoms: C3_3  and  C10_10 
REMARK    3  A    between atoms: C5_5  and  C10_10 
ROOT
HETATM    1  C1  UNL     1     -32.371   8.878   1.594  1.00 20.00    -0.101 C 
HETATM    2  C2  UNL     1     -32.538   9.395   0.524  1.00 20.00    -0.111 C 
HETATM    3  C7  UNL     1     -32.739  10.027  -0.780  1.00 20.00     0.112 C 
ENDROOT
BRANCH   1   4
HETATM    4  C4  UNL     1     -32.173   8.260   2.873  1.00 20.00     0.078 A 
HETATM    5  C5  UNL     1     -32.519   6.803   3.091  1.00 20.00     0.017 A 
HETATM    6  C6  UNL     1     -33.361   7.883   3.750  1.00 20.00    -0.028 A 
HETATM    7  C8  UNL     1     -34.773   8.133   3.278  1.00 20.00     0.016 C 
HETATM    8  C9  UNL     1     -33.199   8.059   5.241  1.00 20.00     0.016 C 
BRANCH   5   9
HETATM    9  C10 UNL     1     -33.041   5.922   2.005  1.00 20.00     0.076 C 
BRANCH   9  10
HETATM   10  C3  UNL     1     -33.582   4.595   2.508  1.00 20.00     0.231 C 
HETATM   11  O11 UNL     1     -33.896   4.383   3.674  1.00 20.00    -0.307 OA
ENDBRANCH   9  10
ENDBRANCH   5   9
ENDBRANCH   1   4
TORSDOF 3
ENDMDL
MODEL 7
REMARK VINA RESULT:       1.8      1.479      2.629
REMARK  3 active torsions:
REMARK  status: ('A' for Active; 'I' for Inactive)
REMARK    1  A    between atoms: C1_1  and  C4_4 
REMARK    2  A    between atoms: C3_3  and  C10_10 
REMARK    3  A    between atoms: C5_5  and  C10_10 
ROOT
HETATM    1  C1  UNL     1     -33.002   5.482   1.254  1.00 20.00    -0.101 C 
HETATM    2  C2  UNL     1     -32.163   4.827   0.699  1.00 20.00    -0.111 C 
HETATM    3  C7  UNL     1     -31.141   4.031   0.020  1.00 20.00     0.112 C 
ENDROOT
BRANCH   1   4
HETATM    4  C4  UNL     1     -34.005   6.264   1.917  1.00 20.00     0.078 A 
HETATM    5  C5  UNL     1     -33.618   7.426   2.805  1.00 20.00     0.017 A 
HETATM    6  C6  UNL     1     -34.198   6.166   3.426  1.00 20.00    -0.028 A 
HETATM    7  C8  UNL     1     -33.320   5.260   4.255  1.00 20.00     0.016 C 
HETATM    8  C9  UNL     1     -35.614   6.251   3.945  1.00 20.00     0.016 C 
BRANCH   5   9
HETATM    9  C10 UNL     1     -32.204   7.852   3.014  1.00 20.00     0.076 C 
BRANCH   9  10
HETATM   10  C3  UNL     1     -31.567   8.469   1.781  1.00 20.00     0.231 C 
HETATM   11  O11 UNL     1     -32.201   9.021   0.888  1.00 20.00    -0.307 OA
ENDBRANCH   9  10
ENDBRANCH   5   9
ENDBRANCH   1   4
TORSDOF 3
ENDMDL
MODEL 8
REMARK VINA RESULT:       1.8      2.569      4.679
REMARK  3 active torsions:
REMARK  status: ('A' for Active; 'I' for Inactive)
REMARK    1  A    between atoms: C1_1  and  C4_4 
REMARK    2  A    between atoms: C3_3  and  C10_10 
REMARK    3  A    between atoms: C5_5  and  C10_10 
ROOT
HETATM    1  C1  UNL     1     -32.302   7.731   1.365  1.00 20.00    -0.101 C 
HETATM    2  C2  UNL     1     -32.298   8.878   1.009  1.00 20.00    -0.111 C 
HETATM    3  C7  UNL     1     -32.293  10.274   0.573  1.00 20.00     0.112 C 
ENDROOT
BRANCH   1   4
HETATM    4  C4  UNL     1     -32.307   6.362   1.790  1.00 20.00     0.078 A 
HETATM    5  C5  UNL     1     -33.266   5.365   1.179  1.00 20.00     0.017 A 
HETATM    6  C6  UNL     1     -33.459   5.806   2.620  1.00 20.00    -0.028 A 
HETATM    7  C8  UNL     1     -34.631   6.684   2.990  1.00 20.00     0.016 C 
HETATM    8  C9  UNL     1     -33.113   4.803   3.694  1.00 20.00     0.016 C 
BRANCH   5   9
HETATM    9  C10 UNL     1     -34.222   5.721   0.090  1.00 20.00     0.076 C 
BRANCH   9  10
HETATM   10  C3  UNL     1     -34.618   4.540  -0.780  1.00 20.00     0.231 C 
HETATM   11  O11 UNL     1     -33.997   3.484  -0.823  1.00 20.00    -0.307 OA
ENDBRANCH   9  10
ENDBRANCH   5   9
ENDBRANCH   1   4
TORSDOF 3
ENDMDL
MODEL 9
REMARK VINA RESULT:       1.9      2.628      5.134
REMARK  3 active torsions:
REMARK  status: ('A' for Active; 'I' for Inactive)
REMARK    1  A    between atoms: C1_1  and  C4_4 
REMARK    2  A    between atoms: C3_3  and  C10_10 
REMARK    3  A    between atoms: C5_5  and  C10_10 
ROOT
HETATM    1  C1  UNL     1     -32.817   8.687   0.634  1.00 20.00    -0.101 C 
HETATM    2  C2  UNL     1     -32.617   9.863   0.493  1.00 20.00    -0.111 C 
HETATM    3  C7  UNL     1     -32.372  11.294   0.322  1.00 20.00     0.112 C 
ENDROOT
BRANCH   1   4
HETATM    4  C4  UNL     1     -33.057   7.283   0.803  1.00 20.00     0.078 A 
HETATM    5  C5  UNL     1     -33.408   6.716   2.160  1.00 20.00     0.017 A 
HETATM    6  C6  UNL     1     -32.055   6.404   1.543  1.00 20.00    -0.028 A 
HETATM    7  C8  UNL     1     -30.800   7.002   2.133  1.00 20.00     0.016 C 
HETATM    8  C9  UNL     1     -31.850   5.003   1.019  1.00 20.00     0.016 C 
BRANCH   5   9
HETATM    9  C10 UNL     1     -33.564   7.563   3.378  1.00 20.00     0.076 C 
BRANCH   9  10
HETATM   10  C3  UNL     1     -34.667   7.090   4.309  1.00 20.00     0.231 C 
HETATM   11  O11 UNL     1     -35.442   6.178   4.043  1.00 20.00    -0.307 OA
ENDBRANCH   9  10
ENDBRANCH   5   9
ENDBRANCH   1   4
TORSDOF 3
ENDMDL
