MODEL 1
REMARK VINA RESULT:      -2.4      0.000      0.000
REMARK  4 active torsions:
REMARK  status: ('A' for Active; 'I' for Inactive)
REMARK    1  A    between atoms: C1_1  and  C4_4 
REMARK    2  A    between atoms: C5_5  and  C8_8 
REMARK    3  A    between atoms: C8_8  and  C10_10 
REMARK    4  A    between atoms: C9_9  and  C10_10 
ROOT
HETATM    1  C2  UNL     1     -33.425   5.878   2.229  1.00 20.00     0.016 C 
HETATM    2  C3  UNL     1     -33.890   7.263   3.781  1.00 20.00     0.016 C 
HETATM    3  C4  UNL     1     -34.584   5.984   3.249  1.00 20.00     0.055 C 
HETATM    4  C5  UNL     1     -33.245   7.410   2.379  1.00 20.00    -0.013 C 
ENDROOT
BRANCH   4   5
HETATM    5  C8  UNL     1     -31.825   7.935   2.337  1.00 20.00     0.005 C 
BRANCH   5   6
HETATM    6  C10 UNL     1     -31.523   8.647   1.017  1.00 20.00     0.000 C 
BRANCH   6   7
HETATM    7  C9  UNL     1     -32.430   9.861   0.814  1.00 20.00    -0.005 C 
HETATM    8  C7  UNL     1     -32.799  10.042  -0.650  1.00 20.00     0.005 C 
ENDBRANCH   6   7
ENDBRANCH   5   6
ENDBRANCH   4   5
BRANCH   3   9
HETATM    9  C1  UNL     1     -34.693   4.863   4.218  1.00 20.00     0.127 C 
HETATM   10  C6  UNL     1     -33.612   3.818   4.165  1.00 20.00     0.091 C 
HETATM   11  O11 UNL     1     -35.620   4.793   5.023  1.00 20.00    -0.298 OA
ENDBRANCH   3   9
TORSDOF 4
ENDMDL
MODEL 2
REMARK VINA RESULT:      -2.2      2.527      5.489
REMARK  4 active torsions:
REMARK  status: ('A' for Active; 'I' for Inactive)
REMARK    1  A    between atoms: C1_1  and  C4_4 
REMARK    2  A    between atoms: C5_5  and  C8_8 
REMARK    3  A    between atoms: C8_8  and  C10_10 
REMARK    4  A    between atoms: C9_9  and  C10_10 
ROOT
HETATM    1  C2  UNL     1     -33.014   6.713   1.658  1.00 20.00     0.016 C 
HETATM    2  C3  UNL     1     -32.771   8.217   3.148  1.00 20.00     0.016 C 
HETATM    3  C4  UNL     1     -31.966   7.830   1.882  1.00 20.00     0.055 C 
HETATM    4  C5  UNL     1     -33.283   6.754   3.183  1.00 20.00    -0.013 C 
ENDROOT
BRANCH   4   5
HETATM    5  C8  UNL     1     -34.717   6.548   3.627  1.00 20.00     0.005 C 
BRANCH   5   6
HETATM    6  C10 UNL     1     -34.906   5.195   4.316  1.00 20.00     0.000 C 
BRANCH   6   7
HETATM    7  C9  UNL     1     -33.963   4.136   3.745  1.00 20.00    -0.005 C 
HETATM    8  C7  UNL     1     -33.422   3.226   4.836  1.00 20.00     0.005 C 
ENDBRANCH   6   7
ENDBRANCH   5   6
ENDBRANCH   4   5
BRANCH   3   9
HETATM    9  C1  UNL     1     -31.897   8.868   0.823  1.00 20.00     0.127 C 
HETATM   10  C6  UNL     1     -32.841  10.032   0.955  1.00 20.00     0.091 C 
HETATM   11  O11 UNL     1     -31.106   8.782  -0.115  1.00 20.00    -0.298 OA
ENDBRANCH   3   9
TORSDOF 4
ENDMDL
MODEL 3
REMARK VINA RESULT:      -2.0      2.310      5.424
REMARK  4 active torsions:
REMARK  status: ('A' for Active; 'I' for Inactive)
REMARK    1  A    between atoms: C1_1  and  C4_4 
REMARK    2  A    between atoms: C5_5  and  C8_8 
REMARK    3  A    between atoms: C8_8  and  C10_10 
REMARK    4  A    between atoms: C9_9  and  C10_10 
ROOT
HETATM    1  C2  UNL     1     -33.131   6.666   1.671  1.00 20.00     0.016 C 
HETATM    2  C3  UNL     1     -32.925   8.066   3.265  1.00 20.00     0.016 C 
HETATM    3  C4  UNL     1     -32.133   7.814   1.958  1.00 20.00     0.055 C 
HETATM    4  C5  UNL     1     -33.365   6.582   3.201  1.00 20.00    -0.013 C 
ENDROOT
BRANCH   4   5
HETATM    5  C8  UNL     1     -34.777   6.272   3.656  1.00 20.00     0.005 C 
BRANCH   5   6
HETATM    6  C10 UNL     1     -34.846   4.949   4.423  1.00 20.00     0.000 C 
BRANCH   6   7
HETATM    7  C9  UNL     1     -33.878   3.915   3.848  1.00 20.00    -0.005 C 
HETATM    8  C7  UNL     1     -33.234   3.085   4.947  1.00 20.00     0.005 C 
ENDBRANCH   6   7
ENDBRANCH   5   6
ENDBRANCH   4   5
BRANCH   3   9
HETATM    9  C1  UNL     1     -32.139   8.931   0.978  1.00 20.00     0.127 C 
HETATM   10  C6  UNL     1     -31.216   8.798  -0.203  1.00 20.00     0.091 C 
HETATM   11  O11 UNL     1     -32.863   9.914   1.124  1.00 20.00    -0.298 OA
ENDBRANCH   3   9
TORSDOF 4
ENDMDL
MODEL 4
REMARK VINA RESULT:      -1.5      1.069      1.250
REMARK  4 active torsions:
REMARK  status: ('A' for Active; 'I' for Inactive)
REMARK    1  A    between atoms: C1_1  and  C4_4 
REMARK    2  A    between atoms: C5_5  and  C8_8 
REMARK    3  A    between atoms: C8_8  and  C10_10 
REMARK    4  A    between atoms: C9_9  and  C10_10 
ROOT
HETATM    1  C2  UNL     1     -32.881   5.836   1.882  1.00 20.00     0.016 C 
HETATM    2  C3  UNL     1     -33.713   7.303   3.185  1.00 20.00     0.016 C 
HETATM    3  C4  UNL     1     -34.165   5.889   2.744  1.00 20.00     0.055 C 
HETATM    4  C5  UNL     1     -32.918   7.385   1.857  1.00 20.00    -0.013 C 
ENDROOT
BRANCH   4   5
HETATM    5  C8  UNL     1     -31.583   8.098   1.908  1.00 20.00     0.005 C 
BRANCH   5   6
HETATM    6  C10 UNL     1     -31.251   8.776   0.577  1.00 20.00     0.000 C 
BRANCH   6   7
HETATM    7  C9  UNL     1     -32.483   9.441  -0.037  1.00 20.00    -0.005 C 
HETATM    8  C7  UNL     1     -32.733  10.814   0.568  1.00 20.00     0.005 C 
ENDBRANCH   6   7
ENDBRANCH   5   6
ENDBRANCH   4   5
BRANCH   3   9
HETATM    9  C1  UNL     1     -34.253   4.876   3.828  1.00 20.00     0.127 C 
HETATM   10  C6  UNL     1     -35.380   5.037   4.812  1.00 20.00     0.091 C 
HETATM   11  O11 UNL     1     -33.447   3.952   3.915  1.00 20.00    -0.298 OA
ENDBRANCH   3   9
TORSDOF 4
ENDMDL
MODEL 5
REMARK VINA RESULT:      -1.0      2.525      5.563
REMARK  4 active torsions:
REMARK  status: ('A' for Active; 'I' for Inactive)
REMARK    1  A    between atoms: C1_1  and  C4_4 
REMARK    2  A    between atoms: C5_5  and  C8_8 
REMARK    3  A    between atoms: C8_8  and  C10_10 
REMARK    4  A    between atoms: C9_9  and  C10_10 
ROOT
HETATM    1  C2  UNL     1     -32.073   7.154   0.935  1.00 20.00     0.016 C 
HETATM    2  C3  UNL     1     -33.049   8.307   2.438  1.00 20.00     0.016 C 
HETATM    3  C4  UNL     1     -31.997   8.642   1.352  1.00 20.00     0.055 C 
HETATM    4  C5  UNL     1     -32.538   6.844   2.380  1.00 20.00    -0.013 C 
ENDROOT
BRANCH   4   5
HETATM    5  C8  UNL     1     -33.578   5.755   2.541  1.00 20.00     0.005 C 
BRANCH   5   6
HETATM    6  C10 UNL     1     -34.513   6.035   3.720  1.00 20.00     0.000 C 
BRANCH   6   7
HETATM    7  C9  UNL     1     -34.869   4.752   4.472  1.00 20.00    -0.005 C 
HETATM    8  C7  UNL     1     -33.776   3.704   4.331  1.00 20.00     0.005 C 
ENDBRANCH   6   7
ENDBRANCH   5   6
ENDBRANCH   4   5
BRANCH   3   9
HETATM    9  C1  UNL     1     -32.429   9.622   0.322  1.00 20.00     0.127 C 
HETATM   10  C6  UNL     1     -32.573  11.051   0.767  1.00 20.00     0.091 C 
HETATM   11  O11 UNL     1     -32.655   9.281  -0.839  1.00 20.00    -0.298 OA
ENDBRANCH   3   9
TORSDOF 4
ENDMDL
MODEL 6
REMARK VINA RESULT:      -0.8      2.599      5.375
REMARK  4 active torsions:
REMARK  status: ('A' for Active; 'I' for Inactive)
REMARK    1  A    between atoms: C1_1  and  C4_4 
REMARK    2  A    between atoms: C5_5  and  C8_8 
REMARK    3  A    between atoms: C8_8  and  C10_10 
REMARK    4  A    between atoms: C9_9  and  C10_10 
ROOT
HETATM    1  C2  UNL     1     -31.978   7.165   0.683  1.00 20.00     0.016 C 
HETATM    2  C3  UNL     1     -32.960   8.120   2.316  1.00 20.00     0.016 C 
HETATM    3  C4  UNL     1     -31.946   8.605   1.251  1.00 20.00     0.055 C 
HETATM    4  C5  UNL     1     -32.398   6.692   2.098  1.00 20.00    -0.013 C 
ENDROOT
BRANCH   4   5
HETATM    5  C8  UNL     1     -33.394   5.553   2.165  1.00 20.00     0.005 C 
BRANCH   5   6
HETATM    6  C10 UNL     1     -33.352   4.843   3.520  1.00 20.00     0.000 C 
BRANCH   6   7
HETATM    7  C9  UNL     1     -34.713   4.878   4.215  1.00 20.00    -0.005 C 
HETATM    8  C7  UNL     1     -35.378   6.237   4.068  1.00 20.00     0.005 C 
ENDBRANCH   6   7
ENDBRANCH   5   6
ENDBRANCH   4   5
BRANCH   3   9
HETATM    9  C1  UNL     1     -32.436   9.668   0.335  1.00 20.00     0.127 C 
HETATM   10  C6  UNL     1     -32.572  11.049   0.916  1.00 20.00     0.091 C 
HETATM   11  O11 UNL     1     -32.714   9.431  -0.839  1.00 20.00    -0.298 OA
ENDBRANCH   3   9
TORSDOF 4
ENDMDL
MODEL 7
REMARK VINA RESULT:      -0.7      0.982      1.668
REMARK  4 active torsions:
REMARK  status: ('A' for Active; 'I' for Inactive)
REMARK    1  A    between atoms: C1_1  and  C4_4 
REMARK    2  A    between atoms: C5_5  and  C8_8 
REMARK    3  A    between atoms: C8_8  and  C10_10 
REMARK    4  A    between atoms: C9_9  and  C10_10 
ROOT
HETATM    1  C2  UNL     1     -33.032   7.359   3.183  1.00 20.00     0.016 C 
HETATM    2  C3  UNL     1     -33.026   5.702   1.842  1.00 20.00     0.016 C 
HETATM    3  C4  UNL     1     -33.228   5.835   3.372  1.00 20.00     0.055 C 
HETATM    4  C5  UNL     1     -32.221   7.025   1.905  1.00 20.00    -0.013 C 
ENDROOT
BRANCH   4   5
HETATM    5  C8  UNL     1     -32.379   7.972   0.733  1.00 20.00     0.005 C 
BRANCH   5   6
HETATM    6  C10 UNL     1     -31.655   9.298   0.975  1.00 20.00     0.000 C 
BRANCH   6   7
HETATM    7  C9  UNL     1     -32.500  10.490   0.525  1.00 20.00    -0.005 C 
HETATM    8  C7  UNL     1     -33.031  10.294  -0.886  1.00 20.00     0.005 C 
ENDBRANCH   6   7
ENDBRANCH   5   6
ENDBRANCH   4   5
BRANCH   3   9
HETATM    9  C1  UNL     1     -34.559   5.418   3.882  1.00 20.00     0.127 C 
HETATM   10  C6  UNL     1     -35.655   6.448   3.835  1.00 20.00     0.091 C 
HETATM   11  O11 UNL     1     -34.757   4.285   4.320  1.00 20.00    -0.298 OA
ENDBRANCH   3   9
TORSDOF 4
ENDMDL
MODEL 8
REMARK VINA RESULT:      -0.6      2.078      5.568
REMARK  4 active torsions:
REMARK  status: ('A' for Active; 'I' for Inactive)
REMARK    1  A    between atoms: C1_1  and  C4_4 
REMARK    2  A    between atoms: C5_5  and  C8_8 
REMARK    3  A    between atoms: C8_8  and  C10_10 
REMARK    4  A    between atoms: C9_9  and  C10_10 
ROOT
HETATM    1  C2  UNL     1     -33.833   7.481   3.494  1.00 20.00     0.016 C 
HETATM    2  C3  UNL     1     -33.125   5.980   2.156  1.00 20.00     0.016 C 
HETATM    3  C4  UNL     1     -33.340   7.508   2.027  1.00 20.00     0.055 C 
HETATM    4  C5  UNL     1     -34.206   5.994   3.267  1.00 20.00    -0.013 C 
ENDROOT
BRANCH   4   5
HETATM    5  C8  UNL     1     -33.990   5.053   4.435  1.00 20.00     0.005 C 
BRANCH   5   6
HETATM    6  C10 UNL     1     -34.027   3.588   3.996  1.00 20.00     0.000 C 
BRANCH   6   7
HETATM    7  C9  UNL     1     -32.888   2.784   4.624  1.00 20.00    -0.005 C 
HETATM    8  C7  UNL     1     -32.675   3.166   6.080  1.00 20.00     0.005 C 
ENDBRANCH   6   7
ENDBRANCH   5   6
ENDBRANCH   4   5
BRANCH   3   9
HETATM    9  C1  UNL     1     -32.115   8.310   1.775  1.00 20.00     0.127 C 
HETATM   10  C6  UNL     1     -32.155   9.255   0.605  1.00 20.00     0.091 C 
HETATM   11  O11 UNL     1     -31.119   8.208   2.489  1.00 20.00    -0.298 OA
ENDBRANCH   3   9
TORSDOF 4
ENDMDL
MODEL 9
REMARK VINA RESULT:      -0.2      1.792      2.637
REMARK  4 active torsions:
REMARK  status: ('A' for Active; 'I' for Inactive)
REMARK    1  A    between atoms: C1_1  and  C4_4 
REMARK    2  A    between atoms: C5_5  and  C8_8 
REMARK    3  A    between atoms: C8_8  and  C10_10 
REMARK    4  A    between atoms: C9_9  and  C10_10 
ROOT
HETATM    1  C2  UNL     1     -33.209   5.134   3.365  1.00 20.00     0.016 C 
HETATM    2  C3  UNL     1     -34.976   4.956   4.543  1.00 20.00     0.016 C 
HETATM    3  C4  UNL     1     -34.079   3.932   3.804  1.00 20.00     0.055 C 
HETATM    4  C5  UNL     1     -34.469   6.020   3.536  1.00 20.00    -0.013 C 
ENDROOT
BRANCH   4   5
HETATM    5  C8  UNL     1     -34.250   7.417   4.078  1.00 20.00     0.005 C 
BRANCH   5   6
HETATM    6  C10 UNL     1     -32.869   7.959   3.703  1.00 20.00     0.000 C 
BRANCH   6   7
HETATM    7  C9  UNL     1     -32.811   8.383   2.236  1.00 20.00    -0.005 C 
HETATM    8  C7  UNL     1     -31.663   7.704   1.505  1.00 20.00     0.005 C 
ENDBRANCH   6   7
ENDBRANCH   5   6
ENDBRANCH   4   5
BRANCH   3   9
HETATM    9  C1  UNL     1     -33.404   2.930   4.667  1.00 20.00     0.127 C 
HETATM   10  C6  UNL     1     -32.543   3.467   5.778  1.00 20.00     0.091 C 
HETATM   11  O11 UNL     1     -33.542   1.722   4.485  1.00 20.00    -0.298 OA
ENDBRANCH   3   9
TORSDOF 4
ENDMDL
