MODEL 1
REMARK VINA RESULT:      -1.5      0.000      0.000
REMARK  1 active torsions:
REMARK  status: ('A' for Active; 'I' for Inactive)
REMARK    1  A    between atoms: C5_5  and  C7_7 
ROOT
HETATM    1  C1  UNL     1     -35.231   5.815   4.452  1.00 20.00    -0.026 A 
HETATM    2  C2  UNL     1     -34.922   6.876   3.693  1.00 20.00    -0.013 A 
HETATM    3  C3  UNL     1     -33.514   4.443   3.228  1.00 20.00    -0.019 A 
HETATM    4  C4  UNL     1     -33.192   5.498   2.456  1.00 20.00    -0.071 A 
HETATM    5  C6  UNL     1     -34.548   4.487   4.316  1.00 20.00     0.054 A 
HETATM    6  C7  UNL     1     -33.864   6.839   2.628  1.00 20.00     0.123 A 
HETATM    7  C8  UNL     1     -32.187   5.372   1.345  1.00 20.00     0.044 C 
ENDROOT
BRANCH   6   8
HETATM    8  C5  UNL     1     -32.825   7.829   3.060  1.00 20.00     0.230 C 
HETATM    9  O9  UNL     1     -32.014   8.301   2.268  1.00 20.00    -0.279 OA
HETATM   10 CL10 UNL     1     -32.931   8.191   4.756  1.00 20.00    -0.043 Cl
ENDBRANCH   6   8
TORSDOF 1
ENDMDL
MODEL 2
REMARK VINA RESULT:      -1.4      1.207      1.207
REMARK  1 active torsions:
REMARK  status: ('A' for Active; 'I' for Inactive)
REMARK    1  A    between atoms: C5_5  and  C7_7 
ROOT
HETATM    1  C1  UNL     1     -35.262   5.723   4.495  1.00 20.00    -0.026 A 
HETATM    2  C2  UNL     1     -34.977   6.785   3.729  1.00 20.00    -0.013 A 
HETATM    3  C3  UNL     1     -33.513   4.383   3.281  1.00 20.00    -0.019 A 
HETATM    4  C4  UNL     1     -33.215   5.440   2.502  1.00 20.00    -0.071 A 
HETATM    5  C6  UNL     1     -34.548   4.411   4.368  1.00 20.00     0.054 A 
HETATM    6  C7  UNL     1     -33.918   6.766   2.664  1.00 20.00     0.123 A 
HETATM    7  C8  UNL     1     -32.206   5.330   1.394  1.00 20.00     0.044 C 
ENDROOT
BRANCH   6   8
HETATM    8  C5  UNL     1     -32.903   7.783   3.091  1.00 20.00     0.230 C 
HETATM    9  O9  UNL     1     -32.709   8.043   4.275  1.00 20.00    -0.279 OA
HETATM   10 CL10 UNL     1     -32.088   8.503   1.736  1.00 20.00    -0.043 Cl
ENDBRANCH   6   8
TORSDOF 1
ENDMDL
MODEL 3
REMARK VINA RESULT:      -1.0      2.152      3.737
REMARK  1 active torsions:
REMARK  status: ('A' for Active; 'I' for Inactive)
REMARK    1  A    between atoms: C5_5  and  C7_7 
ROOT
HETATM    1  C1  UNL     1     -32.145   6.154   1.085  1.00 20.00    -0.026 A 
HETATM    2  C2  UNL     1     -33.282   5.590   1.514  1.00 20.00    -0.013 A 
HETATM    3  C3  UNL     1     -32.356   7.924   2.860  1.00 20.00    -0.019 A 
HETATM    4  C4  UNL     1     -33.500   7.371   3.303  1.00 20.00    -0.071 A 
HETATM    5  C6  UNL     1     -31.546   7.372   1.723  1.00 20.00     0.054 A 
HETATM    6  C7  UNL     1     -34.073   6.124   2.674  1.00 20.00     0.123 A 
HETATM    7  C8  UNL     1     -34.294   8.005   4.412  1.00 20.00     0.044 C 
ENDROOT
BRANCH   6   8
HETATM    8  C5  UNL     1     -34.061   5.034   3.702  1.00 20.00     0.230 C 
HETATM    9  O9  UNL     1     -33.121   4.251   3.801  1.00 20.00    -0.279 OA
HETATM   10 CL10 UNL     1     -35.497   5.040   4.680  1.00 20.00    -0.043 Cl
ENDBRANCH   6   8
TORSDOF 1
ENDMDL
MODEL 4
REMARK VINA RESULT:      -0.8      2.332      3.087
REMARK  1 active torsions:
REMARK  status: ('A' for Active; 'I' for Inactive)
REMARK    1  A    between atoms: C5_5  and  C7_7 
ROOT
HETATM    1  C1  UNL     1     -34.656   5.262   3.952  1.00 20.00    -0.026 A 
HETATM    2  C2  UNL     1     -33.631   4.802   3.221  1.00 20.00    -0.013 A 
HETATM    3  C3  UNL     1     -34.003   7.622   3.373  1.00 20.00    -0.019 A 
HETATM    4  C4  UNL     1     -32.969   7.177   2.636  1.00 20.00    -0.071 A 
HETATM    5  C6  UNL     1     -34.966   6.723   4.092  1.00 20.00     0.054 A 
HETATM    6  C7  UNL     1     -32.689   5.702   2.474  1.00 20.00     0.123 A 
HETATM    7  C8  UNL     1     -32.007   8.131   1.985  1.00 20.00     0.044 C 
ENDROOT
BRANCH   6   8
HETATM    8  C5  UNL     1     -32.861   5.350   1.027  1.00 20.00     0.230 C 
HETATM    9  O9  UNL     1     -33.879   5.647   0.408  1.00 20.00    -0.279 OA
HETATM   10 CL10 UNL     1     -31.484   4.503   0.391  1.00 20.00    -0.043 Cl
ENDBRANCH   6   8
TORSDOF 1
ENDMDL
MODEL 5
REMARK VINA RESULT:      -0.7      2.364      3.806
REMARK  1 active torsions:
REMARK  status: ('A' for Active; 'I' for Inactive)
REMARK    1  A    between atoms: C5_5  and  C7_7 
ROOT
HETATM    1  C1  UNL     1     -32.390   5.931   1.205  1.00 20.00    -0.026 A 
HETATM    2  C2  UNL     1     -33.539   5.418   1.665  1.00 20.00    -0.013 A 
HETATM    3  C3  UNL     1     -32.487   7.722   2.970  1.00 20.00    -0.019 A 
HETATM    4  C4  UNL     1     -33.643   7.220   3.444  1.00 20.00    -0.071 A 
HETATM    5  C6  UNL     1     -31.727   7.128   1.819  1.00 20.00     0.054 A 
HETATM    6  C7  UNL     1     -34.280   5.993   2.838  1.00 20.00     0.123 A 
HETATM    7  C8  UNL     1     -34.384   7.894   4.565  1.00 20.00     0.044 C 
ENDROOT
BRANCH   6   8
HETATM    8  C5  UNL     1     -34.290   4.911   3.875  1.00 20.00     0.230 C 
HETATM    9  O9  UNL     1     -35.257   4.731   4.611  1.00 20.00    -0.279 OA
HETATM   10 CL10 UNL     1     -32.811   4.000   3.885  1.00 20.00    -0.043 Cl
ENDBRANCH   6   8
TORSDOF 1
ENDMDL
MODEL 6
REMARK VINA RESULT:      -0.6      2.336      3.786
REMARK  1 active torsions:
REMARK  status: ('A' for Active; 'I' for Inactive)
REMARK    1  A    between atoms: C5_5  and  C7_7 
ROOT
HETATM    1  C1  UNL     1     -31.777   8.389   2.588  1.00 20.00    -0.026 A 
HETATM    2  C2  UNL     1     -32.342   7.462   1.803  1.00 20.00    -0.013 A 
HETATM    3  C3  UNL     1     -33.503   7.936   4.361  1.00 20.00    -0.019 A 
HETATM    4  C4  UNL     1     -34.084   7.003   3.585  1.00 20.00    -0.071 A 
HETATM    5  C6  UNL     1     -32.283   8.715   3.961  1.00 20.00     0.054 A 
HETATM    6  C7  UNL     1     -33.542   6.660   2.218  1.00 20.00     0.123 A 
HETATM    7  C8  UNL     1     -35.338   6.297   4.022  1.00 20.00     0.044 C 
ENDROOT
BRANCH   6   8
HETATM    8  C5  UNL     1     -33.082   5.234   2.243  1.00 20.00     0.230 C 
HETATM    9  O9  UNL     1     -33.464   4.447   3.105  1.00 20.00    -0.279 OA
HETATM   10 CL10 UNL     1     -31.987   4.876   0.942  1.00 20.00    -0.043 Cl
ENDBRANCH   6   8
TORSDOF 1
ENDMDL
MODEL 7
REMARK VINA RESULT:       0.2      1.820      3.063
REMARK  1 active torsions:
REMARK  status: ('A' for Active; 'I' for Inactive)
REMARK    1  A    between atoms: C5_5  and  C7_7 
ROOT
HETATM    1  C1  UNL     1     -32.136   7.741   1.543  1.00 20.00    -0.026 A 
HETATM    2  C2  UNL     1     -32.357   7.887   2.857  1.00 20.00    -0.013 A 
HETATM    3  C3  UNL     1     -33.105   5.421   1.641  1.00 20.00    -0.019 A 
HETATM    4  C4  UNL     1     -33.333   5.551   2.961  1.00 20.00    -0.071 A 
HETATM    5  C6  UNL     1     -32.503   6.500   0.787  1.00 20.00     0.054 A 
HETATM    6  C7  UNL     1     -32.991   6.820   3.703  1.00 20.00     0.123 A 
HETATM    7  C8  UNL     1     -33.888   4.412   3.771  1.00 20.00     0.044 C 
ENDROOT
BRANCH   6   8
HETATM    8  C5  UNL     1     -34.265   7.420   4.216  1.00 20.00     0.230 C 
HETATM    9  O9  UNL     1     -34.263   8.346   5.022  1.00 20.00    -0.279 OA
HETATM   10 CL10 UNL     1     -35.669   6.652   3.540  1.00 20.00    -0.043 Cl
ENDBRANCH   6   8
TORSDOF 1
ENDMDL
MODEL 8
REMARK VINA RESULT:       0.4      2.091      3.252
REMARK  1 active torsions:
REMARK  status: ('A' for Active; 'I' for Inactive)
REMARK    1  A    between atoms: C5_5  and  C7_7 
ROOT
HETATM    1  C1  UNL     1     -32.379   8.721   3.173  1.00 20.00    -0.026 A 
HETATM    2  C2  UNL     1     -32.873   7.739   3.939  1.00 20.00    -0.013 A 
HETATM    3  C3  UNL     1     -32.359   7.164   1.197  1.00 20.00    -0.019 A 
HETATM    4  C4  UNL     1     -32.854   6.166   1.953  1.00 20.00    -0.071 A 
HETATM    5  C6  UNL     1     -32.086   8.547   1.713  1.00 20.00     0.054 A 
HETATM    6  C7  UNL     1     -33.179   6.365   3.414  1.00 20.00     0.123 A 
HETATM    7  C8  UNL     1     -33.054   4.787   1.389  1.00 20.00     0.044 C 
ENDROOT
BRANCH   6   8
HETATM    8  C5  UNL     1     -34.656   6.187   3.593  1.00 20.00     0.230 C 
HETATM    9  O9  UNL     1     -35.462   7.004   3.156  1.00 20.00    -0.279 OA
HETATM   10 CL10 UNL     1     -35.039   4.734   4.465  1.00 20.00    -0.043 Cl
ENDBRANCH   6   8
TORSDOF 1
ENDMDL
MODEL 9
REMARK VINA RESULT:       0.5      1.244      1.999
REMARK  1 active torsions:
REMARK  status: ('A' for Active; 'I' for Inactive)
REMARK    1  A    between atoms: C5_5  and  C7_7 
ROOT
HETATM    1  C1  UNL     1     -33.950   5.314   3.176  1.00 20.00    -0.026 A 
HETATM    2  C2  UNL     1     -34.134   6.580   3.573  1.00 20.00    -0.013 A 
HETATM    3  C3  UNL     1     -32.343   6.105   1.409  1.00 20.00    -0.019 A 
HETATM    4  C4  UNL     1     -32.518   7.383   1.794  1.00 20.00    -0.071 A 
HETATM    5  C6  UNL     1     -33.019   4.935   2.063  1.00 20.00     0.054 A 
HETATM    6  C7  UNL     1     -33.432   7.747   2.940  1.00 20.00     0.123 A 
HETATM    7  C8  UNL     1     -31.855   8.515   1.061  1.00 20.00     0.044 C 
ENDROOT
BRANCH   6   8
HETATM    8  C5  UNL     1     -32.598   8.351   4.028  1.00 20.00     0.230 C 
HETATM    9  O9  UNL     1     -31.492   8.834   3.801  1.00 20.00    -0.279 OA
HETATM   10 CL10 UNL     1     -33.382   8.271   5.576  1.00 20.00    -0.043 Cl
ENDBRANCH   6   8
TORSDOF 1
ENDMDL
