MODEL 1
REMARK VINA RESULT:      -1.9      0.000      0.000
REMARK  0 active torsions:
REMARK  status: ('A' for Active; 'I' for Inactive)
ROOT
HETATM    1  C1  UNL     1     -32.739   9.795   0.318  1.00 20.00     0.015 C 
HETATM    2  C2  UNL     1     -32.340   8.928   1.047  1.00 20.00    -0.075 C 
HETATM    3  C3  UNL     1     -34.848   6.684   4.005  1.00 20.00     0.001 C 
HETATM    4  C4  UNL     1     -34.212   5.616   3.088  1.00 20.00     0.005 C 
HETATM    5  C5  UNL     1     -34.042   7.980   3.765  1.00 20.00     0.009 C 
HETATM    6  C6  UNL     1     -32.030   6.391   1.446  1.00 20.00     0.060 C 
HETATM    7  C7  UNL     1     -33.436   6.463   2.106  1.00 20.00    -0.003 C 
HETATM    8  C8  UNL     1     -32.777   7.456   3.113  1.00 20.00     0.040 C 
HETATM    9  C9  UNL     1     -31.862   7.886   1.924  1.00 20.00     0.162 C 
HETATM   10  O10 UNL     1     -30.546   8.165   2.329  1.00 20.00    -0.214 OA
ENDROOT
TORSDOF 0
ENDMDL
MODEL 2
REMARK VINA RESULT:       0.7      2.228      4.078
REMARK  0 active torsions:
REMARK  status: ('A' for Active; 'I' for Inactive)
ROOT
HETATM    1  C1  UNL     1     -33.804   3.898   4.706  1.00 20.00     0.015 C 
HETATM    2  C2  UNL     1     -34.174   4.868   4.104  1.00 20.00    -0.075 C 
HETATM    3  C3  UNL     1     -31.833   8.656   3.615  1.00 20.00     0.001 C 
HETATM    4  C4  UNL     1     -32.158   8.170   2.185  1.00 20.00     0.005 C 
HETATM    5  C5  UNL     1     -32.776   7.872   4.554  1.00 20.00     0.009 C 
HETATM    6  C6  UNL     1     -34.161   6.182   1.875  1.00 20.00     0.060 C 
HETATM    7  C7  UNL     1     -32.896   6.877   2.452  1.00 20.00    -0.003 C 
HETATM    8  C8  UNL     1     -33.838   7.368   3.595  1.00 20.00     0.040 C 
HETATM    9  C9  UNL     1     -34.619   6.034   3.379  1.00 20.00     0.162 C 
HETATM   10  O10 UNL     1     -36.006   6.191   3.526  1.00 20.00    -0.214 OA
ENDROOT
TORSDOF 0
ENDMDL
MODEL 3
REMARK VINA RESULT:       0.8      2.223      4.006
REMARK  0 active torsions:
REMARK  status: ('A' for Active; 'I' for Inactive)
ROOT
HETATM    1  C1  UNL     1     -37.105   6.886   2.614  1.00 20.00     0.015 C 
HETATM    2  C2  UNL     1     -36.070   6.624   3.164  1.00 20.00    -0.075 C 
HETATM    3  C3  UNL     1     -31.989   7.259   1.428  1.00 20.00     0.001 C 
HETATM    4  C4  UNL     1     -32.009   8.034   2.764  1.00 20.00     0.005 C 
HETATM    5  C5  UNL     1     -33.201   6.303   1.476  1.00 20.00     0.009 C 
HETATM    6  C6  UNL     1     -34.095   7.470   4.605  1.00 20.00     0.060 C 
HETATM    7  C7  UNL     1     -33.425   7.803   3.242  1.00 20.00    -0.003 C 
HETATM    8  C8  UNL     1     -33.529   6.273   2.956  1.00 20.00     0.040 C 
HETATM    9  C9  UNL     1     -34.826   6.308   3.824  1.00 20.00     0.162 C 
HETATM   10  O10 UNL     1     -34.979   5.157   4.613  1.00 20.00    -0.214 OA
ENDROOT
TORSDOF 0
ENDMDL
MODEL 4
REMARK VINA RESULT:       1.1      2.199      3.712
REMARK  0 active torsions:
REMARK  status: ('A' for Active; 'I' for Inactive)
ROOT
HETATM    1  C1  UNL     1     -33.488   8.239   5.380  1.00 20.00     0.015 C 
HETATM    2  C2  UNL     1     -33.940   7.497   4.552  1.00 20.00    -0.075 C 
HETATM    3  C3  UNL     1     -31.793   6.116   0.870  1.00 20.00     0.001 C 
HETATM    4  C4  UNL     1     -32.205   4.835   1.628  1.00 20.00     0.005 C 
HETATM    5  C5  UNL     1     -32.633   7.259   1.483  1.00 20.00     0.009 C 
HETATM    6  C6  UNL     1     -34.146   5.067   3.687  1.00 20.00     0.060 C 
HETATM    7  C7  UNL     1     -32.870   5.399   2.864  1.00 20.00    -0.003 C 
HETATM    8  C8  UNL     1     -33.742   6.501   2.187  1.00 20.00     0.040 C 
HETATM    9  C9  UNL     1     -34.484   6.604   3.556  1.00 20.00     0.162 C 
HETATM   10  O10 UNL     1     -35.861   6.830   3.409  1.00 20.00    -0.214 OA
ENDROOT
TORSDOF 0
ENDMDL
