MODEL 1
REMARK VINA RESULT:      -0.1      0.000      0.000
REMARK  1 active torsions:
REMARK  status: ('A' for Active; 'I' for Inactive)
REMARK    1  A    between atoms: C1_1  and  C8_8 
ROOT
HETATM    1  C2  UNL     1     -32.154   9.832  -0.544  1.00 20.00     0.001 C 
HETATM    2  C3  UNL     1     -32.707  10.678   0.590  1.00 20.00     0.001 C 
HETATM    3  C4  UNL     1     -31.490   8.671   0.187  1.00 20.00     0.010 C 
HETATM    4  C5  UNL     1     -33.323   9.644   1.527  1.00 20.00     0.010 C 
HETATM    5  C6  UNL     1     -31.665   7.976   2.694  1.00 20.00     0.023 C 
HETATM    6  C7  UNL     1     -33.123   7.041   1.439  1.00 20.00     0.023 C 
HETATM    7  C8  UNL     1     -32.802   6.958   2.950  1.00 20.00     0.073 C 
HETATM    8  C9  UNL     1     -32.400   8.419   1.395  1.00 20.00    -0.039 C 
ENDROOT
BRANCH   7   9
HETATM    9  C1  UNL     1     -33.907   7.354   3.938  1.00 20.00     0.223 C 
HETATM   10  O10 UNL     1     -33.759   8.273   4.738  1.00 20.00    -0.279 OA
HETATM   11 CL11 UNL     1     -35.324   6.363   3.766  1.00 20.00    -0.043 Cl
ENDBRANCH   7   9
TORSDOF 1
ENDMDL
MODEL 2
REMARK VINA RESULT:       0.7      2.446      4.397
REMARK  1 active torsions:
REMARK  status: ('A' for Active; 'I' for Inactive)
REMARK    1  A    between atoms: C1_1  and  C8_8 
ROOT
HETATM    1  C2  UNL     1     -34.485   4.753   4.223  1.00 20.00     0.001 C 
HETATM    2  C3  UNL     1     -35.097   6.143   4.182  1.00 20.00     0.001 C 
HETATM    3  C4  UNL     1     -33.869   4.608   2.836  1.00 20.00     0.010 C 
HETATM    4  C5  UNL     1     -34.014   6.980   3.510  1.00 20.00     0.010 C 
HETATM    5  C6  UNL     1     -33.477   6.421   1.002  1.00 20.00     0.023 C 
HETATM    6  C7  UNL     1     -31.824   6.176   2.337  1.00 20.00     0.023 C 
HETATM    7  C8  UNL     1     -32.081   7.081   1.109  1.00 20.00     0.073 C 
HETATM    8  C9  UNL     1     -33.363   6.017   2.501  1.00 20.00    -0.039 C 
ENDROOT
BRANCH   7   9
HETATM    9  C1  UNL     1     -32.024   8.600   1.317  1.00 20.00     0.223 C 
HETATM   10  O10 UNL     1     -31.683   9.093   2.388  1.00 20.00    -0.279 OA
HETATM   11 CL11 UNL     1     -32.488   9.474  -0.112  1.00 20.00    -0.043 Cl
ENDBRANCH   7   9
TORSDOF 1
ENDMDL
MODEL 3
REMARK VINA RESULT:       0.9      2.627      4.720
REMARK  1 active torsions:
REMARK  status: ('A' for Active; 'I' for Inactive)
REMARK    1  A    between atoms: C1_1  and  C8_8 
ROOT
HETATM    1  C2  UNL     1     -35.379   4.969   4.401  1.00 20.00     0.001 C 
HETATM    2  C3  UNL     1     -34.078   4.396   3.865  1.00 20.00     0.001 C 
HETATM    3  C4  UNL     1     -35.009   6.411   4.730  1.00 20.00     0.010 C 
HETATM    4  C5  UNL     1     -33.566   5.499   2.945  1.00 20.00     0.010 C 
HETATM    5  C6  UNL     1     -32.871   7.759   4.086  1.00 20.00     0.023 C 
HETATM    6  C7  UNL     1     -34.460   7.937   2.665  1.00 20.00     0.023 C 
HETATM    7  C8  UNL     1     -33.035   8.531   2.755  1.00 20.00     0.073 C 
HETATM    8  C9  UNL     1     -34.012   6.802   3.632  1.00 20.00    -0.039 C 
ENDROOT
BRANCH   7   9
HETATM    9  C1  UNL     1     -32.055   8.211   1.618  1.00 20.00     0.223 C 
HETATM   10  O10 UNL     1     -31.290   7.252   1.675  1.00 20.00    -0.279 OA
HETATM   11 CL11 UNL     1     -32.181   9.346   0.308  1.00 20.00    -0.043 Cl
ENDBRANCH   7   9
TORSDOF 1
ENDMDL
MODEL 4
REMARK VINA RESULT:       1.5      2.603      4.269
REMARK  1 active torsions:
REMARK  status: ('A' for Active; 'I' for Inactive)
REMARK    1  A    between atoms: C1_1  and  C8_8 
ROOT
HETATM    1  C2  UNL     1     -34.543   6.144   4.345  1.00 20.00     0.001 C 
HETATM    2  C3  UNL     1     -35.497   6.795   3.359  1.00 20.00     0.001 C 
HETATM    3  C4  UNL     1     -33.301   5.884   3.500  1.00 20.00     0.010 C 
HETATM    4  C5  UNL     1     -34.606   7.786   2.616  1.00 20.00     0.010 C 
HETATM    5  C6  UNL     1     -32.705   6.768   1.121  1.00 20.00     0.023 C 
HETATM    6  C7  UNL     1     -32.008   8.025   2.704  1.00 20.00     0.023 C 
HETATM    7  C8  UNL     1     -31.904   8.092   1.162  1.00 20.00     0.073 C 
HETATM    8  C9  UNL     1     -33.238   7.085   2.548  1.00 20.00    -0.039 C 
ENDROOT
BRANCH   7   9
HETATM    9  C1  UNL     1     -32.508   9.314   0.459  1.00 20.00     0.223 C 
HETATM   10  O10 UNL     1     -32.843   9.280  -0.722  1.00 20.00    -0.279 OA
HETATM   11 CL11 UNL     1     -32.640  10.682   1.523  1.00 20.00    -0.043 Cl
ENDBRANCH   7   9
TORSDOF 1
ENDMDL
MODEL 5
REMARK VINA RESULT:       1.5      2.104      3.070
REMARK  1 active torsions:
REMARK  status: ('A' for Active; 'I' for Inactive)
REMARK    1  A    between atoms: C1_1  and  C8_8 
ROOT
HETATM    1  C2  UNL     1     -31.480   7.978   1.379  1.00 20.00     0.001 C 
HETATM    2  C3  UNL     1     -31.990   6.642   0.867  1.00 20.00     0.001 C 
HETATM    3  C4  UNL     1     -32.674   8.528   2.151  1.00 20.00     0.010 C 
HETATM    4  C5  UNL     1     -32.714   6.060   2.077  1.00 20.00     0.010 C 
HETATM    5  C6  UNL     1     -34.868   7.324   2.882  1.00 20.00     0.023 C 
HETATM    6  C7  UNL     1     -33.306   7.222   4.339  1.00 20.00     0.023 C 
HETATM    7  C8  UNL     1     -34.761   6.699   4.294  1.00 20.00     0.073 C 
HETATM    8  C9  UNL     1     -33.316   7.287   2.784  1.00 20.00    -0.039 C 
ENDROOT
BRANCH   7   9
HETATM    9  C1  UNL     1     -34.978   5.185   4.422  1.00 20.00     0.223 C 
HETATM   10  O10 UNL     1     -36.045   4.716   4.809  1.00 20.00    -0.279 OA
HETATM   11 CL11 UNL     1     -33.567   4.280   3.966  1.00 20.00    -0.043 Cl
ENDBRANCH   7   9
TORSDOF 1
ENDMDL
MODEL 6
REMARK VINA RESULT:       1.6      1.966      2.430
REMARK  1 active torsions:
REMARK  status: ('A' for Active; 'I' for Inactive)
REMARK    1  A    between atoms: C1_1  and  C8_8 
ROOT
HETATM    1  C2  UNL     1     -31.861   9.049   1.197  1.00 20.00     0.001 C 
HETATM    2  C3  UNL     1     -31.712   8.884   2.700  1.00 20.00     0.001 C 
HETATM    3  C4  UNL     1     -31.841   7.610   0.691  1.00 20.00     0.010 C 
HETATM    4  C5  UNL     1     -32.659   7.731   3.019  1.00 20.00     0.010 C 
HETATM    5  C6  UNL     1     -32.028   5.382   2.032  1.00 20.00     0.023 C 
HETATM    6  C7  UNL     1     -33.911   6.145   1.365  1.00 20.00     0.023 C 
HETATM    7  C8  UNL     1     -33.489   4.887   2.161  1.00 20.00     0.073 C 
HETATM    8  C9  UNL     1     -32.572   6.819   1.782  1.00 20.00    -0.039 C 
ENDROOT
BRANCH   7   9
HETATM    9  C1  UNL     1     -34.061   4.711   3.574  1.00 20.00     0.223 C 
HETATM   10  O10 UNL     1     -33.740   3.766   4.288  1.00 20.00    -0.279 OA
HETATM   11 CL11 UNL     1     -35.172   5.980   3.992  1.00 20.00    -0.043 Cl
ENDBRANCH   7   9
TORSDOF 1
ENDMDL
MODEL 7
REMARK VINA RESULT:       1.7      2.620      4.467
REMARK  1 active torsions:
REMARK  status: ('A' for Active; 'I' for Inactive)
REMARK    1  A    between atoms: C1_1  and  C8_8 
ROOT
HETATM    1  C2  UNL     1     -35.065   5.970   4.274  1.00 20.00     0.001 C 
HETATM    2  C3  UNL     1     -34.130   5.208   3.350  1.00 20.00     0.001 C 
HETATM    3  C4  UNL     1     -34.284   7.244   4.578  1.00 20.00     0.010 C 
HETATM    4  C5  UNL     1     -33.627   6.287   2.397  1.00 20.00     0.010 C 
HETATM    5  C6  UNL     1     -32.132   8.177   3.438  1.00 20.00     0.023 C 
HETATM    6  C7  UNL     1     -33.947   8.874   2.548  1.00 20.00     0.023 C 
HETATM    7  C8  UNL     1     -32.449   9.134   2.264  1.00 20.00     0.073 C 
HETATM    8  C9  UNL     1     -33.548   7.553   3.268  1.00 20.00    -0.039 C 
ENDROOT
BRANCH   7   9
HETATM    9  C1  UNL     1     -31.911   8.764   0.876  1.00 20.00     0.223 C 
HETATM   10  O10 UNL     1     -31.110   7.848   0.716  1.00 20.00    -0.279 OA
HETATM   11 CL11 UNL     1     -32.567   9.781  -0.372  1.00 20.00    -0.043 Cl
ENDBRANCH   7   9
TORSDOF 1
ENDMDL
MODEL 8
REMARK VINA RESULT:       2.1      2.849      4.419
REMARK  1 active torsions:
REMARK  status: ('A' for Active; 'I' for Inactive)
REMARK    1  A    between atoms: C1_1  and  C8_8 
ROOT
HETATM    1  C2  UNL     1     -34.119   5.983   3.561  1.00 20.00     0.001 C 
HETATM    2  C3  UNL     1     -33.465   5.425   2.309  1.00 20.00     0.001 C 
HETATM    3  C4  UNL     1     -33.318   7.252   3.830  1.00 20.00     0.010 C 
HETATM    4  C5  UNL     1     -33.283   6.660   1.432  1.00 20.00     0.010 C 
HETATM    5  C6  UNL     1     -31.605   8.483   2.297  1.00 20.00     0.023 C 
HETATM    6  C7  UNL     1     -33.616   9.172   2.064  1.00 20.00     0.023 C 
HETATM    7  C8  UNL     1     -32.268   9.572   1.420  1.00 20.00     0.073 C 
HETATM    8  C9  UNL     1     -32.994   7.793   2.432  1.00 20.00    -0.039 C 
ENDROOT
BRANCH   7   9
HETATM    9  C1  UNL     1     -32.138   9.439  -0.103  1.00 20.00     0.223 C 
HETATM   10  O10 UNL     1     -32.992   9.882  -0.866  1.00 20.00    -0.279 OA
HETATM   11 CL11 UNL     1     -30.681   8.612  -0.566  1.00 20.00    -0.043 Cl
ENDBRANCH   7   9
TORSDOF 1
ENDMDL
MODEL 9
REMARK VINA RESULT:       2.2      2.241      2.746
REMARK  1 active torsions:
REMARK  status: ('A' for Active; 'I' for Inactive)
REMARK    1  A    between atoms: C1_1  and  C8_8 
ROOT
HETATM    1  C2  UNL     1     -32.294  10.925   0.287  1.00 20.00     0.001 C 
HETATM    2  C3  UNL     1     -32.869   9.992  -0.765  1.00 20.00     0.001 C 
HETATM    3  C4  UNL     1     -32.636  10.220   1.595  1.00 20.00     0.010 C 
HETATM    4  C5  UNL     1     -32.449   8.611  -0.270  1.00 20.00     0.010 C 
HETATM    5  C6  UNL     1     -33.511   7.795   1.987  1.00 20.00     0.023 C 
HETATM    6  C7  UNL     1     -31.379   7.955   2.019  1.00 20.00     0.023 C 
HETATM    7  C8  UNL     1     -32.366   6.778   2.208  1.00 20.00     0.073 C 
HETATM    8  C9  UNL     1     -32.498   8.729   1.263  1.00 20.00    -0.039 C 
ENDROOT
BRANCH   7   9
HETATM    9  C1  UNL     1     -32.262   5.596   1.236  1.00 20.00     0.223 C 
HETATM   10  O10 UNL     1     -31.237   4.928   1.138  1.00 20.00    -0.279 OA
HETATM   11 CL11 UNL     1     -33.732   5.355   0.340  1.00 20.00    -0.043 Cl
ENDBRANCH   7   9
TORSDOF 1
ENDMDL
