MODEL 1
REMARK VINA RESULT:      -2.4      0.000      0.000
REMARK  2 active torsions:
REMARK  status: ('A' for Active; 'I' for Inactive)
REMARK    1  A    between atoms: C1_1  and  C6_6 
REMARK    2  A    between atoms: C7_7  and  C8_8 
ROOT
HETATM    1  C2  UNL     1     -33.901   7.156   3.887  1.00 20.00     0.014 C 
HETATM    2  C3  UNL     1     -33.121   5.326   2.333  1.00 20.00     0.014 C 
HETATM    3  C4  UNL     1     -33.336   8.209   2.935  1.00 20.00     0.008 C 
HETATM    4  C5  UNL     1     -32.552   6.376   1.379  1.00 20.00     0.008 C 
HETATM    5  C6  UNL     1     -34.287   5.886   3.137  1.00 20.00     0.072 C 
HETATM    6  C7  UNL     1     -32.156   7.659   2.121  1.00 20.00     0.014 C 
ENDROOT
BRANCH   5   7
HETATM    7  C1  UNL     1     -34.678   4.845   4.168  1.00 20.00     0.223 C 
HETATM    8  O9  UNL     1     -35.700   4.954   4.840  1.00 20.00    -0.279 OA
HETATM    9 CL11 UNL     1     -33.529   3.545   4.255  1.00 20.00    -0.043 Cl
ENDBRANCH   5   7
BRANCH   6  10
HETATM   10  C8  UNL     1     -31.641   8.712   1.140  1.00 20.00     0.226 C 
HETATM   11  F10 UNL     1     -32.651   9.577   0.883  1.00 20.00    -0.255 F 
ENDBRANCH   6  10
TORSDOF 2
ENDMDL
MODEL 2
REMARK VINA RESULT:      -1.9      0.523      1.610
REMARK  2 active torsions:
REMARK  status: ('A' for Active; 'I' for Inactive)
REMARK    1  A    between atoms: C1_1  and  C6_6 
REMARK    2  A    between atoms: C7_7  and  C8_8 
ROOT
HETATM    1  C2  UNL     1     -33.157   5.430   2.136  1.00 20.00     0.014 C 
HETATM    2  C3  UNL     1     -33.977   7.163   3.778  1.00 20.00     0.014 C 
HETATM    3  C4  UNL     1     -32.282   6.482   1.458  1.00 20.00     0.008 C 
HETATM    4  C5  UNL     1     -33.104   8.219   3.102  1.00 20.00     0.008 C 
HETATM    5  C6  UNL     1     -33.389   5.768   3.604  1.00 20.00     0.072 C 
HETATM    6  C7  UNL     1     -32.866   7.893   1.621  1.00 20.00     0.014 C 
ENDROOT
BRANCH   5   7
HETATM    7  C1  UNL     1     -34.393   4.773   4.152  1.00 20.00     0.223 C 
HETATM    8  O9  UNL     1     -35.561   5.086   4.366  1.00 20.00    -0.279 OA
HETATM    9 CL11 UNL     1     -33.688   3.208   4.418  1.00 20.00    -0.043 Cl
ENDBRANCH   5   7
BRANCH   6  10
HETATM   10  C8  UNL     1     -31.948   8.934   0.981  1.00 20.00     0.226 C 
HETATM   11  F10 UNL     1     -32.691  10.028   0.690  1.00 20.00    -0.255 F 
ENDBRANCH   6  10
TORSDOF 2
ENDMDL
MODEL 3
REMARK VINA RESULT:      -1.8      3.770      4.763
REMARK  2 active torsions:
REMARK  status: ('A' for Active; 'I' for Inactive)
REMARK    1  A    between atoms: C1_1  and  C6_6 
REMARK    2  A    between atoms: C7_7  and  C8_8 
ROOT
HETATM    1  C2  UNL     1     -33.422   8.421   2.924  1.00 20.00     0.014 C 
HETATM    2  C3  UNL     1     -32.749   6.469   1.470  1.00 20.00     0.014 C 
HETATM    3  C4  UNL     1     -33.980   7.454   3.967  1.00 20.00     0.008 C 
HETATM    4  C5  UNL     1     -33.307   5.499   2.511  1.00 20.00     0.008 C 
HETATM    5  C6  UNL     1     -32.302   7.774   2.118  1.00 20.00     0.072 C 
HETATM    6  C7  UNL     1     -34.440   6.136   3.328  1.00 20.00     0.014 C 
ENDROOT
BRANCH   5   7
HETATM    7  C1  UNL     1     -31.923   8.734   1.006  1.00 20.00     0.223 C 
HETATM    8  O9  UNL     1     -31.036   8.469   0.199  1.00 20.00    -0.279 OA
HETATM    9 CL11 UNL     1     -32.878  10.185   1.039  1.00 20.00    -0.043 Cl
ENDBRANCH   5   7
BRANCH   6  10
HETATM   10  C8  UNL     1     -34.945   5.166   4.396  1.00 20.00     0.226 C 
HETATM   11  F10 UNL     1     -34.252   4.009   4.275  1.00 20.00    -0.255 F 
ENDBRANCH   6  10
TORSDOF 2
ENDMDL
MODEL 4
REMARK VINA RESULT:      -1.3      3.615      4.641
REMARK  2 active torsions:
REMARK  status: ('A' for Active; 'I' for Inactive)
REMARK    1  A    between atoms: C1_1  and  C6_6 
REMARK    2  A    between atoms: C7_7  and  C8_8 
ROOT
HETATM    1  C2  UNL     1     -33.523   8.392   2.984  1.00 20.00     0.014 C 
HETATM    2  C3  UNL     1     -32.738   6.571   1.421  1.00 20.00     0.014 C 
HETATM    3  C4  UNL     1     -33.965   7.336   3.995  1.00 20.00     0.008 C 
HETATM    4  C5  UNL     1     -33.181   5.512   2.429  1.00 20.00     0.008 C 
HETATM    5  C6  UNL     1     -32.379   7.878   2.116  1.00 20.00     0.072 C 
HETATM    6  C7  UNL     1     -34.335   6.014   3.308  1.00 20.00     0.014 C 
ENDROOT
BRANCH   5   7
HETATM    7  C1  UNL     1     -32.117   8.915   1.041  1.00 20.00     0.223 C 
HETATM    8  O9  UNL     1     -32.727   9.981   1.010  1.00 20.00    -0.279 OA
HETATM    9 CL11 UNL     1     -30.894   8.402  -0.081  1.00 20.00    -0.043 Cl
ENDBRANCH   5   7
BRANCH   6  10
HETATM   10  C8  UNL     1     -34.723   4.958   4.342  1.00 20.00     0.226 C 
HETATM   11  F10 UNL     1     -33.967   3.857   4.124  1.00 20.00    -0.255 F 
ENDBRANCH   6  10
TORSDOF 2
ENDMDL
MODEL 5
REMARK VINA RESULT:      -1.2      1.237      1.237
REMARK  2 active torsions:
REMARK  status: ('A' for Active; 'I' for Inactive)
REMARK    1  A    between atoms: C1_1  and  C6_6 
REMARK    2  A    between atoms: C7_7  and  C8_8 
ROOT
HETATM    1  C2  UNL     1     -33.860   7.158   3.389  1.00 20.00     0.014 C 
HETATM    2  C3  UNL     1     -32.543   5.455   2.070  1.00 20.00     0.014 C 
HETATM    3  C4  UNL     1     -33.410   8.255   2.426  1.00 20.00     0.008 C 
HETATM    4  C5  UNL     1     -32.090   6.550   1.106  1.00 20.00     0.008 C 
HETATM    5  C6  UNL     1     -33.887   5.798   2.701  1.00 20.00     0.072 C 
HETATM    6  C7  UNL     1     -32.054   7.925   1.787  1.00 20.00     0.014 C 
ENDROOT
BRANCH   5   7
HETATM    7  C1  UNL     1     -34.179   4.753   3.760  1.00 20.00     0.223 C 
HETATM    8  O9  UNL     1     -33.519   3.720   3.847  1.00 20.00    -0.279 OA
HETATM    9 CL11 UNL     1     -35.511   5.205   4.779  1.00 20.00    -0.043 Cl
ENDBRANCH   5   7
BRANCH   6  10
HETATM   10  C8  UNL     1     -31.650   9.010   0.789  1.00 20.00     0.226 C 
HETATM   11  F10 UNL     1     -32.727   9.800   0.567  1.00 20.00    -0.255 F 
ENDBRANCH   6  10
TORSDOF 2
ENDMDL
MODEL 6
REMARK VINA RESULT:      -1.2      3.831      5.014
REMARK  2 active torsions:
REMARK  status: ('A' for Active; 'I' for Inactive)
REMARK    1  A    between atoms: C1_1  and  C6_6 
REMARK    2  A    between atoms: C7_7  and  C8_8 
ROOT
HETATM    1  C2  UNL     1     -32.553   6.281   1.533  1.00 20.00     0.014 C 
HETATM    2  C3  UNL     1     -33.292   8.074   3.150  1.00 20.00     0.014 C 
HETATM    3  C4  UNL     1     -33.488   5.281   2.212  1.00 20.00     0.008 C 
HETATM    4  C5  UNL     1     -34.227   7.075   3.833  1.00 20.00     0.008 C 
HETATM    5  C6  UNL     1     -33.068   7.707   1.688  1.00 20.00     0.072 C 
HETATM    6  C7  UNL     1     -33.719   5.635   3.688  1.00 20.00     0.014 C 
ENDROOT
BRANCH   5   7
HETATM    7  C1  UNL     1     -32.007   8.640   1.137  1.00 20.00     0.223 C 
HETATM    8  O9  UNL     1     -30.815   8.344   1.154  1.00 20.00    -0.279 OA
HETATM    9 CL11 UNL     1     -32.687  10.111   0.512  1.00 20.00    -0.043 Cl
ENDBRANCH   5   7
BRANCH   6  10
HETATM   10  C8  UNL     1     -34.697   4.652   4.331  1.00 20.00     0.226 C 
HETATM   11  F10 UNL     1     -34.054   3.473   4.506  1.00 20.00    -0.255 F 
ENDBRANCH   6  10
TORSDOF 2
ENDMDL
MODEL 7
REMARK VINA RESULT:       0.0      1.452      2.084
REMARK  2 active torsions:
REMARK  status: ('A' for Active; 'I' for Inactive)
REMARK    1  A    between atoms: C1_1  and  C6_6 
REMARK    2  A    between atoms: C7_7  and  C8_8 
ROOT
HETATM    1  C2  UNL     1     -32.604   5.878   2.047  1.00 20.00     0.014 C 
HETATM    2  C3  UNL     1     -34.048   7.570   3.242  1.00 20.00     0.014 C 
HETATM    3  C4  UNL     1     -31.858   7.009   1.342  1.00 20.00     0.008 C 
HETATM    4  C5  UNL     1     -33.305   8.704   2.537  1.00 20.00     0.008 C 
HETATM    5  C6  UNL     1     -33.162   6.339   3.389  1.00 20.00     0.072 C 
HETATM    6  C7  UNL     1     -32.740   8.255   1.183  1.00 20.00     0.014 C 
ENDROOT
BRANCH   5   7
HETATM    7  C1  UNL     1     -34.021   5.217   3.939  1.00 20.00     0.223 C 
HETATM    8  O9  UNL     1     -33.579   4.082   4.093  1.00 20.00    -0.279 OA
HETATM    9 CL11 UNL     1     -35.637   5.744   4.300  1.00 20.00    -0.043 Cl
ENDBRANCH   5   7
BRANCH   6  10
HETATM   10  C8  UNL     1     -31.957   9.390   0.522  1.00 20.00     0.226 C 
HETATM   11  F10 UNL     1     -32.349  10.556   1.088  1.00 20.00    -0.255 F 
ENDBRANCH   6  10
TORSDOF 2
ENDMDL
MODEL 8
REMARK VINA RESULT:       0.3      3.609      4.817
REMARK  2 active torsions:
REMARK  status: ('A' for Active; 'I' for Inactive)
REMARK    1  A    between atoms: C1_1  and  C6_6 
REMARK    2  A    between atoms: C7_7  and  C8_8 
ROOT
HETATM    1  C2  UNL     1     -32.358   6.489   1.468  1.00 20.00     0.014 C 
HETATM    2  C3  UNL     1     -33.706   8.018   2.957  1.00 20.00     0.014 C 
HETATM    3  C4  UNL     1     -33.093   5.279   2.041  1.00 20.00     0.008 C 
HETATM    4  C5  UNL     1     -34.443   6.810   3.534  1.00 20.00     0.008 C 
HETATM    5  C6  UNL     1     -33.222   7.743   1.539  1.00 20.00     0.072 C 
HETATM    6  C7  UNL     1     -33.583   5.540   3.472  1.00 20.00     0.014 C 
ENDROOT
BRANCH   5   7
HETATM    7  C1  UNL     1     -32.363   8.917   1.110  1.00 20.00     0.223 C 
HETATM    8  O9  UNL     1     -32.616  10.065   1.464  1.00 20.00    -0.279 OA
HETATM    9 CL11 UNL     1     -31.039   8.426   0.098  1.00 20.00    -0.043 Cl
ENDBRANCH   5   7
BRANCH   6  10
HETATM   10  C8  UNL     1     -34.361   4.337   4.005  1.00 20.00     0.226 C 
HETATM   11  F10 UNL     1     -35.465   4.797   4.639  1.00 20.00    -0.255 F 
ENDBRANCH   6  10
TORSDOF 2
ENDMDL
