MODEL 1
REMARK VINA RESULT:       1.6      0.000      0.000
REMARK  1 active torsions:
REMARK  status: ('A' for Active; 'I' for Inactive)
REMARK    1  A    between atoms: C3_3  and  C8_8 
ROOT
HETATM    1  C1  UNL     1     -32.470   8.108   0.840  1.00 20.00    -0.079 C 
HETATM    2  C2  UNL     1     -32.714   9.149   0.040  1.00 20.00    -0.028 C 
HETATM    3  C4  UNL     1     -31.894   8.170   2.232  1.00 20.00     0.039 C 
HETATM    4  C5  UNL     1     -33.895   6.158   1.311  1.00 20.00     0.023 C 
HETATM    5  C6  UNL     1     -31.513   6.026   1.278  1.00 20.00     0.014 C 
HETATM    6  C7  UNL     1     -32.679   6.648   0.507  1.00 20.00     0.015 C 
HETATM    7  C8  UNL     1     -33.362   6.132   2.758  1.00 20.00     0.077 C 
HETATM    8  C9  UNL     1     -31.918   6.673   2.610  1.00 20.00     0.003 C 
HETATM    9  C10 UNL     1     -32.478  10.573   0.423  1.00 20.00     0.036 C 
ENDROOT
BRANCH   7  10
HETATM   10  C3  UNL     1     -34.202   6.919   3.713  1.00 20.00     0.223 C 
HETATM   11  O11 UNL     1     -33.834   8.004   4.154  1.00 20.00    -0.279 OA
HETATM   12 CL12 UNL     1     -35.696   6.115   4.086  1.00 20.00    -0.043 Cl
ENDBRANCH   7  10
TORSDOF 1
ENDMDL
MODEL 2
REMARK VINA RESULT:       1.7      2.412      4.511
REMARK  1 active torsions:
REMARK  status: ('A' for Active; 'I' for Inactive)
REMARK    1  A    between atoms: C3_3  and  C8_8 
ROOT
HETATM    1  C1  UNL     1     -34.076   5.216   4.103  1.00 20.00    -0.079 C 
HETATM    2  C2  UNL     1     -34.178   3.896   4.273  1.00 20.00    -0.028 C 
HETATM    3  C4  UNL     1     -32.898   6.076   4.487  1.00 20.00     0.039 C 
HETATM    4  C5  UNL     1     -34.663   6.569   2.133  1.00 20.00     0.023 C 
HETATM    5  C6  UNL     1     -34.873   7.394   4.361  1.00 20.00     0.014 C 
HETATM    6  C7  UNL     1     -35.133   6.135   3.532  1.00 20.00     0.015 C 
HETATM    7  C8  UNL     1     -33.484   7.513   2.444  1.00 20.00     0.077 C 
HETATM    8  C9  UNL     1     -33.385   7.454   3.988  1.00 20.00     0.003 C 
HETATM    9  C10 UNL     1     -33.100   3.041   4.853  1.00 20.00     0.036 C 
ENDROOT
BRANCH   7  10
HETATM   10  C3  UNL     1     -32.218   7.129   1.747  1.00 20.00     0.223 C 
HETATM   11  O11 UNL     1     -31.278   7.911   1.637  1.00 20.00    -0.279 OA
HETATM   12 CL12 UNL     1     -32.270   5.500   1.147  1.00 20.00    -0.043 Cl
ENDBRANCH   7  10
TORSDOF 1
ENDMDL
MODEL 3
REMARK VINA RESULT:       2.3      2.475      3.967
REMARK  1 active torsions:
REMARK  status: ('A' for Active; 'I' for Inactive)
REMARK    1  A    between atoms: C3_3  and  C8_8 
ROOT
HETATM    1  C1  UNL     1     -33.266   7.151   2.722  1.00 20.00    -0.079 C 
HETATM    2  C2  UNL     1     -34.161   7.150   3.713  1.00 20.00    -0.028 C 
HETATM    3  C4  UNL     1     -33.556   6.922   1.260  1.00 20.00     0.039 C 
HETATM    4  C5  UNL     1     -31.427   8.733   2.305  1.00 20.00     0.023 C 
HETATM    5  C6  UNL     1     -31.282   6.420   1.737  1.00 20.00     0.014 C 
HETATM    6  C7  UNL     1     -31.772   7.339   2.858  1.00 20.00     0.015 C 
HETATM    7  C8  UNL     1     -31.640   8.562   0.787  1.00 20.00     0.077 C 
HETATM    8  C9  UNL     1     -32.142   7.102   0.664  1.00 20.00     0.003 C 
HETATM    9  C10 UNL     1     -35.628   6.949   3.517  1.00 20.00     0.036 C 
ENDROOT
BRANCH   7  10
HETATM   10  C3  UNL     1     -32.579   9.569   0.203  1.00 20.00     0.223 C 
HETATM   11  O11 UNL     1     -33.026   9.453  -0.934  1.00 20.00    -0.279 OA
HETATM   12 CL12 UNL     1     -32.925  10.861   1.313  1.00 20.00    -0.043 Cl
ENDBRANCH   7  10
TORSDOF 1
ENDMDL
MODEL 4
REMARK VINA RESULT:       2.7      2.259      3.938
REMARK  1 active torsions:
REMARK  status: ('A' for Active; 'I' for Inactive)
REMARK    1  A    between atoms: C3_3  and  C8_8 
ROOT
HETATM    1  C1  UNL     1     -33.727   5.386   2.638  1.00 20.00    -0.079 C 
HETATM    2  C2  UNL     1     -34.149   4.953   3.828  1.00 20.00    -0.028 C 
HETATM    3  C4  UNL     1     -34.348   6.491   1.821  1.00 20.00     0.039 C 
HETATM    4  C5  UNL     1     -31.430   5.870   1.898  1.00 20.00     0.023 C 
HETATM    5  C6  UNL     1     -33.102   5.031   0.418  1.00 20.00     0.014 C 
HETATM    6  C7  UNL     1     -32.568   4.836   1.838  1.00 20.00     0.015 C 
HETATM    7  C8  UNL     1     -31.967   7.022   1.023  1.00 20.00     0.077 C 
HETATM    8  C9  UNL     1     -33.378   6.527   0.619  1.00 20.00     0.003 C 
HETATM    9  C10 UNL     1     -35.311   5.532   4.567  1.00 20.00     0.036 C 
ENDROOT
BRANCH   7  10
HETATM   10  C3  UNL     1     -31.973   8.344   1.721  1.00 20.00     0.223 C 
HETATM   11  O11 UNL     1     -31.721   8.443   2.919  1.00 20.00    -0.279 OA
HETATM   12 CL12 UNL     1     -32.367   9.650   0.645  1.00 20.00    -0.043 Cl
ENDBRANCH   7  10
TORSDOF 1
ENDMDL
MODEL 5
REMARK VINA RESULT:       2.9      1.909      3.915
REMARK  1 active torsions:
REMARK  status: ('A' for Active; 'I' for Inactive)
REMARK    1  A    between atoms: C3_3  and  C8_8 
ROOT
HETATM    1  C1  UNL     1     -33.168   4.821   2.877  1.00 20.00    -0.079 C 
HETATM    2  C2  UNL     1     -32.816   3.714   3.534  1.00 20.00    -0.028 C 
HETATM    3  C4  UNL     1     -34.213   5.820   3.310  1.00 20.00     0.039 C 
HETATM    4  C5  UNL     1     -31.727   6.506   1.808  1.00 20.00     0.023 C 
HETATM    5  C6  UNL     1     -33.883   5.940   0.958  1.00 20.00     0.014 C 
HETATM    6  C7  UNL     1     -32.629   5.288   1.544  1.00 20.00     0.015 C 
HETATM    7  C8  UNL     1     -32.738   7.603   2.201  1.00 20.00     0.077 C 
HETATM    8  C9  UNL     1     -34.095   6.857   2.171  1.00 20.00     0.003 C 
HETATM    9  C10 UNL     1     -33.393   3.299   4.847  1.00 20.00     0.036 C 
ENDROOT
BRANCH   7  10
HETATM   10  C3  UNL     1     -32.435   8.244   3.517  1.00 20.00     0.223 C 
HETATM   11  O11 UNL     1     -31.367   8.811   3.729  1.00 20.00    -0.279 OA
HETATM   12 CL12 UNL     1     -33.748   8.078   4.643  1.00 20.00    -0.043 Cl
ENDBRANCH   7  10
TORSDOF 1
ENDMDL
MODEL 6
REMARK VINA RESULT:       3.1      1.428      1.897
REMARK  1 active torsions:
REMARK  status: ('A' for Active; 'I' for Inactive)
REMARK    1  A    between atoms: C3_3  and  C8_8 
ROOT
HETATM    1  C1  UNL     1     -32.136   8.919   1.032  1.00 20.00    -0.079 C 
HETATM    2  C2  UNL     1     -32.166   9.493  -0.173  1.00 20.00    -0.028 C 
HETATM    3  C4  UNL     1     -33.119   9.148   2.152  1.00 20.00     0.039 C 
HETATM    4  C5  UNL     1     -31.737   6.560   1.608  1.00 20.00     0.023 C 
HETATM    5  C6  UNL     1     -31.052   8.357   3.020  1.00 20.00     0.014 C 
HETATM    6  C7  UNL     1     -31.090   7.955   1.544  1.00 20.00     0.015 C 
HETATM    7  C8  UNL     1     -32.724   6.693   2.786  1.00 20.00     0.077 C 
HETATM    8  C9  UNL     1     -32.563   8.173   3.214  1.00 20.00     0.003 C 
HETATM    9  C10 UNL     1     -33.223  10.449  -0.620  1.00 20.00     0.036 C 
ENDROOT
BRANCH   7  10
HETATM   10  C3  UNL     1     -34.127   6.321   2.428  1.00 20.00     0.223 C 
HETATM   11  O11 UNL     1     -34.434   5.976   1.291  1.00 20.00    -0.279 OA
HETATM   12 CL12 UNL     1     -35.203   6.444   3.787  1.00 20.00    -0.043 Cl
ENDBRANCH   7  10
TORSDOF 1
ENDMDL
MODEL 7
REMARK VINA RESULT:       3.2      2.635      4.697
REMARK  1 active torsions:
REMARK  status: ('A' for Active; 'I' for Inactive)
REMARK    1  A    between atoms: C3_3  and  C8_8 
ROOT
HETATM    1  C1  UNL     1     -34.136   4.949   4.143  1.00 20.00    -0.079 C 
HETATM    2  C2  UNL     1     -34.167   3.617   4.225  1.00 20.00    -0.028 C 
HETATM    3  C4  UNL     1     -32.936   5.829   4.388  1.00 20.00     0.039 C 
HETATM    4  C5  UNL     1     -35.093   6.412   2.412  1.00 20.00     0.023 C 
HETATM    5  C6  UNL     1     -34.941   7.068   4.700  1.00 20.00     0.014 C 
HETATM    6  C7  UNL     1     -35.302   5.860   3.833  1.00 20.00     0.015 C 
HETATM    7  C8  UNL     1     -33.906   7.382   2.591  1.00 20.00     0.077 C 
HETATM    8  C9  UNL     1     -33.542   7.217   4.087  1.00 20.00     0.003 C 
HETATM    9  C10 UNL     1     -32.980   2.770   4.547  1.00 20.00     0.036 C 
ENDROOT
BRANCH   7  10
HETATM   10  C3  UNL     1     -32.768   7.103   1.662  1.00 20.00     0.223 C 
HETATM   11  O11 UNL     1     -32.424   5.957   1.387  1.00 20.00    -0.279 OA
HETATM   12 CL12 UNL     1     -32.042   8.562   1.061  1.00 20.00    -0.043 Cl
ENDBRANCH   7  10
TORSDOF 1
ENDMDL
MODEL 8
REMARK VINA RESULT:       3.3      2.907      4.174
REMARK  1 active torsions:
REMARK  status: ('A' for Active; 'I' for Inactive)
REMARK    1  A    between atoms: C3_3  and  C8_8 
ROOT
HETATM    1  C1  UNL     1     -32.631   6.675   1.873  1.00 20.00    -0.079 C 
HETATM    2  C2  UNL     1     -33.147   5.490   1.540  1.00 20.00    -0.028 C 
HETATM    3  C4  UNL     1     -31.304   7.228   1.418  1.00 20.00     0.039 C 
HETATM    4  C5  UNL     1     -33.735   8.873   1.953  1.00 20.00     0.023 C 
HETATM    5  C6  UNL     1     -31.976   8.269   3.447  1.00 20.00     0.014 C 
HETATM    6  C7  UNL     1     -33.242   7.693   2.809  1.00 20.00     0.015 C 
HETATM    7  C8  UNL     1     -32.420   9.537   1.494  1.00 20.00     0.077 C 
HETATM    8  C9  UNL     1     -31.332   8.615   2.097  1.00 20.00     0.003 C 
HETATM    9  C10 UNL     1     -32.489   4.519   0.615  1.00 20.00     0.036 C 
ENDROOT
BRANCH   7  10
HETATM   10  C3  UNL     1     -32.320   9.691   0.010  1.00 20.00     0.223 C 
HETATM   11  O11 UNL     1     -33.253  10.126  -0.659  1.00 20.00    -0.279 OA
HETATM   12 CL12 UNL     1     -30.771   9.190  -0.596  1.00 20.00    -0.043 Cl
ENDBRANCH   7  10
TORSDOF 1
ENDMDL
MODEL 9
REMARK VINA RESULT:       3.5      1.536      3.078
REMARK  1 active torsions:
REMARK  status: ('A' for Active; 'I' for Inactive)
REMARK    1  A    between atoms: C3_3  and  C8_8 
ROOT
HETATM    1  C1  UNL     1     -32.028   6.313   1.529  1.00 20.00    -0.079 C 
HETATM    2  C2  UNL     1     -31.186   5.336   1.188  1.00 20.00    -0.028 C 
HETATM    3  C4  UNL     1     -33.453   6.466   1.059  1.00 20.00     0.039 C 
HETATM    4  C5  UNL     1     -32.459   7.274   3.754  1.00 20.00     0.023 C 
HETATM    5  C6  UNL     1     -32.587   8.568   1.753  1.00 20.00     0.014 C 
HETATM    6  C7  UNL     1     -31.723   7.496   2.420  1.00 20.00     0.015 C 
HETATM    7  C8  UNL     1     -33.938   7.478   3.367  1.00 20.00     0.077 C 
HETATM    8  C9  UNL     1     -33.870   7.731   1.840  1.00 20.00     0.003 C 
HETATM    9  C10 UNL     1     -31.543   4.196   0.293  1.00 20.00     0.036 C 
ENDROOT
BRANCH   7  10
HETATM   10  C3  UNL     1     -34.813   6.326   3.745  1.00 20.00     0.223 C 
HETATM   11  O11 UNL     1     -36.034   6.437   3.817  1.00 20.00    -0.279 OA
HETATM   12 CL12 UNL     1     -33.897   4.881   4.050  1.00 20.00    -0.043 Cl
ENDBRANCH   7  10
TORSDOF 1
ENDMDL
