MODEL 1
REMARK VINA RESULT:       0.9      0.000      0.000
REMARK  1 active torsions:
REMARK  status: ('A' for Active; 'I' for Inactive)
REMARK    1  A    between atoms: C9_9  and  O10_10 
ROOT
HETATM    1  C1  UNL     1     -35.164   5.547   4.295  1.00 20.00     0.012 C 
HETATM    2  C2  UNL     1     -34.616   6.521   3.857  1.00 20.00    -0.112 C 
HETATM    3  C3  UNL     1     -31.532   6.654   1.953  1.00 20.00     0.007 C 
HETATM    4  C4  UNL     1     -32.934   6.401   1.381  1.00 20.00     0.009 C 
HETATM    5  C5  UNL     1     -32.521   7.911   3.877  1.00 20.00     0.024 C 
HETATM    6  C6  UNL     1     -33.948   7.711   3.322  1.00 20.00     0.071 C 
HETATM    7  C7  UNL     1     -31.671   8.046   2.598  1.00 20.00     0.016 C 
HETATM    8  C8  UNL     1     -33.713   7.669   1.795  1.00 20.00     0.030 C 
HETATM    9  C9  UNL     1     -32.642   8.760   1.653  1.00 20.00     0.127 C 
ENDROOT
BRANCH   9  10
HETATM   10  O10 UNL     1     -32.136   8.896   0.342  1.00 20.00    -0.395 OA
HETATM   11  H22 UNL     1     -31.277   8.439   0.314  1.00 20.00     0.210 HD
ENDBRANCH   9  10
TORSDOF 1
ENDMDL
MODEL 2
REMARK VINA RESULT:       1.3      2.139      3.653
REMARK  1 active torsions:
REMARK  status: ('A' for Active; 'I' for Inactive)
REMARK    1  A    between atoms: C9_9  and  O10_10 
ROOT
HETATM    1  C1  UNL     1     -32.305   9.205   0.571  1.00 20.00     0.012 C 
HETATM    2  C2  UNL     1     -32.342   8.437   1.492  1.00 20.00    -0.112 C 
HETATM    3  C3  UNL     1     -35.261   6.791   2.880  1.00 20.00     0.007 C 
HETATM    4  C4  UNL     1     -34.439   6.305   1.678  1.00 20.00     0.009 C 
HETATM    5  C5  UNL     1     -33.263   7.990   3.789  1.00 20.00     0.024 C 
HETATM    6  C6  UNL     1     -32.387   7.498   2.617  1.00 20.00     0.071 C 
HETATM    7  C7  UNL     1     -34.226   6.808   4.020  1.00 20.00     0.016 C 
HETATM    8  C8  UNL     1     -33.023   6.131   2.273  1.00 20.00     0.030 C 
HETATM    9  C9  UNL     1     -33.333   5.611   3.683  1.00 20.00     0.127 C 
ENDROOT
BRANCH   9  10
HETATM   10  O10 UNL     1     -34.029   4.382   3.698  1.00 20.00    -0.395 OA
HETATM   11  H22 UNL     1     -34.613   4.371   2.919  1.00 20.00     0.210 HD
ENDBRANCH   9  10
TORSDOF 1
ENDMDL
MODEL 3
REMARK VINA RESULT:       1.5      1.014      1.094
REMARK  1 active torsions:
REMARK  status: ('A' for Active; 'I' for Inactive)
REMARK    1  A    between atoms: C9_9  and  O10_10 
ROOT
HETATM    1  C1  UNL     1     -33.886   4.154   3.930  1.00 20.00     0.012 C 
HETATM    2  C2  UNL     1     -33.944   5.270   3.493  1.00 20.00    -0.112 C 
HETATM    3  C3  UNL     1     -31.184   7.384   2.458  1.00 20.00     0.007 C 
HETATM    4  C4  UNL     1     -31.881   6.324   1.593  1.00 20.00     0.009 C 
HETATM    5  C5  UNL     1     -33.262   7.668   3.821  1.00 20.00     0.024 C 
HETATM    6  C6  UNL     1     -34.015   6.633   2.958  1.00 20.00     0.071 C 
HETATM    7  C7  UNL     1     -32.330   8.353   2.802  1.00 20.00     0.016 C 
HETATM    8  C8  UNL     1     -33.350   6.803   1.572  1.00 20.00     0.030 C 
HETATM    9  C9  UNL     1     -33.186   8.329   1.533  1.00 20.00     0.127 C 
ENDROOT
BRANCH   9  10
HETATM   10  O10 UNL     1     -32.497   8.799   0.393  1.00 20.00    -0.395 OA
HETATM   11  H22 UNL     1     -32.736   9.736   0.278  1.00 20.00     0.210 HD
ENDBRANCH   9  10
TORSDOF 1
ENDMDL
MODEL 4
REMARK VINA RESULT:       2.5      1.943      3.554
REMARK  1 active torsions:
REMARK  status: ('A' for Active; 'I' for Inactive)
REMARK    1  A    between atoms: C9_9  and  O10_10 
ROOT
HETATM    1  C1  UNL     1     -32.472  10.113   0.015  1.00 20.00     0.012 C 
HETATM    2  C2  UNL     1     -32.180   9.204   0.741  1.00 20.00    -0.112 C 
HETATM    3  C3  UNL     1     -34.433   7.005   2.542  1.00 20.00     0.007 C 
HETATM    4  C4  UNL     1     -33.974   6.830   1.088  1.00 20.00     0.009 C 
HETATM    5  C5  UNL     1     -32.342   8.273   3.071  1.00 20.00     0.024 C 
HETATM    6  C6  UNL     1     -31.823   8.093   1.628  1.00 20.00     0.071 C 
HETATM    7  C7  UNL     1     -33.108   6.960   3.327  1.00 20.00     0.016 C 
HETATM    8  C8  UNL     1     -32.437   6.735   1.216  1.00 20.00     0.030 C 
HETATM    9  C9  UNL     1     -32.276   5.953   2.528  1.00 20.00     0.127 C 
ENDROOT
BRANCH   9  10
HETATM   10  O10 UNL     1     -32.849   4.663   2.497  1.00 20.00    -0.395 OA
HETATM   11  H22 UNL     1     -33.804   4.775   2.341  1.00 20.00     0.210 HD
ENDBRANCH   9  10
TORSDOF 1
ENDMDL
MODEL 5
REMARK VINA RESULT:       2.6      1.885      2.470
REMARK  1 active torsions:
REMARK  status: ('A' for Active; 'I' for Inactive)
REMARK    1  A    between atoms: C9_9  and  O10_10 
ROOT
HETATM    1  C1  UNL     1     -33.460   8.031   5.103  1.00 20.00     0.012 C 
HETATM    2  C2  UNL     1     -33.451   7.807   3.924  1.00 20.00    -0.112 C 
HETATM    3  C3  UNL     1     -31.702   5.140   2.196  1.00 20.00     0.007 C 
HETATM    4  C4  UNL     1     -33.085   5.032   2.854  1.00 20.00     0.009 C 
HETATM    5  C5  UNL     1     -32.031   7.597   1.860  1.00 20.00     0.024 C 
HETATM    6  C6  UNL     1     -33.441   7.532   2.484  1.00 20.00     0.071 C 
HETATM    7  C7  UNL     1     -31.911   6.241   1.138  1.00 20.00     0.016 C 
HETATM    8  C8  UNL     1     -33.909   6.107   2.110  1.00 20.00     0.030 C 
HETATM    9  C9  UNL     1     -33.353   6.002   0.683  1.00 20.00     0.127 C 
ENDROOT
BRANCH   9  10
HETATM   10  O10 UNL     1     -33.542   4.735   0.089  1.00 20.00    -0.395 OA
HETATM   11  H22 UNL     1     -32.993   4.100   0.581  1.00 20.00     0.210 HD
ENDBRANCH   9  10
TORSDOF 1
ENDMDL
MODEL 6
REMARK VINA RESULT:       2.8      2.221      3.782
REMARK  1 active torsions:
REMARK  status: ('A' for Active; 'I' for Inactive)
REMARK    1  A    between atoms: C9_9  and  O10_10 
ROOT
HETATM    1  C1  UNL     1     -31.868   8.993   1.034  1.00 20.00     0.012 C 
HETATM    2  C2  UNL     1     -32.567   8.070   1.350  1.00 20.00    -0.112 C 
HETATM    3  C3  UNL     1     -33.126   6.765   4.688  1.00 20.00     0.007 C 
HETATM    4  C4  UNL     1     -33.876   7.939   4.041  1.00 20.00     0.009 C 
HETATM    5  C5  UNL     1     -32.647   5.800   2.430  1.00 20.00     0.024 C 
HETATM    6  C6  UNL     1     -33.421   6.943   1.736  1.00 20.00     0.071 C 
HETATM    7  C7  UNL     1     -33.438   5.594   3.737  1.00 20.00     0.016 C 
HETATM    8  C8  UNL     1     -34.503   7.300   2.781  1.00 20.00     0.030 C 
HETATM    9  C9  UNL     1     -34.869   5.897   3.286  1.00 20.00     0.127 C 
ENDROOT
BRANCH   9  10
HETATM   10  O10 UNL     1     -35.796   5.898   4.351  1.00 20.00    -0.395 OA
HETATM   11  H22 UNL     1     -35.532   6.607   4.964  1.00 20.00     0.210 HD
ENDBRANCH   9  10
TORSDOF 1
ENDMDL
MODEL 7
REMARK VINA RESULT:       2.8      1.610      2.767
REMARK  1 active torsions:
REMARK  status: ('A' for Active; 'I' for Inactive)
REMARK    1  A    between atoms: C9_9  and  O10_10 
ROOT
HETATM    1  C1  UNL     1     -33.471   3.314   4.837  1.00 20.00     0.012 C 
HETATM    2  C2  UNL     1     -33.831   4.205   4.119  1.00 20.00    -0.112 C 
HETATM    3  C3  UNL     1     -33.668   7.770   4.772  1.00 20.00     0.007 C 
HETATM    4  C4  UNL     1     -32.537   6.906   4.196  1.00 20.00     0.009 C 
HETATM    5  C5  UNL     1     -35.372   6.177   3.868  1.00 20.00     0.024 C 
HETATM    6  C6  UNL     1     -34.270   5.295   3.242  1.00 20.00     0.071 C 
HETATM    7  C7  UNL     1     -34.792   7.599   3.733  1.00 20.00     0.016 C 
HETATM    8  C8  UNL     1     -33.164   6.323   2.910  1.00 20.00     0.030 C 
HETATM    9  C9  UNL     1     -34.021   7.496   2.415  1.00 20.00     0.127 C 
ENDROOT
BRANCH   9  10
HETATM   10  O10 UNL     1     -33.278   8.659   2.118  1.00 20.00    -0.395 OA
HETATM   11  H22 UNL     1     -33.432   8.869   1.179  1.00 20.00     0.210 HD
ENDBRANCH   9  10
TORSDOF 1
ENDMDL
MODEL 8
REMARK VINA RESULT:       3.2      1.985      3.350
REMARK  1 active torsions:
REMARK  status: ('A' for Active; 'I' for Inactive)
REMARK    1  A    between atoms: C9_9  and  O10_10 
ROOT
HETATM    1  C1  UNL     1     -32.589   4.754   0.509  1.00 20.00     0.012 C 
HETATM    2  C2  UNL     1     -32.490   5.675   1.272  1.00 20.00    -0.112 C 
HETATM    3  C3  UNL     1     -35.143   7.286   3.149  1.00 20.00     0.007 C 
HETATM    4  C4  UNL     1     -34.378   6.024   3.572  1.00 20.00     0.009 C 
HETATM    5  C5  UNL     1     -33.189   8.037   1.779  1.00 20.00     0.024 C 
HETATM    6  C6  UNL     1     -32.368   6.801   2.204  1.00 20.00     0.071 C 
HETATM    7  C7  UNL     1     -34.028   8.342   3.036  1.00 20.00     0.016 C 
HETATM    8  C8  UNL     1     -32.910   6.507   3.622  1.00 20.00     0.030 C 
HETATM    9  C9  UNL     1     -33.065   7.937   4.157  1.00 20.00     0.127 C 
ENDROOT
BRANCH   9  10
HETATM   10  O10 UNL     1     -33.651   8.006   5.439  1.00 20.00    -0.395 OA
HETATM   11  H22 UNL     1     -34.082   8.877   5.514  1.00 20.00     0.210 HD
ENDBRANCH   9  10
TORSDOF 1
ENDMDL
MODEL 9
REMARK VINA RESULT:       3.2      1.111      1.701
REMARK  1 active torsions:
REMARK  status: ('A' for Active; 'I' for Inactive)
REMARK    1  A    between atoms: C9_9  and  O10_10 
ROOT
HETATM    1  C1  UNL     1     -35.770   6.121   4.097  1.00 20.00     0.012 C 
HETATM    2  C2  UNL     1     -34.632   6.334   3.783  1.00 20.00    -0.112 C 
HETATM    3  C3  UNL     1     -33.094   5.783   0.544  1.00 20.00     0.007 C 
HETATM    4  C4  UNL     1     -33.882   7.032   0.967  1.00 20.00     0.009 C 
HETATM    5  C5  UNL     1     -32.490   5.330   2.929  1.00 20.00     0.024 C 
HETATM    6  C6  UNL     1     -33.241   6.595   3.399  1.00 20.00     0.071 C 
HETATM    7  C7  UNL     1     -31.933   5.752   1.555  1.00 20.00     0.016 C 
HETATM    8  C8  UNL     1     -33.088   7.546   2.189  1.00 20.00     0.030 C 
HETATM    9  C9  UNL     1     -31.641   7.238   1.781  1.00 20.00     0.127 C 
ENDROOT
BRANCH   9  10
HETATM   10  O10 UNL     1     -31.226   7.904   0.607  1.00 20.00    -0.395 OA
HETATM   11  H22 UNL     1     -31.806   8.677   0.492  1.00 20.00     0.210 HD
ENDBRANCH   9  10
TORSDOF 1
ENDMDL
