MODEL 1
REMARK VINA RESULT:      -1.2      0.000      0.000
REMARK  1 active torsions:
REMARK  status: ('A' for Active; 'I' for Inactive)
REMARK    1  A    between atoms: C1_1  and  C6_6 
ROOT
HETATM    1  C2  UNL     1     -35.391   6.208   4.036  1.00 20.00     0.002 C 
HETATM    2  C3  UNL     1     -34.271   6.972   3.335  1.00 20.00     0.013 C 
HETATM    3  C4  UNL     1     -34.863   4.972   4.761  1.00 20.00     0.020 C 
HETATM    4  C5  UNL     1     -32.942   4.829   3.123  1.00 20.00     0.033 C 
HETATM    5  C6  UNL     1     -33.474   6.067   2.394  1.00 20.00     0.073 C 
HETATM    6  C7  UNL     1     -34.074   4.068   3.814  1.00 20.00     0.083 C 
HETATM    7 CL10 UNL     1     -33.408   2.677   4.714  1.00 20.00    -0.125 Cl
ENDROOT
BRANCH   5   8
HETATM    8  C1  UNL     1     -32.336   6.843   1.808  1.00 20.00     0.223 C 
HETATM    9  O8  UNL     1     -31.497   6.313   1.085  1.00 20.00    -0.279 OA
HETATM   10 CL9  UNL     1     -32.375   8.515   2.277  1.00 20.00    -0.043 Cl
ENDBRANCH   5   8
TORSDOF 1
ENDMDL
MODEL 2
REMARK VINA RESULT:      -0.4      2.914      3.804
REMARK  1 active torsions:
REMARK  status: ('A' for Active; 'I' for Inactive)
REMARK    1  A    between atoms: C1_1  and  C6_6 
ROOT
HETATM    1  C2  UNL     1     -32.390   8.095   2.674  1.00 20.00     0.002 C 
HETATM    2  C3  UNL     1     -33.770   7.699   3.194  1.00 20.00     0.013 C 
HETATM    3  C4  UNL     1     -31.979   7.253   1.469  1.00 20.00     0.020 C 
HETATM    4  C5  UNL     1     -33.439   5.359   2.292  1.00 20.00     0.033 C 
HETATM    5  C6  UNL     1     -33.848   6.203   3.502  1.00 20.00     0.073 C 
HETATM    6  C7  UNL     1     -32.052   5.758   1.785  1.00 20.00     0.083 C 
HETATM    7 CL10 UNL     1     -31.640   4.807   0.331  1.00 20.00    -0.125 Cl
ENDROOT
BRANCH   5   8
HETATM    8  C1  UNL     1     -35.244   5.857   3.917  1.00 20.00     0.223 C 
HETATM    9  O8  UNL     1     -35.475   4.955   4.717  1.00 20.00    -0.279 OA
HETATM   10 CL9  UNL     1     -36.426   6.867   3.141  1.00 20.00    -0.043 Cl
ENDBRANCH   5   8
TORSDOF 1
ENDMDL
MODEL 3
REMARK VINA RESULT:      -0.4      2.473      3.298
REMARK  1 active torsions:
REMARK  status: ('A' for Active; 'I' for Inactive)
REMARK    1  A    between atoms: C1_1  and  C6_6 
ROOT
HETATM    1  C2  UNL     1     -32.091   5.418   1.734  1.00 20.00     0.002 C 
HETATM    2  C3  UNL     1     -31.940   6.702   0.923  1.00 20.00     0.013 C 
HETATM    3  C4  UNL     1     -33.438   5.360   2.452  1.00 20.00     0.020 C 
HETATM    4  C5  UNL     1     -33.521   7.887   2.503  1.00 20.00     0.033 C 
HETATM    5  C6  UNL     1     -32.169   7.944   1.786  1.00 20.00     0.073 C 
HETATM    6  C7  UNL     1     -33.658   6.600   3.318  1.00 20.00     0.083 C 
HETATM    7 CL10 UNL     1     -35.273   6.532   4.078  1.00 20.00    -0.125 Cl
ENDROOT
BRANCH   5   8
HETATM    8  C1  UNL     1     -32.101   9.165   0.922  1.00 20.00     0.223 C 
HETATM    9  O8  UNL     1     -32.807  10.146   1.135  1.00 20.00    -0.279 OA
HETATM   10 CL9  UNL     1     -30.937   8.997  -0.357  1.00 20.00    -0.043 Cl
ENDBRANCH   5   8
TORSDOF 1
ENDMDL
MODEL 4
REMARK VINA RESULT:      -0.4      2.097      4.387
REMARK  1 active torsions:
REMARK  status: ('A' for Active; 'I' for Inactive)
REMARK    1  A    between atoms: C1_1  and  C6_6 
ROOT
HETATM    1  C2  UNL     1     -32.641   6.165   1.081  1.00 20.00     0.002 C 
HETATM    2  C3  UNL     1     -33.313   5.212   2.066  1.00 20.00     0.013 C 
HETATM    3  C4  UNL     1     -31.807   7.224   1.801  1.00 20.00     0.020 C 
HETATM    4  C5  UNL     1     -33.305   7.027   3.829  1.00 20.00     0.033 C 
HETATM    5  C6  UNL     1     -34.142   5.968   3.106  1.00 20.00     0.073 C 
HETATM    6  C7  UNL     1     -32.644   7.981   2.833  1.00 20.00     0.083 C 
HETATM    7 CL10 UNL     1     -31.617   9.153   3.706  1.00 20.00    -0.125 Cl
ENDROOT
BRANCH   5   8
HETATM    8  C1  UNL     1     -34.699   4.993   4.097  1.00 20.00     0.223 C 
HETATM    9  O8  UNL     1     -35.759   5.200   4.680  1.00 20.00    -0.279 OA
HETATM   10 CL9  UNL     1     -33.677   3.601   4.289  1.00 20.00    -0.043 Cl
ENDBRANCH   5   8
TORSDOF 1
ENDMDL
MODEL 5
REMARK VINA RESULT:      -0.0      2.660      4.367
REMARK  1 active torsions:
REMARK  status: ('A' for Active; 'I' for Inactive)
REMARK    1  A    between atoms: C1_1  and  C6_6 
ROOT
HETATM    1  C2  UNL     1     -32.463   5.213   1.348  1.00 20.00     0.002 C 
HETATM    2  C3  UNL     1     -33.202   5.324   2.679  1.00 20.00     0.013 C 
HETATM    3  C4  UNL     1     -31.604   6.446   1.076  1.00 20.00     0.020 C 
HETATM    4  C5  UNL     1     -33.164   7.847   2.490  1.00 20.00     0.033 C 
HETATM    5  C6  UNL     1     -34.026   6.610   2.760  1.00 20.00     0.073 C 
HETATM    6  C7  UNL     1     -32.435   7.728   1.151  1.00 20.00     0.083 C 
HETATM    7 CL10 UNL     1     -31.383   9.150   0.904  1.00 20.00    -0.125 Cl
ENDROOT
BRANCH   5   8
HETATM    8  C1  UNL     1     -34.652   6.711   4.117  1.00 20.00     0.223 C 
HETATM    9  O8  UNL     1     -35.557   5.959   4.468  1.00 20.00    -0.279 OA
HETATM   10 CL9  UNL     1     -33.947   7.981   5.069  1.00 20.00    -0.043 Cl
ENDBRANCH   5   8
TORSDOF 1
ENDMDL
MODEL 6
REMARK VINA RESULT:       0.1      2.300      4.547
REMARK  1 active torsions:
REMARK  status: ('A' for Active; 'I' for Inactive)
REMARK    1  A    between atoms: C1_1  and  C6_6 
ROOT
HETATM    1  C2  UNL     1     -32.407   5.352   1.305  1.00 20.00     0.002 C 
HETATM    2  C3  UNL     1     -33.098   5.465   2.662  1.00 20.00     0.013 C 
HETATM    3  C4  UNL     1     -31.594   6.603   0.980  1.00 20.00     0.020 C 
HETATM    4  C5  UNL     1     -33.137   7.984   2.432  1.00 20.00     0.033 C 
HETATM    5  C6  UNL     1     -33.953   6.729   2.755  1.00 20.00     0.073 C 
HETATM    6  C7  UNL     1     -32.457   7.863   1.068  1.00 20.00     0.083 C 
HETATM    7 CL10 UNL     1     -31.455   9.309   0.759  1.00 20.00    -0.125 Cl
ENDROOT
BRANCH   5   8
HETATM    8  C1  UNL     1     -34.529   6.835   4.133  1.00 20.00     0.223 C 
HETATM    9  O8  UNL     1     -34.272   7.784   4.868  1.00 20.00    -0.279 OA
HETATM   10 CL9  UNL     1     -35.558   5.489   4.517  1.00 20.00    -0.043 Cl
ENDBRANCH   5   8
TORSDOF 1
ENDMDL
MODEL 7
REMARK VINA RESULT:       0.3      1.986      2.378
REMARK  1 active torsions:
REMARK  status: ('A' for Active; 'I' for Inactive)
REMARK    1  A    between atoms: C1_1  and  C6_6 
ROOT
HETATM    1  C2  UNL     1     -33.498   8.583   4.595  1.00 20.00     0.002 C 
HETATM    2  C3  UNL     1     -32.457   8.292   3.517  1.00 20.00     0.013 C 
HETATM    3  C4  UNL     1     -34.186   7.307   5.074  1.00 20.00     0.020 C 
HETATM    4  C5  UNL     1     -33.745   6.225   2.832  1.00 20.00     0.033 C 
HETATM    5  C6  UNL     1     -33.058   7.506   2.351  1.00 20.00     0.073 C 
HETATM    6  C7  UNL     1     -34.791   6.530   3.905  1.00 20.00     0.083 C 
HETATM    7 CL10 UNL     1     -35.516   5.008   4.495  1.00 20.00    -0.125 Cl
ENDROOT
BRANCH   5   8
HETATM    8  C1  UNL     1     -31.976   7.169   1.373  1.00 20.00     0.223 C 
HETATM    9  O8  UNL     1     -31.290   8.038   0.844  1.00 20.00    -0.279 OA
HETATM   10 CL9  UNL     1     -31.843   5.457   1.110  1.00 20.00    -0.043 Cl
ENDBRANCH   5   8
TORSDOF 1
ENDMDL
MODEL 8
REMARK VINA RESULT:       0.4      2.374      3.040
REMARK  1 active torsions:
REMARK  status: ('A' for Active; 'I' for Inactive)
REMARK    1  A    between atoms: C1_1  and  C6_6 
ROOT
HETATM    1  C2  UNL     1     -32.613   8.278   2.673  1.00 20.00     0.002 C 
HETATM    2  C3  UNL     1     -31.939   7.138   1.915  1.00 20.00     0.013 C 
HETATM    3  C4  UNL     1     -33.475   7.759   3.822  1.00 20.00     0.020 C 
HETATM    4  C5  UNL     1     -33.819   5.582   2.582  1.00 20.00     0.033 C 
HETATM    5  C6  UNL     1     -32.957   6.105   1.429  1.00 20.00     0.073 C 
HETATM    6  C7  UNL     1     -34.496   6.732   3.329  1.00 20.00     0.083 C 
HETATM    7 CL10 UNL     1     -35.431   6.092   4.710  1.00 20.00    -0.125 Cl
ENDROOT
BRANCH   5   8
HETATM    8  C1  UNL     1     -32.234   4.968   0.777  1.00 20.00     0.223 C 
HETATM    9  O8  UNL     1     -31.060   4.716   1.035  1.00 20.00    -0.279 OA
HETATM   10 CL9  UNL     1     -33.245   4.104  -0.341  1.00 20.00    -0.043 Cl
ENDBRANCH   5   8
TORSDOF 1
ENDMDL
MODEL 9
REMARK VINA RESULT:       0.8      2.323      4.408
REMARK  1 active torsions:
REMARK  status: ('A' for Active; 'I' for Inactive)
REMARK    1  A    between atoms: C1_1  and  C6_6 
ROOT
HETATM    1  C2  UNL     1     -32.237   8.708   4.344  1.00 20.00     0.002 C 
HETATM    2  C3  UNL     1     -33.456   7.812   4.543  1.00 20.00     0.013 C 
HETATM    3  C4  UNL     1     -32.064   9.108   2.880  1.00 20.00     0.020 C 
HETATM    4  C5  UNL     1     -33.240   6.989   2.160  1.00 20.00     0.033 C 
HETATM    5  C6  UNL     1     -33.410   6.587   3.628  1.00 20.00     0.073 C 
HETATM    6  C7  UNL     1     -32.011   7.880   1.972  1.00 20.00     0.083 C 
HETATM    7 CL10 UNL     1     -31.887   8.390   0.265  1.00 20.00    -0.125 Cl
ENDROOT
BRANCH   5   8
HETATM    8  C1  UNL     1     -34.670   5.796   3.798  1.00 20.00     0.223 C 
HETATM    9  O8  UNL     1     -35.777   6.316   3.693  1.00 20.00    -0.279 OA
HETATM   10 CL9  UNL     1     -34.351   4.124   4.147  1.00 20.00    -0.043 Cl
ENDBRANCH   5   8
TORSDOF 1
ENDMDL
