MODEL 1
REMARK VINA RESULT:      -2.4      0.000      0.000
REMARK  1 active torsions:
REMARK  status: ('A' for Active; 'I' for Inactive)
REMARK    1  A    between atoms: C8_8  and  C9_9 
ROOT
HETATM    1  C1  UNL     1     -32.399   9.847   0.483  1.00 20.00     0.218 C 
HETATM    2  C8  UNL     1     -32.547   8.563   0.634  1.00 20.00     0.044 C 
HETATM    3  O10 UNL     1     -32.266  11.007   0.348  1.00 20.00    -0.284 OA
ENDROOT
BRANCH   2   4
HETATM    4  C9  UNL     1     -31.953   7.756   1.751  1.00 20.00     0.057 C 
HETATM    5  C6  UNL     1     -32.175   8.424   3.084  1.00 20.00    -0.014 C 
HETATM    6  C4  UNL     1     -33.105   8.183   4.018  1.00 20.00    -0.003 C 
HETATM    7  C2  UNL     1     -34.197   7.247   3.949  1.00 20.00    -0.000 C 
HETATM    8  C3  UNL     1     -34.284   6.144   3.197  1.00 20.00    -0.000 C 
HETATM    9  C5  UNL     1     -33.305   5.625   2.277  1.00 20.00    -0.003 C 
HETATM   10  C7  UNL     1     -32.340   6.304   1.642  1.00 20.00    -0.014 C 
ENDBRANCH   2   4
TORSDOF 1
ENDMDL
MODEL 2
REMARK VINA RESULT:      -1.7      3.472      4.848
REMARK  1 active torsions:
REMARK  status: ('A' for Active; 'I' for Inactive)
REMARK    1  A    between atoms: C8_8  and  C9_9 
ROOT
HETATM    1  C1  UNL     1     -33.484   3.095   4.423  1.00 20.00     0.218 C 
HETATM    2  C8  UNL     1     -33.461   4.394   4.355  1.00 20.00     0.044 C 
HETATM    3  O10 UNL     1     -33.505   1.921   4.484  1.00 20.00    -0.284 OA
ENDROOT
BRANCH   2   4
HETATM    4  C9  UNL     1     -34.191   5.213   3.332  1.00 20.00     0.057 C 
HETATM    5  C6  UNL     1     -34.699   6.502   3.926  1.00 20.00    -0.014 C 
HETATM    6  C4  UNL     1     -34.177   7.734   3.871  1.00 20.00    -0.003 C 
HETATM    7  C2  UNL     1     -32.929   8.134   3.273  1.00 20.00    -0.000 C 
HETATM    8  C3  UNL     1     -32.254   7.516   2.296  1.00 20.00    -0.000 C 
HETATM    9  C5  UNL     1     -32.612   6.302   1.608  1.00 20.00    -0.003 C 
HETATM   10  C7  UNL     1     -33.404   5.315   2.051  1.00 20.00    -0.014 C 
ENDBRANCH   2   4
TORSDOF 1
ENDMDL
MODEL 3
REMARK VINA RESULT:      -1.2      3.124      4.454
REMARK  1 active torsions:
REMARK  status: ('A' for Active; 'I' for Inactive)
REMARK    1  A    between atoms: C8_8  and  C9_9 
ROOT
HETATM    1  C1  UNL     1     -33.508   3.736   4.054  1.00 20.00     0.218 C 
HETATM    2  C8  UNL     1     -33.058   4.483   3.089  1.00 20.00     0.044 C 
HETATM    3  O10 UNL     1     -33.915   3.062   4.927  1.00 20.00    -0.284 OA
ENDROOT
BRANCH   2   4
HETATM    4  C9  UNL     1     -33.781   5.664   2.509  1.00 20.00     0.057 C 
HETATM    5  C6  UNL     1     -34.517   6.431   3.577  1.00 20.00    -0.014 C 
HETATM    6  C4  UNL     1     -34.163   7.548   4.226  1.00 20.00    -0.003 C 
HETATM    7  C2  UNL     1     -32.924   8.275   4.112  1.00 20.00    -0.000 C 
HETATM    8  C3  UNL     1     -32.074   8.287   3.079  1.00 20.00    -0.000 C 
HETATM    9  C5  UNL     1     -32.192   7.578   1.831  1.00 20.00    -0.003 C 
HETATM   10  C7  UNL     1     -32.885   6.456   1.592  1.00 20.00    -0.014 C 
ENDBRANCH   2   4
TORSDOF 1
ENDMDL
MODEL 4
REMARK VINA RESULT:       0.3      2.155      3.366
REMARK  1 active torsions:
REMARK  status: ('A' for Active; 'I' for Inactive)
REMARK    1  A    between atoms: C8_8  and  C9_9 
ROOT
HETATM    1  C1  UNL     1     -32.412   8.373   3.762  1.00 20.00     0.218 C 
HETATM    2  C8  UNL     1     -33.573   7.895   4.103  1.00 20.00     0.044 C 
HETATM    3  O10 UNL     1     -31.362   8.804   3.454  1.00 20.00    -0.284 OA
ENDROOT
BRANCH   2   4
HETATM    4  C9  UNL     1     -34.396   6.960   3.265  1.00 20.00     0.057 C 
HETATM    5  C6  UNL     1     -33.537   6.214   2.277  1.00 20.00    -0.014 C 
HETATM    6  C4  UNL     1     -33.033   4.974   2.346  1.00 20.00    -0.003 C 
HETATM    7  C2  UNL     1     -33.132   4.046   3.442  1.00 20.00    -0.000 C 
HETATM    8  C3  UNL     1     -34.064   4.008   4.402  1.00 20.00    -0.000 C 
HETATM    9  C5  UNL     1     -35.194   4.884   4.568  1.00 20.00    -0.003 C 
HETATM   10  C7  UNL     1     -35.328   6.140   4.118  1.00 20.00    -0.014 C 
ENDBRANCH   2   4
TORSDOF 1
ENDMDL
MODEL 5
REMARK VINA RESULT:       0.4      2.832      3.511
REMARK  1 active torsions:
REMARK  status: ('A' for Active; 'I' for Inactive)
REMARK    1  A    between atoms: C8_8  and  C9_9 
ROOT
HETATM    1  C1  UNL     1     -33.874   4.462  -0.277  1.00 20.00     0.218 C 
HETATM    2  C8  UNL     1     -33.528   5.548   0.351  1.00 20.00     0.044 C 
HETATM    3  O10 UNL     1     -34.187   3.481  -0.845  1.00 20.00    -0.284 OA
ENDROOT
BRANCH   2   4
HETATM    4  C9  UNL     1     -32.735   5.586   1.625  1.00 20.00     0.057 C 
HETATM    5  C6  UNL     1     -32.249   6.981   1.922  1.00 20.00    -0.014 C 
HETATM    6  C4  UNL     1     -32.755   7.907   2.748  1.00 20.00    -0.003 C 
HETATM    7  C2  UNL     1     -33.964   7.823   3.526  1.00 20.00    -0.000 C 
HETATM    8  C3  UNL     1     -34.589   6.718   3.949  1.00 20.00    -0.000 C 
HETATM    9  C5  UNL     1     -34.205   5.348   3.729  1.00 20.00    -0.003 C 
HETATM   10  C7  UNL     1     -33.449   4.860   2.735  1.00 20.00    -0.014 C 
ENDBRANCH   2   4
TORSDOF 1
ENDMDL
MODEL 6
REMARK VINA RESULT:       0.4      2.898      3.278
REMARK  1 active torsions:
REMARK  status: ('A' for Active; 'I' for Inactive)
REMARK    1  A    between atoms: C8_8  and  C9_9 
ROOT
HETATM    1  C1  UNL     1     -33.422   4.887   0.201  1.00 20.00     0.218 C 
HETATM    2  C8  UNL     1     -33.213   5.959   0.909  1.00 20.00     0.044 C 
HETATM    3  O10 UNL     1     -33.610   3.919  -0.438  1.00 20.00    -0.284 OA
ENDROOT
BRANCH   2   4
HETATM    4  C9  UNL     1     -32.742   5.968   2.334  1.00 20.00     0.057 C 
HETATM    5  C6  UNL     1     -33.108   7.259   3.021  1.00 20.00    -0.014 C 
HETATM    6  C4  UNL     1     -34.132   7.533   3.840  1.00 20.00    -0.003 C 
HETATM    7  C2  UNL     1     -35.209   6.656   4.222  1.00 20.00    -0.000 C 
HETATM    8  C3  UNL     1     -35.212   5.318   4.231  1.00 20.00    -0.000 C 
HETATM    9  C5  UNL     1     -34.140   4.432   3.862  1.00 20.00    -0.003 C 
HETATM   10  C7  UNL     1     -33.112   4.689   3.040  1.00 20.00    -0.014 C 
ENDBRANCH   2   4
TORSDOF 1
ENDMDL
MODEL 7
REMARK VINA RESULT:       0.4      2.480      3.575
REMARK  1 active torsions:
REMARK  status: ('A' for Active; 'I' for Inactive)
REMARK    1  A    between atoms: C8_8  and  C9_9 
ROOT
HETATM    1  C1  UNL     1     -31.665   4.633   0.783  1.00 20.00     0.218 C 
HETATM    2  C8  UNL     1     -32.150   5.300   1.789  1.00 20.00     0.044 C 
HETATM    3  O10 UNL     1     -31.228   4.031  -0.127  1.00 20.00    -0.284 OA
ENDROOT
BRANCH   2   4
HETATM    4  C9  UNL     1     -33.041   6.501   1.674  1.00 20.00     0.057 C 
HETATM    5  C6  UNL     1     -34.296   6.330   2.491  1.00 20.00    -0.014 C 
HETATM    6  C4  UNL     1     -34.595   6.796   3.711  1.00 20.00    -0.003 C 
HETATM    7  C2  UNL     1     -33.740   7.540   4.599  1.00 20.00    -0.000 C 
HETATM    8  C3  UNL     1     -32.682   8.294   4.278  1.00 20.00    -0.000 C 
HETATM    9  C5  UNL     1     -32.143   8.544   2.966  1.00 20.00    -0.003 C 
HETATM   10  C7  UNL     1     -32.266   7.778   1.872  1.00 20.00    -0.014 C 
ENDBRANCH   2   4
TORSDOF 1
ENDMDL
