MODEL 1
REMARK VINA RESULT:       0.6      0.000      0.000
REMARK  1 active torsions:
REMARK  status: ('A' for Active; 'I' for Inactive)
REMARK    1  A    between atoms: C7_7  and  O11_11 
ROOT
HETATM    1  C1  UNL     1     -32.543   9.432   0.557  1.00 20.00    -0.029 C 
HETATM    2  C2  UNL     1     -32.111   6.292   1.098  1.00 20.00    -0.022 C 
HETATM    3  C3  UNL     1     -33.097   5.990   1.948  1.00 20.00     0.002 C 
HETATM    4  C4  UNL     1     -33.091   9.216   1.757  1.00 20.00    -0.018 C 
HETATM    5  C5  UNL     1     -31.340   8.578   0.329  1.00 20.00     0.036 C 
HETATM    6  C6  UNL     1     -31.400   7.562   1.479  1.00 20.00     0.026 C 
HETATM    7  C7  UNL     1     -33.192   6.985   3.059  1.00 20.00     0.155 C 
HETATM    8  C8  UNL     1     -32.341   8.174   2.554  1.00 20.00     0.010 C 
HETATM    9  C9  UNL     1     -31.580   8.850   3.696  1.00 20.00     0.023 C 
ENDROOT
BRANCH   7  10
HETATM   10  O11 UNL     1     -34.533   7.361   3.317  1.00 20.00    -0.386 OA
HETATM   11  C10 UNL     1     -35.249   6.332   3.990  1.00 20.00     0.202 C 
ENDBRANCH   7  10
TORSDOF 1
ENDMDL
MODEL 2
REMARK VINA RESULT:       1.0      1.739      3.049
REMARK  1 active torsions:
REMARK  status: ('A' for Active; 'I' for Inactive)
REMARK    1  A    between atoms: C7_7  and  O11_11 
ROOT
HETATM    1  C1  UNL     1     -31.272   7.310   1.764  1.00 20.00    -0.029 C 
HETATM    2  C2  UNL     1     -33.973   7.551   3.491  1.00 20.00    -0.022 C 
HETATM    3  C3  UNL     1     -34.119   6.325   4.003  1.00 20.00     0.002 C 
HETATM    4  C4  UNL     1     -31.751   6.064   1.818  1.00 20.00    -0.018 C 
HETATM    5  C5  UNL     1     -32.361   8.328   1.699  1.00 20.00     0.036 C 
HETATM    6  C6  UNL     1     -33.625   7.520   2.027  1.00 20.00     0.026 C 
HETATM    7  C7  UNL     1     -33.927   5.268   2.964  1.00 20.00     0.155 C 
HETATM    8  C8  UNL     1     -33.262   6.027   1.792  1.00 20.00     0.010 C 
HETATM    9  C9  UNL     1     -33.741   5.505   0.436  1.00 20.00     0.023 C 
ENDROOT
BRANCH   7  10
HETATM   10  O11 UNL     1     -33.121   4.204   3.437  1.00 20.00    -0.386 OA
HETATM   11  C10 UNL     1     -33.741   3.510   4.513  1.00 20.00     0.202 C 
ENDBRANCH   7  10
TORSDOF 1
ENDMDL
MODEL 3
REMARK VINA RESULT:       1.7      2.402      3.827
REMARK  1 active torsions:
REMARK  status: ('A' for Active; 'I' for Inactive)
REMARK    1  A    between atoms: C7_7  and  O11_11 
ROOT
HETATM    1  C1  UNL     1     -33.147   7.975   4.164  1.00 20.00    -0.029 C 
HETATM    2  C2  UNL     1     -35.629   5.937   4.329  1.00 20.00    -0.022 C 
HETATM    3  C3  UNL     1     -35.039   4.750   4.493  1.00 20.00     0.002 C 
HETATM    4  C4  UNL     1     -32.648   6.800   3.769  1.00 20.00    -0.018 C 
HETATM    5  C5  UNL     1     -34.564   8.156   3.731  1.00 20.00     0.036 C 
HETATM    6  C6  UNL     1     -34.972   6.756   3.250  1.00 20.00     0.026 C 
HETATM    7  C7  UNL     1     -33.911   4.557   3.532  1.00 20.00     0.155 C 
HETATM    8  C8  UNL     1     -33.651   5.981   2.988  1.00 20.00     0.010 C 
HETATM    9  C9  UNL     1     -33.257   5.959   1.510  1.00 20.00     0.023 C 
ENDROOT
BRANCH   7  10
HETATM   10  O11 UNL     1     -32.768   4.010   4.163  1.00 20.00    -0.386 OA
HETATM   11  C10 UNL     1     -33.084   2.834   4.899  1.00 20.00     0.202 C 
ENDBRANCH   7  10
TORSDOF 1
ENDMDL
MODEL 4
REMARK VINA RESULT:       1.9      1.689      3.609
REMARK  1 active torsions:
REMARK  status: ('A' for Active; 'I' for Inactive)
REMARK    1  A    between atoms: C7_7  and  O11_11 
ROOT
HETATM    1  C1  UNL     1     -35.248   7.282   3.767  1.00 20.00    -0.029 C 
HETATM    2  C2  UNL     1     -32.316   8.016   2.668  1.00 20.00    -0.022 C 
HETATM    3  C3  UNL     1     -32.255   7.364   1.503  1.00 20.00     0.002 C 
HETATM    4  C4  UNL     1     -34.928   6.271   2.954  1.00 20.00    -0.018 C 
HETATM    5  C5  UNL     1     -34.059   7.815   4.495  1.00 20.00     0.036 C 
HETATM    6  C6  UNL     1     -32.874   7.158   3.772  1.00 20.00     0.026 C 
HETATM    7  C7  UNL     1     -32.727   5.952   1.635  1.00 20.00     0.155 C 
HETATM    8  C8  UNL     1     -33.454   5.939   3.001  1.00 20.00     0.010 C 
HETATM    9  C9  UNL     1     -33.247   4.615   3.739  1.00 20.00     0.023 C 
ENDROOT
BRANCH   7  10
HETATM   10  O11 UNL     1     -33.586   5.581   0.571  1.00 20.00    -0.386 OA
HETATM   11  C10 UNL     1     -33.183   4.356  -0.028  1.00 20.00     0.202 C 
ENDBRANCH   7  10
TORSDOF 1
ENDMDL
MODEL 5
REMARK VINA RESULT:       2.4      1.638      3.349
REMARK  1 active torsions:
REMARK  status: ('A' for Active; 'I' for Inactive)
REMARK    1  A    between atoms: C7_7  and  O11_11 
ROOT
HETATM    1  C1  UNL     1     -32.326   8.355   4.528  1.00 20.00    -0.029 C 
HETATM    2  C2  UNL     1     -34.421   6.138   3.510  1.00 20.00    -0.022 C 
HETATM    3  C3  UNL     1     -33.690   5.385   2.682  1.00 20.00     0.002 C 
HETATM    4  C4  UNL     1     -31.852   7.960   3.343  1.00 20.00    -0.018 C 
HETATM    5  C5  UNL     1     -33.819   8.362   4.562  1.00 20.00     0.036 C 
HETATM    6  C6  UNL     1     -34.208   7.610   3.281  1.00 20.00     0.026 C 
HETATM    7  C7  UNL     1     -32.892   6.223   1.736  1.00 20.00     0.155 C 
HETATM    8  C8  UNL     1     -32.955   7.636   2.361  1.00 20.00     0.010 C 
HETATM    9  C9  UNL     1     -33.026   8.726   1.289  1.00 20.00     0.023 C 
ENDROOT
BRANCH   7  10
HETATM   10  O11 UNL     1     -31.561   5.754   1.611  1.00 20.00    -0.386 OA
HETATM   11  C10 UNL     1     -31.475   4.645   0.723  1.00 20.00     0.202 C 
ENDBRANCH   7  10
TORSDOF 1
ENDMDL
MODEL 6
REMARK VINA RESULT:       2.8      1.470      3.749
REMARK  1 active torsions:
REMARK  status: ('A' for Active; 'I' for Inactive)
REMARK    1  A    between atoms: C7_7  and  O11_11 
ROOT
HETATM    1  C1  UNL     1     -35.211   6.732   2.808  1.00 20.00    -0.029 C 
HETATM    2  C2  UNL     1     -32.603   8.230   3.948  1.00 20.00    -0.022 C 
HETATM    3  C3  UNL     1     -32.074   8.793   2.857  1.00 20.00     0.002 C 
HETATM    4  C4  UNL     1     -34.384   6.816   1.762  1.00 20.00    -0.018 C 
HETATM    5  C5  UNL     1     -34.474   6.529   4.091  1.00 20.00     0.036 C 
HETATM    6  C6  UNL     1     -33.012   6.801   3.709  1.00 20.00     0.026 C 
HETATM    7  C7  UNL     1     -32.006   7.830   1.717  1.00 20.00     0.155 C 
HETATM    8  C8  UNL     1     -32.933   6.675   2.162  1.00 20.00     0.010 C 
HETATM    9  C9  UNL     1     -32.402   5.315   1.702  1.00 20.00     0.023 C 
ENDROOT
BRANCH   7  10
HETATM   10  O11 UNL     1     -32.436   8.420   0.502  1.00 20.00    -0.386 OA
HETATM   11  C10 UNL     1     -32.386   9.841   0.560  1.00 20.00     0.202 C 
ENDBRANCH   7  10
TORSDOF 1
ENDMDL
MODEL 7
REMARK VINA RESULT:       3.1      1.590      3.541
REMARK  1 active torsions:
REMARK  status: ('A' for Active; 'I' for Inactive)
REMARK    1  A    between atoms: C7_7  and  O11_11 
ROOT
HETATM    1  C1  UNL     1     -33.217   4.494   3.233  1.00 20.00    -0.029 C 
HETATM    2  C2  UNL     1     -32.382   7.343   1.997  1.00 20.00    -0.022 C 
HETATM    3  C3  UNL     1     -32.497   8.173   3.039  1.00 20.00     0.002 C 
HETATM    4  C4  UNL     1     -33.828   5.393   4.010  1.00 20.00    -0.018 C 
HETATM    5  C5  UNL     1     -33.150   4.937   1.809  1.00 20.00     0.036 C 
HETATM    6  C6  UNL     1     -33.561   6.416   1.875  1.00 20.00     0.026 C 
HETATM    7  C7  UNL     1     -33.784   7.966   3.769  1.00 20.00     0.155 C 
HETATM    8  C8  UNL     1     -34.290   6.606   3.235  1.00 20.00     0.010 C 
HETATM    9  C9  UNL     1     -35.814   6.582   3.101  1.00 20.00     0.023 C 
ENDROOT
BRANCH   7  10
HETATM   10  O11 UNL     1     -33.598   7.952   5.173  1.00 20.00    -0.386 OA
HETATM   11  C10 UNL     1     -32.439   8.683   5.558  1.00 20.00     0.202 C 
ENDBRANCH   7  10
TORSDOF 1
ENDMDL
MODEL 8
REMARK VINA RESULT:       3.5      1.373      2.542
REMARK  1 active torsions:
REMARK  status: ('A' for Active; 'I' for Inactive)
REMARK    1  A    between atoms: C7_7  and  O11_11 
ROOT
HETATM    1  C1  UNL     1     -33.577   5.385   0.014  1.00 20.00    -0.029 C 
HETATM    2  C2  UNL     1     -32.699   4.329   2.922  1.00 20.00    -0.022 C 
HETATM    3  C3  UNL     1     -33.462   5.048   3.751  1.00 20.00     0.002 C 
HETATM    4  C4  UNL     1     -33.857   6.398   0.840  1.00 20.00    -0.018 C 
HETATM    5  C5  UNL     1     -32.353   4.641   0.432  1.00 20.00     0.036 C 
HETATM    6  C6  UNL     1     -32.075   5.176   1.844  1.00 20.00     0.026 C 
HETATM    7  C7  UNL     1     -33.452   6.499   3.392  1.00 20.00     0.155 C 
HETATM    8  C8  UNL     1     -32.854   6.515   1.966  1.00 20.00     0.010 C 
HETATM    9  C9  UNL     1     -31.967   7.742   1.738  1.00 20.00     0.023 C 
ENDROOT
BRANCH   7  10
HETATM   10  O11 UNL     1     -34.751   7.061   3.432  1.00 20.00    -0.386 OA
HETATM   11  C10 UNL     1     -35.670   6.217   4.117  1.00 20.00     0.202 C 
ENDBRANCH   7  10
TORSDOF 1
ENDMDL
