MODEL 1
REMARK VINA RESULT:      -2.3      0.000      0.000
REMARK  2 active torsions:
REMARK  status: ('A' for Active; 'I' for Inactive)
REMARK    1  A    between atoms: C2_2  and  C8_8 
REMARK    2  A    between atoms: C3_3  and  C7_7 
ROOT
HETATM    1  C1  UNL     1     -33.838   6.799   3.008  1.00 20.00    -0.062 A 
HETATM    2  C2  UNL     1     -32.963   6.776   2.027  1.00 20.00    -0.076 C 
HETATM    3  C4  UNL     1     -34.265   7.461   4.174  1.00 20.00     0.055 A 
HETATM    4  C7  UNL     1     -34.972   6.185   3.584  1.00 20.00     0.120 A 
HETATM    5  C9  UNL     1     -32.982   5.725   0.937  1.00 20.00     0.044 C 
ENDROOT
BRANCH   2   6
HETATM    6  C8  UNL     1     -31.853   7.798   1.894  1.00 20.00     0.014 A 
HETATM    7  C5  UNL     1     -31.523   8.255   0.528  1.00 20.00     0.010 A 
HETATM    8  C6  UNL     1     -32.244   9.161   1.480  1.00 20.00     0.010 A 
ENDBRANCH   2   6
BRANCH   4   9
HETATM    9  C3  UNL     1     -34.717   4.924   4.242  1.00 20.00     0.181 C 
HETATM   10  O10 UNL     1     -33.660   4.333   3.884  1.00 20.00    -0.647 OA
HETATM   11  O11 UNL     1     -35.589   4.582   5.090  1.00 20.00    -0.647 OA
ENDBRANCH   4   9
TORSDOF 2
ENDMDL
MODEL 2
REMARK VINA RESULT:      -1.7      3.198      4.739
REMARK  2 active torsions:
REMARK  status: ('A' for Active; 'I' for Inactive)
REMARK    1  A    between atoms: C2_2  and  C8_8 
REMARK    2  A    between atoms: C3_3  and  C7_7 
ROOT
HETATM    1  C1  UNL     1     -32.334   7.813   1.941  1.00 20.00    -0.062 A 
HETATM    2  C2  UNL     1     -33.127   6.771   2.058  1.00 20.00    -0.076 C 
HETATM    3  C4  UNL     1     -31.657   8.845   2.617  1.00 20.00     0.055 A 
HETATM    4  C7  UNL     1     -31.592   8.631   1.060  1.00 20.00     0.120 A 
HETATM    5  C9  UNL     1     -33.578   5.947   0.871  1.00 20.00     0.044 C 
ENDROOT
BRANCH   2   6
HETATM    6  C8  UNL     1     -33.665   6.297   3.392  1.00 20.00     0.014 A 
HETATM    7  C5  UNL     1     -34.202   7.328   4.303  1.00 20.00     0.010 A 
HETATM    8  C6  UNL     1     -35.126   6.384   3.595  1.00 20.00     0.010 A 
ENDBRANCH   2   6
BRANCH   4   9
HETATM    9  C3  UNL     1     -32.384   9.517   0.236  1.00 20.00     0.181 C 
HETATM   10  O10 UNL     1     -32.545  10.681   0.697  1.00 20.00    -0.647 OA
HETATM   11  O11 UNL     1     -32.807   9.005  -0.838  1.00 20.00    -0.647 OA
ENDBRANCH   4   9
TORSDOF 2
ENDMDL
MODEL 3
REMARK VINA RESULT:      -1.3      1.497      2.382
REMARK  2 active torsions:
REMARK  status: ('A' for Active; 'I' for Inactive)
REMARK    1  A    between atoms: C2_2  and  C8_8 
REMARK    2  A    between atoms: C3_3  and  C7_7 
ROOT
HETATM    1  C1  UNL     1     -32.663   7.041   1.965  1.00 20.00    -0.062 A 
HETATM    2  C2  UNL     1     -31.983   8.166   1.898  1.00 20.00    -0.076 C 
HETATM    3  C4  UNL     1     -33.367   6.060   1.242  1.00 20.00     0.055 A 
HETATM    4  C7  UNL     1     -33.161   6.018   2.802  1.00 20.00     0.120 A 
HETATM    5  C9  UNL     1     -31.396   8.840   3.120  1.00 20.00     0.044 C 
ENDROOT
BRANCH   2   6
HETATM    6  C8  UNL     1     -31.725   8.891   0.595  1.00 20.00     0.014 A 
HETATM    7  C5  UNL     1     -32.880   9.081  -0.307  1.00 20.00     0.010 A 
HETATM    8  C6  UNL     1     -32.310  10.241   0.452  1.00 20.00     0.010 A 
ENDBRANCH   2   6
BRANCH   4   9
HETATM    9  C3  UNL     1     -34.284   6.397   3.628  1.00 20.00     0.181 C 
HETATM   10  O10 UNL     1     -34.358   7.625   3.908  1.00 20.00    -0.647 OA
HETATM   11  O11 UNL     1     -35.043   5.443   3.958  1.00 20.00    -0.647 OA
ENDBRANCH   4   9
TORSDOF 2
ENDMDL
MODEL 4
REMARK VINA RESULT:      -1.1      2.320      4.606
REMARK  2 active torsions:
REMARK  status: ('A' for Active; 'I' for Inactive)
REMARK    1  A    between atoms: C2_2  and  C8_8 
REMARK    2  A    between atoms: C3_3  and  C7_7 
ROOT
HETATM    1  C1  UNL     1     -33.411   5.646   2.555  1.00 20.00    -0.062 A 
HETATM    2  C2  UNL     1     -34.226   5.415   3.561  1.00 20.00    -0.076 C 
HETATM    3  C4  UNL     1     -32.357   5.143   1.769  1.00 20.00     0.055 A 
HETATM    4  C7  UNL     1     -33.017   6.554   1.547  1.00 20.00     0.120 A 
HETATM    5  C9  UNL     1     -35.268   6.415   4.016  1.00 20.00     0.044 C 
ENDROOT
BRANCH   2   6
HETATM    6  C8  UNL     1     -34.201   4.128   4.357  1.00 20.00     0.014 A 
HETATM    7  C5  UNL     1     -33.390   3.019   3.813  1.00 20.00     0.010 A 
HETATM    8  C6  UNL     1     -32.928   3.777   5.022  1.00 20.00     0.010 A 
ENDBRANCH   2   6
BRANCH   4   9
HETATM    9  C3  UNL     1     -32.284   7.708   2.016  1.00 20.00     0.181 C 
HETATM   10  O10 UNL     1     -32.387   7.947   3.251  1.00 20.00    -0.647 OA
HETATM   11  O11 UNL     1     -31.637   8.323   1.123  1.00 20.00    -0.647 OA
ENDBRANCH   4   9
TORSDOF 2
ENDMDL
MODEL 5
REMARK VINA RESULT:      -0.6      2.497      4.741
REMARK  2 active torsions:
REMARK  status: ('A' for Active; 'I' for Inactive)
REMARK    1  A    between atoms: C2_2  and  C8_8 
REMARK    2  A    between atoms: C3_3  and  C7_7 
ROOT
HETATM    1  C1  UNL     1     -33.111   6.390   2.303  1.00 20.00    -0.062 A 
HETATM    2  C2  UNL     1     -33.794   6.297   3.423  1.00 20.00    -0.076 C 
HETATM    3  C4  UNL     1     -32.172   5.773   1.456  1.00 20.00     0.055 A 
HETATM    4  C7  UNL     1     -32.841   7.164   1.153  1.00 20.00     0.120 A 
HETATM    5  C9  UNL     1     -34.760   7.368   3.884  1.00 20.00     0.044 C 
ENDROOT
BRANCH   2   6
HETATM    6  C8  UNL     1     -33.679   5.112   4.358  1.00 20.00     0.014 A 
HETATM    7  C5  UNL     1     -34.923   4.376   4.664  1.00 20.00     0.010 A 
HETATM    8  C6  UNL     1     -33.883   3.772   3.769  1.00 20.00     0.010 A 
ENDBRANCH   2   6
BRANCH   4   9
HETATM    9  C3  UNL     1     -32.044   8.347   1.386  1.00 20.00     0.181 C 
HETATM   10  O10 UNL     1     -31.404   8.360   2.474  1.00 20.00    -0.647 OA
HETATM   11  O11 UNL     1     -32.095   9.210   0.465  1.00 20.00    -0.647 OA
ENDBRANCH   4   9
TORSDOF 2
ENDMDL
MODEL 6
REMARK VINA RESULT:      -0.1      1.499      2.023
REMARK  2 active torsions:
REMARK  status: ('A' for Active; 'I' for Inactive)
REMARK    1  A    between atoms: C2_2  and  C8_8 
REMARK    2  A    between atoms: C3_3  and  C7_7 
ROOT
HETATM    1  C1  UNL     1     -33.899   5.354   3.236  1.00 20.00    -0.062 A 
HETATM    2  C2  UNL     1     -33.189   6.007   2.341  1.00 20.00    -0.076 C 
HETATM    3  C4  UNL     1     -34.760   5.461   4.344  1.00 20.00     0.055 A 
HETATM    4  C7  UNL     1     -34.311   4.091   3.714  1.00 20.00     0.120 A 
HETATM    5  C9  UNL     1     -32.375   5.307   1.274  1.00 20.00     0.044 C 
ENDROOT
BRANCH   2   6
HETATM    6  C8  UNL     1     -33.118   7.519   2.295  1.00 20.00     0.014 A 
HETATM    7  C5  UNL     1     -32.180   8.174   3.229  1.00 20.00     0.010 A 
HETATM    8  C6  UNL     1     -31.876   8.115   1.762  1.00 20.00     0.010 A 
ENDBRANCH   2   6
BRANCH   4   9
HETATM    9  C3  UNL     1     -33.293   3.341   4.415  1.00 20.00     0.181 C 
HETATM   10  O10 UNL     1     -33.565   2.126   4.622  1.00 20.00    -0.647 OA
HETATM   11  O11 UNL     1     -32.266   4.006   4.726  1.00 20.00    -0.647 OA
ENDBRANCH   4   9
TORSDOF 2
ENDMDL
MODEL 7
REMARK VINA RESULT:       0.6      2.302      3.957
REMARK  2 active torsions:
REMARK  status: ('A' for Active; 'I' for Inactive)
REMARK    1  A    between atoms: C2_2  and  C8_8 
REMARK    2  A    between atoms: C3_3  and  C7_7 
ROOT
HETATM    1  C1  UNL     1     -32.884   5.926   2.375  1.00 20.00    -0.062 A 
HETATM    2  C2  UNL     1     -33.778   5.616   3.289  1.00 20.00    -0.076 C 
HETATM    3  C4  UNL     1     -32.329   6.952   1.588  1.00 20.00     0.055 A 
HETATM    4  C7  UNL     1     -31.842   5.456   1.545  1.00 20.00     0.120 A 
HETATM    5  C9  UNL     1     -33.949   4.210   3.822  1.00 20.00     0.044 C 
ENDROOT
BRANCH   2   6
HETATM    6  C8  UNL     1     -34.720   6.636   3.892  1.00 20.00     0.014 A 
HETATM    7  C5  UNL     1     -34.128   7.643   4.796  1.00 20.00     0.010 A 
HETATM    8  C6  UNL     1     -34.587   8.031   3.423  1.00 20.00     0.010 A 
ENDBRANCH   2   6
BRANCH   4   9
HETATM    9  C3  UNL     1     -32.271   4.653   0.422  1.00 20.00     0.181 C 
HETATM   10  O10 UNL     1     -33.501   4.724   0.147  1.00 20.00    -0.647 OA
HETATM   11  O11 UNL     1     -31.353   3.987  -0.134  1.00 20.00    -0.647 OA
ENDBRANCH   4   9
TORSDOF 2
ENDMDL
