MODEL 1
REMARK VINA RESULT:      -0.9      0.000      0.000
REMARK  0 active torsions:
REMARK  status: ('A' for Active; 'I' for Inactive)
ROOT
HETATM    1  C1  UNL     1     -32.178   7.304   1.670  1.00 20.00     0.089 C 
HETATM    2  C2  UNL     1     -33.548   5.928   3.095  1.00 20.00     0.017 C 
HETATM    3  C3  UNL     1     -32.531   6.051   2.233  1.00 20.00     0.118 C 
HETATM    4  C4  UNL     1     -34.388   7.104   3.532  1.00 20.00     0.059 C 
HETATM    5  C5  UNL     1     -35.646   6.427   4.087  1.00 20.00     0.026 C 
HETATM    6  C6  UNL     1     -35.164   5.064   4.590  1.00 20.00     0.122 C 
HETATM    7  C7  UNL     1     -33.431   3.476   3.708  1.00 20.00     0.149 C 
HETATM    8  N8  UNL     1     -31.883   8.325   1.207  1.00 20.00    -0.192 NA
HETATM    9  N9  UNL     1     -34.030   4.791   3.719  1.00 20.00    -0.388 N 
ENDROOT
TORSDOF 0
ENDMDL
MODEL 2
REMARK VINA RESULT:      -0.4      1.721      2.304
REMARK  0 active torsions:
REMARK  status: ('A' for Active; 'I' for Inactive)
ROOT
HETATM    1  C1  UNL     1     -32.354   9.502   0.743  1.00 20.00     0.089 C 
HETATM    2  C2  UNL     1     -32.811   7.390   1.807  1.00 20.00     0.017 C 
HETATM    3  C3  UNL     1     -32.310   8.085   0.778  1.00 20.00     0.118 C 
HETATM    4  C4  UNL     1     -33.454   8.056   3.000  1.00 20.00     0.059 C 
HETATM    5  C5  UNL     1     -34.262   6.914   3.623  1.00 20.00     0.026 C 
HETATM    6  C6  UNL     1     -33.495   5.644   3.247  1.00 20.00     0.122 C 
HETATM    7  C7  UNL     1     -32.229   5.011   1.174  1.00 20.00     0.149 C 
HETATM    8  N8  UNL     1     -32.386  10.661   0.708  1.00 20.00    -0.192 NA
HETATM    9  N9  UNL     1     -32.862   6.020   1.991  1.00 20.00    -0.388 N 
ENDROOT
TORSDOF 0
ENDMDL
MODEL 3
REMARK VINA RESULT:      -0.0      1.280      4.276
REMARK  0 active torsions:
REMARK  status: ('A' for Active; 'I' for Inactive)
ROOT
HETATM    1  C1  UNL     1     -35.091   5.865   4.202  1.00 20.00     0.089 C 
HETATM    2  C2  UNL     1     -33.366   6.704   2.745  1.00 20.00     0.017 C 
HETATM    3  C3  UNL     1     -34.344   6.927   3.632  1.00 20.00     0.118 C 
HETATM    4  C4  UNL     1     -32.986   5.316   2.289  1.00 20.00     0.059 C 
HETATM    5  C5  UNL     1     -32.218   5.591   0.992  1.00 20.00     0.026 C 
HETATM    6  C6  UNL     1     -31.608   6.981   1.188  1.00 20.00     0.122 C 
HETATM    7  C7  UNL     1     -32.477   9.037   2.338  1.00 20.00     0.149 C 
HETATM    8  N8  UNL     1     -35.705   5.001   4.673  1.00 20.00    -0.192 NA
HETATM    9  N9  UNL     1     -32.560   7.616   2.088  1.00 20.00    -0.388 N 
ENDROOT
TORSDOF 0
ENDMDL
MODEL 4
REMARK VINA RESULT:       0.3      1.553      4.128
REMARK  0 active torsions:
REMARK  status: ('A' for Active; 'I' for Inactive)
ROOT
HETATM    1  C1  UNL     1     -33.582   3.119   4.424  1.00 20.00     0.089 C 
HETATM    2  C2  UNL     1     -33.496   5.295   3.396  1.00 20.00     0.017 C 
HETATM    3  C3  UNL     1     -33.975   4.479   4.343  1.00 20.00     0.118 C 
HETATM    4  C4  UNL     1     -32.507   4.835   2.352  1.00 20.00     0.059 C 
HETATM    5  C5  UNL     1     -32.639   5.912   1.271  1.00 20.00     0.026 C 
HETATM    6  C6  UNL     1     -33.059   7.174   2.028  1.00 20.00     0.122 C 
HETATM    7  C7  UNL     1     -34.557   7.507   4.015  1.00 20.00     0.149 C 
HETATM    8  N8  UNL     1     -33.264   2.005   4.497  1.00 20.00    -0.192 NA
HETATM    9  N9  UNL     1     -33.783   6.629   3.167  1.00 20.00    -0.388 N 
ENDROOT
TORSDOF 0
ENDMDL
MODEL 5
REMARK VINA RESULT:       0.3      1.370      3.776
REMARK  0 active torsions:
REMARK  status: ('A' for Active; 'I' for Inactive)
ROOT
HETATM    1  C1  UNL     1     -34.853   4.942   4.161  1.00 20.00     0.089 C 
HETATM    2  C2  UNL     1     -33.318   6.135   2.739  1.00 20.00     0.017 C 
HETATM    3  C3  UNL     1     -33.878   4.984   3.132  1.00 20.00     0.118 C 
HETATM    4  C4  UNL     1     -33.680   7.465   3.355  1.00 20.00     0.059 C 
HETATM    5  C5  UNL     1     -32.497   8.351   2.953  1.00 20.00     0.026 C 
HETATM    6  C6  UNL     1     -31.993   7.754   1.637  1.00 20.00     0.122 C 
HETATM    7  C7  UNL     1     -31.835   5.380   0.833  1.00 20.00     0.149 C 
HETATM    8  N8  UNL     1     -35.651   4.900   5.001  1.00 20.00    -0.192 NA
HETATM    9  N9  UNL     1     -32.353   6.350   1.772  1.00 20.00    -0.388 N 
ENDROOT
TORSDOF 0
ENDMDL
MODEL 6
REMARK VINA RESULT:       0.4      1.751      2.962
REMARK  0 active torsions:
REMARK  status: ('A' for Active; 'I' for Inactive)
ROOT
HETATM    1  C1  UNL     1     -32.263   9.461   0.608  1.00 20.00     0.089 C 
HETATM    2  C2  UNL     1     -32.952   7.634   2.019  1.00 20.00     0.017 C 
HETATM    3  C3  UNL     1     -32.789   8.948   1.821  1.00 20.00     0.118 C 
HETATM    4  C4  UNL     1     -32.592   6.606   0.974  1.00 20.00     0.059 C 
HETATM    5  C5  UNL     1     -32.493   5.317   1.796  1.00 20.00     0.026 C 
HETATM    6  C6  UNL     1     -33.454   5.527   2.968  1.00 20.00     0.122 C 
HETATM    7  C7  UNL     1     -34.033   7.572   4.305  1.00 20.00     0.149 C 
HETATM    8  N8  UNL     1     -31.833   9.886  -0.382  1.00 20.00    -0.192 NA
HETATM    9  N9  UNL     1     -33.433   6.973   3.135  1.00 20.00    -0.388 N 
ENDROOT
TORSDOF 0
ENDMDL
MODEL 7
REMARK VINA RESULT:       1.3      1.355      3.600
REMARK  0 active torsions:
REMARK  status: ('A' for Active; 'I' for Inactive)
ROOT
HETATM    1  C1  UNL     1     -33.384   3.490   4.027  1.00 20.00     0.089 C 
HETATM    2  C2  UNL     1     -33.440   5.767   3.243  1.00 20.00     0.017 C 
HETATM    3  C3  UNL     1     -32.903   4.541   3.205  1.00 20.00     0.118 C 
HETATM    4  C4  UNL     1     -34.589   6.121   4.156  1.00 20.00     0.059 C 
HETATM    5  C5  UNL     1     -34.520   7.651   4.200  1.00 20.00     0.026 C 
HETATM    6  C6  UNL     1     -33.909   8.051   2.856  1.00 20.00     0.122 C 
HETATM    7  C7  UNL     1     -32.143   6.971   1.436  1.00 20.00     0.149 C 
HETATM    8  N8  UNL     1     -33.772   2.625   4.696  1.00 20.00    -0.192 NA
HETATM    9  N9  UNL     1     -33.086   6.897   2.528  1.00 20.00    -0.388 N 
ENDROOT
TORSDOF 0
ENDMDL
MODEL 8
REMARK VINA RESULT:       1.3      2.020      3.178
REMARK  0 active torsions:
REMARK  status: ('A' for Active; 'I' for Inactive)
ROOT
HETATM    1  C1  UNL     1     -32.103   4.568   0.697  1.00 20.00     0.089 C 
HETATM    2  C2  UNL     1     -32.901   6.299   2.169  1.00 20.00     0.017 C 
HETATM    3  C3  UNL     1     -33.029   5.074   1.645  1.00 20.00     0.118 C 
HETATM    4  C4  UNL     1     -31.770   7.227   1.798  1.00 20.00     0.059 C 
HETATM    5  C5  UNL     1     -32.299   8.593   2.243  1.00 20.00     0.026 C 
HETATM    6  C6  UNL     1     -33.242   8.284   3.408  1.00 20.00     0.122 C 
HETATM    7  C7  UNL     1     -34.819   6.373   3.818  1.00 20.00     0.149 C 
HETATM    8  N8  UNL     1     -31.349   4.147  -0.078  1.00 20.00    -0.192 NA
HETATM    9  N9  UNL     1     -33.714   6.946   3.083  1.00 20.00    -0.388 N 
ENDROOT
TORSDOF 0
ENDMDL
MODEL 9
REMARK VINA RESULT:       1.4      1.626      2.542
REMARK  0 active torsions:
REMARK  status: ('A' for Active; 'I' for Inactive)
ROOT
HETATM    1  C1  UNL     1     -31.995   5.349   1.078  1.00 20.00     0.089 C 
HETATM    2  C2  UNL     1     -33.588   5.813   2.823  1.00 20.00     0.017 C 
HETATM    3  C3  UNL     1     -32.724   6.247   1.897  1.00 20.00     0.118 C 
HETATM    4  C4  UNL     1     -33.852   4.346   3.063  1.00 20.00     0.059 C 
HETATM    5  C5  UNL     1     -34.486   4.345   4.457  1.00 20.00     0.026 C 
HETATM    6  C6  UNL     1     -35.177   5.706   4.571  1.00 20.00     0.122 C 
HETATM    7  C7  UNL     1     -34.536   7.980   3.722  1.00 20.00     0.149 C 
HETATM    8  N8  UNL     1     -31.395   4.619   0.404  1.00 20.00    -0.192 NA
HETATM    9  N9  UNL     1     -34.360   6.545   3.707  1.00 20.00    -0.388 N 
ENDROOT
TORSDOF 0
ENDMDL
