MODEL 1
REMARK VINA RESULT:      -0.8      0.000      0.000
REMARK  1 active torsions:
REMARK  status: ('A' for Active; 'I' for Inactive)
REMARK    1  A    between atoms: C2_2  and  C8_8 
ROOT
HETATM    1  C1  UNL     1     -33.117   6.035   1.938  1.00 20.00     0.136 C 
HETATM    2  C3  UNL     1     -31.794   6.670   1.592  1.00 20.00     0.079 C 
HETATM    3  C4  UNL     1     -31.863   8.193   1.642  1.00 20.00     0.007 C 
HETATM    4  C5  UNL     1     -32.783   8.760   2.729  1.00 20.00     0.002 C 
HETATM    5  C6  UNL     1     -33.079   7.753   3.835  1.00 20.00     0.018 C 
HETATM    6  C7  UNL     1     -35.204   6.320   3.437  1.00 20.00     0.030 A 
HETATM    7  C8  UNL     1     -34.240   5.487   4.236  1.00 20.00     0.064 A 
HETATM    8  C9  UNL     1     -33.712   6.507   3.238  1.00 20.00     0.031 A 
HETATM    9  O10 UNL     1     -33.648   5.177   1.241  1.00 20.00    -0.297 OA
ENDROOT
BRANCH   7  10
HETATM   10  C2  UNL     1     -34.136   4.047   3.977  1.00 20.00     0.236 C 
HETATM   11  O11 UNL     1     -33.438   3.288   4.643  1.00 20.00    -0.306 OA
ENDBRANCH   7  10
TORSDOF 1
ENDMDL
MODEL 2
REMARK VINA RESULT:       0.1      1.895      4.164
REMARK  1 active torsions:
REMARK  status: ('A' for Active; 'I' for Inactive)
REMARK    1  A    between atoms: C2_2  and  C8_8 
ROOT
HETATM    1  C1  UNL     1     -32.635   6.404   1.886  1.00 20.00     0.136 C 
HETATM    2  C3  UNL     1     -33.783   5.435   2.012  1.00 20.00     0.079 C 
HETATM    3  C4  UNL     1     -34.224   5.261   3.463  1.00 20.00     0.007 C 
HETATM    4  C5  UNL     1     -34.123   6.527   4.322  1.00 20.00     0.002 C 
HETATM    5  C6  UNL     1     -34.060   7.802   3.489  1.00 20.00     0.018 C 
HETATM    6  C7  UNL     1     -31.656   8.574   2.895  1.00 20.00     0.030 A 
HETATM    7  C8  UNL     1     -32.562   9.017   1.779  1.00 20.00     0.064 A 
HETATM    8  C9  UNL     1     -32.871   7.738   2.543  1.00 20.00     0.031 A 
HETATM    9  O10 UNL     1     -31.608   6.145   1.268  1.00 20.00    -0.297 OA
ENDROOT
BRANCH   7  10
HETATM   10  C2  UNL     1     -32.081   8.975   0.393  1.00 20.00     0.236 C 
HETATM   11  O11 UNL     1     -32.518   9.699  -0.496  1.00 20.00    -0.306 OA
ENDBRANCH   7  10
TORSDOF 1
ENDMDL
MODEL 3
REMARK VINA RESULT:       0.6      1.421      3.180
REMARK  1 active torsions:
REMARK  status: ('A' for Active; 'I' for Inactive)
REMARK    1  A    between atoms: C2_2  and  C8_8 
ROOT
HETATM    1  C1  UNL     1     -33.787   5.710   3.063  1.00 20.00     0.136 C 
HETATM    2  C3  UNL     1     -34.618   6.761   3.755  1.00 20.00     0.079 C 
HETATM    3  C4  UNL     1     -33.760   7.906   4.286  1.00 20.00     0.007 C 
HETATM    4  C5  UNL     1     -32.551   8.262   3.413  1.00 20.00     0.002 C 
HETATM    5  C6  UNL     1     -32.686   7.753   1.982  1.00 20.00     0.018 C 
HETATM    6  C7  UNL     1     -31.688   5.391   1.589  1.00 20.00     0.030 A 
HETATM    7  C8  UNL     1     -32.834   5.562   0.631  1.00 20.00     0.064 A 
HETATM    8  C9  UNL     1     -32.875   6.244   1.991  1.00 20.00     0.031 A 
HETATM    9  O10 UNL     1     -33.873   4.514   3.322  1.00 20.00    -0.297 OA
ENDROOT
BRANCH   7  10
HETATM   10  C2  UNL     1     -33.705   4.421   0.329  1.00 20.00     0.236 C 
HETATM   11  O11 UNL     1     -33.687   3.821  -0.742  1.00 20.00    -0.306 OA
ENDBRANCH   7  10
TORSDOF 1
ENDMDL
MODEL 4
REMARK VINA RESULT:       1.0      2.105      3.173
REMARK  1 active torsions:
REMARK  status: ('A' for Active; 'I' for Inactive)
REMARK    1  A    between atoms: C2_2  and  C8_8 
ROOT
HETATM    1  C1  UNL     1     -32.506   7.473   2.355  1.00 20.00     0.136 C 
HETATM    2  C3  UNL     1     -32.406   8.014   3.759  1.00 20.00     0.079 C 
HETATM    3  C4  UNL     1     -33.780   8.197   4.398  1.00 20.00     0.007 C 
HETATM    4  C5  UNL     1     -34.820   7.144   3.997  1.00 20.00     0.002 C 
HETATM    5  C6  UNL     1     -34.189   5.875   3.435  1.00 20.00     0.018 C 
HETATM    6  C7  UNL     1     -33.889   5.883   0.858  1.00 20.00     0.030 A 
HETATM    7  C8  UNL     1     -32.788   5.039   1.439  1.00 20.00     0.064 A 
HETATM    8  C9  UNL     1     -33.332   6.221   2.228  1.00 20.00     0.031 A 
HETATM    9  O10 UNL     1     -31.931   7.986   1.401  1.00 20.00    -0.297 OA
ENDROOT
BRANCH   7  10
HETATM   10  C2  UNL     1     -31.449   5.078   0.841  1.00 20.00     0.236 C 
HETATM   11  O11 UNL     1     -31.038   4.237   0.048  1.00 20.00    -0.306 OA
ENDBRANCH   7  10
TORSDOF 1
ENDMDL
MODEL 5
REMARK VINA RESULT:       1.4      2.029      4.170
REMARK  1 active torsions:
REMARK  status: ('A' for Active; 'I' for Inactive)
REMARK    1  A    between atoms: C2_2  and  C8_8 
ROOT
HETATM    1  C1  UNL     1     -34.259   6.905   3.217  1.00 20.00     0.136 C 
HETATM    2  C3  UNL     1     -34.652   6.500   4.615  1.00 20.00     0.079 C 
HETATM    3  C4  UNL     1     -35.042   5.027   4.693  1.00 20.00     0.007 C 
HETATM    4  C5  UNL     1     -34.246   4.101   3.765  1.00 20.00     0.002 C 
HETATM    5  C6  UNL     1     -32.931   4.718   3.303  1.00 20.00     0.018 C 
HETATM    6  C7  UNL     1     -33.095   6.041   1.077  1.00 20.00     0.030 A 
HETATM    7  C8  UNL     1     -32.009   6.676   1.902  1.00 20.00     0.064 A 
HETATM    8  C9  UNL     1     -33.205   6.033   2.589  1.00 20.00     0.031 A 
HETATM    9  O10 UNL     1     -34.729   7.886   2.650  1.00 20.00    -0.297 OA
ENDROOT
BRANCH   7  10
HETATM   10  C2  UNL     1     -31.840   8.134   1.881  1.00 20.00     0.236 C 
HETATM   11  O11 UNL     1     -32.050   8.825   0.889  1.00 20.00    -0.306 OA
ENDBRANCH   7  10
TORSDOF 1
ENDMDL
MODEL 6
REMARK VINA RESULT:       1.6      1.718      2.453
REMARK  1 active torsions:
REMARK  status: ('A' for Active; 'I' for Inactive)
REMARK    1  A    between atoms: C2_2  and  C8_8 
ROOT
HETATM    1  C1  UNL     1     -33.221   7.459   3.416  1.00 20.00     0.136 C 
HETATM    2  C3  UNL     1     -33.008   8.558   2.406  1.00 20.00     0.079 C 
HETATM    3  C4  UNL     1     -31.816   8.272   1.497  1.00 20.00     0.007 C 
HETATM    4  C5  UNL     1     -31.610   6.793   1.153  1.00 20.00     0.002 C 
HETATM    5  C6  UNL     1     -32.865   5.955   1.375  1.00 20.00     0.018 C 
HETATM    6  C7  UNL     1     -33.041   4.901   3.739  1.00 20.00     0.030 A 
HETATM    7  C8  UNL     1     -34.441   5.151   3.250  1.00 20.00     0.064 A 
HETATM    8  C9  UNL     1     -33.313   6.079   2.823  1.00 20.00     0.031 A 
HETATM    9  O10 UNL     1     -33.349   7.673   4.617  1.00 20.00    -0.297 OA
ENDROOT
BRANCH   7  10
HETATM   10  C2  UNL     1     -35.472   5.595   4.195  1.00 20.00     0.236 C 
HETATM   11  O11 UNL     1     -35.880   4.906   5.124  1.00 20.00    -0.306 OA
ENDBRANCH   7  10
TORSDOF 1
ENDMDL
