MODEL 1
REMARK VINA RESULT:      -0.6      0.000      0.000
REMARK  2 active torsions:
REMARK  status: ('A' for Active; 'I' for Inactive)
REMARK    1  A    between atoms: C1_1  and  C7_7 
REMARK    2  A    between atoms: C1_1  and  C9_9 
ROOT
HETATM    1  C2  UNL     1     -32.048   7.990   2.465  1.00 20.00     0.000 C 
HETATM    2  C3  UNL     1     -32.798   7.095   1.484  1.00 20.00     0.001 C 
HETATM    3  C4  UNL     1     -32.908   8.336   3.674  1.00 20.00     0.001 C 
HETATM    4  C5  UNL     1     -33.322   5.828   2.161  1.00 20.00     0.017 C 
HETATM    5  C6  UNL     1     -33.433   7.082   4.374  1.00 20.00     0.017 C 
HETATM    6  C7  UNL     1     -34.148   6.124   3.417  1.00 20.00     0.018 C 
HETATM    7  C8  UNL     1     -35.497   6.713   3.015  1.00 20.00     0.023 C 
ENDROOT
BRANCH   6   8
HETATM    8  C1  UNL     1     -34.546   4.831   4.129  1.00 20.00     0.148 C 
HETATM    9  O10 UNL     1     -35.522   4.803   4.877  1.00 20.00    -0.296 OA
BRANCH   8  10
HETATM   10  C9  UNL     1     -33.669   3.631   3.851  1.00 20.00     0.193 C 
HETATM   11 CL11 UNL     1     -32.965   3.008   5.350  1.00 20.00    -0.123 Cl
ENDBRANCH   8  10
ENDBRANCH   6   8
TORSDOF 2
ENDMDL
MODEL 2
REMARK VINA RESULT:       0.2      3.113      4.407
REMARK  2 active torsions:
REMARK  status: ('A' for Active; 'I' for Inactive)
REMARK    1  A    between atoms: C1_1  and  C7_7 
REMARK    2  A    between atoms: C1_1  and  C9_9 
ROOT
HETATM    1  C2  UNL     1     -34.825   4.856   4.451  1.00 20.00     0.000 C 
HETATM    2  C3  UNL     1     -35.479   6.140   3.951  1.00 20.00     0.001 C 
HETATM    3  C4  UNL     1     -33.799   4.327   3.455  1.00 20.00     0.001 C 
HETATM    4  C5  UNL     1     -34.439   7.212   3.619  1.00 20.00     0.017 C 
HETATM    5  C6  UNL     1     -32.743   5.380   3.118  1.00 20.00     0.017 C 
HETATM    6  C7  UNL     1     -33.352   6.709   2.663  1.00 20.00     0.018 C 
HETATM    7  C8  UNL     1     -33.937   6.550   1.262  1.00 20.00     0.023 C 
ENDROOT
BRANCH   6   8
HETATM    8  C1  UNL     1     -32.270   7.768   2.457  1.00 20.00     0.148 C 
HETATM    9  O10 UNL     1     -31.782   8.361   3.418  1.00 20.00    -0.296 OA
BRANCH   8  10
HETATM   10  C9  UNL     1     -31.863   8.021   1.023  1.00 20.00     0.193 C 
HETATM   11 CL11 UNL     1     -32.344   9.646   0.512  1.00 20.00    -0.123 Cl
ENDBRANCH   8  10
ENDBRANCH   6   8
TORSDOF 2
ENDMDL
MODEL 3
REMARK VINA RESULT:       0.5      3.875      5.077
REMARK  2 active torsions:
REMARK  status: ('A' for Active; 'I' for Inactive)
REMARK    1  A    between atoms: C1_1  and  C7_7 
REMARK    2  A    between atoms: C1_1  and  C9_9 
ROOT
HETATM    1  C2  UNL     1     -34.439   6.160   3.463  1.00 20.00     0.000 C 
HETATM    2  C3  UNL     1     -33.222   5.569   2.761  1.00 20.00     0.001 C 
HETATM    3  C4  UNL     1     -34.152   7.559   3.996  1.00 20.00     0.001 C 
HETATM    4  C5  UNL     1     -32.712   6.483   1.646  1.00 20.00     0.017 C 
HETATM    5  C6  UNL     1     -33.652   8.493   2.894  1.00 20.00     0.017 C 
HETATM    6  C7  UNL     1     -32.462   7.918   2.122  1.00 20.00     0.018 C 
HETATM    7  C8  UNL     1     -31.215   7.954   3.002  1.00 20.00     0.023 C 
ENDROOT
BRANCH   6   8
HETATM    8  C1  UNL     1     -32.074   8.824   0.954  1.00 20.00     0.148 C 
HETATM    9  O10 UNL     1     -31.194   8.486   0.164  1.00 20.00    -0.296 OA
BRANCH   8  10
HETATM   10  C9  UNL     1     -32.833  10.127   0.854  1.00 20.00     0.193 C 
HETATM   11 CL11 UNL     1     -33.086  10.577  -0.839  1.00 20.00    -0.123 Cl
ENDBRANCH   8  10
ENDBRANCH   6   8
TORSDOF 2
ENDMDL
MODEL 4
REMARK VINA RESULT:       0.7      2.545      3.752
REMARK  2 active torsions:
REMARK  status: ('A' for Active; 'I' for Inactive)
REMARK    1  A    between atoms: C1_1  and  C7_7 
REMARK    2  A    between atoms: C1_1  and  C9_9 
ROOT
HETATM    1  C2  UNL     1     -32.166  10.025  -0.329  1.00 20.00     0.000 C 
HETATM    2  C3  UNL     1     -32.777  10.507   0.982  1.00 20.00     0.001 C 
HETATM    3  C4  UNL     1     -31.168   8.896  -0.099  1.00 20.00     0.001 C 
HETATM    4  C5  UNL     1     -33.423   9.359   1.760  1.00 20.00     0.017 C 
HETATM    5  C6  UNL     1     -31.797   7.732   0.668  1.00 20.00     0.017 C 
HETATM    6  C7  UNL     1     -32.474   8.175   1.969  1.00 20.00     0.018 C 
HETATM    7  C8  UNL     1     -31.410   8.546   2.998  1.00 20.00     0.023 C 
ENDROOT
BRANCH   6   8
HETATM    8  C1  UNL     1     -33.194   7.005   2.639  1.00 20.00     0.148 C 
HETATM    9  O10 UNL     1     -33.098   5.866   2.185  1.00 20.00    -0.296 OA
BRANCH   8  10
HETATM   10  C9  UNL     1     -34.010   7.351   3.864  1.00 20.00     0.193 C 
HETATM   11 CL11 UNL     1     -35.366   6.230   4.051  1.00 20.00    -0.123 Cl
ENDBRANCH   8  10
ENDBRANCH   6   8
TORSDOF 2
ENDMDL
MODEL 5
REMARK VINA RESULT:       1.2      2.987      4.288
REMARK  2 active torsions:
REMARK  status: ('A' for Active; 'I' for Inactive)
REMARK    1  A    between atoms: C1_1  and  C7_7 
REMARK    2  A    between atoms: C1_1  and  C9_9 
ROOT
HETATM    1  C2  UNL     1     -35.369   4.795   4.481  1.00 20.00     0.000 C 
HETATM    2  C3  UNL     1     -33.873   4.500   4.507  1.00 20.00     0.001 C 
HETATM    3  C4  UNL     1     -35.641   6.283   4.289  1.00 20.00     0.001 C 
HETATM    4  C5  UNL     1     -33.171   5.025   3.253  1.00 20.00     0.017 C 
HETATM    5  C6  UNL     1     -34.958   6.826   3.033  1.00 20.00     0.017 C 
HETATM    6  C7  UNL     1     -33.462   6.505   2.986  1.00 20.00     0.018 C 
HETATM    7  C8  UNL     1     -32.722   7.364   4.008  1.00 20.00     0.023 C 
ENDROOT
BRANCH   6   8
HETATM    8  C1  UNL     1     -32.845   6.955   1.661  1.00 20.00     0.148 C 
HETATM    9  O10 UNL     1     -33.101   6.359   0.616  1.00 20.00    -0.296 OA
BRANCH   8  10
HETATM   10  C9  UNL     1     -31.923   8.151   1.739  1.00 20.00     0.193 C 
HETATM   11 CL11 UNL     1     -32.349   9.351   0.509  1.00 20.00    -0.123 Cl
ENDBRANCH   8  10
ENDBRANCH   6   8
TORSDOF 2
ENDMDL
MODEL 6
REMARK VINA RESULT:       1.2      2.119      3.272
REMARK  2 active torsions:
REMARK  status: ('A' for Active; 'I' for Inactive)
REMARK    1  A    between atoms: C1_1  and  C7_7 
REMARK    2  A    between atoms: C1_1  and  C9_9 
ROOT
HETATM    1  C2  UNL     1     -32.141   9.578  -0.188  1.00 20.00     0.000 C 
HETATM    2  C3  UNL     1     -32.735  10.342   0.990  1.00 20.00     0.001 C 
HETATM    3  C4  UNL     1     -31.253   8.431   0.281  1.00 20.00     0.001 C 
HETATM    4  C5  UNL     1     -33.496   9.416   1.940  1.00 20.00     0.017 C 
HETATM    5  C6  UNL     1     -31.999   7.486   1.223  1.00 20.00     0.017 C 
HETATM    6  C7  UNL     1     -32.661   8.216   2.395  1.00 20.00     0.018 C 
HETATM    7  C8  UNL     1     -31.590   8.681   3.379  1.00 20.00     0.023 C 
ENDROOT
BRANCH   6   8
HETATM    8  C1  UNL     1     -33.497   7.254   3.240  1.00 20.00     0.148 C 
HETATM    9  O10 UNL     1     -34.066   7.647   4.257  1.00 20.00    -0.296 OA
BRANCH   8  10
HETATM   10  C9  UNL     1     -33.562   5.829   2.741  1.00 20.00     0.193 C 
HETATM   11 CL11 UNL     1     -34.266   4.767   3.970  1.00 20.00    -0.123 Cl
ENDBRANCH   8  10
ENDBRANCH   6   8
TORSDOF 2
ENDMDL
MODEL 7
REMARK VINA RESULT:       2.2      2.452      3.909
REMARK  2 active torsions:
REMARK  status: ('A' for Active; 'I' for Inactive)
REMARK    1  A    between atoms: C1_1  and  C7_7 
REMARK    2  A    between atoms: C1_1  and  C9_9 
ROOT
HETATM    1  C2  UNL     1     -35.090   4.940   4.727  1.00 20.00     0.000 C 
HETATM    2  C3  UNL     1     -35.646   6.208   4.088  1.00 20.00     0.001 C 
HETATM    3  C4  UNL     1     -34.119   4.225   3.794  1.00 20.00     0.001 C 
HETATM    4  C5  UNL     1     -34.529   7.151   3.636  1.00 20.00     0.017 C 
HETATM    5  C6  UNL     1     -32.987   5.147   3.340  1.00 20.00     0.017 C 
HETATM    6  C7  UNL     1     -33.496   6.461   2.741  1.00 20.00     0.018 C 
HETATM    7  C8  UNL     1     -34.105   6.195   1.367  1.00 20.00     0.023 C 
ENDROOT
BRANCH   6   8
HETATM    8  C1  UNL     1     -32.336   7.402   2.415  1.00 20.00     0.148 C 
HETATM    9  O10 UNL     1     -32.031   8.311   3.187  1.00 20.00    -0.296 OA
BRANCH   8  10
HETATM   10  C9  UNL     1     -31.619   7.135   1.111  1.00 20.00     0.193 C 
HETATM   11 CL11 UNL     1     -31.351   5.400   0.887  1.00 20.00    -0.123 Cl
ENDBRANCH   8  10
ENDBRANCH   6   8
TORSDOF 2
ENDMDL
MODEL 8
REMARK VINA RESULT:       2.3      2.586      3.817
REMARK  2 active torsions:
REMARK  status: ('A' for Active; 'I' for Inactive)
REMARK    1  A    between atoms: C1_1  and  C7_7 
REMARK    2  A    between atoms: C1_1  and  C9_9 
ROOT
HETATM    1  C2  UNL     1     -32.354  10.268  -0.352  1.00 20.00     0.000 C 
HETATM    2  C3  UNL     1     -32.730  10.645   1.077  1.00 20.00     0.001 C 
HETATM    3  C4  UNL     1     -31.403   9.077  -0.383  1.00 20.00     0.001 C 
HETATM    4  C5  UNL     1     -33.319   9.457   1.839  1.00 20.00     0.017 C 
HETATM    5  C6  UNL     1     -31.978   7.873   0.364  1.00 20.00     0.017 C 
HETATM    6  C7  UNL     1     -32.423   8.215   1.788  1.00 20.00     0.018 C 
HETATM    7  C8  UNL     1     -31.196   8.434   2.669  1.00 20.00     0.023 C 
ENDROOT
BRANCH   6   8
HETATM    8  C1  UNL     1     -33.105   7.019   2.453  1.00 20.00     0.148 C 
HETATM    9  O10 UNL     1     -33.544   7.106   3.599  1.00 20.00    -0.296 OA
BRANCH   8  10
HETATM   10  C9  UNL     1     -33.189   5.763   1.617  1.00 20.00     0.193 C 
HETATM   11 CL11 UNL     1     -31.596   5.008   1.457  1.00 20.00    -0.123 Cl
ENDBRANCH   8  10
ENDBRANCH   6   8
TORSDOF 2
ENDMDL
MODEL 9
REMARK VINA RESULT:       2.4      2.858      3.581
REMARK  2 active torsions:
REMARK  status: ('A' for Active; 'I' for Inactive)
REMARK    1  A    between atoms: C1_1  and  C7_7 
REMARK    2  A    between atoms: C1_1  and  C9_9 
ROOT
HETATM    1  C2  UNL     1     -33.905   7.685   4.033  1.00 20.00     0.000 C 
HETATM    2  C3  UNL     1     -33.201   8.298   2.828  1.00 20.00     0.001 C 
HETATM    3  C4  UNL     1     -34.629   6.396   3.660  1.00 20.00     0.001 C 
HETATM    4  C5  UNL     1     -32.242   7.305   2.167  1.00 20.00     0.017 C 
HETATM    5  C6  UNL     1     -33.686   5.385   3.009  1.00 20.00     0.017 C 
HETATM    6  C7  UNL     1     -32.912   5.971   1.825  1.00 20.00     0.018 C 
HETATM    7  C8  UNL     1     -33.856   6.161   0.641  1.00 20.00     0.023 C 
ENDROOT
BRANCH   6   8
HETATM    8  C1  UNL     1     -31.894   4.968   1.283  1.00 20.00     0.148 C 
HETATM    9  O10 UNL     1     -30.836   4.766   1.878  1.00 20.00    -0.296 OA
BRANCH   8  10
HETATM   10  C9  UNL     1     -32.278   4.270  -0.001  1.00 20.00     0.193 C 
HETATM   11 CL11 UNL     1     -30.895   3.398  -0.679  1.00 20.00    -0.123 Cl
ENDBRANCH   8  10
ENDBRANCH   6   8
TORSDOF 2
ENDMDL
