MODEL 1
REMARK VINA RESULT:      -0.9      0.000      0.000
REMARK  1 active torsions:
REMARK  status: ('A' for Active; 'I' for Inactive)
REMARK    1  A    between atoms: C2_2  and  C3_3 
ROOT
HETATM    1  C1  UNL     1     -33.935   6.684   3.176  1.00 20.00     0.050 C 
HETATM    2  C2  UNL     1     -33.564   7.844   2.624  1.00 20.00     0.082 C 
HETATM    3  C4  UNL     1     -33.213   5.386   3.020  1.00 20.00     0.071 C 
HETATM    4  C5  UNL     1     -35.116   5.213   4.392  1.00 20.00     0.179 C 
HETATM    5  C6  UNL     1     -33.708   4.657   4.252  1.00 20.00     0.012 C 
HETATM    6  C8  UNL     1     -33.658   3.145   4.136  1.00 20.00     0.012 C 
HETATM    7  O10 UNL     1     -35.033   6.598   4.023  1.00 20.00    -0.355 OA
ENDROOT
BRANCH   2   8
HETATM    8  C3  UNL     1     -32.346   7.927   1.775  1.00 20.00     0.147 C 
HETATM    9  C7  UNL     1     -32.245   9.112   0.852  1.00 20.00     0.096 C 
HETATM   10  O9  UNL     1     -31.450   7.088   1.833  1.00 20.00    -0.294 OA
ENDBRANCH   2   8
TORSDOF 1
ENDMDL
MODEL 2
REMARK VINA RESULT:      -0.8      1.728      4.925
REMARK  1 active torsions:
REMARK  status: ('A' for Active; 'I' for Inactive)
REMARK    1  A    between atoms: C2_2  and  C3_3 
ROOT
HETATM    1  C1  UNL     1     -32.569   7.611   2.116  1.00 20.00     0.050 C 
HETATM    2  C2  UNL     1     -32.934   6.843   3.148  1.00 20.00     0.082 C 
HETATM    3  C4  UNL     1     -33.242   8.880   1.707  1.00 20.00     0.071 C 
HETATM    4  C5  UNL     1     -31.401   8.343   0.344  1.00 20.00     0.179 C 
HETATM    5  C6  UNL     1     -32.115   9.544   0.943  1.00 20.00     0.012 C 
HETATM    6  C8  UNL     1     -32.580  10.553  -0.090  1.00 20.00     0.012 C 
HETATM    7  O10 UNL     1     -31.453   7.313   1.344  1.00 20.00    -0.355 OA
ENDROOT
BRANCH   2   8
HETATM    8  C3  UNL     1     -34.091   7.218   4.003  1.00 20.00     0.147 C 
HETATM    9  C7  UNL     1     -35.328   6.367   3.876  1.00 20.00     0.096 C 
HETATM   10  O9  UNL     1     -34.045   8.157   4.793  1.00 20.00    -0.294 OA
ENDBRANCH   2   8
TORSDOF 1
ENDMDL
MODEL 3
REMARK VINA RESULT:      -0.7      1.613      2.495
REMARK  1 active torsions:
REMARK  status: ('A' for Active; 'I' for Inactive)
REMARK    1  A    between atoms: C2_2  and  C3_3 
ROOT
HETATM    1  C1  UNL     1     -32.613   7.059   1.809  1.00 20.00     0.050 C 
HETATM    2  C2  UNL     1     -31.951   7.835   0.945  1.00 20.00     0.082 C 
HETATM    3  C4  UNL     1     -33.654   7.533   2.770  1.00 20.00     0.071 C 
HETATM    4  C5  UNL     1     -33.285   5.213   2.895  1.00 20.00     0.179 C 
HETATM    5  C6  UNL     1     -34.401   6.238   3.012  1.00 20.00     0.012 C 
HETATM    6  C8  UNL     1     -35.137   6.189   4.338  1.00 20.00     0.012 C 
HETATM    7  O10 UNL     1     -32.424   5.684   1.846  1.00 20.00    -0.355 OA
ENDROOT
BRANCH   2   8
HETATM    8  C3  UNL     1     -32.219   9.296   0.876  1.00 20.00     0.147 C 
HETATM    9  C7  UNL     1     -32.671   9.839  -0.454  1.00 20.00     0.096 C 
HETATM   10  O9  UNL     1     -32.102  10.030   1.855  1.00 20.00    -0.294 OA
ENDBRANCH   2   8
TORSDOF 1
ENDMDL
MODEL 4
REMARK VINA RESULT:      -0.3      1.249      4.444
REMARK  1 active torsions:
REMARK  status: ('A' for Active; 'I' for Inactive)
REMARK    1  A    between atoms: C2_2  and  C3_3 
ROOT
HETATM    1  C1  UNL     1     -33.033   6.063   2.354  1.00 20.00     0.050 C 
HETATM    2  C2  UNL     1     -33.666   5.230   3.185  1.00 20.00     0.082 C 
HETATM    3  C4  UNL     1     -33.297   7.528   2.235  1.00 20.00     0.071 C 
HETATM    4  C5  UNL     1     -31.587   6.791   0.798  1.00 20.00     0.179 C 
HETATM    5  C6  UNL     1     -31.981   7.989   1.646  1.00 20.00     0.012 C 
HETATM    6  C8  UNL     1     -32.075   9.285   0.863  1.00 20.00     0.012 C 
HETATM    7  O10 UNL     1     -31.992   5.630   1.542  1.00 20.00    -0.355 OA
ENDROOT
BRANCH   2   8
HETATM    8  C3  UNL     1     -34.732   5.728   4.095  1.00 20.00     0.147 C 
HETATM    9  C7  UNL     1     -34.745   7.208   4.374  1.00 20.00     0.096 C 
HETATM   10  O9  UNL     1     -35.578   4.982   4.582  1.00 20.00    -0.294 OA
ENDBRANCH   2   8
TORSDOF 1
ENDMDL
MODEL 5
REMARK VINA RESULT:      -0.1      1.558      4.014
REMARK  1 active torsions:
REMARK  status: ('A' for Active; 'I' for Inactive)
REMARK    1  A    between atoms: C2_2  and  C3_3 
ROOT
HETATM    1  C1  UNL     1     -33.354   6.978   2.845  1.00 20.00     0.050 C 
HETATM    2  C2  UNL     1     -34.385   7.306   3.631  1.00 20.00     0.082 C 
HETATM    3  C4  UNL     1     -33.195   5.676   2.132  1.00 20.00     0.071 C 
HETATM    4  C5  UNL     1     -31.423   7.166   1.716  1.00 20.00     0.179 C 
HETATM    5  C6  UNL     1     -32.249   6.092   1.026  1.00 20.00     0.012 C 
HETATM    6  C8  UNL     1     -31.419   4.954   0.462  1.00 20.00     0.012 C 
HETATM    7  O10 UNL     1     -32.335   7.879   2.567  1.00 20.00    -0.355 OA
ENDROOT
BRANCH   2   8
HETATM    8  C3  UNL     1     -35.500   6.349   3.862  1.00 20.00     0.147 C 
HETATM    9  C7  UNL     1     -35.211   5.180   4.767  1.00 20.00     0.096 C 
HETATM   10  O9  UNL     1     -36.611   6.508   3.363  1.00 20.00    -0.294 OA
ENDBRANCH   2   8
TORSDOF 1
ENDMDL
MODEL 6
REMARK VINA RESULT:       0.0      1.520      4.387
REMARK  1 active torsions:
REMARK  status: ('A' for Active; 'I' for Inactive)
REMARK    1  A    between atoms: C2_2  and  C3_3 
ROOT
HETATM    1  C1  UNL     1     -33.193   7.595   3.611  1.00 20.00     0.050 C 
HETATM    2  C2  UNL     1     -34.166   7.195   4.435  1.00 20.00     0.082 C 
HETATM    3  C4  UNL     1     -33.003   7.120   2.207  1.00 20.00     0.071 C 
HETATM    4  C5  UNL     1     -31.397   8.712   2.857  1.00 20.00     0.179 C 
HETATM    5  C6  UNL     1     -32.200   8.273   1.643  1.00 20.00     0.012 C 
HETATM    6  C8  UNL     1     -31.343   7.901   0.447  1.00 20.00     0.012 C 
HETATM    7  O10 UNL     1     -32.276   8.569   3.984  1.00 20.00    -0.355 OA
ENDROOT
BRANCH   2   8
HETATM    8  C3  UNL     1     -35.178   6.201   3.991  1.00 20.00     0.147 C 
HETATM    9  C7  UNL     1     -34.928   4.765   4.371  1.00 20.00     0.096 C 
HETATM   10  O9  UNL     1     -36.184   6.526   3.364  1.00 20.00    -0.294 OA
ENDBRANCH   2   8
TORSDOF 1
ENDMDL
MODEL 7
REMARK VINA RESULT:       0.2      1.642      4.307
REMARK  1 active torsions:
REMARK  status: ('A' for Active; 'I' for Inactive)
REMARK    1  A    between atoms: C2_2  and  C3_3 
ROOT
HETATM    1  C1  UNL     1     -34.170   5.598   3.931  1.00 20.00     0.050 C 
HETATM    2  C2  UNL     1     -34.524   4.479   4.569  1.00 20.00     0.082 C 
HETATM    3  C4  UNL     1     -32.912   5.782   3.146  1.00 20.00     0.071 C 
HETATM    4  C5  UNL     1     -34.279   7.696   3.138  1.00 20.00     0.179 C 
HETATM    5  C6  UNL     1     -33.327   6.922   2.240  1.00 20.00     0.012 C 
HETATM    6  C8  UNL     1     -32.168   7.753   1.722  1.00 20.00     0.012 C 
HETATM    7  O10 UNL     1     -35.003   6.709   3.890  1.00 20.00    -0.355 OA
ENDROOT
BRANCH   2   8
HETATM    8  C3  UNL     1     -33.647   3.278   4.542  1.00 20.00     0.147 C 
HETATM    9  C7  UNL     1     -32.666   3.132   5.676  1.00 20.00     0.096 C 
HETATM   10  O9  UNL     1     -33.726   2.430   3.658  1.00 20.00    -0.294 OA
ENDBRANCH   2   8
TORSDOF 1
ENDMDL
MODEL 8
REMARK VINA RESULT:       0.3      1.830      2.190
REMARK  1 active torsions:
REMARK  status: ('A' for Active; 'I' for Inactive)
REMARK    1  A    between atoms: C2_2  and  C3_3 
ROOT
HETATM    1  C1  UNL     1     -32.775   8.182   3.207  1.00 20.00     0.050 C 
HETATM    2  C2  UNL     1     -31.822   8.762   2.471  1.00 20.00     0.082 C 
HETATM    3  C4  UNL     1     -33.887   7.341   2.670  1.00 20.00     0.071 C 
HETATM    4  C5  UNL     1     -33.946   7.543   5.013  1.00 20.00     0.179 C 
HETATM    5  C6  UNL     1     -34.237   6.541   3.907  1.00 20.00     0.012 C 
HETATM    6  C8  UNL     1     -35.660   6.016   3.920  1.00 20.00     0.012 C 
HETATM    7  O10 UNL     1     -32.778   8.267   4.593  1.00 20.00    -0.355 OA
ENDROOT
BRANCH   2   8
HETATM    8  C3  UNL     1     -31.800   8.602   0.992  1.00 20.00     0.147 C 
HETATM    9  C7  UNL     1     -32.393   9.725   0.182  1.00 20.00     0.096 C 
HETATM   10  O9  UNL     1     -31.304   7.619   0.448  1.00 20.00    -0.294 OA
ENDBRANCH   2   8
TORSDOF 1
ENDMDL
MODEL 9
REMARK VINA RESULT:       0.5      1.356      4.621
REMARK  1 active torsions:
REMARK  status: ('A' for Active; 'I' for Inactive)
REMARK    1  A    between atoms: C2_2  and  C3_3 
ROOT
HETATM    1  C1  UNL     1     -33.154   5.404   2.344  1.00 20.00     0.050 C 
HETATM    2  C2  UNL     1     -33.490   4.196   2.807  1.00 20.00     0.082 C 
HETATM    3  C4  UNL     1     -33.267   6.681   3.110  1.00 20.00     0.071 C 
HETATM    4  C5  UNL     1     -32.389   6.988   0.949  1.00 20.00     0.179 C 
HETATM    5  C6  UNL     1     -32.258   7.529   2.364  1.00 20.00     0.012 C 
HETATM    6  C8  UNL     1     -32.507   9.022   2.471  1.00 20.00     0.012 C 
HETATM    7  O10 UNL     1     -32.593   5.573   1.085  1.00 20.00    -0.355 OA
ENDROOT
BRANCH   2   8
HETATM    8  C3  UNL     1     -34.025   4.030   4.184  1.00 20.00     0.147 C 
HETATM    9  C7  UNL     1     -33.213   3.183   5.128  1.00 20.00     0.096 C 
HETATM   10  O9  UNL     1     -35.065   4.572   4.551  1.00 20.00    -0.294 OA
ENDBRANCH   2   8
TORSDOF 1
ENDMDL
