MODEL 1
REMARK VINA RESULT:      -2.3      0.000      0.000
REMARK  2 active torsions:
REMARK  status: ('A' for Active; 'I' for Inactive)
REMARK    1  A    between atoms: C4_4  and  C5_5 
REMARK    2  A    between atoms: C5_5  and  C8_8 
ROOT
HETATM    1  C1  UNL     1     -35.306   5.199   4.627  1.00 20.00    -0.027 A 
HETATM    2  C2  UNL     1     -35.368   6.454   4.158  1.00 20.00    -0.026 A 
HETATM    3  C3  UNL     1     -33.280   4.758   3.195  1.00 20.00    -0.012 A 
HETATM    4  C4  UNL     1     -33.349   6.015   2.732  1.00 20.00    -0.003 A 
HETATM    5  C6  UNL     1     -34.257   4.213   4.199  1.00 20.00     0.054 A 
HETATM    6  C7  UNL     1     -34.392   7.006   3.158  1.00 20.00     0.069 A 
ENDROOT
BRANCH   4   7
HETATM    7  C5  UNL     1     -32.344   6.439   1.755  1.00 20.00     0.261 C 
HETATM    8  O9  UNL     1     -31.839   5.630   0.976  1.00 20.00    -0.283 OA
BRANCH   7   9
HETATM    9  C8  UNL     1     -31.961   7.893   1.747  1.00 20.00     0.455 C 
HETATM   10  F10 UNL     1     -32.970   8.690   1.314  1.00 20.00    -0.163 F 
HETATM   11  F11 UNL     1     -30.898   8.130   0.936  1.00 20.00    -0.163 F 
HETATM   12  F12 UNL     1     -31.619   8.331   2.984  1.00 20.00    -0.163 F 
ENDBRANCH   7   9
ENDBRANCH   4   7
TORSDOF 2
ENDMDL
MODEL 2
REMARK VINA RESULT:      -2.1      0.100      1.449
REMARK  2 active torsions:
REMARK  status: ('A' for Active; 'I' for Inactive)
REMARK    1  A    between atoms: C4_4  and  C5_5 
REMARK    2  A    between atoms: C5_5  and  C8_8 
ROOT
HETATM    1  C1  UNL     1     -35.246   5.092   4.637  1.00 20.00    -0.027 A 
HETATM    2  C2  UNL     1     -34.295   4.231   4.246  1.00 20.00    -0.026 A 
HETATM    3  C3  UNL     1     -34.285   6.854   3.114  1.00 20.00    -0.012 A 
HETATM    4  C4  UNL     1     -33.337   5.986   2.728  1.00 20.00    -0.003 A 
HETATM    5  C6  UNL     1     -35.348   6.497   4.114  1.00 20.00     0.054 A 
HETATM    6  C7  UNL     1     -33.233   4.582   3.243  1.00 20.00     0.069 A 
ENDROOT
BRANCH   4   7
HETATM    7  C5  UNL     1     -32.351   6.443   1.746  1.00 20.00     0.261 C 
HETATM    8  O9  UNL     1     -31.850   5.657   0.942  1.00 20.00    -0.283 OA
BRANCH   7   9
HETATM    9  C8  UNL     1     -31.982   7.901   1.768  1.00 20.00     0.455 C 
HETATM   10  F10 UNL     1     -33.019   8.701   1.412  1.00 20.00    -0.163 F 
HETATM   11  F11 UNL     1     -30.963   8.175   0.914  1.00 20.00    -0.163 F 
HETATM   12  F12 UNL     1     -31.582   8.302   3.000  1.00 20.00    -0.163 F 
ENDBRANCH   7   9
ENDBRANCH   4   7
TORSDOF 2
ENDMDL
MODEL 3
REMARK VINA RESULT:      -2.0      2.766      4.170
REMARK  2 active torsions:
REMARK  status: ('A' for Active; 'I' for Inactive)
REMARK    1  A    between atoms: C4_4  and  C5_5 
REMARK    2  A    between atoms: C5_5  and  C8_8 
ROOT
HETATM    1  C1  UNL     1     -31.626   7.795   1.095  1.00 20.00    -0.027 A 
HETATM    2  C2  UNL     1     -32.180   8.362   2.177  1.00 20.00    -0.026 A 
HETATM    3  C3  UNL     1     -32.721   5.602   1.675  1.00 20.00    -0.012 A 
HETATM    4  C4  UNL     1     -33.272   6.176   2.755  1.00 20.00    -0.003 A 
HETATM    5  C6  UNL     1     -31.836   6.355   0.723  1.00 20.00     0.054 A 
HETATM    6  C7  UNL     1     -33.069   7.615   3.130  1.00 20.00     0.069 A 
ENDROOT
BRANCH   4   7
HETATM    7  C5  UNL     1     -34.118   5.346   3.615  1.00 20.00     0.261 C 
HETATM    8  O9  UNL     1     -33.851   4.159   3.807  1.00 20.00    -0.283 OA
BRANCH   7   9
HETATM    9  C8  UNL     1     -35.317   6.001   4.243  1.00 20.00     0.455 C 
HETATM   10  F10 UNL     1     -36.228   6.403   3.320  1.00 20.00    -0.163 F 
HETATM   11  F11 UNL     1     -34.971   7.102   4.959  1.00 20.00    -0.163 F 
HETATM   12  F12 UNL     1     -35.962   5.164   5.092  1.00 20.00    -0.163 F 
ENDBRANCH   7   9
ENDBRANCH   4   7
TORSDOF 2
ENDMDL
MODEL 4
REMARK VINA RESULT:      -1.9      2.763      4.354
REMARK  2 active torsions:
REMARK  status: ('A' for Active; 'I' for Inactive)
REMARK    1  A    between atoms: C4_4  and  C5_5 
REMARK    2  A    between atoms: C5_5  and  C8_8 
ROOT
HETATM    1  C1  UNL     1     -31.655   7.961   1.143  1.00 20.00    -0.027 A 
HETATM    2  C2  UNL     1     -31.842   6.697   0.735  1.00 20.00    -0.026 A 
HETATM    3  C3  UNL     1     -33.097   7.529   3.163  1.00 20.00    -0.012 A 
HETATM    4  C4  UNL     1     -33.278   6.266   2.749  1.00 20.00    -0.003 A 
HETATM    5  C6  UNL     1     -32.260   8.517   2.400  1.00 20.00     0.054 A 
HETATM    6  C7  UNL     1     -32.674   5.704   1.496  1.00 20.00     0.069 A 
ENDROOT
BRANCH   4   7
HETATM    7  C5  UNL     1     -34.115   5.390   3.572  1.00 20.00     0.261 C 
HETATM    8  O9  UNL     1     -33.840   4.197   3.707  1.00 20.00    -0.283 OA
BRANCH   7   9
HETATM    9  C8  UNL     1     -35.314   6.008   4.236  1.00 20.00     0.455 C 
HETATM   10  F10 UNL     1     -36.242   6.427   3.338  1.00 20.00    -0.163 F 
HETATM   11  F11 UNL     1     -34.975   7.089   4.984  1.00 20.00    -0.163 F 
HETATM   12  F12 UNL     1     -35.938   5.134   5.065  1.00 20.00    -0.163 F 
ENDBRANCH   7   9
ENDBRANCH   4   7
TORSDOF 2
ENDMDL
MODEL 5
REMARK VINA RESULT:      -1.9      3.392      4.515
REMARK  2 active torsions:
REMARK  status: ('A' for Active; 'I' for Inactive)
REMARK    1  A    between atoms: C4_4  and  C5_5 
REMARK    2  A    between atoms: C5_5  and  C8_8 
ROOT
HETATM    1  C1  UNL     1     -32.446   7.692   1.785  1.00 20.00    -0.027 A 
HETATM    2  C2  UNL     1     -33.057   8.041   2.927  1.00 20.00    -0.026 A 
HETATM    3  C3  UNL     1     -33.015   5.275   2.212  1.00 20.00    -0.012 A 
HETATM    4  C4  UNL     1     -33.625   5.633   3.353  1.00 20.00    -0.003 A 
HETATM    5  C6  UNL     1     -32.358   6.273   1.301  1.00 20.00     0.054 A 
HETATM    6  C7  UNL     1     -33.719   7.049   3.840  1.00 20.00     0.069 A 
ENDROOT
BRANCH   4   7
HETATM    7  C5  UNL     1     -34.232   4.575   4.164  1.00 20.00     0.261 C 
HETATM    8  O9  UNL     1     -35.406   4.654   4.528  1.00 20.00    -0.283 OA
BRANCH   7   9
HETATM    9  C8  UNL     1     -33.364   3.403   4.529  1.00 20.00     0.455 C 
HETATM   10  F10 UNL     1     -32.061   3.606   4.206  1.00 20.00    -0.163 F 
HETATM   11  F11 UNL     1     -33.755   2.269   3.893  1.00 20.00    -0.163 F 
HETATM   12  F12 UNL     1     -33.402   3.142   5.860  1.00 20.00    -0.163 F 
ENDBRANCH   7   9
ENDBRANCH   4   7
TORSDOF 2
ENDMDL
MODEL 6
REMARK VINA RESULT:      -1.8      3.400      4.681
REMARK  2 active torsions:
REMARK  status: ('A' for Active; 'I' for Inactive)
REMARK    1  A    between atoms: C4_4  and  C5_5 
REMARK    2  A    between atoms: C5_5  and  C8_8 
ROOT
HETATM    1  C1  UNL     1     -32.448   7.686   1.803  1.00 20.00    -0.027 A 
HETATM    2  C2  UNL     1     -32.342   6.424   1.359  1.00 20.00    -0.026 A 
HETATM    3  C3  UNL     1     -33.731   6.876   3.814  1.00 20.00    -0.012 A 
HETATM    4  C4  UNL     1     -33.620   5.617   3.363  1.00 20.00    -0.003 A 
HETATM    5  C6  UNL     1     -33.151   8.051   3.079  1.00 20.00     0.054 A 
HETATM    6  C7  UNL     1     -32.916   5.246   2.092  1.00 20.00     0.069 A 
ENDROOT
BRANCH   4   7
HETATM    7  C5  UNL     1     -34.225   4.549   4.162  1.00 20.00     0.261 C 
HETATM    8  O9  UNL     1     -35.402   4.614   4.516  1.00 20.00    -0.283 OA
BRANCH   7   9
HETATM    9  C8  UNL     1     -33.349   3.382   4.527  1.00 20.00     0.455 C 
HETATM   10  F10 UNL     1     -32.051   3.586   4.190  1.00 20.00    -0.163 F 
HETATM   11  F11 UNL     1     -33.743   2.242   3.903  1.00 20.00    -0.163 F 
HETATM   12  F12 UNL     1     -33.374   3.131   5.860  1.00 20.00    -0.163 F 
ENDBRANCH   7   9
ENDBRANCH   4   7
TORSDOF 2
ENDMDL
MODEL 7
REMARK VINA RESULT:      -1.8      1.951      2.789
REMARK  2 active torsions:
REMARK  status: ('A' for Active; 'I' for Inactive)
REMARK    1  A    between atoms: C4_4  and  C5_5 
REMARK    2  A    between atoms: C5_5  and  C8_8 
ROOT
HETATM    1  C1  UNL     1     -34.178   6.231   3.713  1.00 20.00    -0.027 A 
HETATM    2  C2  UNL     1     -33.711   5.673   2.586  1.00 20.00    -0.026 A 
HETATM    3  C3  UNL     1     -33.138   8.431   3.060  1.00 20.00    -0.012 A 
HETATM    4  C4  UNL     1     -32.675   7.865   1.935  1.00 20.00    -0.003 A 
HETATM    5  C6  UNL     1     -33.944   7.671   4.074  1.00 20.00     0.054 A 
HETATM    6  C7  UNL     1     -32.908   6.429   1.567  1.00 20.00     0.069 A 
ENDROOT
BRANCH   4   7
HETATM    7  C5  UNL     1     -31.899   8.701   1.018  1.00 20.00     0.261 C 
HETATM    8  O9  UNL     1     -30.712   8.460   0.793  1.00 20.00    -0.283 OA
BRANCH   7   9
HETATM    9  C8  UNL     1     -32.609   9.858   0.371  1.00 20.00     0.455 C 
HETATM   10  F10 UNL     1     -33.640  10.317   1.125  1.00 20.00    -0.163 F 
HETATM   11  F11 UNL     1     -33.127   9.519  -0.837  1.00 20.00    -0.163 F 
HETATM   12  F12 UNL     1     -31.777  10.909   0.163  1.00 20.00    -0.163 F 
ENDBRANCH   7   9
ENDBRANCH   4   7
TORSDOF 2
ENDMDL
MODEL 8
REMARK VINA RESULT:      -1.8      1.953      2.500
REMARK  2 active torsions:
REMARK  status: ('A' for Active; 'I' for Inactive)
REMARK    1  A    between atoms: C4_4  and  C5_5 
REMARK    2  A    between atoms: C5_5  and  C8_8 
ROOT
HETATM    1  C1  UNL     1     -34.215   6.195   3.638  1.00 20.00    -0.027 A 
HETATM    2  C2  UNL     1     -34.041   7.481   3.979  1.00 20.00    -0.026 A 
HETATM    3  C3  UNL     1     -32.852   6.560   1.550  1.00 20.00    -0.012 A 
HETATM    4  C4  UNL     1     -32.684   7.844   1.899  1.00 20.00    -0.003 A 
HETATM    5  C6  UNL     1     -33.639   5.592   2.388  1.00 20.00     0.054 A 
HETATM    6  C7  UNL     1     -33.253   8.451   3.147  1.00 20.00     0.069 A 
ENDROOT
BRANCH   4   7
HETATM    7  C5  UNL     1     -31.898   8.698   1.005  1.00 20.00     0.261 C 
HETATM    8  O9  UNL     1     -30.706   8.468   0.799  1.00 20.00    -0.283 OA
BRANCH   7   9
HETATM    9  C8  UNL     1     -32.606   9.856   0.360  1.00 20.00     0.455 C 
HETATM   10  F10 UNL     1     -33.625  10.328   1.122  1.00 20.00    -0.163 F 
HETATM   11  F11 UNL     1     -33.139   9.515  -0.841  1.00 20.00    -0.163 F 
HETATM   12  F12 UNL     1     -31.768  10.900   0.138  1.00 20.00    -0.163 F 
ENDBRANCH   7   9
ENDBRANCH   4   7
TORSDOF 2
ENDMDL
MODEL 9
REMARK VINA RESULT:      -1.8      1.965      2.481
REMARK  2 active torsions:
REMARK  status: ('A' for Active; 'I' for Inactive)
REMARK    1  A    between atoms: C4_4  and  C5_5 
REMARK    2  A    between atoms: C5_5  and  C8_8 
ROOT
HETATM    1  C1  UNL     1     -34.197   6.180   3.617  1.00 20.00    -0.027 A 
HETATM    2  C2  UNL     1     -34.031   7.463   3.969  1.00 20.00    -0.026 A 
HETATM    3  C3  UNL     1     -32.835   6.569   1.533  1.00 20.00    -0.012 A 
HETATM    4  C4  UNL     1     -32.673   7.851   1.894  1.00 20.00    -0.003 A 
HETATM    5  C6  UNL     1     -33.617   5.590   2.363  1.00 20.00     0.054 A 
HETATM    6  C7  UNL     1     -33.246   8.445   3.146  1.00 20.00     0.069 A 
ENDROOT
BRANCH   4   7
HETATM    7  C5  UNL     1     -31.890   8.716   1.008  1.00 20.00     0.261 C 
HETATM    8  O9  UNL     1     -30.691   8.510   0.822  1.00 20.00    -0.283 OA
BRANCH   7   9
HETATM    9  C8  UNL     1     -32.612   9.857   0.345  1.00 20.00     0.455 C 
HETATM   10  F10 UNL     1     -33.131   9.508  -0.859  1.00 20.00    -0.163 F 
HETATM   11  F11 UNL     1     -31.789  10.914   0.127  1.00 20.00    -0.163 F 
HETATM   12  F12 UNL     1     -33.644  10.308   1.101  1.00 20.00    -0.163 F 
ENDBRANCH   7   9
ENDBRANCH   4   7
TORSDOF 2
ENDMDL
