MODEL 1
REMARK VINA RESULT:       0.3      0.000      0.000
REMARK  0 active torsions:
REMARK  status: ('A' for Active; 'I' for Inactive)
ROOT
HETATM    1  C1  UNL     1     -33.566   7.569   4.891  1.00 20.00     0.012 A 
HETATM    2  C2  UNL     1     -31.857   6.382   1.635  1.00 20.00     0.006 A 
HETATM    3  C3  UNL     1     -34.506   5.663   3.763  1.00 20.00     0.101 C 
HETATM    4  C4  UNL     1     -34.654   7.026   4.340  1.00 20.00     0.016 A 
HETATM    5  C5  UNL     1     -33.086   6.414   2.178  1.00 20.00     0.035 A 
HETATM    6  C6  UNL     1     -31.914   8.685   0.431  1.00 20.00     0.015 A 
HETATM    7  C7  UNL     1     -34.059   8.195   3.702  1.00 20.00     0.017 A 
HETATM    8  C8  UNL     1     -31.284   7.717   1.387  1.00 20.00     0.015 A 
HETATM    9  C9  UNL     1     -33.550   7.872   2.320  1.00 20.00     0.048 A 
HETATM   10  C10 UNL     1     -32.348   8.690   1.873  1.00 20.00     0.004 A 
HETATM   11  N11 UNL     1     -33.783   5.365   2.722  1.00 20.00    -0.269 NA
ENDROOT
TORSDOF 0
ENDMDL
MODEL 2
REMARK VINA RESULT:       0.3      1.322      3.906
REMARK  0 active torsions:
REMARK  status: ('A' for Active; 'I' for Inactive)
ROOT
HETATM    1  C1  UNL     1     -31.483   5.380   1.805  1.00 20.00     0.012 A 
HETATM    2  C2  UNL     1     -33.486   7.803   4.052  1.00 20.00     0.006 A 
HETATM    3  C3  UNL     1     -31.558   7.698   1.166  1.00 20.00     0.101 C 
HETATM    4  C4  UNL     1     -31.779   6.263   0.848  1.00 20.00     0.016 A 
HETATM    5  C5  UNL     1     -33.158   7.663   2.757  1.00 20.00     0.035 A 
HETATM    6  C6  UNL     1     -35.700   6.441   4.031  1.00 20.00     0.015 A 
HETATM    7  C7  UNL     1     -32.866   5.504   1.457  1.00 20.00     0.017 A 
HETATM    8  C8  UNL     1     -34.327   6.709   4.572  1.00 20.00     0.015 A 
HETATM    9  C9  UNL     1     -33.829   6.405   2.186  1.00 20.00     0.048 A 
HETATM   10  C10 UNL     1     -34.514   5.772   3.387  1.00 20.00     0.004 A 
HETATM   11  N11 UNL     1     -32.222   8.381   2.054  1.00 20.00    -0.269 NA
ENDROOT
TORSDOF 0
ENDMDL
MODEL 3
REMARK VINA RESULT:       0.3      1.373      2.403
REMARK  0 active torsions:
REMARK  status: ('A' for Active; 'I' for Inactive)
ROOT
HETATM    1  C1  UNL     1     -35.587   6.734   3.424  1.00 20.00     0.012 A 
HETATM    2  C2  UNL     1     -32.216   7.705   1.804  1.00 20.00     0.006 A 
HETATM    3  C3  UNL     1     -33.981   7.895   4.789  1.00 20.00     0.101 C 
HETATM    4  C4  UNL     1     -34.871   6.728   4.552  1.00 20.00     0.016 A 
HETATM    5  C5  UNL     1     -32.697   7.363   3.011  1.00 20.00     0.035 A 
HETATM    6  C6  UNL     1     -31.621   5.325   0.944  1.00 20.00     0.015 A 
HETATM    7  C7  UNL     1     -34.570   5.732   3.529  1.00 20.00     0.017 A 
HETATM    8  C8  UNL     1     -32.334   6.637   0.795  1.00 20.00     0.015 A 
HETATM    9  C9  UNL     1     -33.176   5.904   2.983  1.00 20.00     0.048 A 
HETATM   10  C10 UNL     1     -32.999   5.483   1.532  1.00 20.00     0.004 A 
HETATM   11  N11 UNL     1     -32.932   8.194   4.079  1.00 20.00    -0.269 NA
ENDROOT
TORSDOF 0
ENDMDL
MODEL 4
REMARK VINA RESULT:       0.9      0.837      3.463
REMARK  0 active torsions:
REMARK  status: ('A' for Active; 'I' for Inactive)
ROOT
HETATM    1  C1  UNL     1     -32.514   8.391   0.754  1.00 20.00     0.012 A 
HETATM    2  C2  UNL     1     -34.486   6.228   3.277  1.00 20.00     0.006 A 
HETATM    3  C3  UNL     1     -31.960   6.054   0.900  1.00 20.00     0.101 C 
HETATM    4  C4  UNL     1     -31.555   7.483   0.955  1.00 20.00     0.016 A 
HETATM    5  C5  UNL     1     -33.259   6.280   2.731  1.00 20.00     0.035 A 
HETATM    6  C6  UNL     1     -34.044   7.737   5.347  1.00 20.00     0.015 A 
HETATM    7  C7  UNL     1     -31.944   8.345   2.066  1.00 20.00     0.017 A 
HETATM    8  C8  UNL     1     -34.815   7.402   4.105  1.00 20.00     0.015 A 
HETATM    9  C9  UNL     1     -32.536   7.551   3.202  1.00 20.00     0.048 A 
HETATM   10  C10 UNL     1     -33.581   8.290   4.023  1.00 20.00     0.004 A 
HETATM   11  N11 UNL     1     -32.750   5.465   1.751  1.00 20.00    -0.269 NA
ENDROOT
TORSDOF 0
ENDMDL
MODEL 5
REMARK VINA RESULT:       2.0      1.370      2.015
REMARK  0 active torsions:
REMARK  status: ('A' for Active; 'I' for Inactive)
ROOT
HETATM    1  C1  UNL     1     -33.321   7.819   4.439  1.00 20.00     0.012 A 
HETATM    2  C2  UNL     1     -32.855   4.324   2.859  1.00 20.00     0.006 A 
HETATM    3  C3  UNL     1     -35.202   6.319   4.461  1.00 20.00     0.101 C 
HETATM    4  C4  UNL     1     -34.601   7.633   4.107  1.00 20.00     0.016 A 
HETATM    5  C5  UNL     1     -33.830   5.231   3.039  1.00 20.00     0.035 A 
HETATM    6  C6  UNL     1     -31.972   5.168   0.564  1.00 20.00     0.015 A 
HETATM    7  C7  UNL     1     -33.616   7.759   3.039  1.00 20.00     0.017 A 
HETATM    8  C8  UNL     1     -31.754   4.801   2.002  1.00 20.00     0.015 A 
HETATM    9  C9  UNL     1     -33.518   6.495   2.224  1.00 20.00     0.048 A 
HETATM   10  C10 UNL     1     -32.147   6.222   1.626  1.00 20.00     0.004 A 
HETATM   11  N11 UNL     1     -34.861   5.175   3.944  1.00 20.00    -0.269 NA
ENDROOT
TORSDOF 0
ENDMDL
MODEL 6
REMARK VINA RESULT:       2.3      1.352      2.643
REMARK  0 active torsions:
REMARK  status: ('A' for Active; 'I' for Inactive)
ROOT
HETATM    1  C1  UNL     1     -33.556   5.539   1.189  1.00 20.00     0.012 A 
HETATM    2  C2  UNL     1     -33.076   9.353   1.577  1.00 20.00     0.006 A 
HETATM    3  C3  UNL     1     -33.609   6.454   3.413  1.00 20.00     0.101 C 
HETATM    4  C4  UNL     1     -33.044   5.501   2.422  1.00 20.00     0.016 A 
HETATM    5  C5  UNL     1     -32.818   8.226   2.262  1.00 20.00     0.035 A 
HETATM    6  C6  UNL     1     -30.856   9.496   0.232  1.00 20.00     0.015 A 
HETATM    7  C7  UNL     1     -32.193   5.952   1.327  1.00 20.00     0.017 A 
HETATM    8  C8  UNL     1     -32.354   9.445   0.295  1.00 20.00     0.015 A 
HETATM    9  C9  UNL     1     -31.774   7.389   1.507  1.00 20.00     0.048 A 
HETATM   10  C10 UNL     1     -31.547   8.157   0.214  1.00 20.00     0.004 A 
HETATM   11  N11 UNL     1     -33.488   7.750   3.361  1.00 20.00    -0.269 NA
ENDROOT
TORSDOF 0
ENDMDL
