MODEL 1
REMARK VINA RESULT:      -2.3      0.000      0.000
REMARK  2 active torsions:
REMARK  status: ('A' for Active; 'I' for Inactive)
REMARK    1  A    between atoms: C1_1  and  C8_8 
REMARK    2  A    between atoms: C2_2  and  C9_9 
ROOT
HETATM    1  C3  UNL     1     -33.829   5.826   3.194  1.00 20.00     0.142 C 
HETATM    2  C4  UNL     1     -35.095   6.087   4.031  1.00 20.00     0.081 C 
HETATM    3  C5  UNL     1     -34.629   7.557   4.135  1.00 20.00     0.032 C 
HETATM    4  C8  UNL     1     -33.214   7.182   3.608  1.00 20.00     0.135 C 
HETATM    5  O10 UNL     1     -33.468   4.909   2.487  1.00 20.00    -0.297 OA
ENDROOT
BRANCH   4   6
HETATM    6  C1  UNL     1     -32.734   7.961   2.494  1.00 20.00    -0.094 C 
HETATM    7  C2  UNL     1     -32.335   8.610   1.565  1.00 20.00    -0.101 C 
BRANCH   7   8
HETATM    8  C9  UNL     1     -31.848   9.400   0.435  1.00 20.00     0.065 A 
HETATM    9  C6  UNL     1     -32.393  10.777   0.262  1.00 20.00     0.018 A 
HETATM   10  C7  UNL     1     -32.799   9.683  -0.679  1.00 20.00     0.018 A 
ENDBRANCH   7   8
ENDBRANCH   4   6
TORSDOF 2
ENDMDL
MODEL 2
REMARK VINA RESULT:      -0.8      1.476      2.042
REMARK  2 active torsions:
REMARK  status: ('A' for Active; 'I' for Inactive)
REMARK    1  A    between atoms: C1_1  and  C8_8 
REMARK    2  A    between atoms: C2_2  and  C9_9 
ROOT
HETATM    1  C3  UNL     1     -34.722   5.589   3.795  1.00 20.00     0.142 C 
HETATM    2  C4  UNL     1     -34.160   4.337   4.493  1.00 20.00     0.081 C 
HETATM    3  C5  UNL     1     -33.048   4.333   3.420  1.00 20.00     0.032 C 
HETATM    4  C8  UNL     1     -33.835   5.356   2.551  1.00 20.00     0.135 C 
HETATM    5  O10 UNL     1     -35.542   6.426   4.110  1.00 20.00    -0.297 OA
ENDROOT
BRANCH   4   6
HETATM    6  C1  UNL     1     -33.098   6.527   2.142  1.00 20.00    -0.094 C 
HETATM    7  C2  UNL     1     -32.485   7.501   1.801  1.00 20.00    -0.101 C 
BRANCH   7   8
HETATM    8  C9  UNL     1     -31.738   8.688   1.386  1.00 20.00     0.065 A 
HETATM    9  C6  UNL     1     -32.483   9.767   0.676  1.00 20.00     0.018 A 
HETATM   10  C7  UNL     1     -31.519   8.898  -0.075  1.00 20.00     0.018 A 
ENDBRANCH   7   8
ENDBRANCH   4   6
TORSDOF 2
ENDMDL
MODEL 3
REMARK VINA RESULT:      -0.8      2.180      5.115
REMARK  2 active torsions:
REMARK  status: ('A' for Active; 'I' for Inactive)
REMARK    1  A    between atoms: C1_1  and  C8_8 
REMARK    2  A    between atoms: C2_2  and  C9_9 
ROOT
HETATM    1  C3  UNL     1     -32.485  10.363   0.695  1.00 20.00     0.142 C 
HETATM    2  C4  UNL     1     -32.652  10.129  -0.818  1.00 20.00     0.081 C 
HETATM    3  C5  UNL     1     -32.489   8.620  -0.523  1.00 20.00     0.032 C 
HETATM    4  C8  UNL     1     -31.973   8.921   0.914  1.00 20.00     0.135 C 
HETATM    5  O10 UNL     1     -32.684  11.314   1.421  1.00 20.00    -0.297 OA
ENDROOT
BRANCH   4   6
HETATM    6  C1  UNL     1     -32.650   8.226   1.980  1.00 20.00    -0.094 C 
HETATM    7  C2  UNL     1     -33.215   7.647   2.868  1.00 20.00    -0.101 C 
BRANCH   7   8
HETATM    8  C9  UNL     1     -33.902   6.941   3.949  1.00 20.00     0.065 A 
HETATM    9  C6  UNL     1     -34.272   5.514   3.725  1.00 20.00     0.018 A 
HETATM   10  C7  UNL     1     -35.333   6.573   3.741  1.00 20.00     0.018 A 
ENDBRANCH   7   8
ENDBRANCH   4   6
TORSDOF 2
ENDMDL
MODEL 4
REMARK VINA RESULT:      -0.6      2.301      5.480
REMARK  2 active torsions:
REMARK  status: ('A' for Active; 'I' for Inactive)
REMARK    1  A    between atoms: C1_1  and  C8_8 
REMARK    2  A    between atoms: C2_2  and  C9_9 
ROOT
HETATM    1  C3  UNL     1     -32.298   6.657   1.501  1.00 20.00     0.142 C 
HETATM    2  C4  UNL     1     -31.925   8.092   1.919  1.00 20.00     0.081 C 
HETATM    3  C5  UNL     1     -32.987   7.960   3.034  1.00 20.00     0.032 C 
HETATM    4  C8  UNL     1     -33.577   6.682   2.369  1.00 20.00     0.135 C 
HETATM    5  O10 UNL     1     -31.780   5.837   0.773  1.00 20.00    -0.297 OA
ENDROOT
BRANCH   4   6
HETATM    6  C1  UNL     1     -33.710   5.533   3.230  1.00 20.00    -0.094 C 
HETATM    7  C2  UNL     1     -33.821   4.576   3.946  1.00 20.00    -0.101 C 
BRANCH   7   8
HETATM    8  C9  UNL     1     -33.956   3.411   4.820  1.00 20.00     0.065 A 
HETATM    9  C6  UNL     1     -32.775   3.015   5.640  1.00 20.00     0.018 A 
HETATM   10  C7  UNL     1     -33.189   2.181   4.464  1.00 20.00     0.018 A 
ENDBRANCH   7   8
ENDBRANCH   4   6
TORSDOF 2
ENDMDL
MODEL 5
REMARK VINA RESULT:       0.7      2.089      5.154
REMARK  2 active torsions:
REMARK  status: ('A' for Active; 'I' for Inactive)
REMARK    1  A    between atoms: C1_1  and  C8_8 
REMARK    2  A    between atoms: C2_2  and  C9_9 
ROOT
HETATM    1  C3  UNL     1     -31.781   8.524   2.215  1.00 20.00     0.142 C 
HETATM    2  C4  UNL     1     -32.185   9.392   1.009  1.00 20.00     0.081 C 
HETATM    3  C5  UNL     1     -32.664   8.088   0.330  1.00 20.00     0.032 C 
HETATM    4  C8  UNL     1     -31.925   7.223   1.392  1.00 20.00     0.135 C 
HETATM    5  O10 UNL     1     -31.472   8.775   3.361  1.00 20.00    -0.297 OA
ENDROOT
BRANCH   4   6
HETATM    6  C1  UNL     1     -32.724   6.215   2.044  1.00 20.00    -0.094 C 
HETATM    7  C2  UNL     1     -33.390   5.376   2.586  1.00 20.00    -0.101 C 
BRANCH   7   8
HETATM    8  C9  UNL     1     -34.200   4.354   3.248  1.00 20.00     0.065 A 
HETATM    9  C6  UNL     1     -34.711   4.648   4.617  1.00 20.00     0.018 A 
HETATM   10  C7  UNL     1     -33.610   3.649   4.423  1.00 20.00     0.018 A 
ENDBRANCH   7   8
ENDBRANCH   4   6
TORSDOF 2
ENDMDL
