MODEL 1
REMARK VINA RESULT:      -1.3      0.000      0.000
REMARK  3 active torsions:
REMARK  status: ('A' for Active; 'I' for Inactive)
REMARK    1  A    between atoms: C2_2  and  N9_9 
REMARK    2  A    between atoms: C6_6  and  N9_9 
REMARK    3  A    between atoms: C7_7  and  N9_9 
ROOT
HETATM    1  C1  UNL     1     -32.581   8.859   1.174  1.00 20.00     0.036 C 
HETATM    2  C2  UNL     1     -32.857   7.986   1.947  1.00 20.00     0.024 C 
HETATM    3  C3  UNL     1     -32.266   9.860   0.288  1.00 20.00     0.154 C 
HETATM    4  N8  UNL     1     -32.000  10.705  -0.461  1.00 20.00    -0.182 NA
ENDROOT
BRANCH   2   5
HETATM    5  N9  UNL     1     -33.192   6.926   2.886  1.00 20.00    -0.342 N 
BRANCH   5   6
HETATM    6  C6  UNL     1     -33.144   5.563   2.399  1.00 20.00     0.128 C 
HETATM    7  C4  UNL     1     -32.277   5.455   1.191  1.00 20.00     0.027 C 
ENDBRANCH   5   6
BRANCH   5   8
HETATM    8  C7  UNL     1     -34.115   7.248   3.954  1.00 20.00     0.128 C 
HETATM    9  C5  UNL     1     -35.242   6.272   4.004  1.00 20.00     0.027 C 
ENDBRANCH   5   8
ENDBRANCH   2   5
TORSDOF 3
ENDMDL
MODEL 2
REMARK VINA RESULT:      -0.6      2.028      3.168
REMARK  3 active torsions:
REMARK  status: ('A' for Active; 'I' for Inactive)
REMARK    1  A    between atoms: C2_2  and  N9_9 
REMARK    2  A    between atoms: C6_6  and  N9_9 
REMARK    3  A    between atoms: C7_7  and  N9_9 
ROOT
HETATM    1  C1  UNL     1     -32.770   6.671   2.213  1.00 20.00     0.036 C 
HETATM    2  C2  UNL     1     -33.300   5.755   2.777  1.00 20.00     0.024 C 
HETATM    3  C3  UNL     1     -32.162   7.719   1.567  1.00 20.00     0.154 C 
HETATM    4  N8  UNL     1     -31.649   8.605   1.022  1.00 20.00    -0.182 NA
ENDROOT
BRANCH   2   5
HETATM    5  N9  UNL     1     -33.943   4.644   3.461  1.00 20.00    -0.342 N 
BRANCH   5   6
HETATM    6  C6  UNL     1     -34.990   4.961   4.410  1.00 20.00     0.128 C 
HETATM    7  C4  UNL     1     -35.503   6.345   4.202  1.00 20.00     0.027 C 
ENDBRANCH   5   6
BRANCH   5   8
HETATM    8  C7  UNL     1     -33.158   3.445   3.669  1.00 20.00     0.128 C 
HETATM    9  C5  UNL     1     -33.170   3.036   5.103  1.00 20.00     0.027 C 
ENDBRANCH   5   8
ENDBRANCH   2   5
TORSDOF 3
ENDMDL
MODEL 3
REMARK VINA RESULT:      -0.6      0.265      2.334
REMARK  3 active torsions:
REMARK  status: ('A' for Active; 'I' for Inactive)
REMARK    1  A    between atoms: C2_2  and  N9_9 
REMARK    2  A    between atoms: C6_6  and  N9_9 
REMARK    3  A    between atoms: C7_7  and  N9_9 
ROOT
HETATM    1  C1  UNL     1     -32.665   8.830   1.078  1.00 20.00     0.036 C 
HETATM    2  C2  UNL     1     -33.006   7.898   1.751  1.00 20.00     0.024 C 
HETATM    3  C3  UNL     1     -32.275   9.897   0.306  1.00 20.00     0.154 C 
HETATM    4  N8  UNL     1     -31.945  10.798  -0.346  1.00 20.00    -0.182 NA
ENDROOT
BRANCH   2   5
HETATM    5  N9  UNL     1     -33.420   6.768   2.568  1.00 20.00    -0.342 N 
BRANCH   5   6
HETATM    6  C6  UNL     1     -34.049   7.060   3.840  1.00 20.00     0.128 C 
HETATM    7  C4  UNL     1     -35.267   6.225   4.041  1.00 20.00     0.027 C 
ENDBRANCH   5   6
BRANCH   5   8
HETATM    8  C7  UNL     1     -32.674   5.535   2.430  1.00 20.00     0.128 C 
HETATM    9  C5  UNL     1     -32.296   5.293   1.008  1.00 20.00     0.027 C 
ENDBRANCH   5   8
ENDBRANCH   2   5
TORSDOF 3
ENDMDL
MODEL 4
REMARK VINA RESULT:      -0.5      1.933      2.559
REMARK  3 active torsions:
REMARK  status: ('A' for Active; 'I' for Inactive)
REMARK    1  A    between atoms: C2_2  and  N9_9 
REMARK    2  A    between atoms: C6_6  and  N9_9 
REMARK    3  A    between atoms: C7_7  and  N9_9 
ROOT
HETATM    1  C1  UNL     1     -32.772   6.882   2.340  1.00 20.00     0.036 C 
HETATM    2  C2  UNL     1     -33.281   6.037   3.023  1.00 20.00     0.024 C 
HETATM    3  C3  UNL     1     -32.189   7.848   1.558  1.00 20.00     0.154 C 
HETATM    4  N8  UNL     1     -31.696   8.664   0.897  1.00 20.00    -0.182 NA
ENDROOT
BRANCH   2   5
HETATM    5  N9  UNL     1     -33.900   5.013   3.850  1.00 20.00    -0.342 N 
BRANCH   5   6
HETATM    6  C6  UNL     1     -33.514   3.639   3.611  1.00 20.00     0.128 C 
HETATM    7  C4  UNL     1     -33.158   2.951   4.885  1.00 20.00     0.027 C 
ENDBRANCH   5   6
BRANCH   5   8
HETATM    8  C7  UNL     1     -35.228   5.282   4.362  1.00 20.00     0.128 C 
HETATM    9  C5  UNL     1     -35.755   6.575   3.837  1.00 20.00     0.027 C 
ENDBRANCH   5   8
ENDBRANCH   2   5
TORSDOF 3
ENDMDL
MODEL 5
REMARK VINA RESULT:      -0.5      2.530      5.134
REMARK  3 active torsions:
REMARK  status: ('A' for Active; 'I' for Inactive)
REMARK    1  A    between atoms: C2_2  and  N9_9 
REMARK    2  A    between atoms: C6_6  and  N9_9 
REMARK    3  A    between atoms: C7_7  and  N9_9 
ROOT
HETATM    1  C1  UNL     1     -33.607   3.994   4.006  1.00 20.00     0.036 C 
HETATM    2  C2  UNL     1     -33.761   5.113   3.605  1.00 20.00     0.024 C 
HETATM    3  C3  UNL     1     -33.430   2.711   4.464  1.00 20.00     0.154 C 
HETATM    4  N8  UNL     1     -33.281   1.628   4.851  1.00 20.00    -0.182 NA
ENDROOT
BRANCH   2   5
HETATM    5  N9  UNL     1     -33.948   6.472   3.120  1.00 20.00    -0.342 N 
BRANCH   5   6
HETATM    6  C6  UNL     1     -33.045   6.942   2.090  1.00 20.00     0.128 C 
HETATM    7  C4  UNL     1     -32.534   5.810   1.266  1.00 20.00     0.027 C 
ENDBRANCH   5   6
BRANCH   5   8
HETATM    8  C7  UNL     1     -34.513   7.437   4.040  1.00 20.00     0.128 C 
HETATM    9  C5  UNL     1     -33.449   8.094   4.852  1.00 20.00     0.027 C 
ENDBRANCH   5   8
ENDBRANCH   2   5
TORSDOF 3
ENDMDL
MODEL 6
REMARK VINA RESULT:      -0.4      0.863      1.410
REMARK  3 active torsions:
REMARK  status: ('A' for Active; 'I' for Inactive)
REMARK    1  A    between atoms: C2_2  and  N9_9 
REMARK    2  A    between atoms: C6_6  and  N9_9 
REMARK    3  A    between atoms: C7_7  and  N9_9 
ROOT
HETATM    1  C1  UNL     1     -32.630   8.522   1.328  1.00 20.00     0.036 C 
HETATM    2  C2  UNL     1     -32.969   7.687   2.120  1.00 20.00     0.024 C 
HETATM    3  C3  UNL     1     -32.242   9.477   0.422  1.00 20.00     0.154 C 
HETATM    4  N8  UNL     1     -31.915  10.285  -0.345  1.00 20.00    -0.182 NA
ENDROOT
BRANCH   2   5
HETATM    5  N9  UNL     1     -33.380   6.676   3.081  1.00 20.00    -0.342 N 
BRANCH   5   6
HETATM    6  C6  UNL     1     -33.392   5.298   2.636  1.00 20.00     0.128 C 
HETATM    7  C4  UNL     1     -33.896   4.391   3.706  1.00 20.00     0.027 C 
ENDBRANCH   5   6
BRANCH   5   8
HETATM    8  C7  UNL     1     -34.310   7.078   4.116  1.00 20.00     0.128 C 
HETATM    9  C5  UNL     1     -33.726   8.145   4.979  1.00 20.00     0.027 C 
ENDBRANCH   5   8
ENDBRANCH   2   5
TORSDOF 3
ENDMDL
MODEL 7
REMARK VINA RESULT:      -0.3      1.589      4.667
REMARK  3 active torsions:
REMARK  status: ('A' for Active; 'I' for Inactive)
REMARK    1  A    between atoms: C2_2  and  N9_9 
REMARK    2  A    between atoms: C6_6  and  N9_9 
REMARK    3  A    between atoms: C7_7  and  N9_9 
ROOT
HETATM    1  C1  UNL     1     -34.111   6.582   3.423  1.00 20.00     0.036 C 
HETATM    2  C2  UNL     1     -33.322   7.238   2.803  1.00 20.00     0.024 C 
HETATM    3  C3  UNL     1     -35.015   5.830   4.134  1.00 20.00     0.154 C 
HETATM    4  N8  UNL     1     -35.778   5.195   4.734  1.00 20.00    -0.182 NA
ENDROOT
BRANCH   2   5
HETATM    5  N9  UNL     1     -32.364   8.033   2.050  1.00 20.00    -0.342 N 
BRANCH   5   6
HETATM    6  C6  UNL     1     -32.761   9.372   1.671  1.00 20.00     0.128 C 
HETATM    7  C4  UNL     1     -32.370   9.671   0.263  1.00 20.00     0.027 C 
ENDBRANCH   5   6
BRANCH   5   8
HETATM    8  C7  UNL     1     -31.424   7.323   1.208  1.00 20.00     0.128 C 
HETATM    9  C5  UNL     1     -31.772   5.876   1.115  1.00 20.00     0.027 C 
ENDBRANCH   5   8
ENDBRANCH   2   5
TORSDOF 3
ENDMDL
MODEL 8
REMARK VINA RESULT:      -0.3      1.453      2.494
REMARK  3 active torsions:
REMARK  status: ('A' for Active; 'I' for Inactive)
REMARK    1  A    between atoms: C2_2  and  N9_9 
REMARK    2  A    between atoms: C6_6  and  N9_9 
REMARK    3  A    between atoms: C7_7  and  N9_9 
ROOT
HETATM    1  C1  UNL     1     -32.523   7.476   1.633  1.00 20.00     0.036 C 
HETATM    2  C2  UNL     1     -33.125   6.662   2.276  1.00 20.00     0.024 C 
HETATM    3  C3  UNL     1     -31.834   8.407   0.896  1.00 20.00     0.154 C 
HETATM    4  N8  UNL     1     -31.252   9.194   0.274  1.00 20.00    -0.182 NA
ENDROOT
BRANCH   2   5
HETATM    5  N9  UNL     1     -33.856   5.674   3.056  1.00 20.00    -0.342 N 
BRANCH   5   6
HETATM    6  C6  UNL     1     -34.820   6.165   4.018  1.00 20.00     0.128 C 
HETATM    7  C4  UNL     1     -34.498   7.559   4.439  1.00 20.00     0.027 C 
ENDBRANCH   5   6
BRANCH   5   8
HETATM    8  C7  UNL     1     -33.200   4.410   3.314  1.00 20.00     0.128 C 
HETATM    9  C5  UNL     1     -33.840   3.695   4.455  1.00 20.00     0.027 C 
ENDBRANCH   5   8
ENDBRANCH   2   5
TORSDOF 3
ENDMDL
MODEL 9
REMARK VINA RESULT:      -0.1      2.513      5.598
REMARK  3 active torsions:
REMARK  status: ('A' for Active; 'I' for Inactive)
REMARK    1  A    between atoms: C2_2  and  N9_9 
REMARK    2  A    between atoms: C6_6  and  N9_9 
REMARK    3  A    between atoms: C7_7  and  N9_9 
ROOT
HETATM    1  C1  UNL     1     -33.436   3.947   3.968  1.00 20.00     0.036 C 
HETATM    2  C2  UNL     1     -33.448   5.082   3.581  1.00 20.00     0.024 C 
HETATM    3  C3  UNL     1     -33.422   2.647   4.411  1.00 20.00     0.154 C 
HETATM    4  N8  UNL     1     -33.411   1.549   4.785  1.00 20.00    -0.182 NA
ENDROOT
BRANCH   2   5
HETATM    5  N9  UNL     1     -33.462   6.458   3.110  1.00 20.00    -0.342 N 
BRANCH   5   6
HETATM    6  C6  UNL     1     -34.407   7.365   3.728  1.00 20.00     0.128 C 
HETATM    7  C4  UNL     1     -33.789   8.085   4.878  1.00 20.00     0.027 C 
ENDBRANCH   5   6
BRANCH   5   8
HETATM    8  C7  UNL     1     -33.065   6.698   1.739  1.00 20.00     0.128 C 
HETATM    9  C5  UNL     1     -31.988   7.726   1.662  1.00 20.00     0.027 C 
ENDBRANCH   5   8
ENDBRANCH   2   5
TORSDOF 3
ENDMDL
