MODEL 1
REMARK VINA RESULT:      -1.1      0.000      0.000
REMARK  1 active torsions:
REMARK  status: ('A' for Active; 'I' for Inactive)
REMARK    1  A    between atoms: C5_5  and  C9_9 
ROOT
HETATM    1  C1  UNL     1     -32.841   5.654   1.943  1.00 20.00     0.049 C 
HETATM    2  C2  UNL     1     -32.192   6.636   1.307  1.00 20.00    -0.018 C 
HETATM    3  C3  UNL     1     -33.625   5.958   3.165  1.00 20.00     0.182 C 
HETATM    4  C4  UNL     1     -33.408   8.384   2.648  1.00 20.00     0.054 C 
HETATM    5  C5  UNL     1     -32.232   8.090   1.707  1.00 20.00     0.014 C 
HETATM    6  C6  UNL     1     -33.508   7.345   3.753  1.00 20.00     0.244 C 
HETATM    7  O10 UNL     1     -34.302   5.080   3.695  1.00 20.00    -0.290 OA
HETATM    8  F11 UNL     1     -34.594   7.637   4.521  1.00 20.00    -0.241 F 
ENDROOT
BRANCH   5   9
HETATM    9  C9  UNL     1     -32.309   8.993   0.475  1.00 20.00    -0.015 C 
HETATM   10  C7  UNL     1     -32.686  10.416   0.878  1.00 20.00     0.010 C 
HETATM   11  C8  UNL     1     -30.984   8.980  -0.281  1.00 20.00     0.010 C 
ENDBRANCH   5   9
TORSDOF 1
ENDMDL
MODEL 2
REMARK VINA RESULT:      -0.5      1.844      2.792
REMARK  1 active torsions:
REMARK  status: ('A' for Active; 'I' for Inactive)
REMARK    1  A    between atoms: C5_5  and  C9_9 
ROOT
HETATM    1  C1  UNL     1     -35.052   6.818   3.976  1.00 20.00     0.049 C 
HETATM    2  C2  UNL     1     -34.302   7.476   3.084  1.00 20.00    -0.018 C 
HETATM    3  C3  UNL     1     -34.883   5.354   4.145  1.00 20.00     0.182 C 
HETATM    4  C4  UNL     1     -32.792   5.484   2.800  1.00 20.00     0.054 C 
HETATM    5  C5  UNL     1     -33.222   6.846   2.240  1.00 20.00     0.014 C 
HETATM    6  C6  UNL     1     -33.993   4.627   3.163  1.00 20.00     0.244 C 
HETATM    7  O10 UNL     1     -35.497   4.762   5.030  1.00 20.00    -0.290 OA
HETATM    8  F11 UNL     1     -33.543   3.457   3.694  1.00 20.00    -0.241 F 
ENDROOT
BRANCH   5   9
HETATM    9  C9  UNL     1     -32.011   7.771   2.125  1.00 20.00    -0.015 C 
HETATM   10  C7  UNL     1     -32.172   8.717   0.938  1.00 20.00     0.010 C 
HETATM   11  C8  UNL     1     -31.812   8.557   3.418  1.00 20.00     0.010 C 
ENDBRANCH   5   9
TORSDOF 1
ENDMDL
MODEL 3
REMARK VINA RESULT:      -0.4      2.568      4.798
REMARK  1 active torsions:
REMARK  status: ('A' for Active; 'I' for Inactive)
REMARK    1  A    between atoms: C5_5  and  C9_9 
ROOT
HETATM    1  C1  UNL     1     -33.460   8.317   2.967  1.00 20.00     0.049 C 
HETATM    2  C2  UNL     1     -33.765   7.240   3.701  1.00 20.00    -0.018 C 
HETATM    3  C3  UNL     1     -32.516   8.192   1.831  1.00 20.00     0.182 C 
HETATM    4  C4  UNL     1     -32.696   5.715   2.009  1.00 20.00     0.054 C 
HETATM    5  C5  UNL     1     -33.254   5.847   3.432  1.00 20.00     0.014 C 
HETATM    6  C6  UNL     1     -31.785   6.880   1.660  1.00 20.00     0.244 C 
HETATM    7  O10 UNL     1     -32.310   9.154   1.094  1.00 20.00    -0.290 OA
HETATM    8  F11 UNL     1     -31.364   6.727   0.374  1.00 20.00    -0.241 F 
ENDROOT
BRANCH   5   9
HETATM    9  C9  UNL     1     -34.353   4.809   3.662  1.00 20.00    -0.015 C 
HETATM   10  C7  UNL     1     -33.788   3.578   4.364  1.00 20.00     0.010 C 
HETATM   11  C8  UNL     1     -35.499   5.412   4.470  1.00 20.00     0.010 C 
ENDBRANCH   5   9
TORSDOF 1
ENDMDL
MODEL 4
REMARK VINA RESULT:      -0.2      2.594      4.461
REMARK  1 active torsions:
REMARK  status: ('A' for Active; 'I' for Inactive)
REMARK    1  A    between atoms: C5_5  and  C9_9 
ROOT
HETATM    1  C1  UNL     1     -32.528   8.469   2.543  1.00 20.00     0.049 C 
HETATM    2  C2  UNL     1     -33.263   7.970   3.543  1.00 20.00    -0.018 C 
HETATM    3  C3  UNL     1     -31.957   7.558   1.521  1.00 20.00     0.182 C 
HETATM    4  C4  UNL     1     -33.413   5.737   2.394  1.00 20.00     0.054 C 
HETATM    5  C5  UNL     1     -33.621   6.513   3.701  1.00 20.00     0.014 C 
HETATM    6  C6  UNL     1     -32.074   6.069   1.757  1.00 20.00     0.244 C 
HETATM    7  O10 UNL     1     -31.366   8.019   0.547  1.00 20.00    -0.290 OA
HETATM    8  F11 UNL     1     -31.975   5.386   0.583  1.00 20.00    -0.241 F 
ENDROOT
BRANCH   5   9
HETATM    9  C9  UNL     1     -35.064   6.355   4.181  1.00 20.00    -0.015 C 
HETATM   10  C7  UNL     1     -36.040   6.794   3.094  1.00 20.00     0.010 C 
HETATM   11  C8  UNL     1     -35.334   4.911   4.597  1.00 20.00     0.010 C 
ENDBRANCH   5   9
TORSDOF 1
ENDMDL
MODEL 5
REMARK VINA RESULT:       0.3      2.308      4.283
REMARK  1 active torsions:
REMARK  status: ('A' for Active; 'I' for Inactive)
REMARK    1  A    between atoms: C5_5  and  C9_9 
ROOT
HETATM    1  C1  UNL     1     -32.414   6.022   1.256  1.00 20.00     0.049 C 
HETATM    2  C2  UNL     1     -33.382   5.487   2.009  1.00 20.00    -0.018 C 
HETATM    3  C3  UNL     1     -31.939   7.399   1.533  1.00 20.00     0.182 C 
HETATM    4  C4  UNL     1     -33.171   7.342   3.696  1.00 20.00     0.054 C 
HETATM    5  C5  UNL     1     -34.021   6.167   3.194  1.00 20.00     0.014 C 
HETATM    6  C6  UNL     1     -32.703   8.219   2.547  1.00 20.00     0.244 C 
HETATM    7  O10 UNL     1     -30.983   7.857   0.910  1.00 20.00    -0.290 OA
HETATM    8  F11 UNL     1     -31.918   9.210   3.054  1.00 20.00    -0.241 F 
ENDROOT
BRANCH   5   9
HETATM    9  C9  UNL     1     -34.262   5.172   4.330  1.00 20.00    -0.015 C 
HETATM   10  C7  UNL     1     -35.742   5.130   4.699  1.00 20.00     0.010 C 
HETATM   11  C8  UNL     1     -33.764   3.784   3.940  1.00 20.00     0.010 C 
ENDBRANCH   5   9
TORSDOF 1
ENDMDL
MODEL 6
REMARK VINA RESULT:       0.3      1.951      3.235
REMARK  1 active torsions:
REMARK  status: ('A' for Active; 'I' for Inactive)
REMARK    1  A    between atoms: C5_5  and  C9_9 
ROOT
HETATM    1  C1  UNL     1     -32.516   8.208   3.181  1.00 20.00     0.049 C 
HETATM    2  C2  UNL     1     -32.326   7.602   2.003  1.00 20.00    -0.018 C 
HETATM    3  C3  UNL     1     -33.616   7.765   4.070  1.00 20.00     0.182 C 
HETATM    4  C4  UNL     1     -33.896   5.743   2.644  1.00 20.00     0.054 C 
HETATM    5  C5  UNL     1     -33.129   6.427   1.504  1.00 20.00     0.014 C 
HETATM    6  C6  UNL     1     -34.604   6.759   3.525  1.00 20.00     0.244 C 
HETATM    7  O10 UNL     1     -33.733   8.250   5.193  1.00 20.00    -0.290 OA
HETATM    8  F11 UNL     1     -35.223   6.093   4.538  1.00 20.00    -0.241 F 
ENDROOT
BRANCH   5   9
HETATM    9  C9  UNL     1     -32.231   5.413   0.795  1.00 20.00    -0.015 C 
HETATM   10  C7  UNL     1     -31.300   4.733   1.795  1.00 20.00     0.010 C 
HETATM   11  C8  UNL     1     -33.073   4.380   0.053  1.00 20.00     0.010 C 
ENDBRANCH   5   9
TORSDOF 1
ENDMDL
MODEL 7
REMARK VINA RESULT:       0.5      2.082      2.883
REMARK  1 active torsions:
REMARK  status: ('A' for Active; 'I' for Inactive)
REMARK    1  A    between atoms: C5_5  and  C9_9 
ROOT
HETATM    1  C1  UNL     1     -35.366   6.514   4.097  1.00 20.00     0.049 C 
HETATM    2  C2  UNL     1     -34.741   7.257   3.177  1.00 20.00    -0.018 C 
HETATM    3  C3  UNL     1     -34.954   5.105   4.312  1.00 20.00     0.182 C 
HETATM    4  C4  UNL     1     -32.920   5.538   2.943  1.00 20.00     0.054 C 
HETATM    5  C5  UNL     1     -33.575   6.789   2.344  1.00 20.00     0.014 C 
HETATM    6  C6  UNL     1     -33.959   4.505   3.346  1.00 20.00     0.244 C 
HETATM    7  O10 UNL     1     -35.456   4.450   5.222  1.00 20.00    -0.290 OA
HETATM    8  F11 UNL     1     -33.317   3.445   3.911  1.00 20.00    -0.241 F 
ENDROOT
BRANCH   5   9
HETATM    9  C9  UNL     1     -32.536   7.900   2.186  1.00 20.00    -0.015 C 
HETATM   10  C7  UNL     1     -32.079   8.402   3.553  1.00 20.00     0.010 C 
HETATM   11  C8  UNL     1     -31.346   7.407   1.367  1.00 20.00     0.010 C 
ENDBRANCH   5   9
TORSDOF 1
ENDMDL
MODEL 8
REMARK VINA RESULT:       0.6      2.311      4.356
REMARK  1 active torsions:
REMARK  status: ('A' for Active; 'I' for Inactive)
REMARK    1  A    between atoms: C5_5  and  C9_9 
ROOT
HETATM    1  C1  UNL     1     -32.357   6.165   1.221  1.00 20.00     0.049 C 
HETATM    2  C2  UNL     1     -33.437   5.532   1.694  1.00 20.00    -0.018 C 
HETATM    3  C3  UNL     1     -31.882   7.406   1.878  1.00 20.00     0.182 C 
HETATM    4  C4  UNL     1     -33.406   6.926   3.788  1.00 20.00     0.054 C 
HETATM    5  C5  UNL     1     -34.213   5.957   2.916  1.00 20.00     0.014 C 
HETATM    6  C6  UNL     1     -32.754   8.015   2.952  1.00 20.00     0.244 C 
HETATM    7  O10 UNL     1     -30.836   7.935   1.510  1.00 20.00    -0.290 OA
HETATM    8  F11 UNL     1     -32.018   8.809   3.778  1.00 20.00    -0.241 F 
ENDROOT
BRANCH   5   9
HETATM    9  C9  UNL     1     -34.641   4.742   3.740  1.00 20.00    -0.015 C 
HETATM   10  C7  UNL     1     -33.420   3.942   4.187  1.00 20.00     0.010 C 
HETATM   11  C8  UNL     1     -35.470   5.178   4.945  1.00 20.00     0.010 C 
ENDBRANCH   5   9
TORSDOF 1
ENDMDL
MODEL 9
REMARK VINA RESULT:       0.9      2.598      4.110
REMARK  1 active torsions:
REMARK  status: ('A' for Active; 'I' for Inactive)
REMARK    1  A    between atoms: C5_5  and  C9_9 
ROOT
HETATM    1  C1  UNL     1     -31.669   6.782   1.028  1.00 20.00     0.049 C 
HETATM    2  C2  UNL     1     -32.638   6.345   1.841  1.00 20.00    -0.018 C 
HETATM    3  C3  UNL     1     -31.617   8.214   0.644  1.00 20.00     0.182 C 
HETATM    4  C4  UNL     1     -33.297   8.705   2.416  1.00 20.00     0.054 C 
HETATM    5  C5  UNL     1     -33.692   7.223   2.468  1.00 20.00     0.014 C 
HETATM    6  C6  UNL     1     -32.780   9.094   1.041  1.00 20.00     0.244 C 
HETATM    7  O10 UNL     1     -30.674   8.639  -0.020  1.00 20.00    -0.290 OA
HETATM    8  F11 UNL     1     -32.404  10.402   1.077  1.00 20.00    -0.241 F 
ENDROOT
BRANCH   5   9
HETATM    9  C9  UNL     1     -33.963   6.803   3.913  1.00 20.00    -0.015 C 
HETATM   10  C7  UNL     1     -33.794   7.992   4.855  1.00 20.00     0.010 C 
HETATM   11  C8  UNL     1     -35.362   6.207   4.043  1.00 20.00     0.010 C 
ENDBRANCH   5   9
TORSDOF 1
ENDMDL
