MODEL 1
REMARK VINA RESULT:      -3.6      0.000      0.000
REMARK  2 active torsions:
REMARK  status: ('A' for Active; 'I' for Inactive)
REMARK    1  A    between atoms: C1_1  and  C2_2 
REMARK    2  A    between atoms: C1_1  and  C3_3 
ROOT
HETATM    1  C1  UNL     1     -33.170   7.021   2.588  1.00 20.00     0.280 C 
HETATM    2  O4  UNL     1     -33.256   5.877   2.142  1.00 20.00    -0.284 OA
ENDROOT
BRANCH   1   3
HETATM    3  C2  UNL     1     -34.112   7.517   3.653  1.00 20.00     0.344 C 
HETATM    4  F5  UNL     1     -33.439   7.831   4.793  1.00 20.00    -0.224 F 
HETATM    5 CL9  UNL     1     -35.278   6.237   4.011  1.00 20.00    -0.081 Cl
ENDBRANCH   1   3
BRANCH   1   6
HETATM    6  C3  UNL     1     -32.098   7.961   2.109  1.00 20.00     0.455 C 
HETATM    7  F6  UNL     1     -31.429   8.536   3.140  1.00 20.00    -0.163 F 
HETATM    8  F7  UNL     1     -32.602   8.967   1.351  1.00 20.00    -0.163 F 
HETATM    9  F8  UNL     1     -31.171   7.325   1.348  1.00 20.00    -0.163 F 
ENDBRANCH   1   6
TORSDOF 2
ENDMDL
MODEL 2
REMARK VINA RESULT:      -3.3      2.493      3.808
REMARK  2 active torsions:
REMARK  status: ('A' for Active; 'I' for Inactive)
REMARK    1  A    between atoms: C1_1  and  C2_2 
REMARK    2  A    between atoms: C1_1  and  C3_3 
ROOT
HETATM    1  C1  UNL     1     -33.864   5.683   3.196  1.00 20.00     0.280 C 
HETATM    2  O4  UNL     1     -33.470   4.604   3.638  1.00 20.00    -0.284 OA
ENDROOT
BRANCH   1   3
HETATM    3  C2  UNL     1     -33.270   6.279   1.946  1.00 20.00     0.344 C 
HETATM    4  F5  UNL     1     -32.399   5.416   1.360  1.00 20.00    -0.224 F 
HETATM    5 CL9  UNL     1     -32.405   7.757   2.386  1.00 20.00    -0.081 Cl
ENDBRANCH   1   3
BRANCH   1   6
HETATM    6  C3  UNL     1     -34.978   6.436   3.869  1.00 20.00     0.455 C 
HETATM    7  F6  UNL     1     -35.921   6.846   2.985  1.00 20.00    -0.163 F 
HETATM    8  F7  UNL     1     -34.530   7.543   4.514  1.00 20.00    -0.163 F 
HETATM    9  F8  UNL     1     -35.615   5.675   4.796  1.00 20.00    -0.163 F 
ENDBRANCH   1   6
TORSDOF 2
ENDMDL
MODEL 3
REMARK VINA RESULT:      -3.0      1.579      1.977
REMARK  2 active torsions:
REMARK  status: ('A' for Active; 'I' for Inactive)
REMARK    1  A    between atoms: C1_1  and  C2_2 
REMARK    2  A    between atoms: C1_1  and  C3_3 
ROOT
HETATM    1  C1  UNL     1     -33.467   5.729   2.821  1.00 20.00     0.280 C 
HETATM    2  O4  UNL     1     -33.364   4.625   3.356  1.00 20.00    -0.284 OA
ENDROOT
BRANCH   1   3
HETATM    3  C2  UNL     1     -34.312   6.816   3.433  1.00 20.00     0.344 C 
HETATM    4  F5  UNL     1     -33.576   7.593   4.272  1.00 20.00    -0.224 F 
HETATM    5 CL9  UNL     1     -35.621   6.061   4.350  1.00 20.00    -0.081 Cl
ENDBRANCH   1   3
BRANCH   1   6
HETATM    6  C3  UNL     1     -32.728   6.048   1.551  1.00 20.00     0.455 C 
HETATM    7  F6  UNL     1     -31.614   5.288   1.408  1.00 20.00    -0.163 F 
HETATM    8  F7  UNL     1     -32.335   7.345   1.500  1.00 20.00    -0.163 F 
HETATM    9  F8  UNL     1     -33.495   5.828   0.452  1.00 20.00    -0.163 F 
ENDBRANCH   1   6
TORSDOF 2
ENDMDL
MODEL 4
REMARK VINA RESULT:      -2.9      2.766      3.916
REMARK  2 active torsions:
REMARK  status: ('A' for Active; 'I' for Inactive)
REMARK    1  A    between atoms: C1_1  and  C2_2 
REMARK    2  A    between atoms: C1_1  and  C3_3 
ROOT
HETATM    1  C1  UNL     1     -33.726   7.034   3.416  1.00 20.00     0.280 C 
HETATM    2  O4  UNL     1     -33.121   7.830   4.135  1.00 20.00    -0.284 OA
ENDROOT
BRANCH   1   3
HETATM    3  C2  UNL     1     -33.242   6.716   2.025  1.00 20.00     0.344 C 
HETATM    4  F5  UNL     1     -32.850   5.417   1.930  1.00 20.00    -0.224 F 
HETATM    5 CL9  UNL     1     -31.864   7.760   1.657  1.00 20.00    -0.081 Cl
ENDBRANCH   1   3
BRANCH   1   6
HETATM    6  C3  UNL     1     -34.956   6.324   3.909  1.00 20.00     0.455 C 
HETATM    7  F6  UNL     1     -34.765   4.984   4.000  1.00 20.00    -0.163 F 
HETATM    8  F7  UNL     1     -36.021   6.519   3.093  1.00 20.00    -0.163 F 
HETATM    9  F8  UNL     1     -35.325   6.751   5.143  1.00 20.00    -0.163 F 
ENDBRANCH   1   6
TORSDOF 2
ENDMDL
MODEL 5
REMARK VINA RESULT:      -2.9      2.088      2.351
REMARK  2 active torsions:
REMARK  status: ('A' for Active; 'I' for Inactive)
REMARK    1  A    between atoms: C1_1  and  C2_2 
REMARK    2  A    between atoms: C1_1  and  C3_3 
ROOT
HETATM    1  C1  UNL     1     -33.625   6.599   3.106  1.00 20.00     0.280 C 
HETATM    2  O4  UNL     1     -33.379   7.573   3.818  1.00 20.00    -0.284 OA
ENDROOT
BRANCH   1   3
HETATM    3  C2  UNL     1     -34.710   5.620   3.470  1.00 20.00     0.344 C 
HETATM    4  F5  UNL     1     -35.541   6.140   4.413  1.00 20.00    -0.224 F 
HETATM    5 CL9  UNL     1     -33.952   4.159   4.117  1.00 20.00    -0.081 Cl
ENDBRANCH   1   3
BRANCH   1   6
HETATM    6  C3  UNL     1     -32.872   6.365   1.826  1.00 20.00     0.455 C 
HETATM    7  F6  UNL     1     -31.976   5.353   1.942  1.00 20.00    -0.163 F 
HETATM    8  F7  UNL     1     -32.181   7.464   1.431  1.00 20.00    -0.163 F 
HETATM    9  F8  UNL     1     -33.702   6.036   0.804  1.00 20.00    -0.163 F 
ENDBRANCH   1   6
TORSDOF 2
ENDMDL
MODEL 6
REMARK VINA RESULT:      -2.9      2.122      2.588
REMARK  2 active torsions:
REMARK  status: ('A' for Active; 'I' for Inactive)
REMARK    1  A    between atoms: C1_1  and  C2_2 
REMARK    2  A    between atoms: C1_1  and  C3_3 
ROOT
HETATM    1  C1  UNL     1     -33.645   6.545   3.131  1.00 20.00     0.280 C 
HETATM    2  O4  UNL     1     -33.428   7.528   3.840  1.00 20.00    -0.284 OA
ENDROOT
BRANCH   1   3
HETATM    3  C2  UNL     1     -34.707   5.540   3.494  1.00 20.00     0.344 C 
HETATM    4  F5  UNL     1     -35.556   6.044   4.429  1.00 20.00    -0.224 F 
HETATM    5 CL9  UNL     1     -33.917   4.102   4.153  1.00 20.00    -0.081 Cl
ENDBRANCH   1   3
BRANCH   1   6
HETATM    6  C3  UNL     1     -32.879   6.324   1.856  1.00 20.00     0.455 C 
HETATM    7  F6  UNL     1     -33.700   6.034   0.815  1.00 20.00    -0.163 F 
HETATM    8  F7  UNL     1     -31.995   5.300   1.961  1.00 20.00    -0.163 F 
HETATM    9  F8  UNL     1     -32.166   7.422   1.498  1.00 20.00    -0.163 F 
ENDBRANCH   1   6
TORSDOF 2
ENDMDL
MODEL 7
REMARK VINA RESULT:      -2.8      2.002      3.163
REMARK  2 active torsions:
REMARK  status: ('A' for Active; 'I' for Inactive)
REMARK    1  A    between atoms: C1_1  and  C2_2 
REMARK    2  A    between atoms: C1_1  and  C3_3 
ROOT
HETATM    1  C1  UNL     1     -32.941   6.975   2.404  1.00 20.00     0.280 C 
HETATM    2  O4  UNL     1     -33.114   5.930   1.776  1.00 20.00    -0.284 OA
ENDROOT
BRANCH   1   3
HETATM    3  C2  UNL     1     -31.840   7.934   2.034  1.00 20.00     0.344 C 
HETATM    4  F5  UNL     1     -31.390   8.606   3.127  1.00 20.00    -0.224 F 
HETATM    5 CL9  UNL     1     -32.480   9.100   0.869  1.00 20.00    -0.081 Cl
ENDBRANCH   1   3
BRANCH   1   6
HETATM    6  C3  UNL     1     -33.841   7.350   3.548  1.00 20.00     0.455 C 
HETATM    7  F6  UNL     1     -34.631   8.411   3.246  1.00 20.00    -0.163 F 
HETATM    8  F7  UNL     1     -33.142   7.679   4.662  1.00 20.00    -0.163 F 
HETATM    9  F8  UNL     1     -34.670   6.332   3.893  1.00 20.00    -0.163 F 
ENDBRANCH   1   6
TORSDOF 2
ENDMDL
MODEL 8
REMARK VINA RESULT:      -2.8      2.586      3.304
REMARK  2 active torsions:
REMARK  status: ('A' for Active; 'I' for Inactive)
REMARK    1  A    between atoms: C1_1  and  C2_2 
REMARK    2  A    between atoms: C1_1  and  C3_3 
ROOT
HETATM    1  C1  UNL     1     -32.805   7.117   2.325  1.00 20.00     0.280 C 
HETATM    2  O4  UNL     1     -33.628   7.442   3.181  1.00 20.00    -0.284 OA
ENDROOT
BRANCH   1   3
HETATM    3  C2  UNL     1     -31.707   8.057   1.902  1.00 20.00     0.344 C 
HETATM    4  F5  UNL     1     -31.182   8.709   2.973  1.00 20.00    -0.224 F 
HETATM    5 CL9  UNL     1     -32.387   9.246   0.783  1.00 20.00    -0.081 Cl
ENDBRANCH   1   3
BRANCH   1   6
HETATM    6  C3  UNL     1     -32.844   5.755   1.690  1.00 20.00     0.455 C 
HETATM    7  F6  UNL     1     -33.646   5.728   0.596  1.00 20.00    -0.163 F 
HETATM    8  F7  UNL     1     -33.303   4.806   2.543  1.00 20.00    -0.163 F 
HETATM    9  F8  UNL     1     -31.613   5.352   1.282  1.00 20.00    -0.163 F 
ENDBRANCH   1   6
TORSDOF 2
ENDMDL
MODEL 9
REMARK VINA RESULT:      -2.8      1.941      2.406
REMARK  2 active torsions:
REMARK  status: ('A' for Active; 'I' for Inactive)
REMARK    1  A    between atoms: C1_1  and  C2_2 
REMARK    2  A    between atoms: C1_1  and  C3_3 
ROOT
HETATM    1  C1  UNL     1     -32.776   7.350   2.344  1.00 20.00     0.280 C 
HETATM    2  O4  UNL     1     -32.034   8.182   1.822  1.00 20.00    -0.284 OA
ENDROOT
BRANCH   1   3
HETATM    3  C2  UNL     1     -33.672   7.720   3.497  1.00 20.00     0.344 C 
HETATM    4  F5  UNL     1     -32.966   7.810   4.656  1.00 20.00    -0.224 F 
HETATM    5 CL9  UNL     1     -34.905   6.465   3.674  1.00 20.00    -0.081 Cl
ENDBRANCH   1   3
BRANCH   1   6
HETATM    6  C3  UNL     1     -32.840   5.938   1.833  1.00 20.00     0.455 C 
HETATM    7  F6  UNL     1     -33.726   5.807   0.813  1.00 20.00    -0.163 F 
HETATM    8  F7  UNL     1     -33.213   5.061   2.798  1.00 20.00    -0.163 F 
HETATM    9  F8  UNL     1     -31.639   5.516   1.362  1.00 20.00    -0.163 F 
ENDBRANCH   1   6
TORSDOF 2
ENDMDL
