MODEL 1
REMARK VINA RESULT:       0.7      0.000      0.000
REMARK  1 active torsions:
REMARK  status: ('A' for Active; 'I' for Inactive)
REMARK    1  A    between atoms: C6_6  and  C11_11 
ROOT
HETATM    1  C1  UNL     1     -33.405   5.152   3.130  1.00 20.00     0.136 C 
HETATM    2  C2  UNL     1     -33.160   5.351   1.626  1.00 20.00     0.085 C 
HETATM    3  C3  UNL     1     -32.669   8.622   3.193  1.00 20.00     0.006 C 
HETATM    4  C4  UNL     1     -33.096   7.525   4.162  1.00 20.00     0.018 C 
HETATM    5  C5  UNL     1     -33.521   6.847   1.822  1.00 20.00     0.012 C 
HETATM    6  C6  UNL     1     -32.365   7.851   1.910  1.00 20.00    -0.006 C 
HETATM    7  C7  UNL     1     -33.954   6.589   3.303  1.00 20.00     0.021 C 
HETATM    8  C8  UNL     1     -35.443   6.677   3.592  1.00 20.00     0.024 C 
HETATM    9  O12 UNL     1     -33.234   4.221   3.889  1.00 20.00    -0.297 OA
ENDROOT
BRANCH   6  10
HETATM   10  C11 UNL     1     -32.301   8.744   0.683  1.00 20.00    -0.018 C 
HETATM   11  C9  UNL     1     -32.705  10.172   1.037  1.00 20.00     0.010 C 
HETATM   12  C10 UNL     1     -30.902   8.716   0.074  1.00 20.00     0.010 C 
ENDBRANCH   6  10
TORSDOF 1
ENDMDL
MODEL 2
REMARK VINA RESULT:       0.8      0.446      1.115
REMARK  1 active torsions:
REMARK  status: ('A' for Active; 'I' for Inactive)
REMARK    1  A    between atoms: C6_6  and  C11_11 
ROOT
HETATM    1  C1  UNL     1     -33.541   5.229   3.115  1.00 20.00     0.136 C 
HETATM    2  C2  UNL     1     -33.013   5.530   1.703  1.00 20.00     0.085 C 
HETATM    3  C3  UNL     1     -32.559   8.595   3.650  1.00 20.00     0.006 C 
HETATM    4  C4  UNL     1     -33.238   7.467   4.416  1.00 20.00     0.018 C 
HETATM    5  C5  UNL     1     -33.286   7.031   1.982  1.00 20.00     0.012 C 
HETATM    6  C6  UNL     1     -32.090   7.911   2.368  1.00 20.00    -0.006 C 
HETATM    7  C7  UNL     1     -33.998   6.692   3.333  1.00 20.00     0.021 C 
HETATM    8  C8  UNL     1     -35.503   6.895   3.369  1.00 20.00     0.024 C 
HETATM    9  O12 UNL     1     -33.583   4.225   3.795  1.00 20.00    -0.297 OA
ENDROOT
BRANCH   6  10
HETATM   10  C11 UNL     1     -31.736   8.893   1.266  1.00 20.00    -0.018 C 
HETATM   11  C9  UNL     1     -31.287   8.151   0.010  1.00 20.00     0.010 C 
HETATM   12  C10 UNL     1     -32.922   9.803   0.958  1.00 20.00     0.010 C 
ENDBRANCH   6  10
TORSDOF 1
ENDMDL
MODEL 3
REMARK VINA RESULT:       1.1      1.340      2.515
REMARK  1 active torsions:
REMARK  status: ('A' for Active; 'I' for Inactive)
REMARK    1  A    between atoms: C6_6  and  C11_11 
ROOT
HETATM    1  C1  UNL     1     -34.991   6.183   3.829  1.00 20.00     0.136 C 
HETATM    2  C2  UNL     1     -34.279   7.534   4.006  1.00 20.00     0.085 C 
HETATM    3  C3  UNL     1     -32.738   5.928   1.101  1.00 20.00     0.006 C 
HETATM    4  C4  UNL     1     -33.803   5.081   1.788  1.00 20.00     0.018 C 
HETATM    5  C5  UNL     1     -33.063   6.928   3.258  1.00 20.00     0.012 C 
HETATM    6  C6  UNL     1     -32.887   7.289   1.778  1.00 20.00    -0.006 C 
HETATM    7  C7  UNL     1     -33.720   5.508   3.258  1.00 20.00     0.021 C 
HETATM    8  C8  UNL     1     -33.082   4.472   4.167  1.00 20.00     0.024 C 
HETATM    9  O12 UNL     1     -36.119   5.797   4.053  1.00 20.00    -0.297 OA
ENDROOT
BRANCH   6  10
HETATM   10  C11 UNL     1     -31.689   8.196   1.559  1.00 20.00    -0.018 C 
HETATM   11  C9  UNL     1     -32.061   9.367   0.653  1.00 20.00     0.010 C 
HETATM   12  C10 UNL     1     -31.148   8.700   2.894  1.00 20.00     0.010 C 
ENDBRANCH   6  10
TORSDOF 1
ENDMDL
MODEL 4
REMARK VINA RESULT:       1.9      2.114      4.309
REMARK  1 active torsions:
REMARK  status: ('A' for Active; 'I' for Inactive)
REMARK    1  A    between atoms: C6_6  and  C11_11 
ROOT
HETATM    1  C1  UNL     1     -32.417   8.099   1.467  1.00 20.00     0.136 C 
HETATM    2  C2  UNL     1     -32.333   6.570   1.331  1.00 20.00     0.085 C 
HETATM    3  C3  UNL     1     -34.711   7.236   4.032  1.00 20.00     0.006 C 
HETATM    4  C4  UNL     1     -34.076   8.489   3.439  1.00 20.00     0.018 C 
HETATM    5  C5  UNL     1     -32.795   6.469   2.809  1.00 20.00     0.012 C 
HETATM    6  C6  UNL     1     -34.268   6.135   3.071  1.00 20.00    -0.006 C 
HETATM    7  C7  UNL     1     -32.687   8.020   2.990  1.00 20.00     0.021 C 
HETATM    8  C8  UNL     1     -31.553   8.516   3.869  1.00 20.00     0.024 C 
HETATM    9  O12 UNL     1     -32.311   9.015   0.679  1.00 20.00    -0.297 OA
ENDROOT
BRANCH   6  10
HETATM   10  C11 UNL     1     -34.434   4.741   3.649  1.00 20.00    -0.018 C 
HETATM   11  C9  UNL     1     -33.074   4.133   3.981  1.00 20.00     0.010 C 
HETATM   12  C10 UNL     1     -35.324   4.777   4.889  1.00 20.00     0.010 C 
ENDBRANCH   6  10
TORSDOF 1
ENDMDL
MODEL 5
REMARK VINA RESULT:       1.9      1.949      4.454
REMARK  1 active torsions:
REMARK  status: ('A' for Active; 'I' for Inactive)
REMARK    1  A    between atoms: C6_6  and  C11_11 
ROOT
HETATM    1  C1  UNL     1     -31.723   8.609   3.309  1.00 20.00     0.136 C 
HETATM    2  C2  UNL     1     -32.831   8.187   4.288  1.00 20.00     0.085 C 
HETATM    3  C3  UNL     1     -32.669   5.580   1.724  1.00 20.00     0.006 C 
HETATM    4  C4  UNL     1     -31.710   6.742   1.491  1.00 20.00     0.018 C 
HETATM    5  C5  UNL     1     -33.453   7.354   3.136  1.00 20.00     0.012 C 
HETATM    6  C6  UNL     1     -33.196   5.842   3.133  1.00 20.00    -0.006 C 
HETATM    7  C7  UNL     1     -32.434   7.945   2.105  1.00 20.00     0.021 C 
HETATM    8  C8  UNL     1     -33.001   8.914   1.082  1.00 20.00     0.024 C 
HETATM    9  O12 UNL     1     -30.687   9.228   3.436  1.00 20.00    -0.297 OA
ENDROOT
BRANCH   6  10
HETATM   10  C11 UNL     1     -34.456   5.057   3.451  1.00 20.00    -0.018 C 
HETATM   11  C9  UNL     1     -34.124   3.828   4.292  1.00 20.00     0.010 C 
HETATM   12  C10 UNL     1     -35.471   5.942   4.170  1.00 20.00     0.010 C 
ENDBRANCH   6  10
TORSDOF 1
ENDMDL
MODEL 6
REMARK VINA RESULT:       2.0      1.335      2.521
REMARK  1 active torsions:
REMARK  status: ('A' for Active; 'I' for Inactive)
REMARK    1  A    between atoms: C6_6  and  C11_11 
ROOT
HETATM    1  C1  UNL     1     -34.987   6.108   3.955  1.00 20.00     0.136 C 
HETATM    2  C2  UNL     1     -34.417   7.514   4.207  1.00 20.00     0.085 C 
HETATM    3  C3  UNL     1     -32.861   6.307   1.122  1.00 20.00     0.006 C 
HETATM    4  C4  UNL     1     -33.792   5.299   1.785  1.00 20.00     0.018 C 
HETATM    5  C5  UNL     1     -33.182   7.103   3.363  1.00 20.00     0.012 C 
HETATM    6  C6  UNL     1     -33.122   7.590   1.909  1.00 20.00    -0.006 C 
HETATM    7  C7  UNL     1     -33.681   5.623   3.279  1.00 20.00     0.021 C 
HETATM    8  C8  UNL     1     -32.889   4.601   4.076  1.00 20.00     0.024 C 
HETATM    9  O12 UNL     1     -36.054   5.583   4.196  1.00 20.00    -0.297 OA
ENDROOT
BRANCH   6  10
HETATM   10  C11 UNL     1     -32.042   8.638   1.712  1.00 20.00    -0.018 C 
HETATM   11  C9  UNL     1     -30.676   7.977   1.548  1.00 20.00     0.010 C 
HETATM   12  C10 UNL     1     -32.362   9.516   0.505  1.00 20.00     0.010 C 
ENDBRANCH   6  10
TORSDOF 1
ENDMDL
MODEL 7
REMARK VINA RESULT:       2.2      2.121      4.724
REMARK  1 active torsions:
REMARK  status: ('A' for Active; 'I' for Inactive)
REMARK    1  A    between atoms: C6_6  and  C11_11 
ROOT
HETATM    1  C1  UNL     1     -32.590   7.776   2.175  1.00 20.00     0.136 C 
HETATM    2  C2  UNL     1     -33.583   7.468   3.307  1.00 20.00     0.085 C 
HETATM    3  C3  UNL     1     -32.312   4.240   2.141  1.00 20.00     0.006 C 
HETATM    4  C4  UNL     1     -31.778   5.437   1.363  1.00 20.00     0.018 C 
HETATM    5  C5  UNL     1     -33.777   6.063   2.679  1.00 20.00     0.012 C 
HETATM    6  C6  UNL     1     -33.031   4.888   3.323  1.00 20.00    -0.006 C 
HETATM    7  C7  UNL     1     -32.919   6.459   1.431  1.00 20.00     0.021 C 
HETATM    8  C8  UNL     1     -33.674   6.631   0.125  1.00 20.00     0.024 C 
HETATM    9  O12 UNL     1     -31.838   8.702   1.952  1.00 20.00    -0.297 OA
ENDROOT
BRANCH   6  10
HETATM   10  C11 UNL     1     -33.981   3.939   4.032  1.00 20.00    -0.018 C 
HETATM   11  C9  UNL     1     -33.218   3.041   5.001  1.00 20.00     0.010 C 
HETATM   12  C10 UNL     1     -35.068   4.720   4.766  1.00 20.00     0.010 C 
ENDBRANCH   6  10
TORSDOF 1
ENDMDL
MODEL 8
REMARK VINA RESULT:       2.4      2.256      4.757
REMARK  1 active torsions:
REMARK  status: ('A' for Active; 'I' for Inactive)
REMARK    1  A    between atoms: C6_6  and  C11_11 
ROOT
HETATM    1  C1  UNL     1     -33.376   6.295   1.765  1.00 20.00     0.136 C 
HETATM    2  C2  UNL     1     -32.483   5.094   2.117  1.00 20.00     0.085 C 
HETATM    3  C3  UNL     1     -35.210   5.105   4.558  1.00 20.00     0.006 C 
HETATM    4  C4  UNL     1     -35.251   6.268   3.574  1.00 20.00     0.018 C 
HETATM    5  C5  UNL     1     -33.027   5.188   3.567  1.00 20.00     0.012 C 
HETATM    6  C6  UNL     1     -34.125   4.200   3.980  1.00 20.00    -0.006 C 
HETATM    7  C7  UNL     1     -33.776   6.522   3.243  1.00 20.00     0.021 C 
HETATM    8  C8  UNL     1     -33.209   7.782   3.874  1.00 20.00     0.024 C 
HETATM    9  O12 UNL     1     -33.657   6.850   0.723  1.00 20.00    -0.297 OA
ENDROOT
BRANCH   6  10
HETATM   10  C11 UNL     1     -33.613   3.174   4.976  1.00 20.00    -0.018 C 
HETATM   11  C9  UNL     1     -33.287   1.860   4.273  1.00 20.00     0.010 C 
HETATM   12  C10 UNL     1     -32.388   3.709   5.712  1.00 20.00     0.010 C 
ENDBRANCH   6  10
TORSDOF 1
ENDMDL
MODEL 9
REMARK VINA RESULT:       2.5      2.294      3.997
REMARK  1 active torsions:
REMARK  status: ('A' for Active; 'I' for Inactive)
REMARK    1  A    between atoms: C6_6  and  C11_11 
ROOT
HETATM    1  C1  UNL     1     -32.419   9.330   1.211  1.00 20.00     0.136 C 
HETATM    2  C2  UNL     1     -31.856   8.243   0.281  1.00 20.00     0.085 C 
HETATM    3  C3  UNL     1     -33.716   6.495   2.904  1.00 20.00     0.006 C 
HETATM    4  C4  UNL     1     -33.674   8.009   3.075  1.00 20.00     0.018 C 
HETATM    5  C5  UNL     1     -31.946   7.255   1.474  1.00 20.00     0.012 C 
HETATM    6  C6  UNL     1     -33.136   6.287   1.507  1.00 20.00    -0.006 C 
HETATM    7  C7  UNL     1     -32.331   8.412   2.454  1.00 20.00     0.021 C 
HETATM    8  C8  UNL     1     -31.275   8.809   3.471  1.00 20.00     0.024 C 
HETATM    9  O12 UNL     1     -32.790  10.471   1.034  1.00 20.00    -0.297 OA
ENDROOT
BRANCH   6  10
HETATM   10  C11 UNL     1     -32.703   4.855   1.251  1.00 20.00    -0.018 C 
HETATM   11  C9  UNL     1     -33.342   4.322  -0.029  1.00 20.00     0.010 C 
HETATM   12  C10 UNL     1     -31.181   4.762   1.171  1.00 20.00     0.010 C 
ENDBRANCH   6  10
TORSDOF 1
ENDMDL
