MODEL 1
REMARK VINA RESULT:      -1.0      0.000      0.000
REMARK  1 active torsions:
REMARK  status: ('A' for Active; 'I' for Inactive)
REMARK    1  A    between atoms: C3_3  and  C6_6 
ROOT
HETATM    1  C1  UNL     1     -32.887   8.440   2.646  1.00 20.00    -0.009 C 
HETATM    2  C2  UNL     1     -33.483   7.320   3.089  1.00 20.00    -0.086 C 
HETATM    3  C4  UNL     1     -33.246   5.979   2.437  1.00 20.00     0.037 C 
HETATM    4  C5  UNL     1     -32.001   7.202   0.617  1.00 20.00     0.023 C 
HETATM    5  C6  UNL     1     -31.964   8.473   1.466  1.00 20.00     0.110 C 
HETATM    6  C7  UNL     1     -32.018   5.955   1.508  1.00 20.00    -0.014 C 
HETATM    7  C8  UNL     1     -34.427   7.329   4.255  1.00 20.00     0.043 C 
HETATM    8  C9  UNL     1     -31.997   4.678   0.670  1.00 20.00     0.010 C 
ENDROOT
BRANCH   5   9
HETATM    9  C3  UNL     1     -32.417   9.609   0.572  1.00 20.00     0.180 C 
HETATM   10  O10 UNL     1     -32.632  10.706   1.160  1.00 20.00    -0.647 OA
HETATM   11  O11 UNL     1     -32.524   9.311  -0.650  1.00 20.00    -0.647 OA
ENDBRANCH   5   9
TORSDOF 1
ENDMDL
MODEL 2
REMARK VINA RESULT:      -0.5      2.877      4.435
REMARK  1 active torsions:
REMARK  status: ('A' for Active; 'I' for Inactive)
REMARK    1  A    between atoms: C3_3  and  C6_6 
ROOT
HETATM    1  C1  UNL     1     -33.146   5.257   2.642  1.00 20.00    -0.009 C 
HETATM    2  C2  UNL     1     -32.484   5.547   1.509  1.00 20.00    -0.086 C 
HETATM    3  C4  UNL     1     -32.185   6.969   1.101  1.00 20.00     0.037 C 
HETATM    4  C5  UNL     1     -33.664   7.714   3.003  1.00 20.00     0.023 C 
HETATM    5  C6  UNL     1     -33.667   6.300   3.584  1.00 20.00     0.110 C 
HETATM    6  C7  UNL     1     -32.361   7.986   2.244  1.00 20.00    -0.014 C 
HETATM    7  C8  UNL     1     -32.005   4.477   0.572  1.00 20.00     0.043 C 
HETATM    8  C9  UNL     1     -32.324   9.416   1.707  1.00 20.00     0.010 C 
ENDROOT
BRANCH   5   9
HETATM    9  C3  UNL     1     -35.110   5.953   3.886  1.00 20.00     0.180 C 
HETATM   10  O10 UNL     1     -35.284   4.889   4.542  1.00 20.00    -0.647 OA
HETATM   11  O11 UNL     1     -35.957   6.777   3.440  1.00 20.00    -0.647 OA
ENDBRANCH   5   9
TORSDOF 1
ENDMDL
MODEL 3
REMARK VINA RESULT:       0.4      2.494      4.002
REMARK  1 active torsions:
REMARK  status: ('A' for Active; 'I' for Inactive)
REMARK    1  A    between atoms: C3_3  and  C6_6 
ROOT
HETATM    1  C1  UNL     1     -31.812   6.896   1.267  1.00 20.00    -0.009 C 
HETATM    2  C2  UNL     1     -32.439   8.013   1.675  1.00 20.00    -0.086 C 
HETATM    3  C4  UNL     1     -33.594   7.970   2.646  1.00 20.00     0.037 C 
HETATM    4  C5  UNL     1     -33.568   5.460   2.404  1.00 20.00     0.023 C 
HETATM    5  C6  UNL     1     -32.208   5.519   1.709  1.00 20.00     0.110 C 
HETATM    6  C7  UNL     1     -33.727   6.626   3.386  1.00 20.00    -0.014 C 
HETATM    7  C8  UNL     1     -32.036   9.373   1.188  1.00 20.00     0.043 C 
HETATM    8  C9  UNL     1     -35.059   6.545   4.128  1.00 20.00     0.010 C 
ENDROOT
BRANCH   5   9
HETATM    9  C3  UNL     1     -32.314   4.661   0.465  1.00 20.00     0.180 C 
HETATM   10  O10 UNL     1     -31.230   4.153   0.065  1.00 20.00    -0.647 OA
HETATM   11  O11 UNL     1     -33.479   4.565  -0.014  1.00 20.00    -0.647 OA
ENDBRANCH   5   9
TORSDOF 1
ENDMDL
MODEL 4
REMARK VINA RESULT:       0.4      3.387      4.364
REMARK  1 active torsions:
REMARK  status: ('A' for Active; 'I' for Inactive)
REMARK    1  A    between atoms: C3_3  and  C6_6 
ROOT
HETATM    1  C1  UNL     1     -34.273   7.100   4.514  1.00 20.00    -0.009 C 
HETATM    2  C2  UNL     1     -33.322   8.049   4.554  1.00 20.00    -0.086 C 
HETATM    3  C4  UNL     1     -32.332   8.234   3.429  1.00 20.00     0.037 C 
HETATM    4  C5  UNL     1     -33.231   6.102   2.427  1.00 20.00     0.023 C 
HETATM    5  C6  UNL     1     -34.427   6.132   3.379  1.00 20.00     0.110 C 
HETATM    6  C7  UNL     1     -32.741   7.523   2.126  1.00 20.00    -0.014 C 
HETATM    7  C8  UNL     1     -33.178   8.980   5.721  1.00 20.00     0.043 C 
HETATM    8  C9  UNL     1     -31.583   7.508   1.131  1.00 20.00     0.010 C 
ENDROOT
BRANCH   5   9
HETATM    9  C3  UNL     1     -34.541   4.747   3.982  1.00 20.00     0.180 C 
HETATM   10  O10 UNL     1     -33.630   3.938   3.651  1.00 20.00    -0.647 OA
HETATM   11  O11 UNL     1     -35.538   4.580   4.739  1.00 20.00    -0.647 OA
ENDBRANCH   5   9
TORSDOF 1
ENDMDL
MODEL 5
REMARK VINA RESULT:       0.5      2.529      3.611
REMARK  1 active torsions:
REMARK  status: ('A' for Active; 'I' for Inactive)
REMARK    1  A    between atoms: C3_3  and  C6_6 
ROOT
HETATM    1  C1  UNL     1     -33.633   7.995   2.196  1.00 20.00    -0.009 C 
HETATM    2  C2  UNL     1     -32.464   8.162   1.553  1.00 20.00    -0.086 C 
HETATM    3  C4  UNL     1     -31.593   6.991   1.166  1.00 20.00     0.037 C 
HETATM    4  C5  UNL     1     -33.136   5.529   2.523  1.00 20.00     0.023 C 
HETATM    5  C6  UNL     1     -34.166   6.656   2.607  1.00 20.00     0.110 C 
HETATM    6  C7  UNL     1     -32.320   5.636   1.230  1.00 20.00    -0.014 C 
HETATM    7  C8  UNL     1     -31.947   9.520   1.185  1.00 20.00     0.043 C 
HETATM    8  C9  UNL     1     -31.327   4.481   1.108  1.00 20.00     0.010 C 
ENDROOT
BRANCH   5   9
HETATM    9  C3  UNL     1     -34.579   6.763   4.060  1.00 20.00     0.180 C 
HETATM   10  O10 UNL     1     -34.034   7.699   4.709  1.00 20.00    -0.647 OA
HETATM   11  O11 UNL     1     -35.418   5.898   4.438  1.00 20.00    -0.647 OA
ENDBRANCH   5   9
TORSDOF 1
ENDMDL
MODEL 6
REMARK VINA RESULT:       0.7      2.343      3.961
REMARK  1 active torsions:
REMARK  status: ('A' for Active; 'I' for Inactive)
REMARK    1  A    between atoms: C3_3  and  C6_6 
ROOT
HETATM    1  C1  UNL     1     -31.838   7.335   0.937  1.00 20.00    -0.009 C 
HETATM    2  C2  UNL     1     -32.463   8.479   1.266  1.00 20.00    -0.086 C 
HETATM    3  C4  UNL     1     -33.471   8.543   2.388  1.00 20.00     0.037 C 
HETATM    4  C5  UNL     1     -33.342   6.027   2.507  1.00 20.00     0.023 C 
HETATM    5  C6  UNL     1     -32.094   6.027   1.623  1.00 20.00     0.110 C 
HETATM    6  C7  UNL     1     -33.428   7.321   3.324  1.00 20.00    -0.014 C 
HETATM    7  C8  UNL     1     -32.205   9.764   0.536  1.00 20.00     0.043 C 
HETATM    8  C9  UNL     1     -34.640   7.307   4.253  1.00 20.00     0.010 C 
ENDROOT
BRANCH   5   9
HETATM    9  C3  UNL     1     -32.322   4.990   0.543  1.00 20.00     0.180 C 
HETATM   10  O10 UNL     1     -33.531   4.781   0.243  1.00 20.00    -0.647 OA
HETATM   11  O11 UNL     1     -31.270   4.465   0.082  1.00 20.00    -0.647 OA
ENDBRANCH   5   9
TORSDOF 1
ENDMDL
MODEL 7
REMARK VINA RESULT:       1.2      2.663      3.694
REMARK  1 active torsions:
REMARK  status: ('A' for Active; 'I' for Inactive)
REMARK    1  A    between atoms: C3_3  and  C6_6 
ROOT
HETATM    1  C1  UNL     1     -34.062   5.855   2.205  1.00 20.00    -0.009 C 
HETATM    2  C2  UNL     1     -34.262   6.433   3.402  1.00 20.00    -0.086 C 
HETATM    3  C4  UNL     1     -33.391   7.562   3.898  1.00 20.00     0.037 C 
HETATM    4  C5  UNL     1     -31.893   7.138   1.914  1.00 20.00     0.023 C 
HETATM    5  C6  UNL     1     -32.959   6.251   1.270  1.00 20.00     0.110 C 
HETATM    6  C7  UNL     1     -32.541   8.214   2.793  1.00 20.00    -0.014 C 
HETATM    7  C8  UNL     1     -35.357   5.989   4.326  1.00 20.00     0.043 C 
HETATM    8  C9  UNL     1     -31.488   9.142   3.395  1.00 20.00     0.010 C 
ENDROOT
BRANCH   5   9
HETATM    9  C3  UNL     1     -32.263   4.979   0.832  1.00 20.00     0.180 C 
HETATM   10  O10 UNL     1     -32.906   4.268   0.010  1.00 20.00    -0.647 OA
HETATM   11  O11 UNL     1     -31.125   4.793   1.348  1.00 20.00    -0.647 OA
ENDBRANCH   5   9
TORSDOF 1
ENDMDL
MODEL 8
REMARK VINA RESULT:       1.2      4.059      5.051
REMARK  1 active torsions:
REMARK  status: ('A' for Active; 'I' for Inactive)
REMARK    1  A    between atoms: C3_3  and  C6_6 
ROOT
HETATM    1  C1  UNL     1     -34.425   5.253   4.160  1.00 20.00    -0.009 C 
HETATM    2  C2  UNL     1     -34.098   6.487   3.737  1.00 20.00    -0.086 C 
HETATM    3  C4  UNL     1     -33.177   6.709   2.562  1.00 20.00     0.037 C 
HETATM    4  C5  UNL     1     -32.716   4.230   2.588  1.00 20.00     0.023 C 
HETATM    5  C6  UNL     1     -33.895   3.998   3.534  1.00 20.00     0.110 C 
HETATM    6  C7  UNL     1     -32.967   5.452   1.698  1.00 20.00    -0.014 C 
HETATM    7  C8  UNL     1     -34.623   7.722   4.407  1.00 20.00     0.043 C 
HETATM    8  C9  UNL     1     -31.821   5.658   0.709  1.00 20.00     0.010 C 
ENDROOT
BRANCH   5   9
HETATM    9  C3  UNL     1     -33.389   3.116   4.656  1.00 20.00     0.180 C 
HETATM   10  O10 UNL     1     -33.582   1.878   4.498  1.00 20.00    -0.647 OA
HETATM   11  O11 UNL     1     -32.838   3.734   5.609  1.00 20.00    -0.647 OA
ENDBRANCH   5   9
TORSDOF 1
ENDMDL
MODEL 9
REMARK VINA RESULT:       1.3      1.296      3.012
REMARK  1 active torsions:
REMARK  status: ('A' for Active; 'I' for Inactive)
REMARK    1  A    between atoms: C3_3  and  C6_6 
ROOT
HETATM    1  C1  UNL     1     -32.297   6.657   1.145  1.00 20.00    -0.009 C 
HETATM    2  C2  UNL     1     -32.380   5.393   1.597  1.00 20.00    -0.086 C 
HETATM    3  C4  UNL     1     -33.287   5.014   2.743  1.00 20.00     0.037 C 
HETATM    4  C5  UNL     1     -33.701   7.477   3.092  1.00 20.00     0.023 C 
HETATM    5  C6  UNL     1     -33.064   7.799   1.740  1.00 20.00     0.110 C 
HETATM    6  C7  UNL     1     -34.343   6.085   3.072  1.00 20.00    -0.014 C 
HETATM    7  C8  UNL     1     -31.573   4.280   0.997  1.00 20.00     0.043 C 
HETATM    8  C9  UNL     1     -35.033   5.777   4.399  1.00 20.00     0.010 C 
ENDROOT
BRANCH   5   9
HETATM    9  C3  UNL     1     -32.080   8.926   1.977  1.00 20.00     0.180 C 
HETATM   10  O10 UNL     1     -31.355   8.802   3.003  1.00 20.00    -0.647 OA
HETATM   11  O11 UNL     1     -32.114   9.848   1.115  1.00 20.00    -0.647 OA
ENDBRANCH   5   9
TORSDOF 1
ENDMDL
