MODEL 1
REMARK VINA RESULT:      -0.4      0.000      0.000
REMARK  0 active torsions:
REMARK  status: ('A' for Active; 'I' for Inactive)
ROOT
HETATM    1  C1  UNL     1     -33.008   6.219   2.276  1.00 20.00     0.076 A 
HETATM    2  C2  UNL     1     -33.045   7.479   2.806  1.00 20.00     0.123 A 
HETATM    3  C3  UNL     1     -34.488   5.865   3.789  1.00 20.00     0.073 A 
HETATM    4  C4  UNL     1     -31.624   7.689   1.303  1.00 20.00     0.097 A 
HETATM    5  C5  UNL     1     -32.034   6.200   1.183  1.00 20.00     0.109 A 
HETATM    6  C6  UNL     1     -35.490   5.193   4.645  1.00 20.00     0.079 C 
HETATM    7  N7  UNL     1     -33.818   5.273   2.813  1.00 20.00    -0.248 NA
HETATM    8  N8  UNL     1     -32.218   8.390   2.237  1.00 20.00    -0.255 NA
HETATM    9  S9  UNL     1     -34.152   7.551   4.067  1.00 20.00    -0.053 SA
ENDROOT
TORSDOF 0
ENDMDL
MODEL 2
REMARK VINA RESULT:      -0.4      1.561      3.929
REMARK  0 active torsions:
REMARK  status: ('A' for Active; 'I' for Inactive)
ROOT
HETATM    1  C1  UNL     1     -33.986   6.733   3.367  1.00 20.00     0.076 A 
HETATM    2  C2  UNL     1     -33.497   5.533   2.932  1.00 20.00     0.123 A 
HETATM    3  C3  UNL     1     -32.553   7.486   1.959  1.00 20.00     0.073 A 
HETATM    4  C4  UNL     1     -34.920   4.935   4.325  1.00 20.00     0.097 A 
HETATM    5  C5  UNL     1     -35.019   6.481   4.373  1.00 20.00     0.109 A 
HETATM    6  C6  UNL     1     -31.737   8.411   1.142  1.00 20.00     0.079 C 
HETATM    7  N7  UNL     1     -33.470   7.868   2.833  1.00 20.00    -0.248 NA
HETATM    8  N8  UNL     1     -34.043   4.428   3.494  1.00 20.00    -0.255 NA
HETATM    9  S9  UNL     1     -32.305   5.772   1.773  1.00 20.00    -0.053 SA
ENDROOT
TORSDOF 0
ENDMDL
MODEL 3
REMARK VINA RESULT:       0.4      1.302      3.544
REMARK  0 active torsions:
REMARK  status: ('A' for Active; 'I' for Inactive)
ROOT
HETATM    1  C1  UNL     1     -33.579   5.633   3.031  1.00 20.00     0.076 A 
HETATM    2  C2  UNL     1     -34.324   6.611   3.630  1.00 20.00     0.123 A 
HETATM    3  C3  UNL     1     -32.658   7.328   2.092  1.00 20.00     0.073 A 
HETATM    4  C4  UNL     1     -35.130   4.888   4.468  1.00 20.00     0.097 A 
HETATM    5  C5  UNL     1     -34.033   4.332   3.525  1.00 20.00     0.109 A 
HETATM    6  C6  UNL     1     -31.773   8.157   1.245  1.00 20.00     0.079 C 
HETATM    7  N7  UNL     1     -32.620   6.006   2.148  1.00 20.00    -0.248 NA
HETATM    8  N8  UNL     1     -35.270   6.190   4.504  1.00 20.00    -0.255 NA
HETATM    9  S9  UNL     1     -33.839   8.127   3.093  1.00 20.00    -0.053 SA
ENDROOT
TORSDOF 0
ENDMDL
MODEL 4
REMARK VINA RESULT:       0.5      1.511      1.833
REMARK  0 active torsions:
REMARK  status: ('A' for Active; 'I' for Inactive)
ROOT
HETATM    1  C1  UNL     1     -33.130   7.596   2.919  1.00 20.00     0.076 A 
HETATM    2  C2  UNL     1     -32.786   6.531   2.135  1.00 20.00     0.123 A 
HETATM    3  C3  UNL     1     -34.489   6.161   3.752  1.00 20.00     0.073 A 
HETATM    4  C4  UNL     1     -31.519   8.015   1.418  1.00 20.00     0.097 A 
HETATM    5  C5  UNL     1     -32.311   8.746   2.531  1.00 20.00     0.109 A 
HETATM    6  C6  UNL     1     -35.538   5.540   4.590  1.00 20.00     0.079 C 
HETATM    7  N7  UNL     1     -34.098   7.421   3.852  1.00 20.00    -0.248 NA
HETATM    8  N8  UNL     1     -31.814   6.755   1.217  1.00 20.00    -0.255 NA
HETATM    9  S9  UNL     1     -33.702   5.183   2.544  1.00 20.00    -0.053 SA
ENDROOT
TORSDOF 0
ENDMDL
MODEL 5
REMARK VINA RESULT:       0.6      1.624      3.227
REMARK  0 active torsions:
REMARK  status: ('A' for Active; 'I' for Inactive)
ROOT
HETATM    1  C1  UNL     1     -33.820   6.110   3.028  1.00 20.00     0.076 A 
HETATM    2  C2  UNL     1     -33.176   7.315   2.990  1.00 20.00     0.123 A 
HETATM    3  C3  UNL     1     -32.407   5.645   1.482  1.00 20.00     0.073 A 
HETATM    4  C4  UNL     1     -34.595   7.636   4.475  1.00 20.00     0.097 A 
HETATM    5  C5  UNL     1     -34.871   6.173   4.045  1.00 20.00     0.109 A 
HETATM    6  C6  UNL     1     -31.657   4.917   0.435  1.00 20.00     0.079 C 
HETATM    7  N7  UNL     1     -33.407   5.134   2.181  1.00 20.00    -0.248 NA
HETATM    8  N8  UNL     1     -33.624   8.258   3.854  1.00 20.00    -0.255 NA
HETATM    9  S9  UNL     1     -31.957   7.291   1.834  1.00 20.00    -0.053 SA
ENDROOT
TORSDOF 0
ENDMDL
MODEL 6
REMARK VINA RESULT:       2.1      1.852      3.375
REMARK  0 active torsions:
REMARK  status: ('A' for Active; 'I' for Inactive)
ROOT
HETATM    1  C1  UNL     1     -32.917   7.191   2.689  1.00 20.00     0.076 A 
HETATM    2  C2  UNL     1     -33.805   6.280   3.188  1.00 20.00     0.123 A 
HETATM    3  C3  UNL     1     -32.362   5.526   1.455  1.00 20.00     0.073 A 
HETATM    4  C4  UNL     1     -34.246   7.968   4.319  1.00 20.00     0.097 A 
HETATM    5  C5  UNL     1     -33.103   8.460   3.395  1.00 20.00     0.109 A 
HETATM    6  C6  UNL     1     -31.679   4.696   0.439  1.00 20.00     0.079 C 
HETATM    7  N7  UNL     1     -32.079   6.796   1.699  1.00 20.00    -0.248 NA
HETATM    8  N8  UNL     1     -34.621   6.721   4.176  1.00 20.00    -0.255 NA
HETATM    9  S9  UNL     1     -33.630   4.804   2.406  1.00 20.00    -0.053 SA
ENDROOT
TORSDOF 0
ENDMDL
MODEL 7
REMARK VINA RESULT:       2.1      1.527      2.343
REMARK  0 active torsions:
REMARK  status: ('A' for Active; 'I' for Inactive)
ROOT
HETATM    1  C1  UNL     1     -32.522   7.228   2.336  1.00 20.00     0.076 A 
HETATM    2  C2  UNL     1     -33.317   6.116   2.373  1.00 20.00     0.123 A 
HETATM    3  C3  UNL     1     -33.636   7.716   4.103  1.00 20.00     0.073 A 
HETATM    4  C4  UNL     1     -32.168   5.763   0.676  1.00 20.00     0.097 A 
HETATM    5  C5  UNL     1     -31.637   7.131   1.174  1.00 20.00     0.109 A 
HETATM    6  C6  UNL     1     -34.129   8.428   5.303  1.00 20.00     0.079 C 
HETATM    7  N7  UNL     1     -32.677   8.161   3.307  1.00 20.00    -0.248 NA
HETATM    8  N8  UNL     1     -33.126   5.213   1.382  1.00 20.00    -0.255 NA
HETATM    9  S9  UNL     1     -34.353   6.182   3.694  1.00 20.00    -0.053 SA
ENDROOT
TORSDOF 0
ENDMDL
MODEL 8
REMARK VINA RESULT:       2.1      2.285      3.018
REMARK  0 active torsions:
REMARK  status: ('A' for Active; 'I' for Inactive)
ROOT
HETATM    1  C1  UNL     1     -34.493   5.495   4.003  1.00 20.00     0.076 A 
HETATM    2  C2  UNL     1     -33.427   5.716   3.176  1.00 20.00     0.123 A 
HETATM    3  C3  UNL     1     -33.585   3.557   4.159  1.00 20.00     0.073 A 
HETATM    4  C4  UNL     1     -34.405   7.549   3.111  1.00 20.00     0.097 A 
HETATM    5  C5  UNL     1     -35.297   6.716   4.066  1.00 20.00     0.109 A 
HETATM    6  C6  UNL     1     -33.327   2.153   4.549  1.00 20.00     0.079 C 
HETATM    7  N7  UNL     1     -34.614   4.274   4.581  1.00 20.00    -0.248 NA
HETATM    8  N8  UNL     1     -33.348   6.949   2.621  1.00 20.00    -0.255 NA
HETATM    9  S9  UNL     1     -32.472   4.338   3.072  1.00 20.00    -0.053 SA
ENDROOT
TORSDOF 0
ENDMDL
