MODEL 1
REMARK VINA RESULT:      -2.0      0.000      0.000
REMARK  1 active torsions:
REMARK  status: ('A' for Active; 'I' for Inactive)
REMARK    1  A    between atoms: C4_4  and  C5_5 
ROOT
HETATM    1  C1  UNL     1     -34.936   6.593   3.975  1.00 20.00     0.015 C 
HETATM    2  C2  UNL     1     -34.077   6.225   3.221  1.00 20.00    -0.083 C 
HETATM    3  C3  UNL     1     -33.055   5.787   2.324  1.00 20.00     0.229 A 
HETATM    4  C4  UNL     1     -32.075   6.757   1.712  1.00 20.00     0.177 A 
HETATM    5  O6  UNL     1     -33.219   6.294   0.990  1.00 20.00    -0.361 OA
ENDROOT
BRANCH   4   6
HETATM    6  C5  UNL     1     -32.076   8.217   2.002  1.00 20.00     0.150 C 
HETATM    7 CL7  UNL     1     -32.252   9.176   0.507  1.00 20.00    -0.128 Cl
ENDBRANCH   4   6
TORSDOF 1
ENDMDL
MODEL 2
REMARK VINA RESULT:      -1.9      3.253      4.150
REMARK  1 active torsions:
REMARK  status: ('A' for Active; 'I' for Inactive)
REMARK    1  A    between atoms: C4_4  and  C5_5 
ROOT
HETATM    1  C1  UNL     1     -32.554   7.559   2.106  1.00 20.00     0.015 C 
HETATM    2  C2  UNL     1     -33.347   7.316   2.974  1.00 20.00    -0.083 C 
HETATM    3  C3  UNL     1     -34.290   7.026   4.007  1.00 20.00     0.229 A 
HETATM    4  C4  UNL     1     -34.692   5.609   4.333  1.00 20.00     0.177 A 
HETATM    5  O6  UNL     1     -35.510   6.449   3.513  1.00 20.00    -0.361 OA
ENDROOT
BRANCH   4   6
HETATM    6  C5  UNL     1     -34.135   4.418   3.636  1.00 20.00     0.150 C 
HETATM    7 CL7  UNL     1     -33.426   3.260   4.796  1.00 20.00    -0.128 Cl
ENDBRANCH   4   6
TORSDOF 1
ENDMDL
MODEL 3
REMARK VINA RESULT:      -1.8      2.597      3.685
REMARK  1 active torsions:
REMARK  status: ('A' for Active; 'I' for Inactive)
REMARK    1  A    between atoms: C4_4  and  C5_5 
ROOT
HETATM    1  C1  UNL     1     -32.713  10.392   0.379  1.00 20.00     0.015 C 
HETATM    2  C2  UNL     1     -32.356   9.297   0.716  1.00 20.00    -0.083 C 
HETATM    3  C3  UNL     1     -31.930   7.994   1.117  1.00 20.00     0.229 A 
HETATM    4  C4  UNL     1     -32.537   7.299   2.311  1.00 20.00     0.177 A 
HETATM    5  O6  UNL     1     -31.283   7.981   2.400  1.00 20.00    -0.361 OA
ENDROOT
BRANCH   4   6
HETATM    6  C5  UNL     1     -33.623   7.891   3.139  1.00 20.00     0.150 C 
HETATM    7 CL7  UNL     1     -34.713   6.630   3.779  1.00 20.00    -0.128 Cl
ENDBRANCH   4   6
TORSDOF 1
ENDMDL
MODEL 4
REMARK VINA RESULT:      -1.8      1.964      2.421
REMARK  1 active torsions:
REMARK  status: ('A' for Active; 'I' for Inactive)
REMARK    1  A    between atoms: C4_4  and  C5_5 
ROOT
HETATM    1  C1  UNL     1     -33.889   3.709   4.383  1.00 20.00     0.015 C 
HETATM    2  C2  UNL     1     -34.313   4.801   4.121  1.00 20.00    -0.083 C 
HETATM    3  C3  UNL     1     -34.819   6.100   3.808  1.00 20.00     0.229 A 
HETATM    4  C4  UNL     1     -34.106   7.012   2.842  1.00 20.00     0.177 A 
HETATM    5  O6  UNL     1     -33.962   7.162   4.256  1.00 20.00    -0.361 OA
ENDROOT
BRANCH   4   6
HETATM    6  C5  UNL     1     -32.855   6.634   2.129  1.00 20.00     0.150 C 
HETATM    7 CL7  UNL     1     -31.928   8.078   1.634  1.00 20.00    -0.128 Cl
ENDBRANCH   4   6
TORSDOF 1
ENDMDL
MODEL 5
REMARK VINA RESULT:      -1.3      2.897      3.796
REMARK  1 active torsions:
REMARK  status: ('A' for Active; 'I' for Inactive)
REMARK    1  A    between atoms: C4_4  and  C5_5 
ROOT
HETATM    1  C1  UNL     1     -32.721   5.756   1.149  1.00 20.00     0.015 C 
HETATM    2  C2  UNL     1     -32.878   6.478   2.096  1.00 20.00    -0.083 C 
HETATM    3  C3  UNL     1     -33.064   7.336   3.222  1.00 20.00     0.229 A 
HETATM    4  C4  UNL     1     -34.243   7.176   4.149  1.00 20.00     0.177 A 
HETATM    5  O6  UNL     1     -34.234   8.163   3.115  1.00 20.00    -0.361 OA
ENDROOT
BRANCH   4   6
HETATM    6  C5  UNL     1     -35.277   6.118   3.985  1.00 20.00     0.150 C 
HETATM    7 CL7  UNL     1     -34.639   4.511   4.434  1.00 20.00    -0.128 Cl
ENDBRANCH   4   6
TORSDOF 1
ENDMDL
MODEL 6
REMARK VINA RESULT:      -1.2      1.919      2.509
REMARK  1 active torsions:
REMARK  status: ('A' for Active; 'I' for Inactive)
REMARK    1  A    between atoms: C4_4  and  C5_5 
ROOT
HETATM    1  C1  UNL     1     -32.365   5.221   1.056  1.00 20.00     0.015 C 
HETATM    2  C2  UNL     1     -32.540   6.246   1.656  1.00 20.00    -0.083 C 
HETATM    3  C3  UNL     1     -32.750   7.465   2.370  1.00 20.00     0.229 A 
HETATM    4  C4  UNL     1     -32.461   8.806   1.742  1.00 20.00     0.177 A 
HETATM    5  O6  UNL     1     -31.533   8.183   2.633  1.00 20.00    -0.361 OA
ENDROOT
BRANCH   4   6
HETATM    6  C5  UNL     1     -31.967   8.969   0.348  1.00 20.00     0.150 C 
HETATM    7 CL7  UNL     1     -32.869  10.244  -0.517  1.00 20.00    -0.128 Cl
ENDBRANCH   4   6
TORSDOF 1
ENDMDL
MODEL 7
REMARK VINA RESULT:      -1.2      2.562      3.632
REMARK  1 active torsions:
REMARK  status: ('A' for Active; 'I' for Inactive)
REMARK    1  A    between atoms: C4_4  and  C5_5 
ROOT
HETATM    1  C1  UNL     1     -32.637   9.783  -0.219  1.00 20.00     0.015 C 
HETATM    2  C2  UNL     1     -32.216   9.158   0.716  1.00 20.00    -0.083 C 
HETATM    3  C3  UNL     1     -31.715   8.414   1.828  1.00 20.00     0.229 A 
HETATM    4  C4  UNL     1     -32.084   6.967   2.039  1.00 20.00     0.177 A 
HETATM    5  O6  UNL     1     -32.742   8.018   2.751  1.00 20.00    -0.361 OA
ENDROOT
BRANCH   4   6
HETATM    6  C5  UNL     1     -32.963   6.202   1.113  1.00 20.00     0.150 C 
HETATM    7 CL7  UNL     1     -32.162   4.712   0.540  1.00 20.00    -0.128 Cl
ENDBRANCH   4   6
TORSDOF 1
ENDMDL
MODEL 8
REMARK VINA RESULT:      -1.0      2.051      2.283
REMARK  1 active torsions:
REMARK  status: ('A' for Active; 'I' for Inactive)
REMARK    1  A    between atoms: C4_4  and  C5_5 
ROOT
HETATM    1  C1  UNL     1     -34.910   6.301   4.139  1.00 20.00     0.015 C 
HETATM    2  C2  UNL     1     -34.235   7.074   3.517  1.00 20.00    -0.083 C 
HETATM    3  C3  UNL     1     -33.432   7.995   2.776  1.00 20.00     0.229 A 
HETATM    4  C4  UNL     1     -32.323   7.521   1.870  1.00 20.00     0.177 A 
HETATM    5  O6  UNL     1     -32.055   8.002   3.189  1.00 20.00    -0.361 OA
ENDROOT
BRANCH   4   6
HETATM    6  C5  UNL     1     -31.995   6.085   1.657  1.00 20.00     0.150 C 
HETATM    7 CL7  UNL     1     -33.180   5.302   0.574  1.00 20.00    -0.128 Cl
ENDBRANCH   4   6
TORSDOF 1
ENDMDL
MODEL 9
REMARK VINA RESULT:      -0.9      2.193      3.192
REMARK  1 active torsions:
REMARK  status: ('A' for Active; 'I' for Inactive)
REMARK    1  A    between atoms: C4_4  and  C5_5 
ROOT
HETATM    1  C1  UNL     1     -31.575   8.600   2.465  1.00 20.00     0.015 C 
HETATM    2  C2  UNL     1     -32.072   7.673   1.888  1.00 20.00    -0.083 C 
HETATM    3  C3  UNL     1     -32.664   6.569   1.200  1.00 20.00     0.229 A 
HETATM    4  C4  UNL     1     -33.440   5.506   1.937  1.00 20.00     0.177 A 
HETATM    5  O6  UNL     1     -32.078   5.305   1.551  1.00 20.00    -0.361 OA
ENDROOT
BRANCH   4   6
HETATM    6  C5  UNL     1     -33.670   5.530   3.407  1.00 20.00     0.150 C 
HETATM    7 CL7  UNL     1     -35.082   6.539   3.827  1.00 20.00    -0.128 Cl
ENDBRANCH   4   6
TORSDOF 1
ENDMDL
