MODEL 1
REMARK VINA RESULT:      -0.3      0.000      0.000
REMARK  3 active torsions:
REMARK  status: ('A' for Active; 'I' for Inactive)
REMARK    1  A    between atoms: C4_4  and  C8_8 
REMARK    2  A    between atoms: C7_7  and  C11_11 
REMARK    3  A    between atoms: C8_8  and  O12_12 
ROOT
HETATM    1  C1  UNL     1     -32.664   8.314   3.226  1.00 20.00    -0.022 C 
HETATM    2  C2  UNL     1     -33.639   7.648   3.861  1.00 20.00     0.011 C 
HETATM    3  C5  UNL     1     -32.335   6.362   1.650  1.00 20.00     0.012 C 
HETATM    4  C6  UNL     1     -33.804   6.035   1.921  1.00 20.00     0.047 C 
HETATM    5  C7  UNL     1     -32.005   7.833   1.959  1.00 20.00     0.011 C 
HETATM    6  C8  UNL     1     -34.214   6.343   3.376  1.00 20.00     0.092 C 
ENDROOT
BRANCH   6   7
HETATM    7  C4  UNL     1     -33.827   5.230   4.308  1.00 20.00     0.004 C 
HETATM    8  C3  UNL     1     -33.924   3.931   4.003  1.00 20.00     0.010 C 
ENDBRANCH   6   7
BRANCH   6   9
HETATM    9  O12 UNL     1     -35.640   6.463   3.408  1.00 20.00    -0.382 OA
HETATM   10  H30 UNL     1     -35.845   7.348   3.075  1.00 20.00     0.211 HD
ENDBRANCH   6   9
BRANCH   5  11
HETATM   11  C11 UNL     1     -32.393   8.750   0.797  1.00 20.00    -0.015 C 
HETATM   12  C9  UNL     1     -32.753  10.141   1.310  1.00 20.00     0.010 C 
HETATM   13  C10 UNL     1     -31.260   8.828  -0.224  1.00 20.00     0.010 C 
ENDBRANCH   5  11
TORSDOF 3
ENDMDL
MODEL 2
REMARK VINA RESULT:      -0.1      1.660      4.555
REMARK  3 active torsions:
REMARK  status: ('A' for Active; 'I' for Inactive)
REMARK    1  A    between atoms: C4_4  and  C8_8 
REMARK    2  A    between atoms: C7_7  and  C11_11 
REMARK    3  A    between atoms: C8_8  and  O12_12 
ROOT
HETATM    1  C1  UNL     1     -34.210   7.436   3.261  1.00 20.00    -0.022 C 
HETATM    2  C2  UNL     1     -33.237   8.294   2.921  1.00 20.00     0.011 C 
HETATM    3  C5  UNL     1     -33.256   5.704   1.682  1.00 20.00     0.012 C 
HETATM    4  C6  UNL     1     -31.911   6.393   1.912  1.00 20.00     0.047 C 
HETATM    5  C7  UNL     1     -34.255   5.998   2.815  1.00 20.00     0.011 C 
HETATM    6  C8  UNL     1     -32.053   7.921   2.068  1.00 20.00     0.092 C 
ENDROOT
BRANCH   6   7
HETATM    7  C4  UNL     1     -32.141   8.608   0.735  1.00 20.00     0.004 C 
HETATM    8  C3  UNL     1     -32.492   9.889   0.575  1.00 20.00     0.010 C 
ENDBRANCH   6   7
BRANCH   6   9
HETATM    9  O12 UNL     1     -30.878   8.401   2.730  1.00 20.00    -0.382 OA
HETATM   10  H30 UNL     1     -30.150   8.292   2.103  1.00 20.00     0.211 HD
ENDBRANCH   6   9
BRANCH   5  11
HETATM   11  C11 UNL     1     -34.024   5.078   4.017  1.00 20.00    -0.015 C 
HETATM   12  C9  UNL     1     -35.300   4.946   4.842  1.00 20.00     0.010 C 
HETATM   13  C10 UNL     1     -33.536   3.707   3.555  1.00 20.00     0.010 C 
ENDBRANCH   5  11
TORSDOF 3
ENDMDL
MODEL 3
REMARK VINA RESULT:       1.4      0.623      1.169
REMARK  3 active torsions:
REMARK  status: ('A' for Active; 'I' for Inactive)
REMARK    1  A    between atoms: C4_4  and  C8_8 
REMARK    2  A    between atoms: C7_7  and  C11_11 
REMARK    3  A    between atoms: C8_8  and  O12_12 
ROOT
HETATM    1  C1  UNL     1     -32.212   8.398   3.195  1.00 20.00    -0.022 C 
HETATM    2  C2  UNL     1     -33.203   7.693   3.760  1.00 20.00     0.011 C 
HETATM    3  C5  UNL     1     -32.091   6.733   1.293  1.00 20.00     0.012 C 
HETATM    4  C6  UNL     1     -33.566   6.456   1.585  1.00 20.00     0.047 C 
HETATM    5  C7  UNL     1     -31.645   8.104   1.830  1.00 20.00     0.011 C 
HETATM    6  C8  UNL     1     -33.890   6.531   3.092  1.00 20.00     0.092 C 
ENDROOT
BRANCH   6   7
HETATM    7  C4  UNL     1     -33.542   5.251   3.798  1.00 20.00     0.004 C 
HETATM    8  C3  UNL     1     -34.447   4.363   4.225  1.00 20.00     0.010 C 
ENDBRANCH   6   7
BRANCH   6   9
HETATM    9  O12 UNL     1     -35.301   6.733   3.222  1.00 20.00    -0.382 OA
HETATM   10  H30 UNL     1     -35.437   7.138   4.090  1.00 20.00     0.211 HD
ENDBRANCH   6   9
BRANCH   5  11
HETATM   11  C11 UNL     1     -32.017   9.232   0.864  1.00 20.00    -0.015 C 
HETATM   12  C9  UNL     1     -32.456   8.660  -0.481  1.00 20.00     0.010 C 
HETATM   13  C10 UNL     1     -33.116  10.107   1.462  1.00 20.00     0.010 C 
ENDBRANCH   5  11
TORSDOF 3
ENDMDL
