MODEL 1
REMARK VINA RESULT:      -0.4      0.000      0.000
REMARK  1 active torsions:
REMARK  status: ('A' for Active; 'I' for Inactive)
REMARK    1  A    between atoms: C4_4  and  C9_9 
ROOT
HETATM    1  C1  UNL     1     -32.104   6.702   1.110  1.00 20.00     0.014 A 
HETATM    2  C2  UNL     1     -32.637   5.648   1.738  1.00 20.00     0.075 A 
HETATM    3  C3  UNL     1     -33.038   8.231   2.706  1.00 20.00     0.101 A 
HETATM    4  C4  UNL     1     -32.303   8.048   1.600  1.00 20.00    -0.039 A 
HETATM    5  C5  UNL     1     -33.455   5.845   2.971  1.00 20.00     0.246 A 
HETATM    6  C8  UNL     1     -34.396   7.445   4.588  1.00 20.00     0.159 C 
HETATM    7  N10 UNL     1     -33.610   7.171   3.391  1.00 20.00    -0.329 N 
HETATM    8  O11 UNL     1     -33.932   4.858   3.529  1.00 20.00    -0.268 OA
ENDROOT
BRANCH   4   9
HETATM    9  C9  UNL     1     -31.672   9.167   0.835  1.00 20.00     0.012 C 
HETATM   10  C6  UNL     1     -31.000   8.636  -0.429  1.00 20.00     0.015 C 
HETATM   11  C7  UNL     1     -32.702  10.242   0.492  1.00 20.00     0.015 C 
ENDBRANCH   4   9
TORSDOF 1
ENDMDL
MODEL 2
REMARK VINA RESULT:      -0.0      1.906      3.260
REMARK  1 active torsions:
REMARK  status: ('A' for Active; 'I' for Inactive)
REMARK    1  A    between atoms: C4_4  and  C9_9 
ROOT
HETATM    1  C1  UNL     1     -34.523   6.848   3.051  1.00 20.00     0.014 A 
HETATM    2  C2  UNL     1     -35.300   6.340   4.015  1.00 20.00     0.075 A 
HETATM    3  C3  UNL     1     -33.130   4.894   3.031  1.00 20.00     0.101 A 
HETATM    4  C4  UNL     1     -33.394   6.110   2.531  1.00 20.00    -0.039 A 
HETATM    5  C5  UNL     1     -35.013   4.986   4.575  1.00 20.00     0.246 A 
HETATM    6  C8  UNL     1     -33.560   2.999   4.524  1.00 20.00     0.159 C 
HETATM    7  N10 UNL     1     -33.906   4.326   4.029  1.00 20.00    -0.329 N 
HETATM    8  O11 UNL     1     -35.744   4.544   5.459  1.00 20.00    -0.268 OA
ENDROOT
BRANCH   4   9
HETATM    9  C9  UNL     1     -32.578   6.753   1.455  1.00 20.00     0.012 C 
HETATM   10  C6  UNL     1     -31.878   8.000   1.992  1.00 20.00     0.015 C 
HETATM   11  C7  UNL     1     -31.564   5.768   0.877  1.00 20.00     0.015 C 
ENDBRANCH   4   9
TORSDOF 1
ENDMDL
MODEL 3
REMARK VINA RESULT:       0.2      1.637      2.724
REMARK  1 active torsions:
REMARK  status: ('A' for Active; 'I' for Inactive)
REMARK    1  A    between atoms: C4_4  and  C9_9 
ROOT
HETATM    1  C1  UNL     1     -34.102   7.589   3.207  1.00 20.00     0.014 A 
HETATM    2  C2  UNL     1     -35.010   6.930   3.937  1.00 20.00     0.075 A 
HETATM    3  C3  UNL     1     -32.845   5.584   2.809  1.00 20.00     0.101 A 
HETATM    4  C4  UNL     1     -32.974   6.905   2.616  1.00 20.00    -0.039 A 
HETATM    5  C5  UNL     1     -34.873   5.459   4.154  1.00 20.00     0.246 A 
HETATM    6  C8  UNL     1     -33.555   3.425   3.723  1.00 20.00     0.159 C 
HETATM    7  N10 UNL     1     -33.759   4.859   3.556  1.00 20.00    -0.329 N 
HETATM    8  O11 UNL     1     -35.722   4.879   4.828  1.00 20.00    -0.268 OA
ENDROOT
BRANCH   4   9
HETATM    9  C9  UNL     1     -32.007   7.719   1.816  1.00 20.00     0.012 C 
HETATM   10  C6  UNL     1     -32.755   8.698   0.914  1.00 20.00     0.015 C 
HETATM   11  C7  UNL     1     -31.032   8.460   2.730  1.00 20.00     0.015 C 
ENDBRANCH   4   9
TORSDOF 1
ENDMDL
MODEL 4
REMARK VINA RESULT:       0.8      1.975      3.222
REMARK  1 active torsions:
REMARK  status: ('A' for Active; 'I' for Inactive)
REMARK    1  A    between atoms: C4_4  and  C9_9 
ROOT
HETATM    1  C1  UNL     1     -32.189   7.286   1.916  1.00 20.00     0.014 A 
HETATM    2  C2  UNL     1     -32.578   8.055   2.939  1.00 20.00     0.075 A 
HETATM    3  C3  UNL     1     -33.805   5.598   2.464  1.00 20.00     0.101 A 
HETATM    4  C4  UNL     1     -32.816   6.009   1.656  1.00 20.00    -0.039 A 
HETATM    5  C5  UNL     1     -33.680   7.605   3.840  1.00 20.00     0.246 A 
HETATM    6  C8  UNL     1     -35.324   5.850   4.370  1.00 20.00     0.159 C 
HETATM    7  N10 UNL     1     -34.243   6.360   3.535  1.00 20.00    -0.329 N 
HETATM    8  O11 UNL     1     -34.017   8.332   4.773  1.00 20.00    -0.268 OA
ENDROOT
BRANCH   4   9
HETATM    9  C9  UNL     1     -32.318   5.213   0.492  1.00 20.00     0.012 C 
HETATM   10  C6  UNL     1     -31.140   4.336   0.912  1.00 20.00     0.015 C 
HETATM   11  C7  UNL     1     -33.439   4.366  -0.108  1.00 20.00     0.015 C 
ENDBRANCH   4   9
TORSDOF 1
ENDMDL
MODEL 5
REMARK VINA RESULT:       0.8      0.868      2.061
REMARK  1 active torsions:
REMARK  status: ('A' for Active; 'I' for Inactive)
REMARK    1  A    between atoms: C4_4  and  C9_9 
ROOT
HETATM    1  C1  UNL     1     -33.171   8.411   2.924  1.00 20.00     0.014 A 
HETATM    2  C2  UNL     1     -33.733   7.391   3.583  1.00 20.00     0.075 A 
HETATM    3  C3  UNL     1     -32.296   6.946   1.237  1.00 20.00     0.101 A 
HETATM    4  C4  UNL     1     -32.422   8.196   1.706  1.00 20.00    -0.039 A 
HETATM    5  C5  UNL     1     -33.598   5.998   3.065  1.00 20.00     0.246 A 
HETATM    6  C8  UNL     1     -32.682   4.528   1.315  1.00 20.00     0.159 C 
HETATM    7  N10 UNL     1     -32.860   5.859   1.884  1.00 20.00    -0.329 N 
HETATM    8  O11 UNL     1     -34.125   5.079   3.691  1.00 20.00    -0.268 OA
ENDROOT
BRANCH   4   9
HETATM    9  C9  UNL     1     -31.827   9.392   1.035  1.00 20.00     0.012 C 
HETATM   10  C6  UNL     1     -31.107   8.979  -0.247  1.00 20.00     0.015 C 
HETATM   11  C7  UNL     1     -32.896  10.443   0.743  1.00 20.00     0.015 C 
ENDBRANCH   4   9
TORSDOF 1
ENDMDL
MODEL 6
REMARK VINA RESULT:       0.9      2.183      4.301
REMARK  1 active torsions:
REMARK  status: ('A' for Active; 'I' for Inactive)
REMARK    1  A    between atoms: C4_4  and  C9_9 
ROOT
HETATM    1  C1  UNL     1     -33.047   5.127   1.727  1.00 20.00     0.014 A 
HETATM    2  C2  UNL     1     -32.302   5.983   1.018  1.00 20.00     0.075 A 
HETATM    3  C3  UNL     1     -33.358   6.729   3.487  1.00 20.00     0.101 A 
HETATM    4  C4  UNL     1     -33.602   5.499   3.009  1.00 20.00    -0.039 A 
HETATM    5  C5  UNL     1     -32.029   7.353   1.543  1.00 20.00     0.246 A 
HETATM    6  C8  UNL     1     -32.371   8.968   3.370  1.00 20.00     0.159 C 
HETATM    7  N10 UNL     1     -32.594   7.649   2.789  1.00 20.00    -0.329 N 
HETATM    8  O11 UNL     1     -31.342   8.119   0.870  1.00 20.00    -0.268 OA
ENDROOT
BRANCH   4   9
HETATM    9  C9  UNL     1     -34.422   4.481   3.735  1.00 20.00     0.012 C 
HETATM   10  C6  UNL     1     -33.517   3.506   4.485  1.00 20.00     0.015 C 
HETATM   11  C7  UNL     1     -35.405   5.153   4.691  1.00 20.00     0.015 C 
ENDBRANCH   4   9
TORSDOF 1
ENDMDL
MODEL 7
REMARK VINA RESULT:       0.9      2.169      4.816
REMARK  1 active torsions:
REMARK  status: ('A' for Active; 'I' for Inactive)
REMARK    1  A    between atoms: C4_4  and  C9_9 
ROOT
HETATM    1  C1  UNL     1     -34.115   6.903   3.793  1.00 20.00     0.014 A 
HETATM    2  C2  UNL     1     -33.520   7.960   3.229  1.00 20.00     0.075 A 
HETATM    3  C3  UNL     1     -33.022   5.382   2.293  1.00 20.00     0.101 A 
HETATM    4  C4  UNL     1     -33.867   5.560   3.320  1.00 20.00    -0.039 A 
HETATM    5  C5  UNL     1     -32.577   7.769   2.087  1.00 20.00     0.246 A 
HETATM    6  C8  UNL     1     -31.476   6.176   0.566  1.00 20.00     0.159 C 
HETATM    7  N10 UNL     1     -32.382   6.445   1.677  1.00 20.00    -0.329 N 
HETATM    8  O11 UNL     1     -32.044   8.758   1.587  1.00 20.00    -0.268 OA
ENDROOT
BRANCH   4   9
HETATM    9  C9  UNL     1     -34.575   4.437   4.008  1.00 20.00     0.012 C 
HETATM   10  C6  UNL     1     -33.567   3.480   4.640  1.00 20.00     0.015 C 
HETATM   11  C7  UNL     1     -35.550   4.969   5.057  1.00 20.00     0.015 C 
ENDBRANCH   4   9
TORSDOF 1
ENDMDL
MODEL 8
REMARK VINA RESULT:       1.0      2.227      4.575
REMARK  1 active torsions:
REMARK  status: ('A' for Active; 'I' for Inactive)
REMARK    1  A    between atoms: C4_4  and  C9_9 
ROOT
HETATM    1  C1  UNL     1     -33.505   7.962   3.424  1.00 20.00     0.014 A 
HETATM    2  C2  UNL     1     -32.485   8.409   2.682  1.00 20.00     0.075 A 
HETATM    3  C3  UNL     1     -33.408   5.794   2.399  1.00 20.00     0.101 A 
HETATM    4  C4  UNL     1     -33.995   6.608   3.289  1.00 20.00    -0.039 A 
HETATM    5  C5  UNL     1     -31.826   7.507   1.692  1.00 20.00     0.246 A 
HETATM    6  C8  UNL     1     -31.758   5.270   0.664  1.00 20.00     0.159 C 
HETATM    7  N10 UNL     1     -32.348   6.211   1.610  1.00 20.00    -0.329 N 
HETATM    8  O11 UNL     1     -30.890   7.944   1.024  1.00 20.00    -0.268 OA
ENDROOT
BRANCH   4   9
HETATM    9  C9  UNL     1     -35.139   6.192   4.156  1.00 20.00     0.012 C 
HETATM   10  C6  UNL     1     -36.466   6.441   3.442  1.00 20.00     0.015 C 
HETATM   11  C7  UNL     1     -35.009   4.726   4.564  1.00 20.00     0.015 C 
ENDBRANCH   4   9
TORSDOF 1
ENDMDL
MODEL 9
REMARK VINA RESULT:       1.4      2.103      4.226
REMARK  1 active torsions:
REMARK  status: ('A' for Active; 'I' for Inactive)
REMARK    1  A    between atoms: C4_4  and  C9_9 
ROOT
HETATM    1  C1  UNL     1     -32.687   5.661   2.070  1.00 20.00     0.014 A 
HETATM    2  C2  UNL     1     -31.925   6.200   1.111  1.00 20.00     0.075 A 
HETATM    3  C3  UNL     1     -33.333   7.824   2.886  1.00 20.00     0.101 A 
HETATM    4  C4  UNL     1     -33.423   6.490   2.998  1.00 20.00    -0.039 A 
HETATM    5  C5  UNL     1     -31.821   7.683   0.980  1.00 20.00     0.246 A 
HETATM    6  C8  UNL     1     -32.507   9.883   1.847  1.00 20.00     0.159 C 
HETATM    7  N10 UNL     1     -32.557   8.427   1.910  1.00 20.00    -0.329 N 
HETATM    8  O11 UNL     1     -31.113   8.151   0.090  1.00 20.00    -0.268 OA
ENDROOT
BRANCH   4   9
HETATM    9  C9  UNL     1     -34.250   5.805   4.039  1.00 20.00     0.012 C 
HETATM   10  C6  UNL     1     -35.715   6.215   3.909  1.00 20.00     0.015 C 
HETATM   11  C7  UNL     1     -34.100   4.288   3.942  1.00 20.00     0.015 C 
ENDBRANCH   4   9
TORSDOF 1
ENDMDL
