MODEL 1
REMARK VINA RESULT:       1.6      0.000      0.000
REMARK  1 active torsions:
REMARK  status: ('A' for Active; 'I' for Inactive)
REMARK    1  A    between atoms: C4_4  and  C9_9 
ROOT
HETATM    1  C1  UNL     1     -33.854   7.223   3.760  1.00 20.00     0.174 C 
HETATM    2  C2  UNL     1     -33.594   5.626   1.753  1.00 20.00     0.083 C 
HETATM    3  C3  UNL     1     -34.273   5.899   3.103  1.00 20.00     0.015 C 
HETATM    4  C4  UNL     1     -32.326   8.045   2.087  1.00 20.00     0.108 C 
HETATM    5  C5  UNL     1     -34.071   4.741   4.083  1.00 20.00     0.012 C 
HETATM    6  C6  UNL     1     -31.194   8.641   2.928  1.00 20.00     0.058 C 
HETATM    7  O10 UNL     1     -33.580   8.214   2.775  1.00 20.00    -0.369 OA
HETATM    8  S11 UNL     1     -31.913   6.304   1.675  1.00 20.00    -0.131 SA
ENDROOT
BRANCH   4   9
HETATM    9  C9  UNL     1     -32.456   8.827   0.775  1.00 20.00     0.022 C 
HETATM   10  C7  UNL     1     -32.781  10.289   1.059  1.00 20.00     0.013 C 
HETATM   11  C8  UNL     1     -31.175   8.705  -0.042  1.00 20.00     0.013 C 
ENDBRANCH   4   9
TORSDOF 1
ENDMDL
MODEL 2
REMARK VINA RESULT:       1.7      1.272      4.333
REMARK  1 active torsions:
REMARK  status: ('A' for Active; 'I' for Inactive)
REMARK    1  A    between atoms: C4_4  and  C9_9 
ROOT
HETATM    1  C1  UNL     1     -32.924   8.345   2.911  1.00 20.00     0.174 C 
HETATM    2  C2  UNL     1     -31.938   6.294   1.703  1.00 20.00     0.083 C 
HETATM    3  C3  UNL     1     -31.818   7.796   2.000  1.00 20.00     0.015 C 
HETATM    4  C4  UNL     1     -34.171   6.321   3.309  1.00 20.00     0.108 C 
HETATM    5  C5  UNL     1     -31.738   8.623   0.714  1.00 20.00     0.012 C 
HETATM    6  C6  UNL     1     -35.624   6.802   3.247  1.00 20.00     0.058 C 
HETATM    7  O10 UNL     1     -33.341   7.363   3.854  1.00 20.00    -0.369 OA
HETATM    8  S11 UNL     1     -33.663   5.737   1.645  1.00 20.00    -0.131 SA
ENDROOT
BRANCH   4   9
HETATM    9  C9  UNL     1     -34.064   5.142   4.281  1.00 20.00     0.022 C 
HETATM   10  C7  UNL     1     -35.415   4.867   4.933  1.00 20.00     0.013 C 
HETATM   11  C8  UNL     1     -33.549   3.904   3.557  1.00 20.00     0.013 C 
ENDBRANCH   4   9
TORSDOF 1
ENDMDL
MODEL 3
REMARK VINA RESULT:       3.8      1.994      3.269
REMARK  1 active torsions:
REMARK  status: ('A' for Active; 'I' for Inactive)
REMARK    1  A    between atoms: C4_4  and  C9_9 
ROOT
HETATM    1  C1  UNL     1     -32.653   7.787   2.740  1.00 20.00     0.174 C 
HETATM    2  C2  UNL     1     -34.633   6.428   3.674  1.00 20.00     0.083 C 
HETATM    3  C3  UNL     1     -33.850   7.749   3.700  1.00 20.00     0.015 C 
HETATM    4  C4  UNL     1     -32.850   5.598   1.751  1.00 20.00     0.108 C 
HETATM    5  C5  UNL     1     -33.398   8.112   5.117  1.00 20.00     0.012 C 
HETATM    6  C6  UNL     1     -31.393   5.136   1.660  1.00 20.00     0.058 C 
HETATM    7  O10 UNL     1     -32.917   7.024   1.567  1.00 20.00    -0.369 OA
HETATM    8  S11 UNL     1     -33.569   5.000   3.331  1.00 20.00    -0.131 SA
ENDROOT
BRANCH   4   9
HETATM    9  C9  UNL     1     -33.654   4.984   0.600  1.00 20.00     0.022 C 
HETATM   10  C7  UNL     1     -34.297   6.082  -0.242  1.00 20.00     0.013 C 
HETATM   11  C8  UNL     1     -32.759   4.097  -0.257  1.00 20.00     0.013 C 
ENDBRANCH   4   9
TORSDOF 1
ENDMDL
MODEL 4
REMARK VINA RESULT:       4.3      1.491      4.356
REMARK  1 active torsions:
REMARK  status: ('A' for Active; 'I' for Inactive)
REMARK    1  A    between atoms: C4_4  and  C9_9 
ROOT
HETATM    1  C1  UNL     1     -32.826   8.034  -0.274  1.00 20.00     0.174 C 
HETATM    2  C2  UNL     1     -32.723   9.627   1.749  1.00 20.00     0.083 C 
HETATM    3  C3  UNL     1     -32.762   9.487   0.221  1.00 20.00     0.015 C 
HETATM    4  C4  UNL     1     -32.851   6.881   1.842  1.00 20.00     0.108 C 
HETATM    5  C5  UNL     1     -31.595  10.217  -0.446  1.00 20.00     0.012 C 
HETATM    6  C6  UNL     1     -31.938   5.679   1.582  1.00 20.00     0.058 C 
HETATM    7  O10 UNL     1     -33.559   7.219   0.634  1.00 20.00    -0.369 OA
HETATM    8  S11 UNL     1     -31.853   8.250   2.547  1.00 20.00    -0.131 SA
ENDROOT
BRANCH   4   9
HETATM    9  C9  UNL     1     -33.924   6.496   2.867  1.00 20.00     0.022 C 
HETATM   10  C7  UNL     1     -33.685   5.079   3.377  1.00 20.00     0.013 C 
HETATM   11  C8  UNL     1     -33.935   7.493   4.020  1.00 20.00     0.013 C 
ENDBRANCH   4   9
TORSDOF 1
ENDMDL
MODEL 5
REMARK VINA RESULT:       4.4      1.560      2.516
REMARK  1 active torsions:
REMARK  status: ('A' for Active; 'I' for Inactive)
REMARK    1  A    between atoms: C4_4  and  C9_9 
ROOT
HETATM    1  C1  UNL     1     -33.606   4.865   3.074  1.00 20.00     0.174 C 
HETATM    2  C2  UNL     1     -34.172   7.097   4.231  1.00 20.00     0.083 C 
HETATM    3  C3  UNL     1     -34.171   5.564   4.319  1.00 20.00     0.015 C 
HETATM    4  C4  UNL     1     -33.038   6.793   1.743  1.00 20.00     0.108 C 
HETATM    5  C5  UNL     1     -35.561   5.014   4.645  1.00 20.00     0.012 C 
HETATM    6  C6  UNL     1     -33.460   6.367   0.334  1.00 20.00     0.058 C 
HETATM    7  O10 UNL     1     -32.575   5.644   2.477  1.00 20.00    -0.369 OA
HETATM    8  S11 UNL     1     -34.428   7.692   2.537  1.00 20.00    -0.131 SA
ENDROOT
BRANCH   4   9
HETATM    9  C9  UNL     1     -31.844   7.748   1.653  1.00 20.00     0.022 C 
HETATM   10  C7  UNL     1     -32.092   8.809   0.587  1.00 20.00     0.013 C 
HETATM   11  C8  UNL     1     -31.577   8.393   3.008  1.00 20.00     0.013 C 
ENDBRANCH   4   9
TORSDOF 1
ENDMDL
