MODEL 1
REMARK VINA RESULT:       1.1      0.000      0.000
REMARK  1 active torsions:
REMARK  status: ('A' for Active; 'I' for Inactive)
REMARK    1  A    between atoms: C7_7  and  C10_10 
ROOT
HETATM    1  C1  UNL     1     -31.987   8.002   1.767  1.00 20.00    -0.023 C 
HETATM    2  C2  UNL     1     -33.135   7.444   1.250  1.00 20.00    -0.012 C 
HETATM    3  C3  UNL     1     -34.678   6.975   3.515  1.00 20.00     0.140 C 
HETATM    4  C4  UNL     1     -34.175   7.605   4.830  1.00 20.00     0.080 C 
HETATM    5  C5  UNL     1     -32.674   7.958   4.517  1.00 20.00     0.017 C 
HETATM    6  C6  UNL     1     -32.741   8.260   3.039  1.00 20.00     0.028 C 
HETATM    7  C7  UNL     1     -33.409   6.854   2.629  1.00 20.00     0.048 C 
HETATM    8  O11 UNL     1     -35.834   6.647   3.299  1.00 20.00    -0.297 OA
ENDROOT
BRANCH   7   9
HETATM    9  C10 UNL     1     -32.779   5.457   2.793  1.00 20.00    -0.002 C 
HETATM   10  C8  UNL     1     -33.721   4.547   3.570  1.00 20.00     0.011 C 
HETATM   11  C9  UNL     1     -32.448   4.869   1.429  1.00 20.00     0.011 C 
ENDBRANCH   7   9
TORSDOF 1
ENDMDL
MODEL 2
REMARK VINA RESULT:       1.2      1.470      2.970
REMARK  1 active torsions:
REMARK  status: ('A' for Active; 'I' for Inactive)
REMARK    1  A    between atoms: C7_7  and  C10_10 
ROOT
HETATM    1  C1  UNL     1     -34.114   4.156   3.554  1.00 20.00    -0.023 C 
HETATM    2  C2  UNL     1     -32.880   4.680   3.870  1.00 20.00    -0.012 C 
HETATM    3  C3  UNL     1     -33.387   7.408   4.055  1.00 20.00     0.140 C 
HETATM    4  C4  UNL     1     -34.870   7.832   4.053  1.00 20.00     0.080 C 
HETATM    5  C5  UNL     1     -35.613   6.562   3.496  1.00 20.00     0.017 C 
HETATM    6  C6  UNL     1     -34.727   5.450   4.005  1.00 20.00     0.028 C 
HETATM    7  C7  UNL     1     -33.373   6.025   3.349  1.00 20.00     0.048 C 
HETATM    8  O11 UNL     1     -32.473   8.077   4.511  1.00 20.00    -0.297 OA
ENDROOT
BRANCH   7   9
HETATM    9  C10 UNL     1     -33.087   6.201   1.845  1.00 20.00    -0.002 C 
HETATM   10  C8  UNL     1     -32.458   7.564   1.589  1.00 20.00     0.011 C 
HETATM   11  C9  UNL     1     -32.185   5.079   1.350  1.00 20.00     0.011 C 
ENDBRANCH   7   9
TORSDOF 1
ENDMDL
MODEL 3
REMARK VINA RESULT:       1.4      1.938      3.293
REMARK  1 active torsions:
REMARK  status: ('A' for Active; 'I' for Inactive)
REMARK    1  A    between atoms: C7_7  and  C10_10 
ROOT
HETATM    1  C1  UNL     1     -32.715   5.763   1.249  1.00 20.00    -0.023 C 
HETATM    2  C2  UNL     1     -31.542   6.423   1.541  1.00 20.00    -0.012 C 
HETATM    3  C3  UNL     1     -32.324   8.265   3.472  1.00 20.00     0.140 C 
HETATM    4  C4  UNL     1     -33.741   8.087   4.056  1.00 20.00     0.080 C 
HETATM    5  C5  UNL     1     -34.450   7.145   3.014  1.00 20.00     0.017 C 
HETATM    6  C6  UNL     1     -33.288   6.316   2.522  1.00 20.00     0.028 C 
HETATM    7  C7  UNL     1     -32.383   7.573   2.084  1.00 20.00     0.048 C 
HETATM    8  O11 UNL     1     -31.411   8.854   4.030  1.00 20.00    -0.297 OA
ENDROOT
BRANCH   7   9
HETATM    9  C10 UNL     1     -32.717   8.607   0.991  1.00 20.00    -0.002 C 
HETATM   10  C8  UNL     1     -33.045   9.951   1.626  1.00 20.00     0.011 C 
HETATM   11  C9  UNL     1     -31.557   8.730   0.014  1.00 20.00     0.011 C 
ENDBRANCH   7   9
TORSDOF 1
ENDMDL
MODEL 4
REMARK VINA RESULT:       1.7      1.486      3.641
REMARK  1 active torsions:
REMARK  status: ('A' for Active; 'I' for Inactive)
REMARK    1  A    between atoms: C7_7  and  C10_10 
ROOT
HETATM    1  C1  UNL     1     -35.395   5.934   4.516  1.00 20.00    -0.023 C 
HETATM    2  C2  UNL     1     -35.438   6.696   3.369  1.00 20.00    -0.012 C 
HETATM    3  C3  UNL     1     -33.312   5.703   1.878  1.00 20.00     0.140 C 
HETATM    4  C4  UNL     1     -32.661   4.403   2.393  1.00 20.00     0.080 C 
HETATM    5  C5  UNL     1     -33.163   4.306   3.881  1.00 20.00     0.017 C 
HETATM    6  C6  UNL     1     -34.520   4.961   3.781  1.00 20.00     0.028 C 
HETATM    7  C7  UNL     1     -33.977   6.331   3.132  1.00 20.00     0.048 C 
HETATM    8  O11 UNL     1     -33.255   6.099   0.725  1.00 20.00    -0.297 OA
ENDROOT
BRANCH   7   9
HETATM    9  C10 UNL     1     -33.017   7.340   3.792  1.00 20.00    -0.002 C 
HETATM   10  C8  UNL     1     -32.269   8.124   2.723  1.00 20.00     0.011 C 
HETATM   11  C9  UNL     1     -33.790   8.271   4.714  1.00 20.00     0.011 C 
ENDBRANCH   7   9
TORSDOF 1
ENDMDL
MODEL 5
REMARK VINA RESULT:       2.0      1.614      3.657
REMARK  1 active torsions:
REMARK  status: ('A' for Active; 'I' for Inactive)
REMARK    1  A    between atoms: C7_7  and  C10_10 
ROOT
HETATM    1  C1  UNL     1     -34.827   6.130   3.791  1.00 20.00    -0.023 C 
HETATM    2  C2  UNL     1     -34.944   7.446   3.402  1.00 20.00    -0.012 C 
HETATM    3  C3  UNL     1     -32.767   7.794   1.707  1.00 20.00     0.140 C 
HETATM    4  C4  UNL     1     -32.011   6.515   1.291  1.00 20.00     0.080 C 
HETATM    5  C5  UNL     1     -32.484   5.450   2.347  1.00 20.00     0.017 C 
HETATM    6  C6  UNL     1     -33.889   5.921   2.638  1.00 20.00     0.028 C 
HETATM    7  C7  UNL     1     -33.463   7.420   3.044  1.00 20.00     0.048 C 
HETATM    8  O11 UNL     1     -32.757   8.842   1.082  1.00 20.00    -0.297 OA
ENDROOT
BRANCH   7   9
HETATM    9  C10 UNL     1     -32.575   7.829   4.235  1.00 20.00    -0.002 C 
HETATM   10  C8  UNL     1     -31.547   8.860   3.791  1.00 20.00     0.011 C 
HETATM   11  C9  UNL     1     -33.437   8.367   5.369  1.00 20.00     0.011 C 
ENDBRANCH   7   9
TORSDOF 1
ENDMDL
MODEL 6
REMARK VINA RESULT:       2.3      1.437      3.076
REMARK  1 active torsions:
REMARK  status: ('A' for Active; 'I' for Inactive)
REMARK    1  A    between atoms: C7_7  and  C10_10 
ROOT
HETATM    1  C1  UNL     1     -32.029   8.496   1.875  1.00 20.00    -0.023 C 
HETATM    2  C2  UNL     1     -31.699   7.803   3.018  1.00 20.00    -0.012 C 
HETATM    3  C3  UNL     1     -32.983   5.362   2.664  1.00 20.00     0.140 C 
HETATM    4  C4  UNL     1     -33.569   5.092   1.263  1.00 20.00     0.080 C 
HETATM    5  C5  UNL     1     -33.616   6.521   0.604  1.00 20.00     0.017 C 
HETATM    6  C6  UNL     1     -32.428   7.189   1.254  1.00 20.00     0.028 C 
HETATM    7  C7  UNL     1     -32.908   6.909   2.766  1.00 20.00     0.048 C 
HETATM    8  O11 UNL     1     -32.688   4.497   3.473  1.00 20.00    -0.297 OA
ENDROOT
BRANCH   7   9
HETATM    9  C10 UNL     1     -34.181   7.459   3.439  1.00 20.00    -0.002 C 
HETATM   10  C8  UNL     1     -35.165   6.326   3.698  1.00 20.00     0.011 C 
HETATM   11  C9  UNL     1     -33.820   8.178   4.731  1.00 20.00     0.011 C 
ENDBRANCH   7   9
TORSDOF 1
ENDMDL
MODEL 7
REMARK VINA RESULT:       3.2      1.688      3.093
REMARK  1 active torsions:
REMARK  status: ('A' for Active; 'I' for Inactive)
REMARK    1  A    between atoms: C7_7  and  C10_10 
ROOT
HETATM    1  C1  UNL     1     -32.768   5.193   1.386  1.00 20.00    -0.023 C 
HETATM    2  C2  UNL     1     -33.834   6.036   1.166  1.00 20.00    -0.012 C 
HETATM    3  C3  UNL     1     -32.772   8.546   1.719  1.00 20.00     0.140 C 
HETATM    4  C4  UNL     1     -31.241   8.619   1.895  1.00 20.00     0.080 C 
HETATM    5  C5  UNL     1     -30.827   7.119   2.133  1.00 20.00     0.017 C 
HETATM    6  C6  UNL     1     -31.865   6.390   1.314  1.00 20.00     0.028 C 
HETATM    7  C7  UNL     1     -33.132   7.070   2.039  1.00 20.00     0.048 C 
HETATM    8  O11 UNL     1     -33.483   9.490   1.415  1.00 20.00    -0.297 OA
ENDROOT
BRANCH   7   9
HETATM    9  C10 UNL     1     -33.523   6.930   3.523  1.00 20.00    -0.002 C 
HETATM   10  C8  UNL     1     -33.195   8.213   4.273  1.00 20.00     0.011 C 
HETATM   11  C9  UNL     1     -35.000   6.585   3.645  1.00 20.00     0.011 C 
ENDBRANCH   7   9
TORSDOF 1
ENDMDL
MODEL 8
REMARK VINA RESULT:       3.4      1.495      3.304
REMARK  1 active torsions:
REMARK  status: ('A' for Active; 'I' for Inactive)
REMARK    1  A    between atoms: C7_7  and  C10_10 
ROOT
HETATM    1  C1  UNL     1     -34.201   7.224   4.153  1.00 20.00    -0.023 C 
HETATM    2  C2  UNL     1     -34.686   7.726   2.966  1.00 20.00    -0.012 C 
HETATM    3  C3  UNL     1     -33.557   6.040   1.065  1.00 20.00     0.140 C 
HETATM    4  C4  UNL     1     -32.865   4.770   1.600  1.00 20.00     0.080 C 
HETATM    5  C5  UNL     1     -32.652   5.084   3.127  1.00 20.00     0.017 C 
HETATM    6  C6  UNL     1     -33.843   5.964   3.419  1.00 20.00     0.028 C 
HETATM    7  C7  UNL     1     -33.528   7.033   2.257  1.00 20.00     0.048 C 
HETATM    8  O11 UNL     1     -33.989   6.171  -0.070  1.00 20.00    -0.297 OA
ENDROOT
BRANCH   7   9
HETATM    9  C10 UNL     1     -32.287   7.942   2.160  1.00 20.00    -0.002 C 
HETATM   10  C8  UNL     1     -31.121   7.171   1.556  1.00 20.00     0.011 C 
HETATM   11  C9  UNL     1     -32.609   9.181   1.338  1.00 20.00     0.011 C 
ENDBRANCH   7   9
TORSDOF 1
ENDMDL
MODEL 9
REMARK VINA RESULT:       3.9      1.608      3.126
REMARK  1 active torsions:
REMARK  status: ('A' for Active; 'I' for Inactive)
REMARK    1  A    between atoms: C7_7  and  C10_10 
ROOT
HETATM    1  C1  UNL     1     -33.230   8.522   3.853  1.00 20.00    -0.023 C 
HETATM    2  C2  UNL     1     -33.057   7.526   4.789  1.00 20.00    -0.012 C 
HETATM    3  C3  UNL     1     -33.228   5.203   3.271  1.00 20.00     0.140 C 
HETATM    4  C4  UNL     1     -33.210   5.382   1.739  1.00 20.00     0.080 C 
HETATM    5  C5  UNL     1     -33.543   6.907   1.544  1.00 20.00     0.017 C 
HETATM    6  C6  UNL     1     -32.931   7.507   2.788  1.00 20.00     0.028 C 
HETATM    7  C7  UNL     1     -33.733   6.565   3.818  1.00 20.00     0.048 C 
HETATM    8  O11 UNL     1     -32.920   4.176   3.855  1.00 20.00    -0.297 OA
ENDROOT
BRANCH   7   9
HETATM    9  C10 UNL     1     -35.260   6.521   4.022  1.00 20.00    -0.002 C 
HETATM   10  C8  UNL     1     -35.970   6.821   2.710  1.00 20.00     0.011 C 
HETATM   11  C9  UNL     1     -35.675   5.165   4.574  1.00 20.00     0.011 C 
ENDBRANCH   7   9
TORSDOF 1
ENDMDL
