MODEL 1
REMARK VINA RESULT:       0.4      0.000      0.000
REMARK  1 active torsions:
REMARK  status: ('A' for Active; 'I' for Inactive)
REMARK    1  A    between atoms: C6_6  and  C7_7 
ROOT
HETATM    1  C1  UNL     1     -32.396   8.642   1.248  1.00 20.00     0.146 C 
HETATM    2  C2  UNL     1     -33.373   9.161   2.315  1.00 20.00     0.091 C 
HETATM    3  C5  UNL     1     -31.891   7.513   2.169  1.00 20.00     0.160 C 
HETATM    4  C7  UNL     1     -33.167   7.793   3.068  1.00 20.00    -0.010 C 
HETATM    5  C8  UNL     1     -32.767   8.017   4.534  1.00 20.00     0.018 C 
HETATM    6  O9  UNL     1     -32.131   8.993   0.117  1.00 20.00    -0.296 OA
HETATM    7 CL10 UNL     1     -31.679   5.938   1.358  1.00 20.00    -0.116 Cl
ENDROOT
BRANCH   4   8
HETATM    8  C6  UNL     1     -34.340   6.809   2.964  1.00 20.00    -0.004 A 
HETATM    9  C3  UNL     1     -34.322   5.439   3.584  1.00 20.00     0.006 A 
HETATM   10  C4  UNL     1     -35.251   6.493   4.118  1.00 20.00     0.006 A 
ENDBRANCH   4   8
TORSDOF 1
ENDMDL
MODEL 2
REMARK VINA RESULT:       0.5      2.463      3.956
REMARK  1 active torsions:
REMARK  status: ('A' for Active; 'I' for Inactive)
REMARK    1  A    between atoms: C6_6  and  C7_7 
ROOT
HETATM    1  C1  UNL     1     -33.130   6.094   2.453  1.00 20.00     0.146 C 
HETATM    2  C2  UNL     1     -32.118   6.418   1.342  1.00 20.00     0.091 C 
HETATM    3  C5  UNL     1     -32.858   7.428   3.177  1.00 20.00     0.160 C 
HETATM    4  C7  UNL     1     -32.158   7.912   1.840  1.00 20.00    -0.010 C 
HETATM    5  C8  UNL     1     -30.745   8.445   2.121  1.00 20.00     0.018 C 
HETATM    6  O9  UNL     1     -33.859   5.148   2.668  1.00 20.00    -0.296 OA
HETATM    7 CL10 UNL     1     -34.320   8.250   3.785  1.00 20.00    -0.116 Cl
ENDROOT
BRANCH   4   8
HETATM    8  C6  UNL     1     -32.937   8.878   0.937  1.00 20.00    -0.004 A 
HETATM    9  C3  UNL     1     -32.781  10.372   1.002  1.00 20.00     0.006 A 
HETATM   10  C4  UNL     1     -32.307   9.619  -0.209  1.00 20.00     0.006 A 
ENDBRANCH   4   8
TORSDOF 1
ENDMDL
MODEL 3
REMARK VINA RESULT:       0.9      1.903      2.703
REMARK  1 active torsions:
REMARK  status: ('A' for Active; 'I' for Inactive)
REMARK    1  A    between atoms: C6_6  and  C7_7 
ROOT
HETATM    1  C1  UNL     1     -32.638   7.535   2.387  1.00 20.00     0.146 C 
HETATM    2  C2  UNL     1     -33.523   6.368   1.922  1.00 20.00     0.091 C 
HETATM    3  C5  UNL     1     -33.579   7.862   3.565  1.00 20.00     0.160 C 
HETATM    4  C7  UNL     1     -34.230   6.435   3.328  1.00 20.00    -0.010 C 
HETATM    5  C8  UNL     1     -35.755   6.543   3.183  1.00 20.00     0.018 C 
HETATM    6  O9  UNL     1     -31.600   8.010   1.978  1.00 20.00    -0.296 OA
HETATM    7 CL10 UNL     1     -32.744   8.237   5.095  1.00 20.00    -0.116 Cl
ENDROOT
BRANCH   4   8
HETATM    8  C6  UNL     1     -33.851   5.310   4.301  1.00 20.00    -0.004 A 
HETATM    9  C3  UNL     1     -34.845   4.316   4.836  1.00 20.00     0.006 A 
HETATM   10  C4  UNL     1     -33.765   3.866   3.892  1.00 20.00     0.006 A 
ENDBRANCH   4   8
TORSDOF 1
ENDMDL
MODEL 4
REMARK VINA RESULT:       1.4      2.615      3.464
REMARK  1 active torsions:
REMARK  status: ('A' for Active; 'I' for Inactive)
REMARK    1  A    between atoms: C6_6  and  C7_7 
ROOT
HETATM    1  C1  UNL     1     -32.981   8.174   4.494  1.00 20.00     0.146 C 
HETATM    2  C2  UNL     1     -31.816   8.314   3.501  1.00 20.00     0.091 C 
HETATM    3  C5  UNL     1     -33.984   7.851   3.368  1.00 20.00     0.160 C 
HETATM    4  C7  UNL     1     -32.726   7.589   2.439  1.00 20.00    -0.010 C 
HETATM    5  C8  UNL     1     -32.824   8.401   1.139  1.00 20.00     0.018 C 
HETATM    6  O9  UNL     1     -33.067   8.279   5.699  1.00 20.00    -0.296 OA
HETATM    7 CL10 UNL     1     -35.122   6.532   3.749  1.00 20.00    -0.116 Cl
ENDROOT
BRANCH   4   8
HETATM    8  C6  UNL     1     -32.349   6.130   2.146  1.00 20.00    -0.004 A 
HETATM    9  C3  UNL     1     -33.147   5.243   1.232  1.00 20.00     0.006 A 
HETATM   10  C4  UNL     1     -31.765   5.681   0.836  1.00 20.00     0.006 A 
ENDBRANCH   4   8
TORSDOF 1
ENDMDL
MODEL 5
REMARK VINA RESULT:       1.6      2.664      4.023
REMARK  1 active torsions:
REMARK  status: ('A' for Active; 'I' for Inactive)
REMARK    1  A    between atoms: C6_6  and  C7_7 
ROOT
HETATM    1  C1  UNL     1     -33.904   3.954   3.936  1.00 20.00     0.146 C 
HETATM    2  C2  UNL     1     -34.798   4.853   4.805  1.00 20.00     0.091 C 
HETATM    3  C5  UNL     1     -33.971   4.931   2.745  1.00 20.00     0.160 C 
HETATM    4  C7  UNL     1     -34.520   6.008   3.771  1.00 20.00    -0.010 C 
HETATM    5  C8  UNL     1     -35.829   6.632   3.264  1.00 20.00     0.018 C 
HETATM    6  O9  UNL     1     -33.361   2.886   4.124  1.00 20.00    -0.296 OA
HETATM    7 CL10 UNL     1     -32.415   5.184   1.910  1.00 20.00    -0.116 Cl
ENDROOT
BRANCH   4   8
HETATM    8  C6  UNL     1     -33.548   7.093   4.253  1.00 20.00    -0.004 A 
HETATM    9  C3  UNL     1     -33.011   8.174   3.355  1.00 20.00     0.006 A 
HETATM   10  C4  UNL     1     -33.957   8.524   4.470  1.00 20.00     0.006 A 
ENDBRANCH   4   8
TORSDOF 1
ENDMDL
MODEL 6
REMARK VINA RESULT:       1.6      1.974      2.979
REMARK  1 active torsions:
REMARK  status: ('A' for Active; 'I' for Inactive)
REMARK    1  A    between atoms: C6_6  and  C7_7 
ROOT
HETATM    1  C1  UNL     1     -32.674   5.564   1.829  1.00 20.00     0.146 C 
HETATM    2  C2  UNL     1     -33.525   5.076   3.013  1.00 20.00     0.091 C 
HETATM    3  C5  UNL     1     -33.340   6.955   1.842  1.00 20.00     0.160 C 
HETATM    4  C7  UNL     1     -33.884   6.586   3.285  1.00 20.00    -0.010 C 
HETATM    5  C8  UNL     1     -35.404   6.792   3.369  1.00 20.00     0.018 C 
HETATM    6  O9  UNL     1     -31.813   5.045   1.151  1.00 20.00    -0.296 OA
HETATM    7 CL10 UNL     1     -32.209   8.316   1.620  1.00 20.00    -0.116 Cl
ENDROOT
BRANCH   4   8
HETATM    8  C6  UNL     1     -33.179   7.215   4.495  1.00 20.00    -0.004 A 
HETATM    9  C3  UNL     1     -32.567   8.588   4.467  1.00 20.00     0.006 A 
HETATM   10  C4  UNL     1     -33.783   8.324   5.310  1.00 20.00     0.006 A 
ENDBRANCH   4   8
TORSDOF 1
ENDMDL
MODEL 7
REMARK VINA RESULT:       1.9      2.076      2.930
REMARK  1 active torsions:
REMARK  status: ('A' for Active; 'I' for Inactive)
REMARK    1  A    between atoms: C6_6  and  C7_7 
ROOT
HETATM    1  C1  UNL     1     -32.043   7.604   2.237  1.00 20.00     0.146 C 
HETATM    2  C2  UNL     1     -31.723   6.202   1.693  1.00 20.00     0.091 C 
HETATM    3  C5  UNL     1     -33.542   7.275   2.381  1.00 20.00     0.160 C 
HETATM    4  C7  UNL     1     -33.134   5.750   2.227  1.00 20.00    -0.010 C 
HETATM    5  C8  UNL     1     -33.958   5.069   1.123  1.00 20.00     0.018 C 
HETATM    6  O9  UNL     1     -31.368   8.586   2.462  1.00 20.00    -0.296 OA
HETATM    7 CL10 UNL     1     -34.287   7.867   3.890  1.00 20.00    -0.116 Cl
ENDROOT
BRANCH   4   8
HETATM    8  C6  UNL     1     -33.104   4.889   3.497  1.00 20.00    -0.004 A 
HETATM    9  C3  UNL     1     -34.340   4.519   4.269  1.00 20.00     0.006 A 
HETATM   10  C4  UNL     1     -33.570   3.460   3.531  1.00 20.00     0.006 A 
ENDBRANCH   4   8
TORSDOF 1
ENDMDL
MODEL 8
REMARK VINA RESULT:       1.9      2.282      2.572
REMARK  1 active torsions:
REMARK  status: ('A' for Active; 'I' for Inactive)
REMARK    1  A    between atoms: C6_6  and  C7_7 
ROOT
HETATM    1  C1  UNL     1     -33.104   5.377   0.824  1.00 20.00     0.146 C 
HETATM    2  C2  UNL     1     -33.141   6.905   0.656  1.00 20.00     0.091 C 
HETATM    3  C5  UNL     1     -32.511   5.484   2.243  1.00 20.00     0.160 C 
HETATM    4  C7  UNL     1     -32.941   7.010   2.215  1.00 20.00    -0.010 C 
HETATM    5  C8  UNL     1     -31.757   7.922   2.566  1.00 20.00     0.018 C 
HETATM    6  O9  UNL     1     -33.422   4.451   0.108  1.00 20.00    -0.296 OA
HETATM    7 CL10 UNL     1     -33.226   4.361   3.429  1.00 20.00    -0.116 Cl
ENDROOT
BRANCH   4   8
HETATM    8  C6  UNL     1     -34.194   7.411   3.006  1.00 20.00    -0.004 A 
HETATM    9  C3  UNL     1     -34.898   6.483   3.957  1.00 20.00     0.006 A 
HETATM   10  C4  UNL     1     -34.177   7.692   4.483  1.00 20.00     0.006 A 
ENDBRANCH   4   8
TORSDOF 1
ENDMDL
MODEL 9
REMARK VINA RESULT:       1.9      2.884      4.052
REMARK  1 active torsions:
REMARK  status: ('A' for Active; 'I' for Inactive)
REMARK    1  A    between atoms: C6_6  and  C7_7 
ROOT
HETATM    1  C1  UNL     1     -34.611   5.278   4.238  1.00 20.00     0.146 C 
HETATM    2  C2  UNL     1     -33.156   5.772   4.285  1.00 20.00     0.091 C 
HETATM    3  C5  UNL     1     -35.157   6.708   4.052  1.00 20.00     0.160 C 
HETATM    4  C7  UNL     1     -33.674   7.135   3.687  1.00 20.00    -0.010 C 
HETATM    5  C8  UNL     1     -33.219   8.328   4.541  1.00 20.00     0.018 C 
HETATM    6  O9  UNL     1     -35.122   4.181   4.318  1.00 20.00    -0.296 OA
HETATM    7 CL10 UNL     1     -36.464   6.848   2.847  1.00 20.00    -0.116 Cl
ENDROOT
BRANCH   4   8
HETATM    8  C6  UNL     1     -33.343   7.363   2.206  1.00 20.00    -0.004 A 
HETATM    9  C3  UNL     1     -32.003   7.851   1.729  1.00 20.00     0.006 A 
HETATM   10  C4  UNL     1     -32.448   6.451   1.415  1.00 20.00     0.006 A 
ENDBRANCH   4   8
TORSDOF 1
ENDMDL
