MODEL 1
REMARK VINA RESULT:      -0.5      0.000      0.000
REMARK  2 active torsions:
REMARK  status: ('A' for Active; 'I' for Inactive)
REMARK    1  A    between atoms: C2_2  and  C3_3 
REMARK    2  A    between atoms: C3_3  and  O11_11 
ROOT
HETATM    1  C1  UNL     1     -33.505   7.433   3.469  1.00 20.00    -0.008 C 
HETATM    2  C2  UNL     1     -32.814   7.248   2.342  1.00 20.00     0.020 C 
HETATM    3  C4  UNL     1     -33.677   5.126   2.928  1.00 20.00     0.022 C 
HETATM    4  C5  UNL     1     -34.251   6.200   3.871  1.00 20.00     0.006 C 
HETATM    5  C6  UNL     1     -32.958   5.867   1.769  1.00 20.00    -0.014 C 
HETATM    6  C7  UNL     1     -35.758   6.371   3.732  1.00 20.00     0.014 C 
HETATM    7  C8  UNL     1     -31.608   5.203   1.469  1.00 20.00     0.020 C 
HETATM    8  C9  UNL     1     -33.824   5.883   0.503  1.00 20.00     0.020 C 
ENDROOT
BRANCH   2   9
HETATM    9  C3  UNL     1     -32.034   8.322   1.746  1.00 20.00     0.172 C 
HETATM   10  O10 UNL     1     -32.357   8.953   0.749  1.00 20.00    -0.646 OA
BRANCH   9  11
HETATM   11  O11 UNL     1     -30.900   8.520   2.457  1.00 20.00    -0.773 OA
HETATM   12  H25 UNL     1     -30.114   8.119   2.028  1.00 20.00     0.167 HD
ENDBRANCH   9  11
ENDBRANCH   2   9
TORSDOF 2
ENDMDL
MODEL 2
REMARK VINA RESULT:       0.1      1.244      2.762
REMARK  2 active torsions:
REMARK  status: ('A' for Active; 'I' for Inactive)
REMARK    1  A    between atoms: C2_2  and  C3_3 
REMARK    2  A    between atoms: C3_3  and  O11_11 
ROOT
HETATM    1  C1  UNL     1     -33.427   5.597   2.457  1.00 20.00    -0.008 C 
HETATM    2  C2  UNL     1     -33.223   6.901   2.658  1.00 20.00     0.020 C 
HETATM    3  C4  UNL     1     -35.011   6.298   4.083  1.00 20.00     0.022 C 
HETATM    4  C5  UNL     1     -34.427   5.036   3.419  1.00 20.00     0.006 C 
HETATM    5  C6  UNL     1     -34.038   7.468   3.786  1.00 20.00    -0.014 C 
HETATM    6  C7  UNL     1     -33.787   4.080   4.417  1.00 20.00     0.014 C 
HETATM    7  C8  UNL     1     -34.823   8.723   3.381  1.00 20.00     0.020 C 
HETATM    8  C9  UNL     1     -33.156   7.776   5.002  1.00 20.00     0.020 C 
ENDROOT
BRANCH   2   9
HETATM    9  C3  UNL     1     -32.270   7.652   1.856  1.00 20.00     0.172 C 
HETATM   10  O10 UNL     1     -32.387   8.830   1.549  1.00 20.00    -0.646 OA
BRANCH   9  11
HETATM   11  O11 UNL     1     -31.235   6.855   1.500  1.00 20.00    -0.773 OA
HETATM   12  H25 UNL     1     -30.460   7.367   1.186  1.00 20.00     0.167 HD
ENDBRANCH   9  11
ENDBRANCH   2   9
TORSDOF 2
ENDMDL
MODEL 3
REMARK VINA RESULT:       0.2      2.546      3.648
REMARK  2 active torsions:
REMARK  status: ('A' for Active; 'I' for Inactive)
REMARK    1  A    between atoms: C2_2  and  C3_3 
REMARK    2  A    between atoms: C3_3  and  O11_11 
ROOT
HETATM    1  C1  UNL     1     -33.446   7.456   3.425  1.00 20.00    -0.008 C 
HETATM    2  C2  UNL     1     -33.586   6.206   2.977  1.00 20.00     0.020 C 
HETATM    3  C4  UNL     1     -32.474   7.389   1.258  1.00 20.00     0.022 C 
HETATM    4  C5  UNL     1     -32.607   8.285   2.504  1.00 20.00     0.006 C 
HETATM    5  C6  UNL     1     -32.874   5.951   1.679  1.00 20.00    -0.014 C 
HETATM    6  C7  UNL     1     -31.263   8.646   3.125  1.00 20.00     0.014 C 
HETATM    7  C8  UNL     1     -33.781   5.318   0.616  1.00 20.00     0.020 C 
HETATM    8  C9  UNL     1     -31.634   5.074   1.895  1.00 20.00     0.020 C 
ENDROOT
BRANCH   2   9
HETATM    9  C3  UNL     1     -34.341   5.213   3.725  1.00 20.00     0.172 C 
HETATM   10  O10 UNL     1     -33.971   4.067   3.940  1.00 20.00    -0.646 OA
BRANCH   9  11
HETATM   11  O11 UNL     1     -35.513   5.743   4.147  1.00 20.00    -0.773 OA
HETATM   12  H25 UNL     1     -35.568   5.796   5.125  1.00 20.00     0.167 HD
ENDBRANCH   9  11
ENDBRANCH   2   9
TORSDOF 2
ENDMDL
MODEL 4
REMARK VINA RESULT:       0.4      2.901      4.286
REMARK  2 active torsions:
REMARK  status: ('A' for Active; 'I' for Inactive)
REMARK    1  A    between atoms: C2_2  and  C3_3 
REMARK    2  A    between atoms: C3_3  and  O11_11 
ROOT
HETATM    1  C1  UNL     1     -33.053   5.029   2.446  1.00 20.00    -0.008 C 
HETATM    2  C2  UNL     1     -33.830   5.368   3.477  1.00 20.00     0.020 C 
HETATM    3  C4  UNL     1     -33.231   7.398   2.422  1.00 20.00     0.022 C 
HETATM    4  C5  UNL     1     -32.730   6.208   1.582  1.00 20.00     0.006 C 
HETATM    5  C6  UNL     1     -34.180   6.829   3.508  1.00 20.00    -0.014 C 
HETATM    6  C7  UNL     1     -33.401   6.117   0.217  1.00 20.00     0.014 C 
HETATM    7  C8  UNL     1     -33.888   7.482   4.866  1.00 20.00     0.020 C 
HETATM    8  C9  UNL     1     -35.650   7.051   3.129  1.00 20.00     0.020 C 
ENDROOT
BRANCH   2   9
HETATM    9  C3  UNL     1     -34.293   4.377   4.436  1.00 20.00     0.172 C 
HETATM   10  O10 UNL     1     -33.624   3.444   4.858  1.00 20.00    -0.646 OA
BRANCH   9  11
HETATM   11  O11 UNL     1     -35.572   4.640   4.792  1.00 20.00    -0.773 OA
HETATM   12  H25 UNL     1     -36.221   4.163   4.233  1.00 20.00     0.167 HD
ENDBRANCH   9  11
ENDBRANCH   2   9
TORSDOF 2
ENDMDL
MODEL 5
REMARK VINA RESULT:       0.7      2.095      3.383
REMARK  2 active torsions:
REMARK  status: ('A' for Active; 'I' for Inactive)
REMARK    1  A    between atoms: C2_2  and  C3_3 
REMARK    2  A    between atoms: C3_3  and  O11_11 
ROOT
HETATM    1  C1  UNL     1     -33.395   5.605   2.529  1.00 20.00    -0.008 C 
HETATM    2  C2  UNL     1     -33.309   6.875   2.932  1.00 20.00     0.020 C 
HETATM    3  C4  UNL     1     -31.588   6.583   1.337  1.00 20.00     0.022 C 
HETATM    4  C5  UNL     1     -32.467   5.319   1.391  1.00 20.00     0.006 C 
HETATM    5  C6  UNL     1     -32.316   7.686   2.149  1.00 20.00    -0.014 C 
HETATM    6  C7  UNL     1     -33.219   5.060   0.091  1.00 20.00     0.014 C 
HETATM    7  C8  UNL     1     -31.319   8.433   3.046  1.00 20.00     0.020 C 
HETATM    8  C9  UNL     1     -33.026   8.679   1.221  1.00 20.00     0.020 C 
ENDROOT
BRANCH   2   9
HETATM    9  C3  UNL     1     -34.141   7.386   4.011  1.00 20.00     0.172 C 
HETATM   10  O10 UNL     1     -33.821   8.284   4.777  1.00 20.00    -0.646 OA
BRANCH   9  11
HETATM   11  O11 UNL     1     -35.320   6.723   4.040  1.00 20.00    -0.773 OA
HETATM   12  H25 UNL     1     -35.892   7.010   4.783  1.00 20.00     0.167 HD
ENDBRANCH   9  11
ENDBRANCH   2   9
TORSDOF 2
ENDMDL
MODEL 6
REMARK VINA RESULT:       0.9      2.590      4.088
REMARK  2 active torsions:
REMARK  status: ('A' for Active; 'I' for Inactive)
REMARK    1  A    between atoms: C2_2  and  C3_3 
REMARK    2  A    between atoms: C3_3  and  O11_11 
ROOT
HETATM    1  C1  UNL     1     -32.812   6.329   2.156  1.00 20.00    -0.008 C 
HETATM    2  C2  UNL     1     -33.583   6.576   3.218  1.00 20.00     0.020 C 
HETATM    3  C4  UNL     1     -32.176   8.462   2.988  1.00 20.00     0.022 C 
HETATM    4  C5  UNL     1     -31.978   7.516   1.788  1.00 20.00     0.006 C 
HETATM    5  C6  UNL     1     -33.421   7.965   3.767  1.00 20.00    -0.014 C 
HETATM    6  C7  UNL     1     -32.414   8.133   0.465  1.00 20.00     0.014 C 
HETATM    7  C8  UNL     1     -33.147   7.981   5.276  1.00 20.00     0.020 C 
HETATM    8  C9  UNL     1     -34.650   8.828   3.453  1.00 20.00     0.020 C 
ENDROOT
BRANCH   2   9
HETATM    9  C3  UNL     1     -34.499   5.573   3.740  1.00 20.00     0.172 C 
HETATM   10  O10 UNL     1     -35.638   5.797   4.125  1.00 20.00    -0.646 OA
BRANCH   9  11
HETATM   11  O11 UNL     1     -33.905   4.357   3.735  1.00 20.00    -0.773 OA
HETATM   12  H25 UNL     1     -33.337   4.221   2.947  1.00 20.00     0.167 HD
ENDBRANCH   9  11
ENDBRANCH   2   9
TORSDOF 2
ENDMDL
MODEL 7
REMARK VINA RESULT:       1.4      1.658      3.313
REMARK  2 active torsions:
REMARK  status: ('A' for Active; 'I' for Inactive)
REMARK    1  A    between atoms: C2_2  and  C3_3 
REMARK    2  A    between atoms: C3_3  and  O11_11 
ROOT
HETATM    1  C1  UNL     1     -32.447   7.366   2.373  1.00 20.00    -0.008 C 
HETATM    2  C2  UNL     1     -33.250   7.226   3.431  1.00 20.00     0.020 C 
HETATM    3  C4  UNL     1     -34.037   5.692   1.812  1.00 20.00     0.022 C 
HETATM    4  C5  UNL     1     -32.725   6.335   1.324  1.00 20.00     0.006 C 
HETATM    5  C6  UNL     1     -34.216   6.082   3.302  1.00 20.00    -0.014 C 
HETATM    6  C7  UNL     1     -31.585   5.335   1.190  1.00 20.00     0.014 C 
HETATM    7  C8  UNL     1     -35.668   6.496   3.574  1.00 20.00     0.020 C 
HETATM    8  C9  UNL     1     -33.824   4.923   4.228  1.00 20.00     0.020 C 
ENDROOT
BRANCH   2   9
HETATM    9  C3  UNL     1     -33.142   8.102   4.587  1.00 20.00     0.172 C 
HETATM   10  O10 UNL     1     -34.011   8.258   5.433  1.00 20.00    -0.646 OA
BRANCH   9  11
HETATM   11  O11 UNL     1     -31.937   8.720   4.588  1.00 20.00    -0.773 OA
HETATM   12  H25 UNL     1     -31.319   8.331   5.243  1.00 20.00     0.167 HD
ENDBRANCH   9  11
ENDBRANCH   2   9
TORSDOF 2
ENDMDL
MODEL 8
REMARK VINA RESULT:       1.5      1.958      3.147
REMARK  2 active torsions:
REMARK  status: ('A' for Active; 'I' for Inactive)
REMARK    1  A    between atoms: C2_2  and  C3_3 
REMARK    2  A    between atoms: C3_3  and  O11_11 
ROOT
HETATM    1  C1  UNL     1     -33.802   6.460   2.972  1.00 20.00    -0.008 C 
HETATM    2  C2  UNL     1     -32.878   6.634   2.024  1.00 20.00     0.020 C 
HETATM    3  C4  UNL     1     -33.404   8.797   2.820  1.00 20.00     0.022 C 
HETATM    4  C5  UNL     1     -34.113   7.738   3.686  1.00 20.00     0.006 C 
HETATM    5  C6  UNL     1     -32.389   8.050   1.917  1.00 20.00    -0.014 C 
HETATM    6  C7  UNL     1     -33.623   7.721   5.128  1.00 20.00     0.014 C 
HETATM    7  C8  UNL     1     -32.451   8.594   0.483  1.00 20.00     0.020 C 
HETATM    8  C9  UNL     1     -30.961   8.183   2.462  1.00 20.00     0.020 C 
ENDROOT
BRANCH   2   9
HETATM    9  C3  UNL     1     -32.399   5.521   1.219  1.00 20.00     0.172 C 
HETATM   10  O10 UNL     1     -31.288   5.016   1.311  1.00 20.00    -0.646 OA
BRANCH   9  11
HETATM   11  O11 UNL     1     -33.363   5.126   0.355  1.00 20.00    -0.773 OA
HETATM   12  H25 UNL     1     -34.262   5.371   0.660  1.00 20.00     0.167 HD
ENDBRANCH   9  11
ENDBRANCH   2   9
TORSDOF 2
ENDMDL
MODEL 9
REMARK VINA RESULT:       2.4      2.241      3.880
REMARK  2 active torsions:
REMARK  status: ('A' for Active; 'I' for Inactive)
REMARK    1  A    between atoms: C2_2  and  C3_3 
REMARK    2  A    between atoms: C3_3  and  O11_11 
ROOT
HETATM    1  C1  UNL     1     -32.030   7.269   1.334  1.00 20.00    -0.008 C 
HETATM    2  C2  UNL     1     -32.802   6.789   2.312  1.00 20.00     0.020 C 
HETATM    3  C4  UNL     1     -32.380   9.048   2.869  1.00 20.00     0.022 C 
HETATM    4  C5  UNL     1     -31.817   8.744   1.467  1.00 20.00     0.006 C 
HETATM    5  C6  UNL     1     -33.256   7.838   3.286  1.00 20.00    -0.014 C 
HETATM    6  C7  UNL     1     -32.516   9.525   0.362  1.00 20.00     0.014 C 
HETATM    7  C8  UNL     1     -32.977   7.456   4.746  1.00 20.00     0.020 C 
HETATM    8  C9  UNL     1     -34.748   8.148   3.106  1.00 20.00     0.020 C 
ENDROOT
BRANCH   2   9
HETATM    9  C3  UNL     1     -33.166   5.381   2.369  1.00 20.00     0.172 C 
HETATM   10  O10 UNL     1     -33.739   4.844   3.307  1.00 20.00    -0.646 OA
BRANCH   9  11
HETATM   11  O11 UNL     1     -32.777   4.756   1.234  1.00 20.00    -0.773 OA
HETATM   12  H25 UNL     1     -32.185   5.313   0.685  1.00 20.00     0.167 HD
ENDBRANCH   9  11
ENDBRANCH   2   9
TORSDOF 2
ENDMDL
