MODEL 1
REMARK VINA RESULT:       3.5      0.000      0.000
REMARK  0 active torsions:
REMARK  status: ('A' for Active; 'I' for Inactive)
ROOT
HETATM    1  C1  UNL     1     -33.484   7.500   3.875  1.00 20.00     0.136 C 
HETATM    2  C2  UNL     1     -32.256   7.965   3.141  1.00 20.00     0.080 C 
HETATM    3  C3  UNL     1     -32.545   7.502   1.721  1.00 20.00     0.017 C 
HETATM    4  C4  UNL     1     -32.840   4.584   3.643  1.00 20.00     0.002 C 
HETATM    5  C5  UNL     1     -34.256   5.105   3.840  1.00 20.00     0.018 C 
HETATM    6  C6  UNL     1     -32.483   4.978   2.213  1.00 20.00     0.010 C 
HETATM    7  C7  UNL     1     -34.265   6.441   3.097  1.00 20.00     0.024 C 
HETATM    8  C8  UNL     1     -33.363   6.205   1.851  1.00 20.00    -0.029 C 
HETATM    9  C9  UNL     1     -35.673   6.963   2.838  1.00 20.00     0.024 C 
HETATM   10  C10 UNL     1     -34.110   5.928   0.541  1.00 20.00     0.016 C 
HETATM   11  O11 UNL     1     -33.791   7.902   4.991  1.00 20.00    -0.297 OA
ENDROOT
TORSDOF 0
ENDMDL
MODEL 2
REMARK VINA RESULT:       3.5      1.553      3.283
REMARK  0 active torsions:
REMARK  status: ('A' for Active; 'I' for Inactive)
ROOT
HETATM    1  C1  UNL     1     -32.534   5.309   2.212  1.00 20.00     0.136 C 
HETATM    2  C2  UNL     1     -32.837   4.575   3.489  1.00 20.00     0.080 C 
HETATM    3  C3  UNL     1     -34.248   5.050   3.798  1.00 20.00     0.017 C 
HETATM    4  C4  UNL     1     -32.400   8.015   3.490  1.00 20.00     0.002 C 
HETATM    5  C5  UNL     1     -32.712   7.811   2.015  1.00 20.00     0.018 C 
HETATM    6  C6  UNL     1     -33.646   7.516   4.217  1.00 20.00     0.010 C 
HETATM    7  C7  UNL     1     -33.478   6.489   1.978  1.00 20.00     0.024 C 
HETATM    8  C8  UNL     1     -34.338   6.495   3.274  1.00 20.00    -0.029 C 
HETATM    9  C9  UNL     1     -34.216   6.271   0.662  1.00 20.00     0.024 C 
HETATM   10  C10 UNL     1     -35.808   6.889   3.086  1.00 20.00     0.016 C 
HETATM   11  O11 UNL     1     -31.605   5.011   1.471  1.00 20.00    -0.297 OA
ENDROOT
TORSDOF 0
ENDMDL
MODEL 3
REMARK VINA RESULT:       4.6      1.651      3.233
REMARK  0 active torsions:
REMARK  status: ('A' for Active; 'I' for Inactive)
ROOT
HETATM    1  C1  UNL     1     -33.227   6.070   1.904  1.00 20.00     0.136 C 
HETATM    2  C2  UNL     1     -32.661   7.406   1.508  1.00 20.00     0.080 C 
HETATM    3  C3  UNL     1     -32.376   8.040   2.860  1.00 20.00     0.017 C 
HETATM    4  C4  UNL     1     -35.772   7.183   3.022  1.00 20.00     0.002 C 
HETATM    5  C5  UNL     1     -35.200   5.840   3.449  1.00 20.00     0.018 C 
HETATM    6  C6  UNL     1     -34.825   8.213   3.630  1.00 20.00     0.010 C 
HETATM    7  C7  UNL     1     -33.686   6.039   3.362  1.00 20.00     0.024 C 
HETATM    8  C8  UNL     1     -33.455   7.507   3.820  1.00 20.00    -0.029 C 
HETATM    9  C9  UNL     1     -32.906   4.956   4.098  1.00 20.00     0.024 C 
HETATM   10  C10 UNL     1     -32.990   7.678   5.271  1.00 20.00     0.016 C 
HETATM   11  O11 UNL     1     -33.340   5.132   1.125  1.00 20.00    -0.297 OA
ENDROOT
TORSDOF 0
ENDMDL
MODEL 4
REMARK VINA RESULT:       5.4      1.034      2.925
REMARK  0 active torsions:
REMARK  status: ('A' for Active; 'I' for Inactive)
ROOT
HETATM    1  C1  UNL     1     -33.831   6.945   3.034  1.00 20.00     0.136 C 
HETATM    2  C2  UNL     1     -34.195   5.579   3.549  1.00 20.00     0.080 C 
HETATM    3  C3  UNL     1     -33.014   4.743   3.083  1.00 20.00     0.017 C 
HETATM    4  C4  UNL     1     -34.201   6.245   0.146  1.00 20.00     0.002 C 
HETATM    5  C5  UNL     1     -33.306   7.383   0.613  1.00 20.00     0.018 C 
HETATM    6  C6  UNL     1     -33.458   4.979   0.560  1.00 20.00     0.010 C 
HETATM    7  C7  UNL     1     -32.753   6.894   1.951  1.00 20.00     0.024 C 
HETATM    8  C8  UNL     1     -32.545   5.365   1.756  1.00 20.00    -0.029 C 
HETATM    9  C9  UNL     1     -31.548   7.699   2.422  1.00 20.00     0.024 C 
HETATM   10  C10 UNL     1     -31.105   4.930   1.458  1.00 20.00     0.016 C 
HETATM   11  O11 UNL     1     -34.374   7.974   3.419  1.00 20.00    -0.297 OA
ENDROOT
TORSDOF 0
ENDMDL
MODEL 5
REMARK VINA RESULT:       5.4      1.441      2.411
REMARK  0 active torsions:
REMARK  status: ('A' for Active; 'I' for Inactive)
ROOT
HETATM    1  C1  UNL     1     -33.753   6.194   3.076  1.00 20.00     0.136 C 
HETATM    2  C2  UNL     1     -33.322   7.339   3.951  1.00 20.00     0.080 C 
HETATM    3  C3  UNL     1     -33.024   8.423   2.928  1.00 20.00     0.017 C 
HETATM    4  C4  UNL     1     -31.037   5.720   1.907  1.00 20.00     0.002 C 
HETATM    5  C5  UNL     1     -32.322   5.308   1.206  1.00 20.00     0.018 C 
HETATM    6  C6  UNL     1     -31.025   7.243   1.819  1.00 20.00     0.010 C 
HETATM    7  C7  UNL     1     -33.330   6.381   1.619  1.00 20.00     0.024 C 
HETATM    8  C8  UNL     1     -32.503   7.697   1.674  1.00 20.00    -0.029 C 
HETATM    9  C9  UNL     1     -34.577   6.388   0.744  1.00 20.00     0.024 C 
HETATM   10  C10 UNL     1     -32.638   8.611   0.450  1.00 20.00     0.016 C 
HETATM   11  O11 UNL     1     -34.341   5.208   3.503  1.00 20.00    -0.297 OA
ENDROOT
TORSDOF 0
ENDMDL
MODEL 6
REMARK VINA RESULT:       5.5      2.276      3.633
REMARK  0 active torsions:
REMARK  status: ('A' for Active; 'I' for Inactive)
ROOT
HETATM    1  C1  UNL     1     -31.910   8.729   0.879  1.00 20.00     0.136 C 
HETATM    2  C2  UNL     1     -33.256   9.397   0.818  1.00 20.00     0.080 C 
HETATM    3  C3  UNL     1     -33.744   9.255   2.251  1.00 20.00     0.017 C 
HETATM    4  C4  UNL     1     -33.005   5.969   1.273  1.00 20.00     0.002 C 
HETATM    5  C5  UNL     1     -31.606   6.374   1.712  1.00 20.00     0.018 C 
HETATM    6  C6  UNL     1     -33.934   6.689   2.246  1.00 20.00     0.010 C 
HETATM    7  C7  UNL     1     -31.754   7.841   2.114  1.00 20.00     0.024 C 
HETATM    8  C8  UNL     1     -33.161   7.929   2.772  1.00 20.00    -0.029 C 
HETATM    9  C9  UNL     1     -30.577   8.349   2.937  1.00 20.00     0.024 C 
HETATM   10  C10 UNL     1     -33.172   7.923   4.305  1.00 20.00     0.016 C 
HETATM   11  O11 UNL     1     -31.057   8.857   0.009  1.00 20.00    -0.297 OA
ENDROOT
TORSDOF 0
ENDMDL
MODEL 7
REMARK VINA RESULT:       5.5      1.147      2.928
REMARK  0 active torsions:
REMARK  status: ('A' for Active; 'I' for Inactive)
ROOT
HETATM    1  C1  UNL     1     -34.811   7.939   3.437  1.00 20.00     0.136 C 
HETATM    2  C2  UNL     1     -35.934   6.967   3.199  1.00 20.00     0.080 C 
HETATM    3  C3  UNL     1     -35.363   5.680   3.773  1.00 20.00     0.017 C 
HETATM    4  C4  UNL     1     -32.963   6.703   1.430  1.00 20.00     0.002 C 
HETATM    5  C5  UNL     1     -32.471   7.533   2.607  1.00 20.00     0.018 C 
HETATM    6  C6  UNL     1     -33.463   5.407   2.060  1.00 20.00     0.010 C 
HETATM    7  C7  UNL     1     -33.481   7.238   3.716  1.00 20.00     0.024 C 
HETATM    8  C8  UNL     1     -33.845   5.737   3.528  1.00 20.00    -0.029 C 
HETATM    9  C9  UNL     1     -32.985   7.660   5.094  1.00 20.00     0.024 C 
HETATM   10  C10 UNL     1     -33.129   4.764   4.472  1.00 20.00     0.016 C 
HETATM   11  O11 UNL     1     -34.950   9.154   3.372  1.00 20.00    -0.297 OA
ENDROOT
TORSDOF 0
ENDMDL
MODEL 8
REMARK VINA RESULT:       5.6      1.979      3.392
REMARK  0 active torsions:
REMARK  status: ('A' for Active; 'I' for Inactive)
ROOT
HETATM    1  C1  UNL     1     -33.344   6.393   0.624  1.00 20.00     0.136 C 
HETATM    2  C2  UNL     1     -33.462   7.822   0.169  1.00 20.00     0.080 C 
HETATM    3  C3  UNL     1     -32.383   8.506   0.993  1.00 20.00     0.017 C 
HETATM    4  C4  UNL     1     -34.392   6.908   3.382  1.00 20.00     0.002 C 
HETATM    5  C5  UNL     1     -33.492   5.729   3.046  1.00 20.00     0.018 C 
HETATM    6  C6  UNL     1     -33.477   8.125   3.290  1.00 20.00     0.010 C 
HETATM    7  C7  UNL     1     -32.580   6.262   1.942  1.00 20.00     0.024 C 
HETATM    8  C8  UNL     1     -32.318   7.745   2.329  1.00 20.00    -0.029 C 
HETATM    9  C9  UNL     1     -31.355   5.383   1.712  1.00 20.00     0.024 C 
HETATM   10  C10 UNL     1     -30.975   8.018   3.018  1.00 20.00     0.016 C 
HETATM   11  O11 UNL     1     -33.843   5.452   0.019  1.00 20.00    -0.297 OA
ENDROOT
TORSDOF 0
ENDMDL
MODEL 9
REMARK VINA RESULT:       5.7      1.386      2.967
REMARK  0 active torsions:
REMARK  status: ('A' for Active; 'I' for Inactive)
ROOT
HETATM    1  C1  UNL     1     -32.871   7.698   2.650  1.00 20.00     0.136 C 
HETATM    2  C2  UNL     1     -32.886   8.081   4.105  1.00 20.00     0.080 C 
HETATM    3  C3  UNL     1     -33.077   6.733   4.783  1.00 20.00     0.017 C 
HETATM    4  C4  UNL     1     -35.768   6.948   2.544  1.00 20.00     0.002 C 
HETATM    5  C5  UNL     1     -34.735   6.396   1.573  1.00 20.00     0.018 C 
HETATM    6  C6  UNL     1     -35.440   6.276   3.874  1.00 20.00     0.010 C 
HETATM    7  C7  UNL     1     -33.456   6.307   2.405  1.00 20.00     0.024 C 
HETATM    8  C8  UNL     1     -33.937   5.889   3.825  1.00 20.00    -0.029 C 
HETATM    9  C9  UNL     1     -32.388   5.434   1.756  1.00 20.00     0.024 C 
HETATM   10  C10 UNL     1     -33.782   4.401   4.161  1.00 20.00     0.016 C 
HETATM   11  O11 UNL     1     -32.469   8.443   1.764  1.00 20.00    -0.297 OA
ENDROOT
TORSDOF 0
ENDMDL
