MODEL 1
REMARK VINA RESULT:      -0.7      0.000      0.000
REMARK  1 active torsions:
REMARK  status: ('A' for Active; 'I' for Inactive)
REMARK    1  A    between atoms: C7_7  and  N9_9 
ROOT
HETATM    1  C1  UNL     1     -34.572   6.651   3.952  1.00 20.00     0.004 A 
HETATM    2  C2  UNL     1     -34.155   5.833   2.980  1.00 20.00     0.042 A 
HETATM    3  C3  UNL     1     -33.940   7.919   4.174  1.00 20.00     0.018 A 
HETATM    4  C4  UNL     1     -32.915   8.297   3.401  1.00 20.00     0.097 A 
HETATM    5  C5  UNL     1     -33.005   6.228   2.090  1.00 20.00     0.106 A 
HETATM    6  N9  UNL     1     -32.437   7.491   2.376  1.00 20.00    -0.324 N 
HETATM    7  S10 UNL     1     -32.501   5.170   0.867  1.00 20.00    -0.060 SA
ENDROOT
BRANCH   6   8
HETATM    8  C7  UNL     1     -31.378   8.049   1.691  1.00 20.00     0.093 C 
HETATM    9  C6  UNL     1     -31.537   9.001   0.764  1.00 20.00    -0.013 C 
HETATM   10  C8  UNL     1     -32.866   9.559   0.371  1.00 20.00     0.037 C 
ENDBRANCH   6   8
TORSDOF 1
ENDMDL
MODEL 2
REMARK VINA RESULT:      -0.4      2.226      4.478
REMARK  1 active torsions:
REMARK  status: ('A' for Active; 'I' for Inactive)
REMARK    1  A    between atoms: C7_7  and  N9_9 
ROOT
HETATM    1  C1  UNL     1     -31.885   7.246   1.503  1.00 20.00     0.004 A 
HETATM    2  C2  UNL     1     -32.150   7.948   2.611  1.00 20.00     0.042 A 
HETATM    3  C3  UNL     1     -32.614   6.050   1.194  1.00 20.00     0.018 A 
HETATM    4  C4  UNL     1     -33.575   5.622   2.020  1.00 20.00     0.097 A 
HETATM    5  C5  UNL     1     -33.226   7.495   3.562  1.00 20.00     0.106 A 
HETATM    6  N9  UNL     1     -33.895   6.308   3.185  1.00 20.00    -0.324 N 
HETATM    7  S10 UNL     1     -33.538   8.408   4.955  1.00 20.00    -0.060 SA
ENDROOT
BRANCH   6   8
HETATM    8  C7  UNL     1     -34.910   5.715   3.906  1.00 20.00     0.093 C 
HETATM    9  C6  UNL     1     -34.791   4.505   4.462  1.00 20.00    -0.013 C 
HETATM   10  C8  UNL     1     -33.557   3.667   4.365  1.00 20.00     0.037 C 
ENDBRANCH   6   8
TORSDOF 1
ENDMDL
MODEL 3
REMARK VINA RESULT:       0.7      1.415      3.737
REMARK  1 active torsions:
REMARK  status: ('A' for Active; 'I' for Inactive)
REMARK    1  A    between atoms: C7_7  and  N9_9 
ROOT
HETATM    1  C1  UNL     1     -31.718   8.324   2.708  1.00 20.00     0.004 A 
HETATM    2  C2  UNL     1     -32.030   7.370   1.824  1.00 20.00     0.042 A 
HETATM    3  C3  UNL     1     -32.484   8.499   3.908  1.00 20.00     0.018 A 
HETATM    4  C4  UNL     1     -33.528   7.699   4.156  1.00 20.00     0.097 A 
HETATM    5  C5  UNL     1     -33.197   6.451   2.073  1.00 20.00     0.106 A 
HETATM    6  N9  UNL     1     -33.899   6.690   3.276  1.00 20.00    -0.324 N 
HETATM    7  S10 UNL     1     -33.564   5.251   0.935  1.00 20.00    -0.060 SA
ENDROOT
BRANCH   6   8
HETATM    8  C7  UNL     1     -34.997   5.972   3.702  1.00 20.00     0.093 C 
HETATM    9  C6  UNL     1     -34.901   4.741   4.217  1.00 20.00    -0.013 C 
HETATM   10  C8  UNL     1     -33.608   4.014   4.388  1.00 20.00     0.037 C 
ENDBRANCH   6   8
TORSDOF 1
ENDMDL
MODEL 4
REMARK VINA RESULT:       0.7      1.671      3.875
REMARK  1 active torsions:
REMARK  status: ('A' for Active; 'I' for Inactive)
REMARK    1  A    between atoms: C7_7  and  N9_9 
ROOT
HETATM    1  C1  UNL     1     -32.815   8.320   3.053  1.00 20.00     0.004 A 
HETATM    2  C2  UNL     1     -32.401   7.414   2.160  1.00 20.00     0.042 A 
HETATM    3  C3  UNL     1     -33.746   7.968   4.085  1.00 20.00     0.018 A 
HETATM    4  C4  UNL     1     -34.213   6.717   4.163  1.00 20.00     0.097 A 
HETATM    5  C5  UNL     1     -32.906   5.996   2.220  1.00 20.00     0.106 A 
HETATM    6  N9  UNL     1     -33.821   5.733   3.265  1.00 20.00    -0.324 N 
HETATM    7  S10 UNL     1     -32.361   4.873   1.075  1.00 20.00    -0.060 SA
ENDROOT
BRANCH   6   8
HETATM    8  C7  UNL     1     -34.408   4.508   3.505  1.00 20.00     0.093 C 
HETATM    9  C6  UNL     1     -33.812   3.548   4.221  1.00 20.00    -0.013 C 
HETATM   10  C8  UNL     1     -32.458   3.693   4.834  1.00 20.00     0.037 C 
ENDBRANCH   6   8
TORSDOF 1
ENDMDL
MODEL 5
REMARK VINA RESULT:       0.7      1.933      2.936
REMARK  1 active torsions:
REMARK  status: ('A' for Active; 'I' for Inactive)
REMARK    1  A    between atoms: C7_7  and  N9_9 
ROOT
HETATM    1  C1  UNL     1     -34.614   7.250   4.230  1.00 20.00     0.004 A 
HETATM    2  C2  UNL     1     -33.776   7.996   3.502  1.00 20.00     0.042 A 
HETATM    3  C3  UNL     1     -34.680   5.828   4.056  1.00 20.00     0.018 A 
HETATM    4  C4  UNL     1     -33.895   5.230   3.153  1.00 20.00     0.097 A 
HETATM    5  C5  UNL     1     -32.877   7.355   2.477  1.00 20.00     0.106 A 
HETATM    6  N9  UNL     1     -33.005   5.951   2.367  1.00 20.00    -0.324 N 
HETATM    7  S10 UNL     1     -31.826   8.327   1.572  1.00 20.00    -0.060 SA
ENDROOT
BRANCH   6   8
HETATM    8  C7  UNL     1     -32.282   5.163   1.496  1.00 20.00     0.093 C 
HETATM    9  C6  UNL     1     -32.761   4.769   0.310  1.00 20.00    -0.013 C 
HETATM   10  C8  UNL     1     -34.116   5.136  -0.198  1.00 20.00     0.037 C 
ENDBRANCH   6   8
TORSDOF 1
ENDMDL
MODEL 6
REMARK VINA RESULT:       1.2      2.403      4.561
REMARK  1 active torsions:
REMARK  status: ('A' for Active; 'I' for Inactive)
REMARK    1  A    between atoms: C7_7  and  N9_9 
ROOT
HETATM    1  C1  UNL     1     -31.960   7.334   1.718  1.00 20.00     0.004 A 
HETATM    2  C2  UNL     1     -32.799   7.742   2.677  1.00 20.00     0.042 A 
HETATM    3  C3  UNL     1     -31.876   5.951   1.348  1.00 20.00     0.018 A 
HETATM    4  C4  UNL     1     -32.645   5.048   1.966  1.00 20.00     0.097 A 
HETATM    5  C5  UNL     1     -33.681   6.752   3.391  1.00 20.00     0.106 A 
HETATM    6  N9  UNL     1     -33.536   5.411   2.968  1.00 20.00    -0.324 N 
HETATM    7  S10 UNL     1     -34.735   7.301   4.599  1.00 20.00    -0.060 SA
ENDROOT
BRANCH   6   8
HETATM    8  C7  UNL     1     -34.241   4.343   3.485  1.00 20.00     0.093 C 
HETATM    9  C6  UNL     1     -33.710   3.481   4.359  1.00 20.00    -0.013 C 
HETATM   10  C8  UNL     1     -32.309   3.576   4.868  1.00 20.00     0.037 C 
ENDBRANCH   6   8
TORSDOF 1
ENDMDL
MODEL 7
REMARK VINA RESULT:       1.3      1.814      2.486
REMARK  1 active torsions:
REMARK  status: ('A' for Active; 'I' for Inactive)
REMARK    1  A    between atoms: C7_7  and  N9_9 
ROOT
HETATM    1  C1  UNL     1     -33.386   5.010   2.106  1.00 20.00     0.004 A 
HETATM    2  C2  UNL     1     -33.823   5.838   3.061  1.00 20.00     0.042 A 
HETATM    3  C3  UNL     1     -32.431   5.447   1.129  1.00 20.00     0.018 A 
HETATM    4  C4  UNL     1     -31.966   6.701   1.165  1.00 20.00     0.097 A 
HETATM    5  C5  UNL     1     -33.319   7.256   3.132  1.00 20.00     0.106 A 
HETATM    6  N9  UNL     1     -32.382   7.606   2.132  1.00 20.00    -0.324 N 
HETATM    7  S10 UNL     1     -33.891   8.279   4.355  1.00 20.00    -0.060 SA
ENDROOT
BRANCH   6   8
HETATM    8  C7  UNL     1     -31.794   8.847   2.008  1.00 20.00     0.093 C 
HETATM    9  C6  UNL     1     -31.986   9.637   0.945  1.00 20.00    -0.013 C 
HETATM   10  C8  UNL     1     -32.851   9.266  -0.215  1.00 20.00     0.037 C 
ENDBRANCH   6   8
TORSDOF 1
ENDMDL
MODEL 8
REMARK VINA RESULT:       1.5      1.725      3.412
REMARK  1 active torsions:
REMARK  status: ('A' for Active; 'I' for Inactive)
REMARK    1  A    between atoms: C7_7  and  N9_9 
ROOT
HETATM    1  C1  UNL     1     -31.814   6.054   1.128  1.00 20.00     0.004 A 
HETATM    2  C2  UNL     1     -32.387   5.094   1.864  1.00 20.00     0.042 A 
HETATM    3  C3  UNL     1     -32.114   7.438   1.355  1.00 20.00     0.018 A 
HETATM    4  C4  UNL     1     -32.980   7.784   2.314  1.00 20.00     0.097 A 
HETATM    5  C5  UNL     1     -33.365   5.450   2.953  1.00 20.00     0.106 A 
HETATM    6  N9  UNL     1     -33.606   6.834   3.110  1.00 20.00    -0.324 N 
HETATM    7  S10 UNL     1     -34.073   4.212   3.867  1.00 20.00    -0.060 SA
ENDROOT
BRANCH   6   8
HETATM    8  C7  UNL     1     -34.463   7.382   4.042  1.00 20.00     0.093 C 
HETATM    9  C6  UNL     1     -34.037   8.141   5.057  1.00 20.00    -0.013 C 
HETATM   10  C8  UNL     1     -32.602   8.478   5.293  1.00 20.00     0.037 C 
ENDBRANCH   6   8
TORSDOF 1
ENDMDL
MODEL 9
REMARK VINA RESULT:       1.6      1.992      2.530
REMARK  1 active torsions:
REMARK  status: ('A' for Active; 'I' for Inactive)
REMARK    1  A    between atoms: C7_7  and  N9_9 
ROOT
HETATM    1  C1  UNL     1     -35.565   6.095   4.522  1.00 20.00     0.004 A 
HETATM    2  C2  UNL     1     -34.986   4.900   4.684  1.00 20.00     0.042 A 
HETATM    3  C3  UNL     1     -35.116   7.003   3.506  1.00 20.00     0.018 A 
HETATM    4  C4  UNL     1     -34.103   6.657   2.704  1.00 20.00     0.097 A 
HETATM    5  C5  UNL     1     -33.844   4.479   3.797  1.00 20.00     0.106 A 
HETATM    6  N9  UNL     1     -33.463   5.431   2.824  1.00 20.00    -0.324 N 
HETATM    7  S10 UNL     1     -33.134   2.958   4.027  1.00 20.00    -0.060 SA
ENDROOT
BRANCH   6   8
HETATM    8  C7  UNL     1     -32.444   5.255   1.910  1.00 20.00     0.093 C 
HETATM    9  C6  UNL     1     -31.729   6.274   1.419  1.00 20.00    -0.013 C 
HETATM   10  C8  UNL     1     -31.951   7.700   1.801  1.00 20.00     0.037 C 
ENDBRANCH   6   8
TORSDOF 1
ENDMDL
