MODEL 1
REMARK VINA RESULT:      -1.0      0.000      0.000
REMARK  5 active torsions:
REMARK  status: ('A' for Active; 'I' for Inactive)
REMARK    1  A    between atoms: C2_2  and  C6_6 
REMARK    2  A    between atoms: C2_2  and  C8_8 
REMARK    3  A    between atoms: C6_6  and  O11_11 
REMARK    4  A    between atoms: C7_7  and  O10_10 
REMARK    5  A    between atoms: C7_7  and  O11_11 
ROOT
HETATM    1  C1  UNL     1     -33.175   5.587   0.836  1.00 20.00     0.209 A 
HETATM    2  C2  UNL     1     -33.270   6.263   2.182  1.00 20.00     0.106 A 
HETATM    3  O9  UNL     1     -32.263   5.280   1.902  1.00 20.00    -0.372 OA
ENDROOT
BRANCH   2   4
HETATM    4  C6  UNL     1     -32.731   7.646   2.351  1.00 20.00     0.211 C 
BRANCH   4   5
HETATM    5  O11 UNL     1     -31.442   7.738   1.745  1.00 20.00    -0.364 OA
BRANCH   5   6
HETATM    6  C7  UNL     1     -31.396   8.748   0.739  1.00 20.00     0.337 C 
BRANCH   6   7
HETATM    7  O10 UNL     1     -32.471   9.685   0.802  1.00 20.00    -0.372 OA
HETATM    8  C5  UNL     1     -32.805  10.207  -0.477  1.00 20.00     0.204 C 
ENDBRANCH   6   7
ENDBRANCH   5   6
ENDBRANCH   4   5
ENDBRANCH   2   4
BRANCH   2   9
HETATM    9  C8  UNL     1     -34.321   5.797   3.187  1.00 20.00     0.016 C 
HETATM   10  C3  UNL     1     -33.840   4.552   3.929  1.00 20.00     0.012 C 
HETATM   11  C4  UNL     1     -34.655   6.915   4.173  1.00 20.00     0.012 C 
ENDBRANCH   2   9
TORSDOF 5
ENDMDL
MODEL 2
REMARK VINA RESULT:      -0.8      1.787      4.722
REMARK  5 active torsions:
REMARK  status: ('A' for Active; 'I' for Inactive)
REMARK    1  A    between atoms: C2_2  and  C6_6 
REMARK    2  A    between atoms: C2_2  and  C8_8 
REMARK    3  A    between atoms: C6_6  and  O11_11 
REMARK    4  A    between atoms: C7_7  and  O10_10 
REMARK    5  A    between atoms: C7_7  and  O11_11 
ROOT
HETATM    1  C1  UNL     1     -32.380   5.477   1.549  1.00 20.00     0.209 A 
HETATM    2  C2  UNL     1     -32.719   6.827   2.132  1.00 20.00     0.106 A 
HETATM    3  O9  UNL     1     -33.397   6.313   0.977  1.00 20.00    -0.372 OA
ENDROOT
BRANCH   2   4
HETATM    4  C6  UNL     1     -33.580   6.908   3.350  1.00 20.00     0.211 C 
BRANCH   4   5
HETATM    5  O11 UNL     1     -34.622   5.938   3.269  1.00 20.00    -0.364 OA
BRANCH   5   6
HETATM    6  C7  UNL     1     -34.569   5.005   4.347  1.00 20.00     0.337 C 
BRANCH   6   7
HETATM    7  O10 UNL     1     -34.167   3.691   3.963  1.00 20.00    -0.372 OA
HETATM    8  C5  UNL     1     -33.166   3.162   4.822  1.00 20.00     0.204 C 
ENDBRANCH   6   7
ENDBRANCH   5   6
ENDBRANCH   4   5
ENDBRANCH   2   4
BRANCH   2   9
HETATM    9  C8  UNL     1     -31.817   8.023   1.834  1.00 20.00     0.016 C 
HETATM   10  C3  UNL     1     -32.495   8.974   0.848  1.00 20.00     0.012 C 
HETATM   11  C4  UNL     1     -31.454   8.756   3.123  1.00 20.00     0.012 C 
ENDBRANCH   2   9
TORSDOF 5
ENDMDL
MODEL 3
REMARK VINA RESULT:      -0.7      0.429      1.138
REMARK  5 active torsions:
REMARK  status: ('A' for Active; 'I' for Inactive)
REMARK    1  A    between atoms: C2_2  and  C6_6 
REMARK    2  A    between atoms: C2_2  and  C8_8 
REMARK    3  A    between atoms: C6_6  and  O11_11 
REMARK    4  A    between atoms: C7_7  and  O10_10 
REMARK    5  A    between atoms: C7_7  and  O11_11 
ROOT
HETATM    1  C1  UNL     1     -33.476   5.509   1.189  1.00 20.00     0.209 A 
HETATM    2  C2  UNL     1     -33.283   6.277   2.475  1.00 20.00     0.106 A 
HETATM    3  O9  UNL     1     -32.261   5.419   1.948  1.00 20.00    -0.372 OA
ENDROOT
BRANCH   2   4
HETATM    4  C6  UNL     1     -32.937   7.729   2.421  1.00 20.00     0.211 C 
BRANCH   4   5
HETATM    5  O11 UNL     1     -31.605   7.889   1.935  1.00 20.00    -0.364 OA
BRANCH   5   6
HETATM    6  C7  UNL     1     -31.562   8.669   0.741  1.00 20.00     0.337 C 
BRANCH   6   7
HETATM    7  O10 UNL     1     -32.414   9.814   0.761  1.00 20.00    -0.372 OA
HETATM    8  C5  UNL     1     -32.831  10.196  -0.543  1.00 20.00     0.204 C 
ENDBRANCH   6   7
ENDBRANCH   5   6
ENDBRANCH   4   5
ENDBRANCH   2   4
BRANCH   2   9
HETATM    9  C8  UNL     1     -33.917   5.758   3.763  1.00 20.00     0.016 C 
HETATM   10  C3  UNL     1     -35.327   6.321   3.932  1.00 20.00     0.012 C 
HETATM   11  C4  UNL     1     -33.945   4.231   3.771  1.00 20.00     0.012 C 
ENDBRANCH   2   9
TORSDOF 5
ENDMDL
MODEL 4
REMARK VINA RESULT:      -0.4      1.463      2.345
REMARK  5 active torsions:
REMARK  status: ('A' for Active; 'I' for Inactive)
REMARK    1  A    between atoms: C2_2  and  C6_6 
REMARK    2  A    between atoms: C2_2  and  C8_8 
REMARK    3  A    between atoms: C6_6  and  O11_11 
REMARK    4  A    between atoms: C7_7  and  O10_10 
REMARK    5  A    between atoms: C7_7  and  O11_11 
ROOT
HETATM    1  C1  UNL     1     -33.198   8.072   4.829  1.00 20.00     0.209 A 
HETATM    2  C2  UNL     1     -33.734   7.146   3.764  1.00 20.00     0.106 A 
HETATM    3  O9  UNL     1     -34.203   8.496   3.895  1.00 20.00    -0.372 OA
ENDROOT
BRANCH   2   4
HETATM    4  C6  UNL     1     -32.933   6.905   2.526  1.00 20.00     0.211 C 
BRANCH   4   5
HETATM    5  O11 UNL     1     -32.000   7.969   2.341  1.00 20.00    -0.364 OA
BRANCH   5   6
HETATM    6  C7  UNL     1     -31.985   8.438   0.994  1.00 20.00     0.337 C 
BRANCH   6   7
HETATM    7  O10 UNL     1     -32.452   9.778   0.837  1.00 20.00    -0.372 OA
HETATM    8  C5  UNL     1     -32.716  10.099  -0.522  1.00 20.00     0.204 C 
ENDBRANCH   6   7
ENDBRANCH   5   6
ENDBRANCH   4   5
ENDBRANCH   2   4
BRANCH   2   9
HETATM    9  C8  UNL     1     -34.776   6.094   4.136  1.00 20.00     0.016 C 
HETATM   10  C3  UNL     1     -36.077   6.333   3.371  1.00 20.00     0.012 C 
HETATM   11  C4  UNL     1     -34.242   4.689   3.862  1.00 20.00     0.012 C 
ENDBRANCH   2   9
TORSDOF 5
ENDMDL
MODEL 5
REMARK VINA RESULT:      -0.4      1.759      4.408
REMARK  5 active torsions:
REMARK  status: ('A' for Active; 'I' for Inactive)
REMARK    1  A    between atoms: C2_2  and  C6_6 
REMARK    2  A    between atoms: C2_2  and  C8_8 
REMARK    3  A    between atoms: C6_6  and  O11_11 
REMARK    4  A    between atoms: C7_7  and  O10_10 
REMARK    5  A    between atoms: C7_7  and  O11_11 
ROOT
HETATM    1  C1  UNL     1     -32.327   8.418   1.131  1.00 20.00     0.209 A 
HETATM    2  C2  UNL     1     -32.812   7.336   2.065  1.00 20.00     0.106 A 
HETATM    3  O9  UNL     1     -31.479   7.860   2.146  1.00 20.00    -0.372 OA
ENDROOT
BRANCH   2   4
HETATM    4  C6  UNL     1     -33.674   7.699   3.229  1.00 20.00     0.211 C 
BRANCH   4   5
HETATM    5  O11 UNL     1     -33.826   6.570   4.087  1.00 20.00    -0.364 OA
BRANCH   5   6
HETATM    6  C7  UNL     1     -35.168   6.090   4.107  1.00 20.00     0.337 C 
BRANCH   6   7
HETATM    7  O10 UNL     1     -35.293   4.715   4.471  1.00 20.00    -0.372 OA
HETATM    8  C5  UNL     1     -34.067   4.010   4.335  1.00 20.00     0.204 C 
ENDBRANCH   6   7
ENDBRANCH   5   6
ENDBRANCH   4   5
ENDBRANCH   2   4
BRANCH   2   9
HETATM    9  C8  UNL     1     -32.876   5.891   1.573  1.00 20.00     0.016 C 
HETATM   10  C3  UNL     1     -33.747   5.787   0.323  1.00 20.00     0.012 C 
HETATM   11  C4  UNL     1     -31.472   5.356   1.295  1.00 20.00     0.012 C 
ENDBRANCH   2   9
TORSDOF 5
ENDMDL
MODEL 6
REMARK VINA RESULT:      -0.2      2.225      4.960
REMARK  5 active torsions:
REMARK  status: ('A' for Active; 'I' for Inactive)
REMARK    1  A    between atoms: C2_2  and  C6_6 
REMARK    2  A    between atoms: C2_2  and  C8_8 
REMARK    3  A    between atoms: C6_6  and  O11_11 
REMARK    4  A    between atoms: C7_7  and  O10_10 
REMARK    5  A    between atoms: C7_7  and  O11_11 
ROOT
HETATM    1  C1  UNL     1     -34.005   8.526   3.756  1.00 20.00     0.209 A 
HETATM    2  C2  UNL     1     -33.456   7.263   3.137  1.00 20.00     0.106 A 
HETATM    3  O9  UNL     1     -33.208   7.599   4.509  1.00 20.00    -0.372 OA
ENDROOT
BRANCH   2   4
HETATM    4  C6  UNL     1     -34.352   6.080   2.959  1.00 20.00     0.211 C 
BRANCH   4   5
HETATM    5  O11 UNL     1     -35.119   5.874   4.145  1.00 20.00    -0.364 OA
BRANCH   5   6
HETATM    6  C7  UNL     1     -34.869   4.597   4.728  1.00 20.00     0.337 C 
BRANCH   6   7
HETATM    7  O10 UNL     1     -33.978   3.775   3.974  1.00 20.00    -0.372 OA
HETATM    8  C5  UNL     1     -33.219   2.904   4.802  1.00 20.00     0.204 C 
ENDBRANCH   6   7
ENDBRANCH   5   6
ENDBRANCH   4   5
ENDBRANCH   2   4
BRANCH   2   9
HETATM    9  C8  UNL     1     -32.215   7.336   2.251  1.00 20.00     0.016 C 
HETATM   10  C3  UNL     1     -32.060   6.054   1.436  1.00 20.00     0.012 C 
HETATM   11  C4  UNL     1     -32.283   8.553   1.331  1.00 20.00     0.012 C 
ENDBRANCH   2   9
TORSDOF 5
ENDMDL
MODEL 7
REMARK VINA RESULT:      -0.2      1.356      1.875
REMARK  5 active torsions:
REMARK  status: ('A' for Active; 'I' for Inactive)
REMARK    1  A    between atoms: C2_2  and  C6_6 
REMARK    2  A    between atoms: C2_2  and  C8_8 
REMARK    3  A    between atoms: C6_6  and  O11_11 
REMARK    4  A    between atoms: C7_7  and  O10_10 
REMARK    5  A    between atoms: C7_7  and  O11_11 
ROOT
HETATM    1  C1  UNL     1     -33.451   7.580   4.553  1.00 20.00     0.209 A 
HETATM    2  C2  UNL     1     -33.642   6.683   3.354  1.00 20.00     0.106 A 
HETATM    3  O9  UNL     1     -34.417   7.876   3.533  1.00 20.00    -0.372 OA
ENDROOT
BRANCH   2   4
HETATM    4  C6  UNL     1     -32.676   6.757   2.217  1.00 20.00     0.211 C 
BRANCH   4   5
HETATM    5  O11 UNL     1     -32.046   8.037   2.202  1.00 20.00    -0.364 OA
BRANCH   5   6
HETATM    6  C7  UNL     1     -31.938   8.565   0.882  1.00 20.00     0.337 C 
BRANCH   6   7
HETATM    7  O10 UNL     1     -32.419   9.902   0.746  1.00 20.00    -0.372 OA
HETATM    8  C5  UNL     1     -32.788  10.208  -0.591  1.00 20.00     0.204 C 
ENDBRANCH   6   7
ENDBRANCH   5   6
ENDBRANCH   4   5
ENDBRANCH   2   4
BRANCH   2   9
HETATM    9  C8  UNL     1     -34.452   5.396   3.498  1.00 20.00     0.016 C 
HETATM   10  C3  UNL     1     -33.562   4.253   3.985  1.00 20.00     0.012 C 
HETATM   11  C4  UNL     1     -35.627   5.605   4.452  1.00 20.00     0.012 C 
ENDBRANCH   2   9
TORSDOF 5
ENDMDL
MODEL 8
REMARK VINA RESULT:      -0.1      1.404      2.216
REMARK  5 active torsions:
REMARK  status: ('A' for Active; 'I' for Inactive)
REMARK    1  A    between atoms: C2_2  and  C6_6 
REMARK    2  A    between atoms: C2_2  and  C8_8 
REMARK    3  A    between atoms: C6_6  and  O11_11 
REMARK    4  A    between atoms: C7_7  and  O10_10 
REMARK    5  A    between atoms: C7_7  and  O11_11 
ROOT
HETATM    1  C1  UNL     1     -33.909   7.569   4.533  1.00 20.00     0.209 A 
HETATM    2  C2  UNL     1     -33.368   7.162   3.183  1.00 20.00     0.106 A 
HETATM    3  O9  UNL     1     -34.459   8.085   3.311  1.00 20.00    -0.372 OA
ENDROOT
BRANCH   2   4
HETATM    4  C6  UNL     1     -32.108   7.786   2.677  1.00 20.00     0.211 C 
BRANCH   4   5
HETATM    5  O11 UNL     1     -32.424   8.893   1.834  1.00 20.00    -0.364 OA
BRANCH   5   6
HETATM    6  C7  UNL     1     -31.882   8.739   0.524  1.00 20.00     0.337 C 
BRANCH   6   7
HETATM    7  O10 UNL     1     -32.390   9.671  -0.431  1.00 20.00    -0.372 OA
HETATM    8  C5  UNL     1     -32.938  10.828   0.185  1.00 20.00     0.204 C 
ENDBRANCH   6   7
ENDBRANCH   5   6
ENDBRANCH   4   5
ENDBRANCH   2   4
BRANCH   2   9
HETATM    9  C8  UNL     1     -33.768   5.815   2.587  1.00 20.00     0.016 C 
HETATM   10  C3  UNL     1     -32.776   5.389   1.507  1.00 20.00     0.012 C 
HETATM   11  C4  UNL     1     -33.863   4.751   3.679  1.00 20.00     0.012 C 
ENDBRANCH   2   9
TORSDOF 5
ENDMDL
MODEL 9
REMARK VINA RESULT:       0.1      1.169      1.958
REMARK  5 active torsions:
REMARK  status: ('A' for Active; 'I' for Inactive)
REMARK    1  A    between atoms: C2_2  and  C6_6 
REMARK    2  A    between atoms: C2_2  and  C8_8 
REMARK    3  A    between atoms: C6_6  and  O11_11 
REMARK    4  A    between atoms: C7_7  and  O10_10 
REMARK    5  A    between atoms: C7_7  and  O11_11 
ROOT
HETATM    1  C1  UNL     1     -33.893   4.058   3.527  1.00 20.00     0.209 A 
HETATM    2  C2  UNL     1     -33.909   5.531   3.195  1.00 20.00     0.106 A 
HETATM    3  O9  UNL     1     -32.853   4.944   3.968  1.00 20.00    -0.372 OA
ENDROOT
BRANCH   2   4
HETATM    4  C6  UNL     1     -33.481   5.984   1.837  1.00 20.00     0.211 C 
BRANCH   4   5
HETATM    5  O11 UNL     1     -32.159   6.517   1.902  1.00 20.00    -0.364 OA
BRANCH   5   6
HETATM    6  C7  UNL     1     -32.154   7.942   1.854  1.00 20.00     0.337 C 
BRANCH   6   7
HETATM    7  O10 UNL     1     -31.799   8.483   0.582  1.00 20.00    -0.372 OA
HETATM    8  C5  UNL     1     -32.392   9.755   0.353  1.00 20.00     0.204 C 
ENDBRANCH   6   7
ENDBRANCH   5   6
ENDBRANCH   4   5
ENDBRANCH   2   4
BRANCH   2   9
HETATM    9  C8  UNL     1     -34.806   6.473   3.994  1.00 20.00     0.016 C 
HETATM   10  C3  UNL     1     -34.009   7.675   4.498  1.00 20.00     0.012 C 
HETATM   11  C4  UNL     1     -35.993   6.931   3.149  1.00 20.00     0.012 C 
ENDBRANCH   2   9
TORSDOF 5
ENDMDL
