MODEL 1
REMARK VINA RESULT:      -0.8      0.000      0.000
REMARK  0 active torsions:
REMARK  status: ('A' for Active; 'I' for Inactive)
ROOT
HETATM    1  C1  UNL     1     -33.935   7.275   3.804  1.00 20.00     0.082 C 
HETATM    2  C2  UNL     1     -33.212   7.406   2.697  1.00 20.00    -0.050 C 
HETATM    3  C3  UNL     1     -34.509   5.919   3.736  1.00 20.00     0.171 C 
HETATM    4  C4  UNL     1     -32.135   8.362   2.314  1.00 20.00     0.036 C 
HETATM    5  C5  UNL     1     -33.969   5.154   2.550  1.00 20.00     0.094 C 
HETATM    6  C6  UNL     1     -31.332   7.552   1.284  1.00 20.00     0.005 C 
HETATM    7  C7  UNL     1     -31.801   6.095   1.428  1.00 20.00     0.010 C 
HETATM    8  C8  UNL     1     -33.276   6.247   1.754  1.00 20.00     0.023 C 
HETATM    9  O9  UNL     1     -35.283   5.461   4.564  1.00 20.00    -0.291 OA
HETATM   10 CL10 UNL     1     -34.032   8.273   5.154  1.00 20.00    -0.080 Cl
ENDROOT
TORSDOF 0
ENDMDL
MODEL 2
REMARK VINA RESULT:      -0.7      2.738      4.083
REMARK  0 active torsions:
REMARK  status: ('A' for Active; 'I' for Inactive)
ROOT
HETATM    1  C1  UNL     1     -32.528   6.276   1.739  1.00 20.00     0.082 C 
HETATM    2  C2  UNL     1     -33.593   6.346   2.532  1.00 20.00    -0.050 C 
HETATM    3  C3  UNL     1     -31.972   7.641   1.712  1.00 20.00     0.171 C 
HETATM    4  C4  UNL     1     -34.384   5.299   3.238  1.00 20.00     0.036 C 
HETATM    5  C5  UNL     1     -32.703   8.550   2.673  1.00 20.00     0.094 C 
HETATM    6  C6  UNL     1     -34.961   6.077   4.431  1.00 20.00     0.005 C 
HETATM    7  C7  UNL     1     -34.172   7.394   4.503  1.00 20.00     0.010 C 
HETATM    8  C8  UNL     1     -33.918   7.714   3.041  1.00 20.00     0.023 C 
HETATM    9  O9  UNL     1     -31.011   7.975   1.035  1.00 20.00    -0.291 OA
HETATM   10 CL10 UNL     1     -31.763   4.933   1.076  1.00 20.00    -0.080 Cl
ENDROOT
TORSDOF 0
ENDMDL
MODEL 3
REMARK VINA RESULT:      -0.0      2.156      2.862
REMARK  0 active torsions:
REMARK  status: ('A' for Active; 'I' for Inactive)
ROOT
HETATM    1  C1  UNL     1     -32.680   6.197   1.811  1.00 20.00     0.082 C 
HETATM    2  C2  UNL     1     -32.213   7.423   1.596  1.00 20.00    -0.050 C 
HETATM    3  C3  UNL     1     -33.510   6.304   3.025  1.00 20.00     0.171 C 
HETATM    4  C4  UNL     1     -31.613   8.067   0.394  1.00 20.00     0.036 C 
HETATM    5  C5  UNL     1     -33.637   7.741   3.477  1.00 20.00     0.094 C 
HETATM    6  C6  UNL     1     -31.945   9.550   0.620  1.00 20.00     0.005 C 
HETATM    7  C7  UNL     1     -33.002   9.586   1.735  1.00 20.00     0.010 C 
HETATM    8  C8  UNL     1     -32.582   8.436   2.632  1.00 20.00     0.023 C 
HETATM    9  O9  UNL     1     -34.063   5.356   3.562  1.00 20.00    -0.291 OA
HETATM   10 CL10 UNL     1     -32.604   4.827   0.839  1.00 20.00    -0.080 Cl
ENDROOT
TORSDOF 0
ENDMDL
MODEL 4
REMARK VINA RESULT:       0.1      2.414      3.385
REMARK  0 active torsions:
REMARK  status: ('A' for Active; 'I' for Inactive)
ROOT
HETATM    1  C1  UNL     1     -32.381   7.036   1.927  1.00 20.00     0.082 C 
HETATM    2  C2  UNL     1     -33.096   7.057   3.047  1.00 20.00    -0.050 C 
HETATM    3  C3  UNL     1     -32.478   5.652   1.429  1.00 20.00     0.171 C 
HETATM    4  C4  UNL     1     -33.677   8.176   3.841  1.00 20.00     0.036 C 
HETATM    5  C5  UNL     1     -33.435   4.834   2.266  1.00 20.00     0.094 C 
HETATM    6  C6  UNL     1     -34.868   7.498   4.535  1.00 20.00     0.005 C 
HETATM    7  C7  UNL     1     -35.078   6.159   3.811  1.00 20.00     0.010 C 
HETATM    8  C8  UNL     1     -33.661   5.738   3.466  1.00 20.00     0.023 C 
HETATM    9  O9  UNL     1     -31.896   5.239   0.437  1.00 20.00    -0.291 OA
HETATM   10 CL10 UNL     1     -31.697   8.304   1.059  1.00 20.00    -0.080 Cl
ENDROOT
TORSDOF 0
ENDMDL
MODEL 5
REMARK VINA RESULT:       0.4      2.344      3.376
REMARK  0 active torsions:
REMARK  status: ('A' for Active; 'I' for Inactive)
ROOT
HETATM    1  C1  UNL     1     -33.435   5.418   2.723  1.00 20.00     0.082 C 
HETATM    2  C2  UNL     1     -33.693   6.623   3.219  1.00 20.00    -0.050 C 
HETATM    3  C3  UNL     1     -32.459   5.642   1.641  1.00 20.00     0.171 C 
HETATM    4  C4  UNL     1     -34.306   7.065   4.503  1.00 20.00     0.036 C 
HETATM    5  C5  UNL     1     -32.019   7.087   1.591  1.00 20.00     0.094 C 
HETATM    6  C6  UNL     1     -33.685   8.457   4.698  1.00 20.00     0.005 C 
HETATM    7  C7  UNL     1     -32.512   8.543   3.708  1.00 20.00     0.010 C 
HETATM    8  C8  UNL     1     -33.023   7.758   2.513  1.00 20.00     0.023 C 
HETATM    9  O9  UNL     1     -32.028   4.759   0.914  1.00 20.00    -0.291 OA
HETATM   10 CL10 UNL     1     -33.876   3.898   3.294  1.00 20.00    -0.080 Cl
ENDROOT
TORSDOF 0
ENDMDL
MODEL 6
REMARK VINA RESULT:       0.4      1.685      2.318
REMARK  0 active torsions:
REMARK  status: ('A' for Active; 'I' for Inactive)
ROOT
HETATM    1  C1  UNL     1     -33.721   5.494   3.315  1.00 20.00     0.082 C 
HETATM    2  C2  UNL     1     -32.820   6.295   2.757  1.00 20.00    -0.050 C 
HETATM    3  C3  UNL     1     -34.689   6.392   3.971  1.00 20.00     0.171 C 
HETATM    4  C4  UNL     1     -31.801   6.066   1.695  1.00 20.00     0.036 C 
HETATM    5  C5  UNL     1     -34.392   7.840   3.657  1.00 20.00     0.094 C 
HETATM    6  C6  UNL     1     -31.628   7.473   1.101  1.00 20.00     0.005 C 
HETATM    7  C7  UNL     1     -32.808   8.305   1.627  1.00 20.00     0.010 C 
HETATM    8  C8  UNL     1     -33.012   7.753   3.026  1.00 20.00     0.023 C 
HETATM    9  O9  UNL     1     -35.637   6.007   4.639  1.00 20.00    -0.291 OA
HETATM   10 CL10 UNL     1     -33.936   3.833   3.154  1.00 20.00    -0.080 Cl
ENDROOT
TORSDOF 0
ENDMDL
MODEL 7
REMARK VINA RESULT:       0.7      1.626      2.455
REMARK  0 active torsions:
REMARK  status: ('A' for Active; 'I' for Inactive)
ROOT
HETATM    1  C1  UNL     1     -34.037   6.751   3.743  1.00 20.00     0.082 C 
HETATM    2  C2  UNL     1     -33.141   6.549   2.782  1.00 20.00    -0.050 C 
HETATM    3  C3  UNL     1     -33.600   7.979   4.431  1.00 20.00     0.171 C 
HETATM    4  C4  UNL     1     -33.169   5.713   1.550  1.00 20.00     0.036 C 
HETATM    5  C5  UNL     1     -32.422   8.612   3.728  1.00 20.00     0.094 C 
HETATM    6  C6  UNL     1     -32.184   6.454   0.631  1.00 20.00     0.005 C 
HETATM    7  C7  UNL     1     -31.953   7.830   1.276  1.00 20.00     0.010 C 
HETATM    8  C8  UNL     1     -32.002   7.518   2.761  1.00 20.00     0.023 C 
HETATM    9  O9  UNL     1     -34.155   8.447   5.414  1.00 20.00    -0.291 OA
HETATM   10 CL10 UNL     1     -35.505   5.982   4.028  1.00 20.00    -0.080 Cl
ENDROOT
TORSDOF 0
ENDMDL
MODEL 8
REMARK VINA RESULT:       0.8      2.433      3.494
REMARK  0 active torsions:
REMARK  status: ('A' for Active; 'I' for Inactive)
ROOT
HETATM    1  C1  UNL     1     -32.578   8.240   2.134  1.00 20.00     0.082 C 
HETATM    2  C2  UNL     1     -33.214   7.488   3.026  1.00 20.00    -0.050 C 
HETATM    3  C3  UNL     1     -31.870   7.291   1.257  1.00 20.00     0.171 C 
HETATM    4  C4  UNL     1     -34.344   7.776   3.954  1.00 20.00     0.036 C 
HETATM    5  C5  UNL     1     -32.230   5.862   1.592  1.00 20.00     0.094 C 
HETATM    6  C6  UNL     1     -34.973   6.387   4.143  1.00 20.00     0.005 C 
HETATM    7  C7  UNL     1     -34.378   5.496   3.042  1.00 20.00     0.010 C 
HETATM    8  C8  UNL     1     -32.957   6.019   2.917  1.00 20.00     0.023 C 
HETATM    9  O9  UNL     1     -31.128   7.624   0.345  1.00 20.00    -0.291 OA
HETATM   10 CL10 UNL     1     -32.694   9.892   1.837  1.00 20.00    -0.080 Cl
ENDROOT
TORSDOF 0
ENDMDL
MODEL 9
REMARK VINA RESULT:       1.0      1.552      2.035
REMARK  0 active torsions:
REMARK  status: ('A' for Active; 'I' for Inactive)
ROOT
HETATM    1  C1  UNL     1     -32.688   8.050   3.401  1.00 20.00     0.082 C 
HETATM    2  C2  UNL     1     -32.744   7.225   2.360  1.00 20.00    -0.050 C 
HETATM    3  C3  UNL     1     -33.821   7.667   4.263  1.00 20.00     0.171 C 
HETATM    4  C4  UNL     1     -31.740   6.852   1.325  1.00 20.00     0.036 C 
HETATM    5  C5  UNL     1     -34.516   6.432   3.738  1.00 20.00     0.094 C 
HETATM    6  C6  UNL     1     -32.203   5.446   0.912  1.00 20.00     0.005 C 
HETATM    7  C7  UNL     1     -33.207   4.996   1.986  1.00 20.00     0.010 C 
HETATM    8  C8  UNL     1     -33.912   6.291   2.351  1.00 20.00     0.023 C 
HETATM    9  O9  UNL     1     -34.123   8.248   5.295  1.00 20.00    -0.291 OA
HETATM   10 CL10 UNL     1     -31.491   9.143   3.848  1.00 20.00    -0.080 Cl
ENDROOT
TORSDOF 0
ENDMDL
