MODEL 1
REMARK VINA RESULT:      -1.3      0.000      0.000
REMARK  1 active torsions:
REMARK  status: ('A' for Active; 'I' for Inactive)
REMARK    1  A    between atoms: C3_3  and  C8_8 
ROOT
HETATM    1  C1  UNL     1     -33.825   6.283   3.315  1.00 20.00     0.145 C 
HETATM    2  C4  UNL     1     -33.205   5.597   2.116  1.00 20.00     0.080 C 
HETATM    3  C5  UNL     1     -32.844   6.614   1.039  1.00 20.00     0.016 C 
HETATM    4  C6  UNL     1     -32.702   8.450   2.759  1.00 20.00     0.036 C 
HETATM    5  C7  UNL     1     -33.048   7.463   3.871  1.00 20.00     0.152 C 
HETATM    6  C8  UNL     1     -31.978   7.751   1.598  1.00 20.00     0.009 C 
HETATM    7  O9  UNL     1     -34.841   5.828   3.841  1.00 20.00    -0.296 OA
HETATM    8 CL10 UNL     1     -34.001   8.278   5.133  1.00 20.00    -0.117 Cl
ENDROOT
BRANCH   6   9
HETATM    9  C3  UNL     1     -31.635   8.727   0.514  1.00 20.00    -0.032 C 
HETATM   10  C2  UNL     1     -32.374   9.799   0.212  1.00 20.00     0.007 C 
ENDBRANCH   6   9
TORSDOF 1
ENDMDL
MODEL 2
REMARK VINA RESULT:      -1.1      2.181      2.894
REMARK  1 active torsions:
REMARK  status: ('A' for Active; 'I' for Inactive)
REMARK    1  A    between atoms: C3_3  and  C8_8 
ROOT
HETATM    1  C1  UNL     1     -35.002   5.201   4.290  1.00 20.00     0.145 C 
HETATM    2  C4  UNL     1     -35.432   6.563   3.784  1.00 20.00     0.080 C 
HETATM    3  C5  UNL     1     -34.218   7.415   3.432  1.00 20.00     0.016 C 
HETATM    4  C6  UNL     1     -32.816   5.351   3.082  1.00 20.00     0.036 C 
HETATM    5  C7  UNL     1     -34.009   4.459   3.414  1.00 20.00     0.152 C 
HETATM    6  C8  UNL     1     -33.270   6.686   2.471  1.00 20.00     0.009 C 
HETATM    7  O9  UNL     1     -35.520   4.715   5.295  1.00 20.00    -0.296 OA
HETATM    8 CL10 UNL     1     -33.454   2.985   4.241  1.00 20.00    -0.117 Cl
ENDROOT
BRANCH   6   9
HETATM    9  C3  UNL     1     -32.094   7.553   2.140  1.00 20.00    -0.032 C 
HETATM   10  C2  UNL     1     -32.118   8.529   1.227  1.00 20.00     0.007 C 
ENDBRANCH   6   9
TORSDOF 1
ENDMDL
MODEL 3
REMARK VINA RESULT:      -0.5      2.778      4.461
REMARK  1 active torsions:
REMARK  status: ('A' for Active; 'I' for Inactive)
REMARK    1  A    between atoms: C3_3  and  C8_8 
ROOT
HETATM    1  C1  UNL     1     -31.955   7.545   1.705  1.00 20.00     0.145 C 
HETATM    2  C4  UNL     1     -32.393   8.403   2.874  1.00 20.00     0.080 C 
HETATM    3  C5  UNL     1     -33.789   8.009   3.340  1.00 20.00     0.016 C 
HETATM    4  C6  UNL     1     -33.507   5.699   2.374  1.00 20.00     0.036 C 
HETATM    5  C7  UNL     1     -32.098   6.046   1.901  1.00 20.00     0.152 C 
HETATM    6  C8  UNL     1     -33.890   6.504   3.625  1.00 20.00     0.009 C 
HETATM    7  O9  UNL     1     -31.430   8.055   0.716  1.00 20.00    -0.296 OA
HETATM    8 CL10 UNL     1     -31.740   5.198   0.379  1.00 20.00    -0.117 Cl
ENDROOT
BRANCH   6   9
HETATM    9  C3  UNL     1     -35.271   6.152   4.088  1.00 20.00    -0.032 C 
HETATM   10  C2  UNL     1     -35.584   5.007   4.704  1.00 20.00     0.007 C 
ENDBRANCH   6   9
TORSDOF 1
ENDMDL
MODEL 4
REMARK VINA RESULT:      -0.3      2.201      4.152
REMARK  1 active torsions:
REMARK  status: ('A' for Active; 'I' for Inactive)
REMARK    1  A    between atoms: C3_3  and  C8_8 
ROOT
HETATM    1  C1  UNL     1     -32.991   7.040   2.365  1.00 20.00     0.145 C 
HETATM    2  C4  UNL     1     -32.793   5.828   1.479  1.00 20.00     0.080 C 
HETATM    3  C5  UNL     1     -32.654   4.563   2.318  1.00 20.00     0.016 C 
HETATM    4  C6  UNL     1     -33.911   5.635   4.221  1.00 20.00     0.036 C 
HETATM    5  C7  UNL     1     -34.085   6.917   3.411  1.00 20.00     0.152 C 
HETATM    6  C8  UNL     1     -33.818   4.405   3.305  1.00 20.00     0.009 C 
HETATM    7  O9  UNL     1     -32.360   8.076   2.159  1.00 20.00    -0.296 OA
HETATM    8 CL10 UNL     1     -34.053   8.329   4.492  1.00 20.00    -0.117 Cl
ENDROOT
BRANCH   6   9
HETATM    9  C3  UNL     1     -33.656   3.150   4.107  1.00 20.00    -0.032 C 
HETATM   10  C2  UNL     1     -32.881   3.050   5.192  1.00 20.00     0.007 C 
ENDBRANCH   6   9
TORSDOF 1
ENDMDL
MODEL 5
REMARK VINA RESULT:      -0.1      1.812      2.951
REMARK  1 active torsions:
REMARK  status: ('A' for Active; 'I' for Inactive)
REMARK    1  A    between atoms: C3_3  and  C8_8 
ROOT
HETATM    1  C1  UNL     1     -33.830   7.615   3.878  1.00 20.00     0.145 C 
HETATM    2  C4  UNL     1     -32.959   8.424   2.940  1.00 20.00     0.080 C 
HETATM    3  C5  UNL     1     -31.970   7.524   2.210  1.00 20.00     0.016 C 
HETATM    4  C6  UNL     1     -33.474   5.529   2.542  1.00 20.00     0.036 C 
HETATM    5  C7  UNL     1     -34.499   6.397   3.266  1.00 20.00     0.152 C 
HETATM    6  C8  UNL     1     -32.674   6.349   1.517  1.00 20.00     0.009 C 
HETATM    7  O9  UNL     1     -34.040   8.002   5.027  1.00 20.00    -0.296 OA
HETATM    8 CL10 UNL     1     -35.310   5.449   4.535  1.00 20.00    -0.117 Cl
ENDROOT
BRANCH   6   9
HETATM    9  C3  UNL     1     -31.675   5.489   0.804  1.00 20.00    -0.032 C 
HETATM   10  C2  UNL     1     -31.952   4.281   0.301  1.00 20.00     0.007 C 
ENDBRANCH   6   9
TORSDOF 1
ENDMDL
MODEL 6
REMARK VINA RESULT:       0.1      2.179      2.643
REMARK  1 active torsions:
REMARK  status: ('A' for Active; 'I' for Inactive)
REMARK    1  A    between atoms: C3_3  and  C8_8 
ROOT
HETATM    1  C1  UNL     1     -33.373   5.543   2.912  1.00 20.00     0.145 C 
HETATM    2  C4  UNL     1     -34.187   6.716   3.416  1.00 20.00     0.080 C 
HETATM    3  C5  UNL     1     -33.447   8.028   3.180  1.00 20.00     0.016 C 
HETATM    4  C6  UNL     1     -32.127   6.994   1.299  1.00 20.00     0.036 C 
HETATM    5  C7  UNL     1     -32.854   5.666   1.491  1.00 20.00     0.152 C 
HETATM    6  C8  UNL     1     -33.011   8.179   1.717  1.00 20.00     0.009 C 
HETATM    7  O9  UNL     1     -33.245   4.529   3.599  1.00 20.00    -0.296 OA
HETATM    8 CL10 UNL     1     -31.756   4.314   1.127  1.00 20.00    -0.117 Cl
ENDROOT
BRANCH   6   9
HETATM    9  C3  UNL     1     -32.294   9.480   1.518  1.00 20.00    -0.032 C 
HETATM   10  C2  UNL     1     -32.387  10.224   0.410  1.00 20.00     0.007 C 
ENDBRANCH   6   9
TORSDOF 1
ENDMDL
MODEL 7
REMARK VINA RESULT:       0.4      2.110      3.930
REMARK  1 active torsions:
REMARK  status: ('A' for Active; 'I' for Inactive)
REMARK    1  A    between atoms: C3_3  and  C8_8 
ROOT
HETATM    1  C1  UNL     1     -32.173   7.464   1.869  1.00 20.00     0.145 C 
HETATM    2  C4  UNL     1     -32.933   6.384   1.129  1.00 20.00     0.080 C 
HETATM    3  C5  UNL     1     -33.395   5.294   2.089  1.00 20.00     0.016 C 
HETATM    4  C6  UNL     1     -33.313   6.905   4.025  1.00 20.00     0.036 C 
HETATM    5  C7  UNL     1     -32.863   8.030   3.097  1.00 20.00     0.152 C 
HETATM    6  C8  UNL     1     -34.174   5.876   3.277  1.00 20.00     0.009 C 
HETATM    7  O9  UNL     1     -31.113   7.902   1.421  1.00 20.00    -0.296 OA
HETATM    8 CL10 UNL     1     -31.762   9.128   3.961  1.00 20.00    -0.117 Cl
ENDROOT
BRANCH   6   9
HETATM    9  C3  UNL     1     -34.619   4.779   4.196  1.00 20.00    -0.032 C 
HETATM   10  C2  UNL     1     -33.890   3.694   4.474  1.00 20.00     0.007 C 
ENDBRANCH   6   9
TORSDOF 1
ENDMDL
MODEL 8
REMARK VINA RESULT:       0.9      2.602      4.406
REMARK  1 active torsions:
REMARK  status: ('A' for Active; 'I' for Inactive)
REMARK    1  A    between atoms: C3_3  and  C8_8 
ROOT
HETATM    1  C1  UNL     1     -32.876   8.296   2.421  1.00 20.00     0.145 C 
HETATM    2  C4  UNL     1     -33.587   8.162   3.752  1.00 20.00     0.080 C 
HETATM    3  C5  UNL     1     -34.311   6.825   3.845  1.00 20.00     0.016 C 
HETATM    4  C6  UNL     1     -32.752   5.811   2.146  1.00 20.00     0.036 C 
HETATM    5  C7  UNL     1     -31.988   7.128   2.031  1.00 20.00     0.152 C 
HETATM    6  C8  UNL     1     -33.375   5.648   3.540  1.00 20.00     0.009 C 
HETATM    7  O9  UNL     1     -32.957   9.337   1.770  1.00 20.00    -0.296 OA
HETATM    8 CL10 UNL     1     -31.396   7.345   0.367  1.00 20.00    -0.117 Cl
ENDROOT
BRANCH   6   9
HETATM    9  C3  UNL     1     -34.116   4.350   3.648  1.00 20.00    -0.032 C 
HETATM   10  C2  UNL     1     -33.681   3.297   4.349  1.00 20.00     0.007 C 
ENDBRANCH   6   9
TORSDOF 1
ENDMDL
MODEL 9
REMARK VINA RESULT:       1.0      2.469      3.657
REMARK  1 active torsions:
REMARK  status: ('A' for Active; 'I' for Inactive)
REMARK    1  A    between atoms: C3_3  and  C8_8 
ROOT
HETATM    1  C1  UNL     1     -32.506   5.924   1.456  1.00 20.00     0.145 C 
HETATM    2  C4  UNL     1     -33.642   5.242   2.191  1.00 20.00     0.080 C 
HETATM    3  C5  UNL     1     -33.818   5.838   3.583  1.00 20.00     0.016 C 
HETATM    4  C6  UNL     1     -32.739   7.992   2.845  1.00 20.00     0.036 C 
HETATM    5  C7  UNL     1     -32.555   7.441   1.434  1.00 20.00     0.152 C 
HETATM    6  C8  UNL     1     -33.961   7.365   3.534  1.00 20.00     0.009 C 
HETATM    7  O9  UNL     1     -31.670   5.260   0.843  1.00 20.00    -0.296 OA
HETATM    8 CL10 UNL     1     -31.059   8.086   0.719  1.00 20.00    -0.117 Cl
ENDROOT
BRANCH   6   9
HETATM    9  C3  UNL     1     -34.141   7.917   4.915  1.00 20.00    -0.032 C 
HETATM   10  C2  UNL     1     -33.150   8.434   5.649  1.00 20.00     0.007 C 
ENDBRANCH   6   9
TORSDOF 1
ENDMDL
