MODEL 1
REMARK VINA RESULT:       1.1      0.000      0.000
REMARK  0 active torsions:
REMARK  status: ('A' for Active; 'I' for Inactive)
ROOT
HETATM    1  C1  UNL     1     -32.256   8.085   3.287  1.00 20.00    -0.028 C 
HETATM    2  C2  UNL     1     -33.315   7.518   3.889  1.00 20.00     0.003 C 
HETATM    3  C3  UNL     1     -33.314   5.244   3.128  1.00 20.00     0.154 C 
HETATM    4  C4  UNL     1     -31.863   7.722   1.874  1.00 20.00     0.032 C 
HETATM    5  C5  UNL     1     -32.427   5.214   1.896  1.00 20.00     0.085 C 
HETATM    6  C6  UNL     1     -34.194   6.813   1.644  1.00 20.00     0.043 C 
HETATM    7  C7  UNL     1     -32.725   6.590   1.260  1.00 20.00    -0.002 C 
HETATM    8  C8  UNL     1     -34.146   6.510   3.148  1.00 20.00     0.115 C 
HETATM    9  O9  UNL     1     -33.310   4.376   3.990  1.00 20.00    -0.295 OA
HETATM   10 CL10 UNL     1     -35.731   6.245   3.841  1.00 20.00    -0.106 Cl
ENDROOT
TORSDOF 0
ENDMDL
MODEL 2
REMARK VINA RESULT:       1.5      2.441      3.466
REMARK  0 active torsions:
REMARK  status: ('A' for Active; 'I' for Inactive)
ROOT
HETATM    1  C1  UNL     1     -33.044   5.548   2.342  1.00 20.00    -0.028 C 
HETATM    2  C2  UNL     1     -32.487   6.569   1.667  1.00 20.00     0.003 C 
HETATM    3  C3  UNL     1     -32.101   8.262   3.321  1.00 20.00     0.154 C 
HETATM    4  C4  UNL     1     -34.015   5.786   3.475  1.00 20.00     0.032 C 
HETATM    5  C5  UNL     1     -32.964   7.890   4.513  1.00 20.00     0.085 C 
HETATM    6  C6  UNL     1     -34.288   8.096   2.525  1.00 20.00     0.043 C 
HETATM    7  C7  UNL     1     -34.208   7.283   3.825  1.00 20.00    -0.002 C 
HETATM    8  C8  UNL     1     -32.840   7.984   2.028  1.00 20.00     0.115 C 
HETATM    9  O9  UNL     1     -30.959   8.688   3.415  1.00 20.00    -0.295 OA
HETATM   10 CL10 UNL     1     -32.454   9.152   0.783  1.00 20.00    -0.106 Cl
ENDROOT
TORSDOF 0
ENDMDL
MODEL 3
REMARK VINA RESULT:       1.6      2.129      3.430
REMARK  0 active torsions:
REMARK  status: ('A' for Active; 'I' for Inactive)
ROOT
HETATM    1  C1  UNL     1     -33.891   4.443   4.110  1.00 20.00    -0.028 C 
HETATM    2  C2  UNL     1     -33.050   5.021   3.234  1.00 20.00     0.003 C 
HETATM    3  C3  UNL     1     -33.217   7.372   3.678  1.00 20.00     0.154 C 
HETATM    4  C4  UNL     1     -35.204   5.088   4.487  1.00 20.00     0.032 C 
HETATM    5  C5  UNL     1     -34.495   7.559   4.476  1.00 20.00     0.085 C 
HETATM    6  C6  UNL     1     -34.936   6.454   2.395  1.00 20.00     0.043 C 
HETATM    7  C7  UNL     1     -35.416   6.486   3.853  1.00 20.00    -0.002 C 
HETATM    8  C8  UNL     1     -33.419   6.330   2.596  1.00 20.00     0.115 C 
HETATM    9  O9  UNL     1     -32.173   7.961   3.919  1.00 20.00    -0.295 OA
HETATM   10 CL10 UNL     1     -32.507   6.698   1.149  1.00 20.00    -0.106 Cl
ENDROOT
TORSDOF 0
ENDMDL
MODEL 4
REMARK VINA RESULT:       1.8      1.614      2.671
REMARK  0 active torsions:
REMARK  status: ('A' for Active; 'I' for Inactive)
ROOT
HETATM    1  C1  UNL     1     -32.744   6.689   1.531  1.00 20.00    -0.028 C 
HETATM    2  C2  UNL     1     -33.371   5.635   2.081  1.00 20.00     0.003 C 
HETATM    3  C3  UNL     1     -34.984   6.589   3.578  1.00 20.00     0.154 C 
HETATM    4  C4  UNL     1     -32.444   7.935   2.330  1.00 20.00     0.032 C 
HETATM    5  C5  UNL     1     -34.551   8.027   3.800  1.00 20.00     0.085 C 
HETATM    6  C6  UNL     1     -32.789   6.504   4.365  1.00 20.00     0.043 C 
HETATM    7  C7  UNL     1     -33.011   7.902   3.772  1.00 20.00    -0.002 C 
HETATM    8  C8  UNL     1     -33.775   5.677   3.527  1.00 20.00     0.115 C 
HETATM    9  O9  UNL     1     -36.147   6.245   3.424  1.00 20.00    -0.295 OA
HETATM   10 CL10 UNL     1     -34.106   4.104   4.219  1.00 20.00    -0.106 Cl
ENDROOT
TORSDOF 0
ENDMDL
MODEL 5
REMARK VINA RESULT:       2.9      1.908      2.518
REMARK  0 active torsions:
REMARK  status: ('A' for Active; 'I' for Inactive)
ROOT
HETATM    1  C1  UNL     1     -33.868   6.729   3.650  1.00 20.00    -0.028 C 
HETATM    2  C2  UNL     1     -33.928   5.791   2.690  1.00 20.00     0.003 C 
HETATM    3  C3  UNL     1     -31.801   5.903   1.586  1.00 20.00     0.154 C 
HETATM    4  C4  UNL     1     -33.159   8.044   3.427  1.00 20.00     0.032 C 
HETATM    5  C5  UNL     1     -31.195   7.239   1.976  1.00 20.00     0.085 C 
HETATM    6  C6  UNL     1     -33.353   7.534   0.975  1.00 20.00     0.043 C 
HETATM    7  C7  UNL     1     -32.447   8.142   2.054  1.00 20.00    -0.002 C 
HETATM    8  C8  UNL     1     -33.291   6.048   1.353  1.00 20.00     0.115 C 
HETATM    9  O9  UNL     1     -31.163   4.861   1.514  1.00 20.00    -0.295 OA
HETATM   10 CL10 UNL     1     -33.865   4.995   0.078  1.00 20.00    -0.106 Cl
ENDROOT
TORSDOF 0
ENDMDL
MODEL 6
REMARK VINA RESULT:       3.1      2.734      3.380
REMARK  0 active torsions:
REMARK  status: ('A' for Active; 'I' for Inactive)
ROOT
HETATM    1  C1  UNL     1     -34.125   6.991   3.625  1.00 20.00    -0.028 C 
HETATM    2  C2  UNL     1     -33.140   7.900   3.533  1.00 20.00     0.003 C 
HETATM    3  C3  UNL     1     -32.719   8.116   1.182  1.00 20.00     0.154 C 
HETATM    4  C4  UNL     1     -34.194   5.802   2.695  1.00 20.00     0.032 C 
HETATM    5  C5  UNL     1     -33.344   6.896   0.529  1.00 20.00     0.085 C 
HETATM    6  C6  UNL     1     -31.769   6.255   2.219  1.00 20.00     0.043 C 
HETATM    7  C7  UNL     1     -33.100   5.807   1.598  1.00 20.00    -0.002 C 
HETATM    8  C8  UNL     1     -32.066   7.735   2.495  1.00 20.00     0.115 C 
HETATM    9  O9  UNL     1     -32.781   9.245   0.714  1.00 20.00    -0.295 OA
HETATM   10 CL10 UNL     1     -30.623   8.673   2.810  1.00 20.00    -0.106 Cl
ENDROOT
TORSDOF 0
ENDMDL
MODEL 7
REMARK VINA RESULT:       3.4      1.968      2.969
REMARK  0 active torsions:
REMARK  status: ('A' for Active; 'I' for Inactive)
ROOT
HETATM    1  C1  UNL     1     -32.961   8.712   0.248  1.00 20.00    -0.028 C 
HETATM    2  C2  UNL     1     -33.154   7.389   0.382  1.00 20.00     0.003 C 
HETATM    3  C3  UNL     1     -33.268   7.018   2.749  1.00 20.00     0.154 C 
HETATM    4  C4  UNL     1     -32.094   9.486   1.215  1.00 20.00     0.032 C 
HETATM    5  C5  UNL     1     -32.670   8.254   3.396  1.00 20.00     0.085 C 
HETATM    6  C6  UNL     1     -31.125   7.259   1.858  1.00 20.00     0.043 C 
HETATM    7  C7  UNL     1     -31.559   8.631   2.391  1.00 20.00    -0.002 C 
HETATM    8  C8  UNL     1     -32.487   6.646   1.505  1.00 20.00     0.115 C 
HETATM    9  O9  UNL     1     -34.264   6.445   3.168  1.00 20.00    -0.295 OA
HETATM   10 CL10 UNL     1     -32.415   4.914   1.267  1.00 20.00    -0.106 Cl
ENDROOT
TORSDOF 0
ENDMDL
MODEL 8
REMARK VINA RESULT:       3.5      2.263      3.005
REMARK  0 active torsions:
REMARK  status: ('A' for Active; 'I' for Inactive)
ROOT
HETATM    1  C1  UNL     1     -32.382   8.191   2.693  1.00 20.00    -0.028 C 
HETATM    2  C2  UNL     1     -31.954   7.288   1.794  1.00 20.00     0.003 C 
HETATM    3  C3  UNL     1     -33.917   6.058   1.172  1.00 20.00     0.154 C 
HETATM    4  C4  UNL     1     -33.459   7.855   3.698  1.00 20.00     0.032 C 
HETATM    5  C5  UNL     1     -34.948   6.339   2.251  1.00 20.00     0.085 C 
HETATM    6  C6  UNL     1     -32.934   5.450   3.199  1.00 20.00     0.043 C 
HETATM    7  C7  UNL     1     -34.064   6.440   3.514  1.00 20.00    -0.002 C 
HETATM    8  C8  UNL     1     -32.540   5.905   1.786  1.00 20.00     0.115 C 
HETATM    9  O9  UNL     1     -34.178   6.007  -0.021  1.00 20.00    -0.295 OA
HETATM   10 CL10 UNL     1     -31.567   4.725   0.936  1.00 20.00    -0.106 Cl
ENDROOT
TORSDOF 0
ENDMDL
MODEL 9
REMARK VINA RESULT:       3.7      2.082      3.142
REMARK  0 active torsions:
REMARK  status: ('A' for Active; 'I' for Inactive)
ROOT
HETATM    1  C1  UNL     1     -35.791   6.535   3.638  1.00 20.00    -0.028 C 
HETATM    2  C2  UNL     1     -34.866   7.265   2.993  1.00 20.00     0.003 C 
HETATM    3  C3  UNL     1     -33.297   5.661   2.145  1.00 20.00     0.154 C 
HETATM    4  C4  UNL     1     -35.416   5.300   4.424  1.00 20.00     0.032 C 
HETATM    5  C5  UNL     1     -33.543   4.381   2.923  1.00 20.00     0.085 C 
HETATM    6  C6  UNL     1     -33.074   6.208   4.402  1.00 20.00     0.043 C 
HETATM    7  C7  UNL     1     -33.916   4.927   4.319  1.00 20.00    -0.002 C 
HETATM    8  C8  UNL     1     -33.419   6.865   3.058  1.00 20.00     0.115 C 
HETATM    9  O9  UNL     1     -33.072   5.694   0.943  1.00 20.00    -0.295 OA
HETATM   10 CL10 UNL     1     -32.307   8.142   2.618  1.00 20.00    -0.106 Cl
ENDROOT
TORSDOF 0
ENDMDL
