MODEL 1
REMARK VINA RESULT:      -1.0      0.000      0.000
REMARK  3 active torsions:
REMARK  status: ('A' for Active; 'I' for Inactive)
REMARK    1  A    between atoms: C1_1  and  C7_7 
REMARK    2  A    between atoms: C2_2  and  C8_8 
REMARK    3  A    between atoms: C7_7  and  C9_9 
ROOT
HETATM    1  C1  UNL     1     -33.046   7.016   1.669  1.00 20.00     0.062 A 
HETATM    2  C2  UNL     1     -33.043   6.096   2.855  1.00 20.00     0.064 A 
HETATM    3  S10 UNL     1     -32.274   5.490   1.432  1.00 20.00    -0.157 SA
ENDROOT
BRANCH   1   4
HETATM    4  C7  UNL     1     -32.180   8.268   1.666  1.00 20.00     0.020 C 
BRANCH   4   5
HETATM    5  C9  UNL     1     -32.330   9.117   0.392  1.00 20.00    -0.022 C 
HETATM    6  C5  UNL     1     -32.706  10.569   0.700  1.00 20.00     0.009 C 
HETATM    7  C6  UNL     1     -31.028   9.080  -0.413  1.00 20.00     0.009 C 
ENDBRANCH   4   5
ENDBRANCH   1   4
BRANCH   2   8
HETATM    8  C8  UNL     1     -34.305   5.445   3.304  1.00 20.00    -0.008 C 
HETATM    9  C3  UNL     1     -34.032   4.193   4.159  1.00 20.00     0.011 C 
HETATM   10  C4  UNL     1     -35.200   6.414   4.099  1.00 20.00     0.011 C 
ENDBRANCH   2   8
TORSDOF 3
ENDMDL
MODEL 2
REMARK VINA RESULT:      -0.5      2.004      5.575
REMARK  3 active torsions:
REMARK  status: ('A' for Active; 'I' for Inactive)
REMARK    1  A    between atoms: C1_1  and  C7_7 
REMARK    2  A    between atoms: C2_2  and  C8_8 
REMARK    3  A    between atoms: C7_7  and  C9_9 
ROOT
HETATM    1  C1  UNL     1     -34.460   5.167   3.521  1.00 20.00     0.062 A 
HETATM    2  C2  UNL     1     -33.385   6.185   3.272  1.00 20.00     0.064 A 
HETATM    3  S10 UNL     1     -34.904   6.812   3.803  1.00 20.00    -0.157 SA
ENDROOT
BRANCH   1   4
HETATM    4  C7  UNL     1     -34.370   4.231   4.718  1.00 20.00     0.020 C 
BRANCH   4   5
HETATM    5  C9  UNL     1     -33.074   3.403   4.756  1.00 20.00    -0.022 C 
HETATM    6  C5  UNL     1     -32.416   3.413   6.138  1.00 20.00     0.009 C 
HETATM    7  C6  UNL     1     -33.366   1.962   4.333  1.00 20.00     0.009 C 
ENDBRANCH   4   5
ENDBRANCH   1   4
BRANCH   2   8
HETATM    8  C8  UNL     1     -32.945   6.490   1.882  1.00 20.00    -0.008 C 
HETATM    9  C3  UNL     1     -32.019   7.719   1.830  1.00 20.00     0.011 C 
HETATM   10  C4  UNL     1     -32.230   5.291   1.231  1.00 20.00     0.011 C 
ENDBRANCH   2   8
TORSDOF 3
ENDMDL
MODEL 3
REMARK VINA RESULT:      -0.4      1.321      4.979
REMARK  3 active torsions:
REMARK  status: ('A' for Active; 'I' for Inactive)
REMARK    1  A    between atoms: C1_1  and  C7_7 
REMARK    2  A    between atoms: C2_2  and  C8_8 
REMARK    3  A    between atoms: C7_7  and  C9_9 
ROOT
HETATM    1  C1  UNL     1     -32.807   7.847   2.151  1.00 20.00     0.062 A 
HETATM    2  C2  UNL     1     -31.814   8.315   1.128  1.00 20.00     0.064 A 
HETATM    3  S10 UNL     1     -31.283   8.372   2.770  1.00 20.00    -0.157 SA
ENDROOT
BRANCH   1   4
HETATM    4  C7  UNL     1     -33.157   6.369   2.262  1.00 20.00     0.020 C 
BRANCH   4   5
HETATM    5  C9  UNL     1     -34.341   6.086   3.202  1.00 20.00    -0.022 C 
HETATM    6  C5  UNL     1     -34.192   4.756   3.944  1.00 20.00     0.009 C 
HETATM    7  C6  UNL     1     -34.487   7.227   4.211  1.00 20.00     0.009 C 
ENDBRANCH   4   5
ENDBRANCH   1   4
BRANCH   2   8
HETATM    8  C8  UNL     1     -32.024   9.604   0.410  1.00 20.00    -0.008 C 
HETATM    9  C3  UNL     1     -32.671   9.393  -0.971  1.00 20.00     0.011 C 
HETATM   10  C4  UNL     1     -32.888  10.582   1.229  1.00 20.00     0.011 C 
ENDBRANCH   2   8
TORSDOF 3
ENDMDL
MODEL 4
REMARK VINA RESULT:      -0.2      1.167      5.205
REMARK  3 active torsions:
REMARK  status: ('A' for Active; 'I' for Inactive)
REMARK    1  A    between atoms: C1_1  and  C7_7 
REMARK    2  A    between atoms: C2_2  and  C8_8 
REMARK    3  A    between atoms: C7_7  and  C9_9 
ROOT
HETATM    1  C1  UNL     1     -33.105   7.517   2.243  1.00 20.00     0.062 A 
HETATM    2  C2  UNL     1     -32.102   8.162   1.330  1.00 20.00     0.064 A 
HETATM    3  S10 UNL     1     -31.961   8.564   3.004  1.00 20.00    -0.157 SA
ENDROOT
BRANCH   1   4
HETATM    4  C7  UNL     1     -33.024   6.026   2.543  1.00 20.00     0.020 C 
BRANCH   4   5
HETATM    5  C9  UNL     1     -34.289   5.464   3.214  1.00 20.00    -0.022 C 
HETATM    6  C5  UNL     1     -33.990   4.250   4.096  1.00 20.00     0.009 C 
HETATM    7  C6  UNL     1     -34.963   6.556   4.048  1.00 20.00     0.009 C 
ENDBRANCH   4   5
ENDBRANCH   1   4
BRANCH   2   8
HETATM    8  C8  UNL     1     -32.526   9.229   0.382  1.00 20.00    -0.008 C 
HETATM    9  C3  UNL     1     -32.695  10.588   1.087  1.00 20.00     0.011 C 
HETATM   10  C4  UNL     1     -31.536   9.385  -0.787  1.00 20.00     0.011 C 
ENDBRANCH   2   8
TORSDOF 3
ENDMDL
MODEL 5
REMARK VINA RESULT:      -0.2      1.014      4.656
REMARK  3 active torsions:
REMARK  status: ('A' for Active; 'I' for Inactive)
REMARK    1  A    between atoms: C1_1  and  C7_7 
REMARK    2  A    between atoms: C2_2  and  C8_8 
REMARK    3  A    between atoms: C7_7  and  C9_9 
ROOT
HETATM    1  C1  UNL     1     -32.881   6.318   2.345  1.00 20.00     0.062 A 
HETATM    2  C2  UNL     1     -32.602   7.132   1.115  1.00 20.00     0.064 A 
HETATM    3  S10 UNL     1     -31.839   5.584   1.180  1.00 20.00    -0.157 SA
ENDROOT
BRANCH   1   4
HETATM    4  C7  UNL     1     -34.258   5.706   2.564  1.00 20.00     0.020 C 
BRANCH   4   5
HETATM    5  C9  UNL     1     -35.037   6.344   3.727  1.00 20.00    -0.022 C 
HETATM    6  C5  UNL     1     -35.447   5.319   4.787  1.00 20.00     0.009 C 
HETATM    7  C6  UNL     1     -34.196   7.448   4.372  1.00 20.00     0.009 C 
ENDBRANCH   4   5
ENDBRANCH   1   4
BRANCH   2   8
HETATM    8  C8  UNL     1     -31.741   8.345   1.196  1.00 20.00    -0.008 C 
HETATM    9  C3  UNL     1     -32.392   9.557   0.505  1.00 20.00     0.011 C 
HETATM   10  C4  UNL     1     -31.404   8.714   2.653  1.00 20.00     0.011 C 
ENDBRANCH   2   8
TORSDOF 3
ENDMDL
MODEL 6
REMARK VINA RESULT:       0.4      2.270      4.221
REMARK  3 active torsions:
REMARK  status: ('A' for Active; 'I' for Inactive)
REMARK    1  A    between atoms: C1_1  and  C7_7 
REMARK    2  A    between atoms: C2_2  and  C8_8 
REMARK    3  A    between atoms: C7_7  and  C9_9 
ROOT
HETATM    1  C1  UNL     1     -33.368   7.236   2.365  1.00 20.00     0.062 A 
HETATM    2  C2  UNL     1     -32.177   6.399   2.001  1.00 20.00     0.064 A 
HETATM    3  S10 UNL     1     -31.961   8.107   1.869  1.00 20.00    -0.157 SA
ENDROOT
BRANCH   1   4
HETATM    4  C7  UNL     1     -33.810   7.353   3.817  1.00 20.00     0.020 C 
BRANCH   4   5
HETATM    5  C9  UNL     1     -35.008   6.454   4.170  1.00 20.00    -0.022 C 
HETATM    6  C5  UNL     1     -36.173   6.625   3.192  1.00 20.00     0.009 C 
HETATM    7  C6  UNL     1     -34.567   4.989   4.197  1.00 20.00     0.009 C 
ENDBRANCH   4   5
ENDBRANCH   1   4
BRANCH   2   8
HETATM    8  C8  UNL     1     -32.180   5.590   0.750  1.00 20.00    -0.008 C 
HETATM    9  C3  UNL     1     -31.254   4.364   0.856  1.00 20.00     0.011 C 
HETATM   10  C4  UNL     1     -33.598   5.122   0.372  1.00 20.00     0.011 C 
ENDBRANCH   2   8
TORSDOF 3
ENDMDL
MODEL 7
REMARK VINA RESULT:       0.4      1.514      1.560
REMARK  3 active torsions:
REMARK  status: ('A' for Active; 'I' for Inactive)
REMARK    1  A    between atoms: C1_1  and  C7_7 
REMARK    2  A    between atoms: C2_2  and  C8_8 
REMARK    3  A    between atoms: C7_7  and  C9_9 
ROOT
HETATM    1  C1  UNL     1     -32.167   7.593   2.448  1.00 20.00     0.062 A 
HETATM    2  C2  UNL     1     -33.639   7.578   2.743  1.00 20.00     0.064 A 
HETATM    3  S10 UNL     1     -32.626   8.171   4.010  1.00 20.00    -0.157 SA
ENDROOT
BRANCH   1   4
HETATM    4  C7  UNL     1     -31.593   8.592   1.453  1.00 20.00     0.020 C 
BRANCH   4   5
HETATM    5  C9  UNL     1     -32.667   9.342   0.646  1.00 20.00    -0.022 C 
HETATM    6  C5  UNL     1     -32.764  10.819   1.035  1.00 20.00     0.009 C 
HETATM    7  C6  UNL     1     -32.371   9.221  -0.851  1.00 20.00     0.009 C 
ENDBRANCH   4   5
ENDBRANCH   1   4
BRANCH   2   8
HETATM    8  C8  UNL     1     -34.349   6.286   2.956  1.00 20.00    -0.008 C 
HETATM    9  C3  UNL     1     -33.367   5.113   3.131  1.00 20.00     0.011 C 
HETATM   10  C4  UNL     1     -35.291   6.343   4.173  1.00 20.00     0.011 C 
ENDBRANCH   2   8
TORSDOF 3
ENDMDL
MODEL 8
REMARK VINA RESULT:       0.4      1.537      1.941
REMARK  3 active torsions:
REMARK  status: ('A' for Active; 'I' for Inactive)
REMARK    1  A    between atoms: C1_1  and  C7_7 
REMARK    2  A    between atoms: C2_2  and  C8_8 
REMARK    3  A    between atoms: C7_7  and  C9_9 
ROOT
HETATM    1  C1  UNL     1     -32.415   7.739   2.699  1.00 20.00     0.062 A 
HETATM    2  C2  UNL     1     -33.571   6.925   2.196  1.00 20.00     0.064 A 
HETATM    3  S10 UNL     1     -33.737   7.556   3.795  1.00 20.00    -0.157 SA
ENDROOT
BRANCH   1   4
HETATM    4  C7  UNL     1     -32.142   9.122   2.126  1.00 20.00     0.020 C 
BRANCH   4   5
HETATM    5  C9  UNL     1     -32.405   9.225   0.614  1.00 20.00    -0.022 C 
HETATM    6  C5  UNL     1     -32.719  10.656   0.172  1.00 20.00     0.009 C 
HETATM    7  C6  UNL     1     -31.195   8.699  -0.161  1.00 20.00     0.009 C 
ENDBRANCH   4   5
ENDBRANCH   1   4
BRANCH   2   8
HETATM    8  C8  UNL     1     -33.439   5.450   2.032  1.00 20.00    -0.008 C 
HETATM    9  C3  UNL     1     -32.104   5.065   1.367  1.00 20.00     0.011 C 
HETATM   10  C4  UNL     1     -33.566   4.709   3.376  1.00 20.00     0.011 C 
ENDBRANCH   2   8
TORSDOF 3
ENDMDL
MODEL 9
REMARK VINA RESULT:       0.5      0.992      5.009
REMARK  3 active torsions:
REMARK  status: ('A' for Active; 'I' for Inactive)
REMARK    1  A    between atoms: C1_1  and  C7_7 
REMARK    2  A    between atoms: C2_2  and  C8_8 
REMARK    3  A    between atoms: C7_7  and  C9_9 
ROOT
HETATM    1  C1  UNL     1     -32.626   5.736   2.303  1.00 20.00     0.062 A 
HETATM    2  C2  UNL     1     -32.685   6.864   1.314  1.00 20.00     0.064 A 
HETATM    3  S10 UNL     1     -31.917   5.419   0.760  1.00 20.00    -0.157 SA
ENDROOT
BRANCH   1   4
HETATM    4  C7  UNL     1     -33.892   4.979   2.681  1.00 20.00     0.020 C 
BRANCH   4   5
HETATM    5  C9  UNL     1     -34.025   4.719   4.191  1.00 20.00    -0.022 C 
HETATM    6  C5  UNL     1     -35.433   5.018   4.713  1.00 20.00     0.009 C 
HETATM    7  C6  UNL     1     -33.656   3.267   4.503  1.00 20.00     0.009 C 
ENDBRANCH   4   5
ENDBRANCH   1   4
BRANCH   2   8
HETATM    8  C8  UNL     1     -31.845   8.078   1.507  1.00 20.00    -0.008 C 
HETATM    9  C3  UNL     1     -32.324   9.253   0.634  1.00 20.00     0.011 C 
HETATM   10  C4  UNL     1     -31.811   8.525   2.981  1.00 20.00     0.011 C 
ENDBRANCH   2   8
TORSDOF 3
ENDMDL
