MODEL 1
REMARK VINA RESULT:      -2.5      0.000      0.000
REMARK  4 active torsions:
REMARK  status: ('A' for Active; 'I' for Inactive)
REMARK    1  A    between atoms: C3_3  and  C4_4 
REMARK    2  A    between atoms: C4_4  and  C5_5 
REMARK    3  A    between atoms: C5_5  and  C6_6 
REMARK    4  A    between atoms: C6_6  and  C7_7 
ROOT
HETATM    1  C1  UNL     1     -32.316   9.053   0.819  1.00 20.00     0.087 C 
HETATM    2  C2  UNL     1     -32.355   8.061   1.835  1.00 20.00     0.089 C 
HETATM    3  C3  UNL     1     -33.411   7.930   2.650  1.00 20.00    -0.016 C 
HETATM    4  N8  UNL     1     -32.281   9.862  -0.011  1.00 20.00    -0.192 NA
ENDROOT
BRANCH   3   5
HETATM    5  C4  UNL     1     -33.495   6.902   3.742  1.00 20.00     0.028 C 
BRANCH   5   6
HETATM    6  C5  UNL     1     -34.939   6.444   3.961  1.00 20.00     0.005 C 
BRANCH   6   7
HETATM    7  C6  UNL     1     -34.995   4.965   4.359  1.00 20.00     0.015 C 
BRANCH   7   8
HETATM    8  C7  UNL     1     -33.851   4.140   3.779  1.00 20.00     0.114 C 
HETATM    9 CL9  UNL     1     -33.178   3.000   4.967  1.00 20.00    -0.130 Cl
ENDBRANCH   7   8
ENDBRANCH   6   7
ENDBRANCH   5   6
ENDBRANCH   3   5
TORSDOF 4
ENDMDL
MODEL 2
REMARK VINA RESULT:      -2.3      4.036      5.396
REMARK  4 active torsions:
REMARK  status: ('A' for Active; 'I' for Inactive)
REMARK    1  A    between atoms: C3_3  and  C4_4 
REMARK    2  A    between atoms: C4_4  and  C5_5 
REMARK    3  A    between atoms: C5_5  and  C6_6 
REMARK    4  A    between atoms: C6_6  and  C7_7 
ROOT
HETATM    1  C1  UNL     1     -33.499   3.138   4.369  1.00 20.00     0.087 C 
HETATM    2  C2  UNL     1     -33.837   4.383   3.776  1.00 20.00     0.089 C 
HETATM    3  C3  UNL     1     -34.691   5.233   4.364  1.00 20.00    -0.016 C 
HETATM    4  N8  UNL     1     -33.221   2.119   4.851  1.00 20.00    -0.192 NA
ENDROOT
BRANCH   3   5
HETATM    5  C4  UNL     1     -35.084   6.557   3.773  1.00 20.00     0.028 C 
BRANCH   5   6
HETATM    6  C5  UNL     1     -33.861   7.450   3.552  1.00 20.00     0.005 C 
BRANCH   6   7
HETATM    7  C6  UNL     1     -33.159   7.107   2.234  1.00 20.00     0.015 C 
BRANCH   7   8
HETATM    8  C7  UNL     1     -31.971   8.014   1.928  1.00 20.00     0.114 C 
HETATM    9 CL9  UNL     1     -32.379   9.272   0.739  1.00 20.00    -0.130 Cl
ENDBRANCH   7   8
ENDBRANCH   6   7
ENDBRANCH   5   6
ENDBRANCH   3   5
TORSDOF 4
ENDMDL
MODEL 3
REMARK VINA RESULT:      -2.2      1.399      2.040
REMARK  4 active torsions:
REMARK  status: ('A' for Active; 'I' for Inactive)
REMARK    1  A    between atoms: C3_3  and  C4_4 
REMARK    2  A    between atoms: C4_4  and  C5_5 
REMARK    3  A    between atoms: C5_5  and  C6_6 
REMARK    4  A    between atoms: C6_6  and  C7_7 
ROOT
HETATM    1  C1  UNL     1     -32.396   9.968   0.397  1.00 20.00     0.087 C 
HETATM    2  C2  UNL     1     -32.367   8.552   0.497  1.00 20.00     0.089 C 
HETATM    3  C3  UNL     1     -32.030   7.934   1.638  1.00 20.00    -0.016 C 
HETATM    4  N8  UNL     1     -32.421  11.125   0.312  1.00 20.00    -0.192 NA
ENDROOT
BRANCH   3   5
HETATM    5  C4  UNL     1     -31.978   6.441   1.791  1.00 20.00     0.028 C 
BRANCH   5   6
HETATM    6  C5  UNL     1     -33.310   5.890   2.306  1.00 20.00     0.005 C 
BRANCH   6   7
HETATM    7  C6  UNL     1     -33.964   6.861   3.295  1.00 20.00     0.015 C 
BRANCH   7   8
HETATM    8  C7  UNL     1     -35.167   6.267   4.019  1.00 20.00     0.114 C 
HETATM    9 CL9  UNL     1     -34.889   4.579   4.507  1.00 20.00    -0.130 Cl
ENDBRANCH   7   8
ENDBRANCH   6   7
ENDBRANCH   5   6
ENDBRANCH   3   5
TORSDOF 4
ENDMDL
MODEL 4
REMARK VINA RESULT:      -1.9      4.017      5.670
REMARK  4 active torsions:
REMARK  status: ('A' for Active; 'I' for Inactive)
REMARK    1  A    between atoms: C3_3  and  C4_4 
REMARK    2  A    between atoms: C4_4  and  C5_5 
REMARK    3  A    between atoms: C5_5  and  C6_6 
REMARK    4  A    between atoms: C6_6  and  C7_7 
ROOT
HETATM    1  C1  UNL     1     -34.796   5.851   3.920  1.00 20.00     0.087 C 
HETATM    2  C2  UNL     1     -33.803   6.517   3.152  1.00 20.00     0.089 C 
HETATM    3  C3  UNL     1     -33.114   5.883   2.193  1.00 20.00    -0.016 C 
HETATM    4  N8  UNL     1     -35.607   5.310   4.549  1.00 20.00    -0.192 NA
ENDROOT
BRANCH   3   5
HETATM    5  C4  UNL     1     -32.052   6.542   1.361  1.00 20.00     0.028 C 
BRANCH   5   6
HETATM    6  C5  UNL     1     -32.029   8.055   1.588  1.00 20.00     0.005 C 
BRANCH   6   7
HETATM    7  C6  UNL     1     -31.530   8.793   0.342  1.00 20.00     0.015 C 
BRANCH   7   8
HETATM    8  C7  UNL     1     -32.515   9.834  -0.179  1.00 20.00     0.114 C 
HETATM    9 CL9  UNL     1     -32.756  11.165   0.975  1.00 20.00    -0.130 Cl
ENDBRANCH   7   8
ENDBRANCH   6   7
ENDBRANCH   5   6
ENDBRANCH   3   5
TORSDOF 4
ENDMDL
MODEL 5
REMARK VINA RESULT:      -1.8      2.058      2.433
REMARK  4 active torsions:
REMARK  status: ('A' for Active; 'I' for Inactive)
REMARK    1  A    between atoms: C3_3  and  C4_4 
REMARK    2  A    between atoms: C4_4  and  C5_5 
REMARK    3  A    between atoms: C5_5  and  C6_6 
REMARK    4  A    between atoms: C6_6  and  C7_7 
ROOT
HETATM    1  C1  UNL     1     -32.333   9.681   0.611  1.00 20.00     0.087 C 
HETATM    2  C2  UNL     1     -32.328   8.537   1.452  1.00 20.00     0.089 C 
HETATM    3  C3  UNL     1     -31.998   7.324   0.989  1.00 20.00    -0.016 C 
HETATM    4  N8  UNL     1     -32.339  10.617  -0.075  1.00 20.00    -0.192 NA
ENDROOT
BRANCH   3   5
HETATM    5  C4  UNL     1     -31.984   6.085   1.838  1.00 20.00     0.028 C 
BRANCH   5   6
HETATM    6  C5  UNL     1     -33.377   5.456   1.923  1.00 20.00     0.005 C 
BRANCH   6   7
HETATM    7  C6  UNL     1     -33.818   5.286   3.380  1.00 20.00     0.015 C 
BRANCH   7   8
HETATM    8  C7  UNL     1     -34.823   6.339   3.834  1.00 20.00     0.114 C 
HETATM    9 CL9  UNL     1     -34.027   7.830   4.388  1.00 20.00    -0.130 Cl
ENDBRANCH   7   8
ENDBRANCH   6   7
ENDBRANCH   5   6
ENDBRANCH   3   5
TORSDOF 4
ENDMDL
MODEL 6
REMARK VINA RESULT:      -1.7      4.049      5.520
REMARK  4 active torsions:
REMARK  status: ('A' for Active; 'I' for Inactive)
REMARK    1  A    between atoms: C3_3  and  C4_4 
REMARK    2  A    between atoms: C4_4  and  C5_5 
REMARK    3  A    between atoms: C5_5  and  C6_6 
REMARK    4  A    between atoms: C6_6  and  C7_7 
ROOT
HETATM    1  C1  UNL     1     -33.850   3.638   4.384  1.00 20.00     0.087 C 
HETATM    2  C2  UNL     1     -34.389   4.934   4.166  1.00 20.00     0.089 C 
HETATM    3  C3  UNL     1     -33.669   5.908   3.592  1.00 20.00    -0.016 C 
HETATM    4  N8  UNL     1     -33.412   2.579   4.565  1.00 20.00    -0.192 NA
ENDROOT
BRANCH   3   5
HETATM    5  C4  UNL     1     -34.193   7.294   3.347  1.00 20.00     0.028 C 
BRANCH   5   6
HETATM    6  C5  UNL     1     -33.075   8.239   2.900  1.00 20.00     0.005 C 
BRANCH   6   7
HETATM    7  C6  UNL     1     -32.171   7.570   1.858  1.00 20.00     0.015 C 
BRANCH   7   8
HETATM    8  C7  UNL     1     -31.660   8.535   0.793  1.00 20.00     0.114 C 
HETATM    9 CL9  UNL     1     -32.685   9.982   0.653  1.00 20.00    -0.130 Cl
ENDBRANCH   7   8
ENDBRANCH   6   7
ENDBRANCH   5   6
ENDBRANCH   3   5
TORSDOF 4
ENDMDL
MODEL 7
REMARK VINA RESULT:      -1.0      2.411      2.742
REMARK  4 active torsions:
REMARK  status: ('A' for Active; 'I' for Inactive)
REMARK    1  A    between atoms: C3_3  and  C4_4 
REMARK    2  A    between atoms: C4_4  and  C5_5 
REMARK    3  A    between atoms: C5_5  and  C6_6 
REMARK    4  A    between atoms: C6_6  and  C7_7 
ROOT
HETATM    1  C1  UNL     1     -32.039   5.030   0.804  1.00 20.00     0.087 C 
HETATM    2  C2  UNL     1     -32.925   5.946   1.431  1.00 20.00     0.089 C 
HETATM    3  C3  UNL     1     -32.476   6.929   2.224  1.00 20.00    -0.016 C 
HETATM    4  N8  UNL     1     -31.317   4.280   0.292  1.00 20.00    -0.192 NA
ENDROOT
BRANCH   3   5
HETATM    5  C4  UNL     1     -33.374   7.916   2.913  1.00 20.00     0.028 C 
BRANCH   5   6
HETATM    6  C5  UNL     1     -34.017   7.305   4.161  1.00 20.00     0.005 C 
BRANCH   6   7
HETATM    7  C6  UNL     1     -35.242   6.461   3.794  1.00 20.00     0.015 C 
BRANCH   7   8
HETATM    8  C7  UNL     1     -35.329   5.152   4.571  1.00 20.00     0.114 C 
HETATM    9 CL9  UNL     1     -33.994   4.046   4.172  1.00 20.00    -0.130 Cl
ENDBRANCH   7   8
ENDBRANCH   6   7
ENDBRANCH   5   6
ENDBRANCH   3   5
TORSDOF 4
ENDMDL
MODEL 8
REMARK VINA RESULT:      -0.7      1.652      1.851
REMARK  4 active torsions:
REMARK  status: ('A' for Active; 'I' for Inactive)
REMARK    1  A    between atoms: C3_3  and  C4_4 
REMARK    2  A    between atoms: C4_4  and  C5_5 
REMARK    3  A    between atoms: C5_5  and  C6_6 
REMARK    4  A    between atoms: C6_6  and  C7_7 
ROOT
HETATM    1  C1  UNL     1     -32.532   9.777   0.021  1.00 20.00     0.087 C 
HETATM    2  C2  UNL     1     -32.322   9.427   1.381  1.00 20.00     0.089 C 
HETATM    3  C3  UNL     1     -32.706   8.238   1.869  1.00 20.00    -0.016 C 
HETATM    4  N8  UNL     1     -32.703  10.066  -1.090  1.00 20.00    -0.192 NA
ENDROOT
BRANCH   3   5
HETATM    5  C4  UNL     1     -32.511   7.826   3.300  1.00 20.00     0.028 C 
BRANCH   5   6
HETATM    6  C5  UNL     1     -33.854   7.668   4.018  1.00 20.00     0.005 C 
BRANCH   6   7
HETATM    7  C6  UNL     1     -34.572   6.391   3.571  1.00 20.00     0.015 C 
BRANCH   7   8
HETATM    8  C7  UNL     1     -33.625   5.225   3.306  1.00 20.00     0.114 C 
HETATM    9 CL9  UNL     1     -33.076   5.179   1.615  1.00 20.00    -0.130 Cl
ENDBRANCH   7   8
ENDBRANCH   6   7
ENDBRANCH   5   6
ENDBRANCH   3   5
TORSDOF 4
ENDMDL
MODEL 9
REMARK VINA RESULT:      -0.7      3.623      5.127
REMARK  4 active torsions:
REMARK  status: ('A' for Active; 'I' for Inactive)
REMARK    1  A    between atoms: C3_3  and  C4_4 
REMARK    2  A    between atoms: C4_4  and  C5_5 
REMARK    3  A    between atoms: C5_5  and  C6_6 
REMARK    4  A    between atoms: C6_6  and  C7_7 
ROOT
HETATM    1  C1  UNL     1     -33.473   3.534   4.268  1.00 20.00     0.087 C 
HETATM    2  C2  UNL     1     -33.696   4.600   3.357  1.00 20.00     0.089 C 
HETATM    3  C3  UNL     1     -32.829   4.878   2.374  1.00 20.00    -0.016 C 
HETATM    4  N8  UNL     1     -33.293   2.665   5.015  1.00 20.00    -0.192 NA
ENDROOT
BRANCH   3   5
HETATM    5  C4  UNL     1     -33.018   5.997   1.391  1.00 20.00     0.028 C 
BRANCH   5   6
HETATM    6  C5  UNL     1     -31.882   7.018   1.487  1.00 20.00     0.005 C 
BRANCH   6   7
HETATM    7  C6  UNL     1     -32.364   8.323   2.129  1.00 20.00     0.015 C 
BRANCH   7   8
HETATM    8  C7  UNL     1     -32.483   8.241   3.647  1.00 20.00     0.114 C 
HETATM    9 CL9  UNL     1     -34.129   7.817   4.168  1.00 20.00    -0.130 Cl
ENDBRANCH   7   8
ENDBRANCH   6   7
ENDBRANCH   5   6
ENDBRANCH   3   5
TORSDOF 4
ENDMDL
