MODEL 1
REMARK VINA RESULT:      -2.3      0.000      0.000
REMARK  1 active torsions:
REMARK  status: ('A' for Active; 'I' for Inactive)
REMARK    1  A    between atoms: C2_2  and  C3_3 
ROOT
HETATM    1  C1  UNL     1     -33.581   8.078   3.403  1.00 20.00    -0.016 C 
HETATM    2  C2  UNL     1     -32.813   7.505   2.470  1.00 20.00    -0.020 C 
HETATM    3  C4  UNL     1     -34.370   7.056   4.152  1.00 20.00     0.032 C 
HETATM    4  C5  UNL     1     -32.957   6.015   2.433  1.00 20.00     0.021 C 
HETATM    5  C6  UNL     1     -34.259   5.819   3.246  1.00 20.00    -0.007 C 
HETATM    6  C7  UNL     1     -33.075   5.424   1.033  1.00 20.00     0.015 C 
HETATM    7  C8  UNL     1     -34.285   4.515   4.031  1.00 20.00     0.011 C 
ENDROOT
BRANCH   2   8
HETATM    8  C3  UNL     1     -31.904   8.282   1.643  1.00 20.00     0.265 C 
HETATM    9  O9  UNL     1     -32.290   9.092   0.801  1.00 20.00    -0.302 OA
ENDBRANCH   2   8
TORSDOF 1
ENDMDL
MODEL 2
REMARK VINA RESULT:      -2.2      0.844      2.158
REMARK  1 active torsions:
REMARK  status: ('A' for Active; 'I' for Inactive)
REMARK    1  A    between atoms: C2_2  and  C3_3 
ROOT
HETATM    1  C1  UNL     1     -32.740   6.148   1.663  1.00 20.00    -0.016 C 
HETATM    2  C2  UNL     1     -32.704   7.375   2.192  1.00 20.00    -0.020 C 
HETATM    3  C4  UNL     1     -33.742   5.290   2.361  1.00 20.00     0.032 C 
HETATM    4  C5  UNL     1     -33.665   7.547   3.327  1.00 20.00     0.021 C 
HETATM    5  C6  UNL     1     -34.007   6.074   3.656  1.00 20.00    -0.007 C 
HETATM    6  C7  UNL     1     -33.092   8.275   4.538  1.00 20.00     0.015 C 
HETATM    7  C8  UNL     1     -35.429   5.890   4.171  1.00 20.00     0.011 C 
ENDROOT
BRANCH   2   8
HETATM    8  C3  UNL     1     -31.850   8.419   1.650  1.00 20.00     0.265 C 
HETATM    9  O9  UNL     1     -32.213   9.189   0.761  1.00 20.00    -0.302 OA
ENDBRANCH   2   8
TORSDOF 1
ENDMDL
MODEL 3
REMARK VINA RESULT:      -2.0      2.296      3.512
REMARK  1 active torsions:
REMARK  status: ('A' for Active; 'I' for Inactive)
REMARK    1  A    between atoms: C2_2  and  C3_3 
ROOT
HETATM    1  C1  UNL     1     -33.807   7.709   4.387  1.00 20.00    -0.016 C 
HETATM    2  C2  UNL     1     -34.243   6.739   3.578  1.00 20.00    -0.020 C 
HETATM    3  C4  UNL     1     -32.754   8.532   3.721  1.00 20.00     0.032 C 
HETATM    4  C5  UNL     1     -33.563   6.743   2.244  1.00 20.00     0.021 C 
HETATM    5  C6  UNL     1     -32.340   7.647   2.534  1.00 20.00    -0.007 C 
HETATM    6  C7  UNL     1     -33.138   5.367   1.745  1.00 20.00     0.015 C 
HETATM    7  C8  UNL     1     -31.895   8.459   1.326  1.00 20.00     0.011 C 
ENDROOT
BRANCH   2   8
HETATM    8  C3  UNL     1     -35.312   5.836   3.972  1.00 20.00     0.265 C 
HETATM    9  O9  UNL     1     -35.106   4.727   4.466  1.00 20.00    -0.302 OA
ENDBRANCH   2   8
TORSDOF 1
ENDMDL
MODEL 4
REMARK VINA RESULT:      -1.6      2.443      4.132
REMARK  1 active torsions:
REMARK  status: ('A' for Active; 'I' for Inactive)
REMARK    1  A    between atoms: C2_2  and  C3_3 
ROOT
HETATM    1  C1  UNL     1     -33.224   4.895   2.011  1.00 20.00    -0.016 C 
HETATM    2  C2  UNL     1     -33.660   5.344   3.191  1.00 20.00    -0.020 C 
HETATM    3  C4  UNL     1     -32.515   5.969   1.255  1.00 20.00     0.032 C 
HETATM    4  C5  UNL     1     -33.324   6.784   3.426  1.00 20.00     0.021 C 
HETATM    5  C6  UNL     1     -32.954   7.243   1.996  1.00 20.00    -0.007 C 
HETATM    6  C7  UNL     1     -34.464   7.615   4.005  1.00 20.00     0.015 C 
HETATM    7  C8  UNL     1     -31.888   8.330   1.971  1.00 20.00     0.011 C 
ENDROOT
BRANCH   2   8
HETATM    8  C3  UNL     1     -34.332   4.473   4.142  1.00 20.00     0.265 C 
HETATM    9  O9  UNL     1     -33.889   3.374   4.475  1.00 20.00    -0.302 OA
ENDBRANCH   2   8
TORSDOF 1
ENDMDL
MODEL 5
REMARK VINA RESULT:      -1.6      2.292      3.550
REMARK  1 active torsions:
REMARK  status: ('A' for Active; 'I' for Inactive)
REMARK    1  A    between atoms: C2_2  and  C3_3 
ROOT
HETATM    1  C1  UNL     1     -34.116   6.853   3.985  1.00 20.00    -0.016 C 
HETATM    2  C2  UNL     1     -33.836   5.814   3.193  1.00 20.00    -0.020 C 
HETATM    3  C4  UNL     1     -33.553   8.120   3.430  1.00 20.00     0.032 C 
HETATM    4  C5  UNL     1     -33.041   6.201   1.984  1.00 20.00     0.021 C 
HETATM    5  C6  UNL     1     -32.542   7.608   2.392  1.00 20.00    -0.007 C 
HETATM    6  C7  UNL     1     -31.882   5.265   1.661  1.00 20.00     0.015 C 
HETATM    7  C8  UNL     1     -32.387   8.555   1.210  1.00 20.00     0.011 C 
ENDROOT
BRANCH   2   8
HETATM    8  C3  UNL     1     -34.325   4.476   3.483  1.00 20.00     0.265 C 
HETATM    9  O9  UNL     1     -33.983   3.838   4.478  1.00 20.00    -0.302 OA
ENDBRANCH   2   8
TORSDOF 1
ENDMDL
MODEL 6
REMARK VINA RESULT:      -1.1      1.784      3.006
REMARK  1 active torsions:
REMARK  status: ('A' for Active; 'I' for Inactive)
REMARK    1  A    between atoms: C2_2  and  C3_3 
ROOT
HETATM    1  C1  UNL     1     -32.539   7.864   2.586  1.00 20.00    -0.016 C 
HETATM    2  C2  UNL     1     -33.482   7.163   3.223  1.00 20.00    -0.020 C 
HETATM    3  C4  UNL     1     -31.990   7.099   1.428  1.00 20.00     0.032 C 
HETATM    4  C5  UNL     1     -33.723   5.819   2.608  1.00 20.00     0.021 C 
HETATM    5  C6  UNL     1     -32.465   5.667   1.719  1.00 20.00    -0.007 C 
HETATM    6  C7  UNL     1     -33.844   4.676   3.610  1.00 20.00     0.015 C 
HETATM    7  C8  UNL     1     -32.722   4.866   0.449  1.00 20.00     0.011 C 
ENDROOT
BRANCH   2   8
HETATM    8  C3  UNL     1     -34.214   7.712   4.353  1.00 20.00     0.265 C 
HETATM    9  O9  UNL     1     -33.663   8.260   5.307  1.00 20.00    -0.302 OA
ENDBRANCH   2   8
TORSDOF 1
ENDMDL
MODEL 7
REMARK VINA RESULT:      -0.7      1.805      2.958
REMARK  1 active torsions:
REMARK  status: ('A' for Active; 'I' for Inactive)
REMARK    1  A    between atoms: C2_2  and  C3_3 
ROOT
HETATM    1  C1  UNL     1     -34.229   6.058   3.481  1.00 20.00    -0.016 C 
HETATM    2  C2  UNL     1     -33.494   7.174   3.429  1.00 20.00    -0.020 C 
HETATM    3  C4  UNL     1     -33.763   5.060   2.474  1.00 20.00     0.032 C 
HETATM    4  C5  UNL     1     -32.421   7.116   2.387  1.00 20.00     0.021 C 
HETATM    5  C6  UNL     1     -32.894   5.914   1.535  1.00 20.00    -0.007 C 
HETATM    6  C7  UNL     1     -32.284   8.381   1.546  1.00 20.00     0.015 C 
HETATM    7  C8  UNL     1     -31.746   5.124   0.921  1.00 20.00     0.011 C 
ENDROOT
BRANCH   2   8
HETATM    8  C3  UNL     1     -33.711   8.278   4.350  1.00 20.00     0.265 C 
HETATM    9  O9  UNL     1     -33.119   8.381   5.424  1.00 20.00    -0.302 OA
ENDBRANCH   2   8
TORSDOF 1
ENDMDL
MODEL 8
REMARK VINA RESULT:      -0.7      1.723      2.999
REMARK  1 active torsions:
REMARK  status: ('A' for Active; 'I' for Inactive)
REMARK    1  A    between atoms: C2_2  and  C3_3 
ROOT
HETATM    1  C1  UNL     1     -32.299   7.411   1.777  1.00 20.00    -0.016 C 
HETATM    2  C2  UNL     1     -33.099   6.397   2.122  1.00 20.00    -0.020 C 
HETATM    3  C4  UNL     1     -32.204   8.418   2.874  1.00 20.00     0.032 C 
HETATM    4  C5  UNL     1     -33.673   6.551   3.496  1.00 20.00     0.021 C 
HETATM    5  C6  UNL     1     -33.396   8.048   3.771  1.00 20.00    -0.007 C 
HETATM    6  C7  UNL     1     -35.159   6.225   3.603  1.00 20.00     0.015 C 
HETATM    7  C8  UNL     1     -33.137   8.350   5.241  1.00 20.00     0.011 C 
ENDROOT
BRANCH   2   8
HETATM    8  C3  UNL     1     -33.311   5.256   1.247  1.00 20.00     0.265 C 
HETATM    9  O9  UNL     1     -32.445   4.825   0.484  1.00 20.00    -0.302 OA
ENDBRANCH   2   8
TORSDOF 1
ENDMDL
MODEL 9
REMARK VINA RESULT:       0.0      1.698      2.873
REMARK  1 active torsions:
REMARK  status: ('A' for Active; 'I' for Inactive)
REMARK    1  A    between atoms: C2_2  and  C3_3 
ROOT
HETATM    1  C1  UNL     1     -33.717   5.082   2.767  1.00 20.00    -0.016 C 
HETATM    2  C2  UNL     1     -33.058   5.831   1.877  1.00 20.00    -0.020 C 
HETATM    3  C4  UNL     1     -34.292   5.924   3.857  1.00 20.00     0.032 C 
HETATM    4  C5  UNL     1     -33.076   7.289   2.217  1.00 20.00     0.021 C 
HETATM    5  C6  UNL     1     -33.526   7.247   3.697  1.00 20.00    -0.007 C 
HETATM    6  C7  UNL     1     -31.734   7.995   2.058  1.00 20.00     0.015 C 
HETATM    7  C8  UNL     1     -34.356   8.456   4.107  1.00 20.00     0.011 C 
ENDROOT
BRANCH   2   8
HETATM    8  C3  UNL     1     -32.454   5.254   0.687  1.00 20.00     0.265 C 
HETATM    9  O9  UNL     1     -31.374   4.664   0.701  1.00 20.00    -0.302 OA
ENDBRANCH   2   8
TORSDOF 1
ENDMDL
