MODEL 1
REMARK VINA RESULT:      -2.3      0.000      0.000
REMARK  1 active torsions:
REMARK  status: ('A' for Active; 'I' for Inactive)
REMARK    1  A    between atoms: C4_4  and  C5_5 
ROOT
HETATM    1  C1  UNL     1     -32.416  10.251   0.125  1.00 20.00     0.015 C 
HETATM    2  C2  UNL     1     -32.373   9.220   0.740  1.00 20.00    -0.083 C 
HETATM    3  C3  UNL     1     -32.323   7.995   1.472  1.00 20.00     0.229 A 
HETATM    4  C4  UNL     1     -33.215   7.807   2.671  1.00 20.00     0.177 A 
HETATM    5  O6  UNL     1     -31.837   8.162   2.815  1.00 20.00    -0.361 OA
ENDROOT
BRANCH   4   6
HETATM    6  C5  UNL     1     -33.557   6.448   3.168  1.00 20.00     0.150 C 
HETATM    7 CL7  UNL     1     -35.179   6.418   3.915  1.00 20.00    -0.128 Cl
ENDBRANCH   4   6
TORSDOF 1
ENDMDL
MODEL 2
REMARK VINA RESULT:      -2.2      2.587      4.030
REMARK  1 active torsions:
REMARK  status: ('A' for Active; 'I' for Inactive)
REMARK    1  A    between atoms: C4_4  and  C5_5 
ROOT
HETATM    1  C1  UNL     1     -35.362   6.224   4.025  1.00 20.00     0.015 C 
HETATM    2  C2  UNL     1     -34.308   6.555   3.556  1.00 20.00    -0.083 C 
HETATM    3  C3  UNL     1     -33.054   6.947   2.996  1.00 20.00     0.229 A 
HETATM    4  C4  UNL     1     -33.022   7.673   1.677  1.00 20.00     0.177 A 
HETATM    5  O6  UNL     1     -32.752   6.271   1.764  1.00 20.00    -0.361 OA
ENDROOT
BRANCH   4   6
HETATM    6  C5  UNL     1     -31.852   8.503   1.286  1.00 20.00     0.150 C 
HETATM    7 CL7  UNL     1     -32.333   9.827   0.187  1.00 20.00    -0.128 Cl
ENDBRANCH   4   6
TORSDOF 1
ENDMDL
MODEL 3
REMARK VINA RESULT:      -2.0      1.894      2.462
REMARK  1 active torsions:
REMARK  status: ('A' for Active; 'I' for Inactive)
REMARK    1  A    between atoms: C4_4  and  C5_5 
ROOT
HETATM    1  C1  UNL     1     -32.071   8.260   1.516  1.00 20.00     0.015 C 
HETATM    2  C2  UNL     1     -32.580   7.711   2.455  1.00 20.00    -0.083 C 
HETATM    3  C3  UNL     1     -33.186   7.060   3.571  1.00 20.00     0.229 A 
HETATM    4  C4  UNL     1     -34.532   6.402   3.409  1.00 20.00     0.177 A 
HETATM    5  O6  UNL     1     -34.400   7.697   4.003  1.00 20.00    -0.361 OA
ENDROOT
BRANCH   4   6
HETATM    6  C5  UNL     1     -34.984   5.338   4.343  1.00 20.00     0.150 C 
HETATM    7 CL7  UNL     1     -33.969   3.875   4.201  1.00 20.00    -0.128 Cl
ENDBRANCH   4   6
TORSDOF 1
ENDMDL
MODEL 4
REMARK VINA RESULT:      -1.5      2.981      4.852
REMARK  1 active torsions:
REMARK  status: ('A' for Active; 'I' for Inactive)
REMARK    1  A    between atoms: C4_4  and  C5_5 
ROOT
HETATM    1  C1  UNL     1     -33.487   3.072   4.697  1.00 20.00     0.015 C 
HETATM    2  C2  UNL     1     -33.822   4.054   4.092  1.00 20.00    -0.083 C 
HETATM    3  C3  UNL     1     -34.222   5.222   3.374  1.00 20.00     0.229 A 
HETATM    4  C4  UNL     1     -33.836   6.582   3.894  1.00 20.00     0.177 A 
HETATM    5  O6  UNL     1     -35.144   6.044   4.108  1.00 20.00    -0.361 OA
ENDROOT
BRANCH   4   6
HETATM    6  C5  UNL     1     -33.796   7.764   2.992  1.00 20.00     0.150 C 
HETATM    7 CL7  UNL     1     -32.231   7.877   2.138  1.00 20.00    -0.128 Cl
ENDBRANCH   4   6
TORSDOF 1
ENDMDL
MODEL 5
REMARK VINA RESULT:      -1.3      2.771      3.885
REMARK  1 active torsions:
REMARK  status: ('A' for Active; 'I' for Inactive)
REMARK    1  A    between atoms: C4_4  and  C5_5 
ROOT
HETATM    1  C1  UNL     1     -32.361   4.935   1.405  1.00 20.00     0.015 C 
HETATM    2  C2  UNL     1     -32.561   6.105   1.587  1.00 20.00    -0.083 C 
HETATM    3  C3  UNL     1     -32.797   7.497   1.804  1.00 20.00     0.229 A 
HETATM    4  C4  UNL     1     -31.940   8.515   1.099  1.00 20.00     0.177 A 
HETATM    5  O6  UNL     1     -31.704   8.156   2.464  1.00 20.00    -0.361 OA
ENDROOT
BRANCH   4   6
HETATM    6  C5  UNL     1     -32.413   9.911   0.902  1.00 20.00     0.150 C 
HETATM    7 CL7  UNL     1     -32.912  10.196  -0.789  1.00 20.00    -0.128 Cl
ENDBRANCH   4   6
TORSDOF 1
ENDMDL
MODEL 6
REMARK VINA RESULT:      -1.1      1.756      2.062
REMARK  1 active torsions:
REMARK  status: ('A' for Active; 'I' for Inactive)
REMARK    1  A    between atoms: C4_4  and  C5_5 
ROOT
HETATM    1  C1  UNL     1     -31.388   8.333   1.454  1.00 20.00     0.015 C 
HETATM    2  C2  UNL     1     -32.344   7.669   1.747  1.00 20.00    -0.083 C 
HETATM    3  C3  UNL     1     -33.482   6.879   2.096  1.00 20.00     0.229 A 
HETATM    4  C4  UNL     1     -33.884   6.752   3.542  1.00 20.00     0.177 A 
HETATM    5  O6  UNL     1     -33.144   5.722   2.879  1.00 20.00    -0.361 OA
ENDROOT
BRANCH   4   6
HETATM    6  C5  UNL     1     -35.269   6.368   3.922  1.00 20.00     0.150 C 
HETATM    7 CL7  UNL     1     -35.312   4.745   4.667  1.00 20.00    -0.128 Cl
ENDBRANCH   4   6
TORSDOF 1
ENDMDL
MODEL 7
REMARK VINA RESULT:      -1.0      2.543      4.309
REMARK  1 active torsions:
REMARK  status: ('A' for Active; 'I' for Inactive)
REMARK    1  A    between atoms: C4_4  and  C5_5 
ROOT
HETATM    1  C1  UNL     1     -35.451   5.009   4.578  1.00 20.00     0.015 C 
HETATM    2  C2  UNL     1     -35.008   6.035   4.140  1.00 20.00    -0.083 C 
HETATM    3  C3  UNL     1     -34.479   7.256   3.621  1.00 20.00     0.229 A 
HETATM    4  C4  UNL     1     -32.988   7.425   3.490  1.00 20.00     0.177 A 
HETATM    5  O6  UNL     1     -33.710   7.991   4.587  1.00 20.00    -0.361 OA
ENDROOT
BRANCH   4   6
HETATM    6  C5  UNL     1     -32.409   8.423   2.552  1.00 20.00     0.150 C 
HETATM    7 CL7  UNL     1     -31.587   7.626   1.181  1.00 20.00    -0.128 Cl
ENDBRANCH   4   6
TORSDOF 1
ENDMDL
MODEL 8
REMARK VINA RESULT:      -1.0      2.297      2.679
REMARK  1 active torsions:
REMARK  status: ('A' for Active; 'I' for Inactive)
REMARK    1  A    between atoms: C4_4  and  C5_5 
ROOT
HETATM    1  C1  UNL     1     -31.618   8.370   1.647  1.00 20.00     0.015 C 
HETATM    2  C2  UNL     1     -32.429   7.511   1.862  1.00 20.00    -0.083 C 
HETATM    3  C3  UNL     1     -33.392   6.488   2.117  1.00 20.00     0.229 A 
HETATM    4  C4  UNL     1     -33.055   5.369   3.067  1.00 20.00     0.177 A 
HETATM    5  O6  UNL     1     -32.976   5.194   1.649  1.00 20.00    -0.361 OA
ENDROOT
BRANCH   4   6
HETATM    6  C5  UNL     1     -34.125   4.574   3.727  1.00 20.00     0.150 C 
HETATM    7 CL7  UNL     1     -33.446   3.177   4.608  1.00 20.00    -0.128 Cl
ENDBRANCH   4   6
TORSDOF 1
ENDMDL
MODEL 9
REMARK VINA RESULT:      -0.5      3.462      3.812
REMARK  1 active torsions:
REMARK  status: ('A' for Active; 'I' for Inactive)
REMARK    1  A    between atoms: C4_4  and  C5_5 
ROOT
HETATM    1  C1  UNL     1     -33.881   8.506   4.385  1.00 20.00     0.015 C 
HETATM    2  C2  UNL     1     -34.146   7.386   4.043  1.00 20.00    -0.083 C 
HETATM    3  C3  UNL     1     -34.460   6.054   3.636  1.00 20.00     0.229 A 
HETATM    4  C4  UNL     1     -33.400   4.986   3.702  1.00 20.00     0.177 A 
HETATM    5  O6  UNL     1     -33.731   5.635   2.470  1.00 20.00    -0.361 OA
ENDROOT
BRANCH   4   6
HETATM    6  C5  UNL     1     -33.765   3.545   3.757  1.00 20.00     0.150 C 
HETATM    7 CL7  UNL     1     -32.967   2.725   5.128  1.00 20.00    -0.128 Cl
ENDBRANCH   4   6
TORSDOF 1
ENDMDL
