MODEL 1
REMARK VINA RESULT:       1.3      0.000      0.000
REMARK  1 active torsions:
REMARK  status: ('A' for Active; 'I' for Inactive)
REMARK    1  A    between atoms: C9_9  and  N10_10 
ROOT
HETATM    1  C1  UNL     1     -34.968   5.858   4.098  1.00 20.00     0.004 A 
HETATM    2  C2  UNL     1     -34.280   5.216   3.147  1.00 20.00     0.042 A 
HETATM    3  C3  UNL     1     -34.717   7.240   4.384  1.00 20.00     0.017 A 
HETATM    4  C4  UNL     1     -33.792   7.906   3.686  1.00 20.00     0.093 A 
HETATM    5  C5  UNL     1     -33.224   5.936   2.356  1.00 20.00     0.103 A 
HETATM    6  N10 UNL     1     -33.037   7.313   2.672  1.00 20.00    -0.339 N 
HETATM    7  S11 UNL     1     -32.342   5.100   1.177  1.00 20.00    -0.060 SA
ENDROOT
BRANCH   6   8
HETATM    8  C9  UNL     1     -32.060   8.145   1.995  1.00 20.00     0.027 C 
HETATM    9  C6  UNL     1     -32.788   9.161   1.107  1.00 20.00     0.038 C 
HETATM   10  C7  UNL     1     -31.217   8.880   3.041  1.00 20.00     0.038 C 
HETATM   11  C8  UNL     1     -31.156   7.262   1.127  1.00 20.00     0.038 C 
ENDBRANCH   6   8
TORSDOF 1
ENDMDL
MODEL 2
REMARK VINA RESULT:       1.3      0.011      1.309
REMARK  1 active torsions:
REMARK  status: ('A' for Active; 'I' for Inactive)
REMARK    1  A    between atoms: C9_9  and  N10_10 
ROOT
HETATM    1  C1  UNL     1     -34.972   5.855   4.096  1.00 20.00     0.004 A 
HETATM    2  C2  UNL     1     -34.290   5.215   3.139  1.00 20.00     0.042 A 
HETATM    3  C3  UNL     1     -34.712   7.234   4.390  1.00 20.00     0.017 A 
HETATM    4  C4  UNL     1     -33.785   7.899   3.693  1.00 20.00     0.093 A 
HETATM    5  C5  UNL     1     -33.233   5.935   2.348  1.00 20.00     0.103 A 
HETATM    6  N10 UNL     1     -33.037   7.308   2.672  1.00 20.00    -0.339 N 
HETATM    7  S11 UNL     1     -32.360   5.101   1.161  1.00 20.00    -0.060 SA
ENDROOT
BRANCH   6   8
HETATM    8  C9  UNL     1     -32.058   8.139   1.997  1.00 20.00     0.027 C 
HETATM    9  C6  UNL     1     -31.214   8.878   3.042  1.00 20.00     0.038 C 
HETATM   10  C7  UNL     1     -31.155   7.251   1.135  1.00 20.00     0.038 C 
HETATM   11  C8  UNL     1     -32.784   9.158   1.110  1.00 20.00     0.038 C 
ENDBRANCH   6   8
TORSDOF 1
ENDMDL
MODEL 3
REMARK VINA RESULT:       2.1      1.390      3.365
REMARK  1 active torsions:
REMARK  status: ('A' for Active; 'I' for Inactive)
REMARK    1  A    between atoms: C9_9  and  N10_10 
ROOT
HETATM    1  C1  UNL     1     -31.622   5.938   0.906  1.00 20.00     0.004 A 
HETATM    2  C2  UNL     1     -32.254   5.042   1.670  1.00 20.00     0.042 A 
HETATM    3  C3  UNL     1     -31.817   7.345   1.103  1.00 20.00     0.017 A 
HETATM    4  C4  UNL     1     -32.634   7.773   2.072  1.00 20.00     0.093 A 
HETATM    5  C5  UNL     1     -33.188   5.494   2.758  1.00 20.00     0.103 A 
HETATM    6  N10 UNL     1     -33.324   6.903   2.919  1.00 20.00    -0.339 N 
HETATM    7  S11 UNL     1     -34.004   4.344   3.696  1.00 20.00    -0.060 SA
ENDROOT
BRANCH   6   8
HETATM    8  C9  UNL     1     -34.183   7.496   3.926  1.00 20.00     0.027 C 
HETATM    9  C6  UNL     1     -34.778   8.799   3.381  1.00 20.00     0.038 C 
HETATM   10  C7  UNL     1     -35.309   6.515   4.266  1.00 20.00     0.038 C 
HETATM   11  C8  UNL     1     -33.358   7.795   5.183  1.00 20.00     0.038 C 
ENDBRANCH   6   8
TORSDOF 1
ENDMDL
MODEL 4
REMARK VINA RESULT:       2.4      1.858      2.913
REMARK  1 active torsions:
REMARK  status: ('A' for Active; 'I' for Inactive)
REMARK    1  A    between atoms: C9_9  and  N10_10 
ROOT
HETATM    1  C1  UNL     1     -35.019   4.841   4.787  1.00 20.00     0.004 A 
HETATM    2  C2  UNL     1     -35.084   6.151   4.530  1.00 20.00     0.042 A 
HETATM    3  C3  UNL     1     -34.179   3.977   4.010  1.00 20.00     0.017 A 
HETATM    4  C4  UNL     1     -33.440   4.485   3.019  1.00 20.00     0.093 A 
HETATM    5  C5  UNL     1     -34.274   6.748   3.413  1.00 20.00     0.103 A 
HETATM    6  N10 UNL     1     -33.444   5.843   2.692  1.00 20.00    -0.339 N 
HETATM    7  S11 UNL     1     -34.391   8.404   3.082  1.00 20.00    -0.060 SA
ENDROOT
BRANCH   6   8
HETATM    8  C9  UNL     1     -32.599   6.265   1.589  1.00 20.00     0.027 C 
HETATM    9  C6  UNL     1     -31.513   5.210   1.351  1.00 20.00     0.038 C 
HETATM   10  C7  UNL     1     -33.458   6.419   0.331  1.00 20.00     0.038 C 
HETATM   11  C8  UNL     1     -31.943   7.606   1.938  1.00 20.00     0.038 C 
ENDBRANCH   6   8
TORSDOF 1
ENDMDL
MODEL 5
REMARK VINA RESULT:       2.5      1.685      2.921
REMARK  1 active torsions:
REMARK  status: ('A' for Active; 'I' for Inactive)
REMARK    1  A    between atoms: C9_9  and  N10_10 
ROOT
HETATM    1  C1  UNL     1     -34.724   7.089   4.629  1.00 20.00     0.004 A 
HETATM    2  C2  UNL     1     -33.824   7.948   4.141  1.00 20.00     0.042 A 
HETATM    3  C3  UNL     1     -34.921   5.804   4.025  1.00 20.00     0.017 A 
HETATM    4  C4  UNL     1     -34.188   5.449   2.964  1.00 20.00     0.093 A 
HETATM    5  C5  UNL     1     -32.995   7.582   2.941  1.00 20.00     0.103 A 
HETATM    6  N10 UNL     1     -33.222   6.284   2.399  1.00 20.00    -0.339 N 
HETATM    7  S11 UNL     1     -31.881   8.694   2.317  1.00 20.00    -0.060 SA
ENDROOT
BRANCH   6   8
HETATM    8  C9  UNL     1     -32.500   5.781   1.245  1.00 20.00     0.027 C 
HETATM    9  C6  UNL     1     -31.463   4.751   1.706  1.00 20.00     0.038 C 
HETATM   10  C7  UNL     1     -33.492   5.123   0.281  1.00 20.00     0.038 C 
HETATM   11  C8  UNL     1     -31.790   6.945   0.545  1.00 20.00     0.038 C 
ENDBRANCH   6   8
TORSDOF 1
ENDMDL
MODEL 6
REMARK VINA RESULT:       2.8      1.827      3.958
REMARK  1 active torsions:
REMARK  status: ('A' for Active; 'I' for Inactive)
REMARK    1  A    between atoms: C9_9  and  N10_10 
ROOT
HETATM    1  C1  UNL     1     -31.618   6.026   0.767  1.00 20.00     0.004 A 
HETATM    2  C2  UNL     1     -31.579   7.166   1.465  1.00 20.00     0.042 A 
HETATM    3  C3  UNL     1     -32.609   5.027   1.041  1.00 20.00     0.017 A 
HETATM    4  C4  UNL     1     -33.517   5.237   1.999  1.00 20.00     0.093 A 
HETATM    5  C5  UNL     1     -32.580   7.423   2.558  1.00 20.00     0.103 A 
HETATM    6  N10 UNL     1     -33.551   6.403   2.766  1.00 20.00    -0.339 N 
HETATM    7  S11 UNL     1     -32.497   8.859   3.451  1.00 20.00    -0.060 SA
ENDROOT
BRANCH   6   8
HETATM    8  C9  UNL     1     -34.586   6.504   3.779  1.00 20.00     0.027 C 
HETATM    9  C6  UNL     1     -35.884   6.998   3.130  1.00 20.00     0.038 C 
HETATM   10  C7  UNL     1     -34.812   5.123   4.404  1.00 20.00     0.038 C 
HETATM   11  C8  UNL     1     -34.143   7.497   4.859  1.00 20.00     0.038 C 
ENDBRANCH   6   8
TORSDOF 1
ENDMDL
MODEL 7
REMARK VINA RESULT:       2.8      1.826      3.986
REMARK  1 active torsions:
REMARK  status: ('A' for Active; 'I' for Inactive)
REMARK    1  A    between atoms: C9_9  and  N10_10 
ROOT
HETATM    1  C1  UNL     1     -31.632   5.995   0.766  1.00 20.00     0.004 A 
HETATM    2  C2  UNL     1     -31.592   7.143   1.451  1.00 20.00     0.042 A 
HETATM    3  C3  UNL     1     -32.621   4.998   1.053  1.00 20.00     0.017 A 
HETATM    4  C4  UNL     1     -33.528   5.218   2.010  1.00 20.00     0.093 A 
HETATM    5  C5  UNL     1     -32.591   7.412   2.542  1.00 20.00     0.103 A 
HETATM    6  N10 UNL     1     -33.561   6.393   2.765  1.00 20.00    -0.339 N 
HETATM    7  S11 UNL     1     -32.508   8.858   3.419  1.00 20.00    -0.060 SA
ENDROOT
BRANCH   6   8
HETATM    8  C9  UNL     1     -34.594   6.505   3.778  1.00 20.00     0.027 C 
HETATM    9  C6  UNL     1     -34.143   7.497   4.855  1.00 20.00     0.038 C 
HETATM   10  C7  UNL     1     -35.887   7.002   3.124  1.00 20.00     0.038 C 
HETATM   11  C8  UNL     1     -34.830   5.130   4.414  1.00 20.00     0.038 C 
ENDBRANCH   6   8
TORSDOF 1
ENDMDL
MODEL 8
REMARK VINA RESULT:       2.8      1.828      3.973
REMARK  1 active torsions:
REMARK  status: ('A' for Active; 'I' for Inactive)
REMARK    1  A    between atoms: C9_9  and  N10_10 
ROOT
HETATM    1  C1  UNL     1     -31.624   6.022   0.766  1.00 20.00     0.004 A 
HETATM    2  C2  UNL     1     -31.583   7.162   1.465  1.00 20.00     0.042 A 
HETATM    3  C3  UNL     1     -32.617   5.025   1.038  1.00 20.00     0.017 A 
HETATM    4  C4  UNL     1     -33.526   5.237   1.996  1.00 20.00     0.093 A 
HETATM    5  C5  UNL     1     -32.584   7.421   2.557  1.00 20.00     0.103 A 
HETATM    6  N10 UNL     1     -33.558   6.403   2.764  1.00 20.00    -0.339 N 
HETATM    7  S11 UNL     1     -32.498   8.856   3.451  1.00 20.00    -0.060 SA
ENDROOT
BRANCH   6   8
HETATM    8  C9  UNL     1     -34.593   6.505   3.776  1.00 20.00     0.027 C 
HETATM    9  C6  UNL     1     -34.825   5.127   4.406  1.00 20.00     0.038 C 
HETATM   10  C7  UNL     1     -34.145   7.499   4.853  1.00 20.00     0.038 C 
HETATM   11  C8  UNL     1     -35.891   6.996   3.125  1.00 20.00     0.038 C 
ENDBRANCH   6   8
TORSDOF 1
ENDMDL
MODEL 9
REMARK VINA RESULT:       3.0      0.987      3.576
REMARK  1 active torsions:
REMARK  status: ('A' for Active; 'I' for Inactive)
REMARK    1  A    between atoms: C9_9  and  N10_10 
ROOT
HETATM    1  C1  UNL     1     -31.307   8.160   1.544  1.00 20.00     0.004 A 
HETATM    2  C2  UNL     1     -31.817   7.035   1.031  1.00 20.00     0.042 A 
HETATM    3  C3  UNL     1     -31.824   8.718   2.759  1.00 20.00     0.017 A 
HETATM    4  C4  UNL     1     -32.823   8.103   3.401  1.00 20.00     0.093 A 
HETATM    5  C5  UNL     1     -32.949   6.329   1.724  1.00 20.00     0.103 A 
HETATM    6  N10 UNL     1     -33.404   6.920   2.938  1.00 20.00    -0.339 N 
HETATM    7  S11 UNL     1     -33.603   4.922   1.046  1.00 20.00    -0.060 SA
ENDROOT
BRANCH   6   8
HETATM    8  C9  UNL     1     -34.485   6.357   3.725  1.00 20.00     0.027 C 
HETATM    9  C6  UNL     1     -35.814   6.583   2.996  1.00 20.00     0.038 C 
HETATM   10  C7  UNL     1     -34.243   4.856   3.909  1.00 20.00     0.038 C 
HETATM   11  C8  UNL     1     -34.527   7.047   5.094  1.00 20.00     0.038 C 
ENDBRANCH   6   8
TORSDOF 1
ENDMDL
