MODEL 1
REMARK VINA RESULT:      -1.8      0.000      0.000
REMARK  1 active torsions:
REMARK  status: ('A' for Active; 'I' for Inactive)
REMARK    1  A    between atoms: C5_5  and  C10_10 
ROOT
HETATM    1  C1  UNL     1     -32.218   6.644   0.975  1.00 20.00     0.046 C 
HETATM    2  C2  UNL     1     -32.671   5.720   1.829  1.00 20.00    -0.018 C 
HETATM    3  C3  UNL     1     -32.121   8.059   1.399  1.00 20.00     0.149 C 
HETATM    4  C4  UNL     1     -32.424   8.395   2.841  1.00 20.00     0.088 C 
HETATM    5  C5  UNL     1     -33.179   6.007   3.222  1.00 20.00     0.015 C 
HETATM    6  C6  UNL     1     -33.539   7.503   3.397  1.00 20.00    -0.003 C 
HETATM    7  C7  UNL     1     -33.811   7.870   4.858  1.00 20.00     0.011 C 
HETATM    8  O11 UNL     1     -31.736   8.911   0.601  1.00 20.00    -0.293 OA
ENDROOT
BRANCH   5   9
HETATM    9  C10 UNL     1     -34.379   5.102   3.526  1.00 20.00    -0.015 C 
HETATM   10  C8  UNL     1     -33.948   3.914   4.380  1.00 20.00     0.010 C 
HETATM   11  C9  UNL     1     -35.480   5.896   4.222  1.00 20.00     0.010 C 
ENDBRANCH   5   9
TORSDOF 1
ENDMDL
MODEL 2
REMARK VINA RESULT:      -1.6      2.174      4.584
REMARK  1 active torsions:
REMARK  status: ('A' for Active; 'I' for Inactive)
REMARK    1  A    between atoms: C5_5  and  C10_10 
ROOT
HETATM    1  C1  UNL     1     -34.319   7.590   3.920  1.00 20.00     0.046 C 
HETATM    2  C2  UNL     1     -33.377   8.199   3.191  1.00 20.00    -0.018 C 
HETATM    3  C3  UNL     1     -34.510   6.126   3.806  1.00 20.00     0.149 C 
HETATM    4  C4  UNL     1     -33.541   5.343   2.952  1.00 20.00     0.088 C 
HETATM    5  C5  UNL     1     -32.500   7.516   2.169  1.00 20.00     0.015 C 
HETATM    6  C6  UNL     1     -33.094   6.154   1.731  1.00 20.00    -0.003 C 
HETATM    7  C7  UNL     1     -32.109   5.330   0.898  1.00 20.00     0.011 C 
HETATM    8  O11 UNL     1     -35.399   5.574   4.452  1.00 20.00    -0.293 OA
ENDROOT
BRANCH   5   9
HETATM    9  C10 UNL     1     -32.290   8.448   0.970  1.00 20.00    -0.015 C 
HETATM   10  C8  UNL     1     -32.856   9.833   1.267  1.00 20.00     0.010 C 
HETATM   11  C9  UNL     1     -30.809   8.534   0.615  1.00 20.00     0.010 C 
ENDBRANCH   5   9
TORSDOF 1
ENDMDL
MODEL 3
REMARK VINA RESULT:      -1.3      2.237      3.879
REMARK  1 active torsions:
REMARK  status: ('A' for Active; 'I' for Inactive)
REMARK    1  A    between atoms: C5_5  and  C10_10 
ROOT
HETATM    1  C1  UNL     1     -33.123   4.767   2.286  1.00 20.00     0.046 C 
HETATM    2  C2  UNL     1     -32.887   5.935   1.677  1.00 20.00    -0.018 C 
HETATM    3  C3  UNL     1     -33.907   4.734   3.542  1.00 20.00     0.149 C 
HETATM    4  C4  UNL     1     -34.527   6.023   4.032  1.00 20.00     0.088 C 
HETATM    5  C5  UNL     1     -33.304   7.286   2.207  1.00 20.00     0.015 C 
HETATM    6  C6  UNL     1     -33.629   7.225   3.720  1.00 20.00    -0.003 C 
HETATM    7  C7  UNL     1     -34.294   8.508   4.225  1.00 20.00     0.011 C 
HETATM    8  O11 UNL     1     -34.094   3.664   4.117  1.00 20.00    -0.293 OA
ENDROOT
BRANCH   5   9
HETATM    9  C10 UNL     1     -32.205   8.313   1.911  1.00 20.00    -0.015 C 
HETATM   10  C8  UNL     1     -30.900   7.608   1.553  1.00 20.00     0.010 C 
HETATM   11  C9  UNL     1     -32.640   9.247   0.786  1.00 20.00     0.010 C 
ENDBRANCH   5   9
TORSDOF 1
ENDMDL
MODEL 4
REMARK VINA RESULT:      -0.6      0.990      2.361
REMARK  1 active torsions:
REMARK  status: ('A' for Active; 'I' for Inactive)
REMARK    1  A    between atoms: C5_5  and  C10_10 
ROOT
HETATM    1  C1  UNL     1     -33.035   8.090   3.741  1.00 20.00     0.046 C 
HETATM    2  C2  UNL     1     -33.976   7.142   3.801  1.00 20.00    -0.018 C 
HETATM    3  C3  UNL     1     -32.065   8.097   2.622  1.00 20.00     0.149 C 
HETATM    4  C4  UNL     1     -32.253   7.095   1.506  1.00 20.00     0.088 C 
HETATM    5  C5  UNL     1     -34.108   5.991   2.832  1.00 20.00     0.015 C 
HETATM    6  C6  UNL     1     -32.796   5.765   2.040  1.00 20.00    -0.003 C 
HETATM    7  C7  UNL     1     -32.978   4.782   0.881  1.00 20.00     0.011 C 
HETATM    8  O11 UNL     1     -31.180   8.950   2.586  1.00 20.00    -0.293 OA
ENDROOT
BRANCH   5   9
HETATM    9  C10 UNL     1     -34.527   4.727   3.593  1.00 20.00    -0.015 C 
HETATM   10  C8  UNL     1     -33.300   3.997   4.131  1.00 20.00     0.010 C 
HETATM   11  C9  UNL     1     -35.484   5.082   4.727  1.00 20.00     0.010 C 
ENDBRANCH   5   9
TORSDOF 1
ENDMDL
MODEL 5
REMARK VINA RESULT:       0.0      1.960      3.438
REMARK  1 active torsions:
REMARK  status: ('A' for Active; 'I' for Inactive)
REMARK    1  A    between atoms: C5_5  and  C10_10 
ROOT
HETATM    1  C1  UNL     1     -34.222   6.281   3.780  1.00 20.00     0.046 C 
HETATM    2  C2  UNL     1     -33.960   5.771   2.572  1.00 20.00    -0.018 C 
HETATM    3  C3  UNL     1     -33.765   7.648   4.120  1.00 20.00     0.149 C 
HETATM    4  C4  UNL     1     -33.117   8.476   3.034  1.00 20.00     0.088 C 
HETATM    5  C5  UNL     1     -33.149   6.460   1.500  1.00 20.00     0.015 C 
HETATM    6  C6  UNL     1     -32.285   7.601   2.090  1.00 20.00    -0.003 C 
HETATM    7  C7  UNL     1     -31.654   8.475   1.003  1.00 20.00     0.011 C 
HETATM    8  O11 UNL     1     -33.977   8.102   5.242  1.00 20.00    -0.293 OA
ENDROOT
BRANCH   5   9
HETATM    9  C10 UNL     1     -32.286   5.425   0.768  1.00 20.00    -0.015 C 
HETATM   10  C8  UNL     1     -31.323   4.750   1.740  1.00 20.00     0.010 C 
HETATM   11  C9  UNL     1     -33.168   4.390   0.077  1.00 20.00     0.010 C 
ENDBRANCH   5   9
TORSDOF 1
ENDMDL
MODEL 6
REMARK VINA RESULT:       0.2      1.715      2.807
REMARK  1 active torsions:
REMARK  status: ('A' for Active; 'I' for Inactive)
REMARK    1  A    between atoms: C5_5  and  C10_10 
ROOT
HETATM    1  C1  UNL     1     -32.967   4.471   2.083  1.00 20.00     0.046 C 
HETATM    2  C2  UNL     1     -33.346   5.269   3.087  1.00 20.00    -0.018 C 
HETATM    3  C3  UNL     1     -32.151   5.016   0.974  1.00 20.00     0.149 C 
HETATM    4  C4  UNL     1     -31.664   6.443   1.079  1.00 20.00     0.088 C 
HETATM    5  C5  UNL     1     -33.067   6.751   3.166  1.00 20.00     0.015 C 
HETATM    6  C6  UNL     1     -32.697   7.333   1.780  1.00 20.00    -0.003 C 
HETATM    7  C7  UNL     1     -32.164   8.764   1.872  1.00 20.00     0.011 C 
HETATM    8  O11 UNL     1     -31.831   4.289   0.036  1.00 20.00    -0.293 OA
ENDROOT
BRANCH   5   9
HETATM    9  C10 UNL     1     -34.280   7.469   3.770  1.00 20.00    -0.015 C 
HETATM   10  C8  UNL     1     -35.418   6.481   4.009  1.00 20.00     0.010 C 
HETATM   11  C9  UNL     1     -33.892   8.169   5.068  1.00 20.00     0.010 C 
ENDBRANCH   5   9
TORSDOF 1
ENDMDL
MODEL 7
REMARK VINA RESULT:       0.6      2.206      3.939
REMARK  1 active torsions:
REMARK  status: ('A' for Active; 'I' for Inactive)
REMARK    1  A    between atoms: C5_5  and  C10_10 
ROOT
HETATM    1  C1  UNL     1     -33.395   4.915   2.118  1.00 20.00     0.046 C 
HETATM    2  C2  UNL     1     -33.011   6.107   1.647  1.00 20.00    -0.018 C 
HETATM    3  C3  UNL     1     -34.174   4.834   3.374  1.00 20.00     0.149 C 
HETATM    4  C4  UNL     1     -34.620   6.123   4.024  1.00 20.00     0.088 C 
HETATM    5  C5  UNL     1     -33.248   7.427   2.340  1.00 20.00     0.015 C 
HETATM    6  C6  UNL     1     -33.574   7.228   3.841  1.00 20.00    -0.003 C 
HETATM    7  C7  UNL     1     -34.066   8.517   4.505  1.00 20.00     0.011 C 
HETATM    8  O11 UNL     1     -34.497   3.736   3.823  1.00 20.00    -0.293 OA
ENDROOT
BRANCH   5   9
HETATM    9  C10 UNL     1     -32.025   8.332   2.148  1.00 20.00    -0.015 C 
HETATM   10  C8  UNL     1     -32.326   9.423   1.124  1.00 20.00     0.010 C 
HETATM   11  C9  UNL     1     -31.602   8.944   3.480  1.00 20.00     0.010 C 
ENDBRANCH   5   9
TORSDOF 1
ENDMDL
MODEL 8
REMARK VINA RESULT:       1.0      1.808      2.722
REMARK  1 active torsions:
REMARK  status: ('A' for Active; 'I' for Inactive)
REMARK    1  A    between atoms: C5_5  and  C10_10 
ROOT
HETATM    1  C1  UNL     1     -31.593   8.776   0.173  1.00 20.00     0.046 C 
HETATM    2  C2  UNL     1     -31.428   7.523   0.608  1.00 20.00    -0.018 C 
HETATM    3  C3  UNL     1     -32.409   9.730   0.959  1.00 20.00     0.149 C 
HETATM    4  C4  UNL     1     -32.931   9.283   2.305  1.00 20.00     0.088 C 
HETATM    5  C5  UNL     1     -32.078   6.943   1.842  1.00 20.00     0.015 C 
HETATM    6  C6  UNL     1     -33.290   7.793   2.296  1.00 20.00    -0.003 C 
HETATM    7  C7  UNL     1     -33.807   7.381   3.676  1.00 20.00     0.011 C 
HETATM    8  O11 UNL     1     -32.587  10.872   0.540  1.00 20.00    -0.293 OA
ENDROOT
BRANCH   5   9
HETATM    9  C10 UNL     1     -32.483   5.489   1.572  1.00 20.00    -0.015 C 
HETATM   10  C8  UNL     1     -33.589   5.431   0.522  1.00 20.00     0.010 C 
HETATM   11  C9  UNL     1     -31.273   4.674   1.127  1.00 20.00     0.010 C 
ENDBRANCH   5   9
TORSDOF 1
ENDMDL
MODEL 9
REMARK VINA RESULT:       1.0      1.244      2.589
REMARK  1 active torsions:
REMARK  status: ('A' for Active; 'I' for Inactive)
REMARK    1  A    between atoms: C5_5  and  C10_10 
ROOT
HETATM    1  C1  UNL     1     -32.551   9.352   1.635  1.00 20.00     0.046 C 
HETATM    2  C2  UNL     1     -33.449   8.712   2.392  1.00 20.00    -0.018 C 
HETATM    3  C3  UNL     1     -31.692   8.586   0.703  1.00 20.00     0.149 C 
HETATM    4  C4  UNL     1     -31.948   7.105   0.547  1.00 20.00     0.088 C 
HETATM    5  C5  UNL     1     -33.631   7.214   2.438  1.00 20.00     0.015 C 
HETATM    6  C6  UNL     1     -32.393   6.476   1.872  1.00 20.00    -0.003 C 
HETATM    7  C7  UNL     1     -32.649   4.980   1.670  1.00 20.00     0.011 C 
HETATM    8  O11 UNL     1     -30.844   9.172   0.032  1.00 20.00    -0.293 OA
ENDROOT
BRANCH   5   9
HETATM    9  C10 UNL     1     -33.933   6.779   3.877  1.00 20.00    -0.015 C 
HETATM   10  C8  UNL     1     -33.750   7.951   4.837  1.00 20.00     0.010 C 
HETATM   11  C9  UNL     1     -35.347   6.216   3.977  1.00 20.00     0.010 C 
ENDBRANCH   5   9
TORSDOF 1
ENDMDL
