MODEL 1
REMARK VINA RESULT:       1.4      0.000      0.000
REMARK  0 active torsions:
REMARK  status: ('A' for Active; 'I' for Inactive)
ROOT
HETATM    1  C1  UNL     1     -32.902   5.339   2.178  1.00 20.00     0.050 C 
HETATM    2  C2  UNL     1     -32.288   6.397   1.637  1.00 20.00    -0.014 C 
HETATM    3  C3  UNL     1     -33.820   5.506   3.329  1.00 20.00     0.188 C 
HETATM    4  C4  UNL     1     -33.102   7.893   3.505  1.00 20.00     0.064 C 
HETATM    5  C5  UNL     1     -32.389   7.823   2.133  1.00 20.00    -0.026 C 
HETATM    6  C6  UNL     1     -34.256   6.908   3.707  1.00 20.00     0.164 C 
HETATM    7  C7  UNL     1     -33.105   8.682   1.077  1.00 20.00     0.019 C 
HETATM    8  C8  UNL     1     -30.963   8.388   2.305  1.00 20.00     0.019 C 
HETATM    9  C9  UNL     1     -35.534   7.263   2.957  1.00 20.00     0.060 C 
HETATM   10  O10 UNL     1     -34.245   4.514   3.919  1.00 20.00    -0.290 OA
HETATM   11  F11 UNL     1     -34.572   6.947   5.040  1.00 20.00    -0.235 F 
ENDROOT
TORSDOF 0
ENDMDL
MODEL 2
REMARK VINA RESULT:       1.5      2.305      3.765
REMARK  0 active torsions:
REMARK  status: ('A' for Active; 'I' for Inactive)
ROOT
HETATM    1  C1  UNL     1     -33.002   8.077   3.408  1.00 20.00     0.050 C 
HETATM    2  C2  UNL     1     -34.113   7.566   3.950  1.00 20.00    -0.014 C 
HETATM    3  C3  UNL     1     -32.277   7.345   2.342  1.00 20.00     0.188 C 
HETATM    4  C4  UNL     1     -33.765   5.377   2.736  1.00 20.00     0.064 C 
HETATM    5  C5  UNL     1     -34.719   6.220   3.615  1.00 20.00    -0.026 C 
HETATM    6  C6  UNL     1     -32.956   6.154   1.694  1.00 20.00     0.164 C 
HETATM    7  C7  UNL     1     -36.083   6.429   2.934  1.00 20.00     0.019 C 
HETATM    8  C8  UNL     1     -34.967   5.450   4.929  1.00 20.00     0.019 C 
HETATM    9  C9  UNL     1     -33.756   6.620   0.485  1.00 20.00     0.060 C 
HETATM   10  O10 UNL     1     -31.174   7.742   1.972  1.00 20.00    -0.290 OA
HETATM   11  F11 UNL     1     -32.007   5.290   1.215  1.00 20.00    -0.235 F 
ENDROOT
TORSDOF 0
ENDMDL
MODEL 3
REMARK VINA RESULT:       1.8      2.144      3.495
REMARK  0 active torsions:
REMARK  status: ('A' for Active; 'I' for Inactive)
ROOT
HETATM    1  C1  UNL     1     -32.826   5.020   2.697  1.00 20.00     0.050 C 
HETATM    2  C2  UNL     1     -33.721   5.474   3.581  1.00 20.00    -0.014 C 
HETATM    3  C3  UNL     1     -32.274   5.916   1.653  1.00 20.00     0.188 C 
HETATM    4  C4  UNL     1     -33.936   7.657   2.325  1.00 20.00     0.064 C 
HETATM    5  C5  UNL     1     -34.307   6.869   3.605  1.00 20.00    -0.026 C 
HETATM    6  C6  UNL     1     -32.531   7.406   1.772  1.00 20.00     0.164 C 
HETATM    7  C7  UNL     1     -33.842   7.599   4.876  1.00 20.00     0.019 C 
HETATM    8  C8  UNL     1     -35.845   6.756   3.669  1.00 20.00     0.019 C 
HETATM    9  C9  UNL     1     -31.408   8.054   2.570  1.00 20.00     0.060 C 
HETATM   10  O10 UNL     1     -31.585   5.447   0.750  1.00 20.00    -0.290 OA
HETATM   11  F11 UNL     1     -32.496   7.978   0.527  1.00 20.00    -0.235 F 
ENDROOT
TORSDOF 0
ENDMDL
MODEL 4
REMARK VINA RESULT:       1.8      1.578      2.466
REMARK  0 active torsions:
REMARK  status: ('A' for Active; 'I' for Inactive)
ROOT
HETATM    1  C1  UNL     1     -32.438   8.253   4.101  1.00 20.00     0.050 C 
HETATM    2  C2  UNL     1     -31.851   8.086   2.910  1.00 20.00    -0.014 C 
HETATM    3  C3  UNL     1     -33.769   7.662   4.376  1.00 20.00     0.188 C 
HETATM    4  C4  UNL     1     -33.947   7.040   1.962  1.00 20.00     0.064 C 
HETATM    5  C5  UNL     1     -32.453   7.363   1.725  1.00 20.00    -0.026 C 
HETATM    6  C6  UNL     1     -34.326   6.650   3.393  1.00 20.00     0.164 C 
HETATM    7  C7  UNL     1     -31.637   6.092   1.432  1.00 20.00     0.019 C 
HETATM    8  C8  UNL     1     -32.351   8.278   0.485  1.00 20.00     0.019 C 
HETATM    9  C9  UNL     1     -33.895   5.249   3.807  1.00 20.00     0.060 C 
HETATM   10  O10 UNL     1     -34.366   7.962   5.407  1.00 20.00    -0.290 OA
HETATM   11  F11 UNL     1     -35.695   6.662   3.451  1.00 20.00    -0.235 F 
ENDROOT
TORSDOF 0
ENDMDL
MODEL 5
REMARK VINA RESULT:       1.9      2.010      3.041
REMARK  0 active torsions:
REMARK  status: ('A' for Active; 'I' for Inactive)
ROOT
HETATM    1  C1  UNL     1     -34.042   6.526   3.571  1.00 20.00     0.050 C 
HETATM    2  C2  UNL     1     -33.906   5.735   2.501  1.00 20.00    -0.014 C 
HETATM    3  C3  UNL     1     -33.149   7.693   3.766  1.00 20.00     0.188 C 
HETATM    4  C4  UNL     1     -31.764   6.904   1.841  1.00 20.00     0.064 C 
HETATM    5  C5  UNL     1     -32.844   5.874   1.431  1.00 20.00    -0.026 C 
HETATM    6  C6  UNL     1     -32.268   8.127   2.611  1.00 20.00     0.164 C 
HETATM    7  C7  UNL     1     -33.510   6.250   0.096  1.00 20.00     0.019 C 
HETATM    8  C8  UNL     1     -32.155   4.506   1.239  1.00 20.00     0.019 C 
HETATM    9  C9  UNL     1     -33.010   9.152   1.762  1.00 20.00     0.060 C 
HETATM   10  O10 UNL     1     -33.176   8.309   4.829  1.00 20.00    -0.290 OA
HETATM   11  F11 UNL     1     -31.157   8.765   3.097  1.00 20.00    -0.235 F 
ENDROOT
TORSDOF 0
ENDMDL
MODEL 6
REMARK VINA RESULT:       1.9      1.763      2.810
REMARK  0 active torsions:
REMARK  status: ('A' for Active; 'I' for Inactive)
ROOT
HETATM    1  C1  UNL     1     -33.348   7.397   3.584  1.00 20.00     0.050 C 
HETATM    2  C2  UNL     1     -32.690   8.382   2.964  1.00 20.00    -0.014 C 
HETATM    3  C3  UNL     1     -33.619   6.116   2.889  1.00 20.00     0.188 C 
HETATM    4  C4  UNL     1     -32.782   7.136   0.767  1.00 20.00     0.064 C 
HETATM    5  C5  UNL     1     -32.209   8.355   1.529  1.00 20.00    -0.026 C 
HETATM    6  C6  UNL     1     -32.910   5.843   1.577  1.00 20.00     0.164 C 
HETATM    7  C7  UNL     1     -30.671   8.367   1.505  1.00 20.00     0.019 C 
HETATM    8  C8  UNL     1     -32.697   9.636   0.820  1.00 20.00     0.019 C 
HETATM    9  C9  UNL     1     -31.592   5.130   1.849  1.00 20.00     0.060 C 
HETATM   10  O10 UNL     1     -34.365   5.288   3.408  1.00 20.00    -0.290 OA
HETATM   11  F11 UNL     1     -33.662   4.983   0.820  1.00 20.00    -0.235 F 
ENDROOT
TORSDOF 0
ENDMDL
MODEL 7
REMARK VINA RESULT:       2.6      2.385      3.617
REMARK  0 active torsions:
REMARK  status: ('A' for Active; 'I' for Inactive)
ROOT
HETATM    1  C1  UNL     1     -32.793   8.651   2.023  1.00 20.00     0.050 C 
HETATM    2  C2  UNL     1     -33.725   8.475   2.966  1.00 20.00    -0.014 C 
HETATM    3  C3  UNL     1     -32.076   7.489   1.445  1.00 20.00     0.188 C 
HETATM    4  C4  UNL     1     -33.133   6.026   3.173  1.00 20.00     0.064 C 
HETATM    5  C5  UNL     1     -34.116   7.149   3.583  1.00 20.00    -0.026 C 
HETATM    6  C6  UNL     1     -32.601   6.097   1.739  1.00 20.00     0.164 C 
HETATM    7  C7  UNL     1     -35.564   6.809   3.191  1.00 20.00     0.019 C 
HETATM    8  C8  UNL     1     -34.070   7.288   5.120  1.00 20.00     0.019 C 
HETATM    9  C9  UNL     1     -33.605   5.695   0.667  1.00 20.00     0.060 C 
HETATM   10  O10 UNL     1     -31.111   7.676   0.706  1.00 20.00    -0.290 OA
HETATM   11  F11 UNL     1     -31.574   5.194   1.660  1.00 20.00    -0.235 F 
ENDROOT
TORSDOF 0
ENDMDL
MODEL 8
REMARK VINA RESULT:       3.0      2.389      3.664
REMARK  0 active torsions:
REMARK  status: ('A' for Active; 'I' for Inactive)
ROOT
HETATM    1  C1  UNL     1     -32.422   6.042   1.879  1.00 20.00     0.050 C 
HETATM    2  C2  UNL     1     -33.390   5.912   2.794  1.00 20.00    -0.014 C 
HETATM    3  C3  UNL     1     -31.992   7.384   1.422  1.00 20.00     0.188 C 
HETATM    4  C4  UNL     1     -33.906   8.384   2.680  1.00 20.00     0.064 C 
HETATM    5  C5  UNL     1     -34.178   7.047   3.411  1.00 20.00    -0.026 C 
HETATM    6  C6  UNL     1     -32.469   8.598   2.196  1.00 20.00     0.164 C 
HETATM    7  C7  UNL     1     -33.848   7.142   4.911  1.00 20.00     0.019 C 
HETATM    8  C8  UNL     1     -35.683   6.729   3.284  1.00 20.00     0.019 C 
HETATM    9  C9  UNL     1     -31.469   8.926   3.297  1.00 20.00     0.060 C 
HETATM   10  O10 UNL     1     -31.225   7.485   0.467  1.00 20.00    -0.290 OA
HETATM   11  F11 UNL     1     -32.497   9.689   1.367  1.00 20.00    -0.235 F 
ENDROOT
TORSDOF 0
ENDMDL
MODEL 9
REMARK VINA RESULT:       4.0      1.963      3.077
REMARK  0 active torsions:
REMARK  status: ('A' for Active; 'I' for Inactive)
ROOT
HETATM    1  C1  UNL     1     -34.755   6.496   3.827  1.00 20.00     0.050 C 
HETATM    2  C2  UNL     1     -34.007   6.922   2.804  1.00 20.00    -0.014 C 
HETATM    3  C3  UNL     1     -34.734   5.071   4.235  1.00 20.00     0.188 C 
HETATM    4  C4  UNL     1     -33.384   4.549   2.198  1.00 20.00     0.064 C 
HETATM    5  C5  UNL     1     -33.131   6.052   1.929  1.00 20.00    -0.026 C 
HETATM    6  C6  UNL     1     -33.661   4.170   3.655  1.00 20.00     0.164 C 
HETATM    7  C7  UNL     1     -31.655   6.427   2.148  1.00 20.00     0.019 C 
HETATM    8  C8  UNL     1     -33.470   6.338   0.451  1.00 20.00     0.019 C 
HETATM    9  C9  UNL     1     -32.437   4.188   4.561  1.00 20.00     0.060 C 
HETATM   10  O10 UNL     1     -35.547   4.662   5.062  1.00 20.00    -0.290 OA
HETATM   11  F11 UNL     1     -34.108   2.875   3.641  1.00 20.00    -0.235 F 
ENDROOT
TORSDOF 0
ENDMDL
