MODEL 1
REMARK VINA RESULT:      -0.9      0.000      0.000
REMARK  1 active torsions:
REMARK  status: ('A' for Active; 'I' for Inactive)
REMARK    1  A    between atoms: C5_5  and  C8_8 
ROOT
HETATM    1  C1  UNL     1     -32.939   5.453   2.342  1.00 20.00     0.006 A 
HETATM    2  C2  UNL     1     -33.697   5.050   3.359  1.00 20.00     0.076 A 
HETATM    3  C3  UNL     1     -34.605   6.155   3.681  1.00 20.00     0.171 A 
HETATM    4  C4  UNL     1     -34.387   7.320   2.755  1.00 20.00     0.093 A 
HETATM    5  C5  UNL     1     -33.224   6.850   1.870  1.00 20.00     0.020 A 
HETATM    6  O9  UNL     1     -35.435   6.126   4.577  1.00 20.00    -0.291 OA
HETATM    7 CL10 UNL     1     -33.683   3.572   4.167  1.00 20.00    -0.081 Cl
ENDROOT
BRANCH   5   8
HETATM    8  C8  UNL     1     -31.999   7.747   2.002  1.00 20.00    -0.015 C 
HETATM    9  C6  UNL     1     -31.961   8.778   0.876  1.00 20.00     0.010 C 
HETATM   10  C7  UNL     1     -31.982   8.440   3.364  1.00 20.00     0.010 C 
ENDBRANCH   5   8
TORSDOF 1
ENDMDL
MODEL 2
REMARK VINA RESULT:      -0.9      1.848      2.727
REMARK  1 active torsions:
REMARK  status: ('A' for Active; 'I' for Inactive)
REMARK    1  A    between atoms: C5_5  and  C8_8 
ROOT
HETATM    1  C1  UNL     1     -33.217   8.182   2.770  1.00 20.00     0.006 A 
HETATM    2  C2  UNL     1     -33.721   6.971   2.991  1.00 20.00     0.076 A 
HETATM    3  C3  UNL     1     -32.949   6.030   2.173  1.00 20.00     0.171 A 
HETATM    4  C4  UNL     1     -31.865   6.741   1.411  1.00 20.00     0.093 A 
HETATM    5  C5  UNL     1     -32.077   8.213   1.792  1.00 20.00     0.020 A 
HETATM    6  O9  UNL     1     -33.155   4.826   2.128  1.00 20.00    -0.291 OA
HETATM    7 CL10 UNL     1     -34.991   6.523   4.001  1.00 20.00    -0.081 Cl
ENDROOT
BRANCH   5   8
HETATM    8  C8  UNL     1     -32.401   9.081   0.582  1.00 20.00    -0.015 C 
HETATM    9  C6  UNL     1     -32.740  10.506   1.016  1.00 20.00     0.010 C 
HETATM   10  C7  UNL     1     -31.236   9.086  -0.407  1.00 20.00     0.010 C 
ENDBRANCH   5   8
TORSDOF 1
ENDMDL
MODEL 3
REMARK VINA RESULT:       0.3      2.375      3.611
REMARK  1 active torsions:
REMARK  status: ('A' for Active; 'I' for Inactive)
REMARK    1  A    between atoms: C5_5  and  C8_8 
ROOT
HETATM    1  C1  UNL     1     -33.173   5.541   2.940  1.00 20.00     0.006 A 
HETATM    2  C2  UNL     1     -32.614   6.031   1.836  1.00 20.00     0.076 A 
HETATM    3  C3  UNL     1     -32.611   7.491   1.969  1.00 20.00     0.171 A 
HETATM    4  C4  UNL     1     -33.200   7.914   3.286  1.00 20.00     0.093 A 
HETATM    5  C5  UNL     1     -33.617   6.583   3.927  1.00 20.00     0.020 A 
HETATM    6  O9  UNL     1     -32.175   8.258   1.124  1.00 20.00    -0.291 OA
HETATM    7 CL10 UNL     1     -31.999   5.202   0.506  1.00 20.00    -0.081 Cl
ENDROOT
BRANCH   5   8
HETATM    8  C8  UNL     1     -35.118   6.510   4.181  1.00 20.00    -0.015 C 
HETATM    9  C6  UNL     1     -35.897   6.955   2.945  1.00 20.00     0.010 C 
HETATM   10  C7  UNL     1     -35.528   5.097   4.592  1.00 20.00     0.010 C 
ENDBRANCH   5   8
TORSDOF 1
ENDMDL
MODEL 4
REMARK VINA RESULT:       0.5      2.913      4.006
REMARK  1 active torsions:
REMARK  status: ('A' for Active; 'I' for Inactive)
REMARK    1  A    between atoms: C5_5  and  C8_8 
ROOT
HETATM    1  C1  UNL     1     -33.127   7.752   2.188  1.00 20.00     0.006 A 
HETATM    2  C2  UNL     1     -32.047   7.382   1.503  1.00 20.00     0.076 A 
HETATM    3  C3  UNL     1     -32.121   5.926   1.341  1.00 20.00     0.171 A 
HETATM    4  C4  UNL     1     -33.373   5.377   1.966  1.00 20.00     0.093 A 
HETATM    5  C5  UNL     1     -34.036   6.620   2.575  1.00 20.00     0.020 A 
HETATM    6  O9  UNL     1     -31.279   5.254   0.765  1.00 20.00    -0.291 OA
HETATM    7 CL10 UNL     1     -30.800   8.338   0.899  1.00 20.00    -0.081 Cl
ENDROOT
BRANCH   5   8
HETATM    8  C8  UNL     1     -34.183   6.513   4.088  1.00 20.00    -0.015 C 
HETATM    9  C6  UNL     1     -34.024   7.883   4.745  1.00 20.00     0.010 C 
HETATM   10  C7  UNL     1     -35.531   5.896   4.457  1.00 20.00     0.010 C 
ENDBRANCH   5   8
TORSDOF 1
ENDMDL
MODEL 5
REMARK VINA RESULT:       0.5      1.503      2.043
REMARK  1 active torsions:
REMARK  status: ('A' for Active; 'I' for Inactive)
REMARK    1  A    between atoms: C5_5  and  C8_8 
ROOT
HETATM    1  C1  UNL     1     -34.054   6.305   2.515  1.00 20.00     0.006 A 
HETATM    2  C2  UNL     1     -34.474   6.367   3.776  1.00 20.00     0.076 A 
HETATM    3  C3  UNL     1     -33.962   7.621   4.338  1.00 20.00     0.171 A 
HETATM    4  C4  UNL     1     -33.183   8.394   3.310  1.00 20.00     0.093 A 
HETATM    5  C5  UNL     1     -33.217   7.475   2.081  1.00 20.00     0.020 A 
HETATM    6  O9  UNL     1     -34.154   7.989   5.486  1.00 20.00    -0.291 OA
HETATM    7 CL10 UNL     1     -35.419   5.265   4.630  1.00 20.00    -0.081 Cl
ENDROOT
BRANCH   5   8
HETATM    8  C8  UNL     1     -31.822   7.035   1.650  1.00 20.00    -0.015 C 
HETATM    9  C6  UNL     1     -31.856   5.621   1.073  1.00 20.00     0.010 C 
HETATM   10  C7  UNL     1     -31.237   8.015   0.634  1.00 20.00     0.010 C 
ENDBRANCH   5   8
TORSDOF 1
ENDMDL
MODEL 6
REMARK VINA RESULT:       0.9      2.787      4.260
REMARK  1 active torsions:
REMARK  status: ('A' for Active; 'I' for Inactive)
REMARK    1  A    between atoms: C5_5  and  C8_8 
ROOT
HETATM    1  C1  UNL     1     -33.495   7.279   3.065  1.00 20.00     0.006 A 
HETATM    2  C2  UNL     1     -32.411   7.363   2.297  1.00 20.00     0.076 A 
HETATM    3  C3  UNL     1     -32.320   6.106   1.547  1.00 20.00     0.171 A 
HETATM    4  C4  UNL     1     -33.470   5.196   1.878  1.00 20.00     0.093 A 
HETATM    5  C5  UNL     1     -34.246   5.984   2.942  1.00 20.00     0.020 A 
HETATM    6  O9  UNL     1     -31.432   5.843   0.750  1.00 20.00    -0.291 OA
HETATM    7 CL10 UNL     1     -31.314   8.632   2.153  1.00 20.00    -0.081 Cl
ENDROOT
BRANCH   5   8
HETATM    8  C8  UNL     1     -34.311   5.246   4.274  1.00 20.00    -0.015 C 
HETATM    9  C6  UNL     1     -35.740   5.231   4.813  1.00 20.00     0.010 C 
HETATM   10  C7  UNL     1     -33.779   3.821   4.128  1.00 20.00     0.010 C 
ENDBRANCH   5   8
TORSDOF 1
ENDMDL
MODEL 7
REMARK VINA RESULT:       1.1      3.416      4.493
REMARK  1 active torsions:
REMARK  status: ('A' for Active; 'I' for Inactive)
REMARK    1  A    between atoms: C5_5  and  C8_8 
ROOT
HETATM    1  C1  UNL     1     -31.591   7.675   1.429  1.00 20.00     0.006 A 
HETATM    2  C2  UNL     1     -31.485   8.575   0.455  1.00 20.00     0.076 A 
HETATM    3  C3  UNL     1     -32.461   9.632   0.739  1.00 20.00     0.171 A 
HETATM    4  C4  UNL     1     -33.205   9.350   2.015  1.00 20.00     0.093 A 
HETATM    5  C5  UNL     1     -32.635   7.996   2.461  1.00 20.00     0.020 A 
HETATM    6  O9  UNL     1     -32.637  10.614   0.034  1.00 20.00    -0.291 OA
HETATM    7 CL10 UNL     1     -30.451   8.576  -0.874  1.00 20.00    -0.081 Cl
ENDROOT
BRANCH   5   8
HETATM    8  C8  UNL     1     -33.705   6.914   2.530  1.00 20.00    -0.015 C 
HETATM    9  C6  UNL     1     -33.125   5.555   2.144  1.00 20.00     0.010 C 
HETATM   10  C7  UNL     1     -34.324   6.855   3.926  1.00 20.00     0.010 C 
ENDBRANCH   5   8
TORSDOF 1
ENDMDL
MODEL 8
REMARK VINA RESULT:       1.1      1.766      2.511
REMARK  1 active torsions:
REMARK  status: ('A' for Active; 'I' for Inactive)
REMARK    1  A    between atoms: C5_5  and  C8_8 
ROOT
HETATM    1  C1  UNL     1     -33.301   6.820   1.996  1.00 20.00     0.006 A 
HETATM    2  C2  UNL     1     -33.061   5.513   2.072  1.00 20.00     0.076 A 
HETATM    3  C3  UNL     1     -33.738   5.023   3.277  1.00 20.00     0.171 A 
HETATM    4  C4  UNL     1     -34.471   6.135   3.975  1.00 20.00     0.093 A 
HETATM    5  C5  UNL     1     -34.138   7.365   3.119  1.00 20.00     0.020 A 
HETATM    6  O9  UNL     1     -33.714   3.861   3.655  1.00 20.00    -0.291 OA
HETATM    7 CL10 UNL     1     -32.172   4.540   1.025  1.00 20.00    -0.081 Cl
ENDROOT
BRANCH   5   8
HETATM    8  C8  UNL     1     -33.390   8.432   3.908  1.00 20.00    -0.015 C 
HETATM    9  C6  UNL     1     -33.334   8.068   5.391  1.00 20.00     0.010 C 
HETATM   10  C7  UNL     1     -31.980   8.627   3.352  1.00 20.00     0.010 C 
ENDBRANCH   5   8
TORSDOF 1
ENDMDL
MODEL 9
REMARK VINA RESULT:       1.1      2.488      3.464
REMARK  1 active torsions:
REMARK  status: ('A' for Active; 'I' for Inactive)
REMARK    1  A    between atoms: C5_5  and  C8_8 
ROOT
HETATM    1  C1  UNL     1     -33.936   6.741   2.827  1.00 20.00     0.006 A 
HETATM    2  C2  UNL     1     -33.343   7.597   3.655  1.00 20.00     0.076 A 
HETATM    3  C3  UNL     1     -32.152   8.105   2.965  1.00 20.00     0.171 A 
HETATM    4  C4  UNL     1     -32.035   7.516   1.586  1.00 20.00     0.093 A 
HETATM    5  C5  UNL     1     -33.232   6.558   1.512  1.00 20.00     0.020 A 
HETATM    6  O9  UNL     1     -31.368   8.909   3.447  1.00 20.00    -0.291 OA
HETATM    7 CL10 UNL     1     -33.810   8.066   5.203  1.00 20.00    -0.081 Cl
ENDROOT
BRANCH   5   8
HETATM    8  C8  UNL     1     -32.800   5.111   1.305  1.00 20.00    -0.015 C 
HETATM    9  C6  UNL     1     -33.467   4.521   0.063  1.00 20.00     0.010 C 
HETATM   10  C7  UNL     1     -31.280   5.011   1.194  1.00 20.00     0.010 C 
ENDBRANCH   5   8
TORSDOF 1
ENDMDL
