MODEL 1
REMARK VINA RESULT:      -3.0      0.000      0.000
REMARK  2 active torsions:
REMARK  status: ('A' for Active; 'I' for Inactive)
REMARK    1  A    between atoms: C1_1  and  C5_5 
REMARK    2  A    between atoms: C2_2  and  C3_3 
ROOT
HETATM    1  C1  UNL     1     -33.581   6.323   2.856  1.00 20.00     0.134 C 
HETATM    2  C2  UNL     1     -32.604   6.676   2.015  1.00 20.00     0.166 C 
HETATM    3  F7  UNL     1     -32.061   5.778   1.166  1.00 20.00    -0.202 F 
ENDROOT
BRANCH   1   4
HETATM    4  C5  UNL     1     -34.240   7.242   3.826  1.00 20.00     0.410 C 
HETATM    5  F8  UNL     1     -33.407   7.706   4.791  1.00 20.00    -0.167 F 
HETATM    6  F9  UNL     1     -35.271   6.629   4.462  1.00 20.00    -0.167 F 
HETATM    7  F10 UNL     1     -34.758   8.329   3.201  1.00 20.00    -0.167 F 
ENDBRANCH   1   4
BRANCH   2   8
HETATM    8  C3  UNL     1     -32.014   8.035   1.905  1.00 20.00     0.183 C 
HETATM    9  C4  UNL     1     -32.395   8.917   0.745  1.00 20.00     0.099 C 
HETATM   10  O6  UNL     1     -31.222   8.421   2.764  1.00 20.00    -0.290 OA
ENDBRANCH   2   8
TORSDOF 2
ENDMDL
MODEL 2
REMARK VINA RESULT:      -3.0      0.025      1.189
REMARK  2 active torsions:
REMARK  status: ('A' for Active; 'I' for Inactive)
REMARK    1  A    between atoms: C1_1  and  C5_5 
REMARK    2  A    between atoms: C2_2  and  C3_3 
ROOT
HETATM    1  C1  UNL     1     -33.575   6.317   2.846  1.00 20.00     0.134 C 
HETATM    2  C2  UNL     1     -32.592   6.674   2.014  1.00 20.00     0.166 C 
HETATM    3  F7  UNL     1     -32.032   5.775   1.177  1.00 20.00    -0.202 F 
ENDROOT
BRANCH   1   4
HETATM    4  C5  UNL     1     -34.253   7.236   3.804  1.00 20.00     0.410 C 
HETATM    5  F8  UNL     1     -34.767   8.348   3.221  1.00 20.00    -0.167 F 
HETATM    6  F9  UNL     1     -33.397   7.661   4.768  1.00 20.00    -0.167 F 
HETATM    7  F10 UNL     1     -35.280   6.616   4.438  1.00 20.00    -0.167 F 
ENDBRANCH   1   4
BRANCH   2   8
HETATM    8  C3  UNL     1     -32.012   8.036   1.903  1.00 20.00     0.183 C 
HETATM    9  C4  UNL     1     -32.399   8.914   0.741  1.00 20.00     0.099 C 
HETATM   10  O6  UNL     1     -31.224   8.430   2.763  1.00 20.00    -0.290 OA
ENDBRANCH   2   8
TORSDOF 2
ENDMDL
MODEL 3
REMARK VINA RESULT:      -2.5      2.214      4.073
REMARK  2 active torsions:
REMARK  status: ('A' for Active; 'I' for Inactive)
REMARK    1  A    between atoms: C1_1  and  C5_5 
REMARK    2  A    between atoms: C2_2  and  C3_3 
ROOT
HETATM    1  C1  UNL     1     -32.984   7.247   2.980  1.00 20.00     0.134 C 
HETATM    2  C2  UNL     1     -34.005   7.234   3.843  1.00 20.00     0.166 C 
HETATM    3  F7  UNL     1     -34.094   8.154   4.826  1.00 20.00    -0.202 F 
ENDROOT
BRANCH   1   4
HETATM    4  C5  UNL     1     -32.802   6.275   1.865  1.00 20.00     0.410 C 
HETATM    5  F8  UNL     1     -33.738   6.384   0.888  1.00 20.00    -0.167 F 
HETATM    6  F9  UNL     1     -32.853   4.996   2.314  1.00 20.00    -0.167 F 
HETATM    7  F10 UNL     1     -31.594   6.433   1.267  1.00 20.00    -0.167 F 
ENDBRANCH   1   4
BRANCH   2   8
HETATM    8  C3  UNL     1     -35.123   6.257   3.836  1.00 20.00     0.183 C 
HETATM    9  C4  UNL     1     -34.938   4.914   4.494  1.00 20.00     0.099 C 
HETATM   10  O6  UNL     1     -36.186   6.558   3.293  1.00 20.00    -0.290 OA
ENDBRANCH   2   8
TORSDOF 2
ENDMDL
MODEL 4
REMARK VINA RESULT:      -2.5      2.218      4.075
REMARK  2 active torsions:
REMARK  status: ('A' for Active; 'I' for Inactive)
REMARK    1  A    between atoms: C1_1  and  C5_5 
REMARK    2  A    between atoms: C2_2  and  C3_3 
ROOT
HETATM    1  C1  UNL     1     -32.985   7.264   2.996  1.00 20.00     0.134 C 
HETATM    2  C2  UNL     1     -34.010   7.243   3.854  1.00 20.00     0.166 C 
HETATM    3  F7  UNL     1     -34.111   8.163   4.836  1.00 20.00    -0.202 F 
ENDROOT
BRANCH   1   4
HETATM    4  C5  UNL     1     -32.790   6.293   1.883  1.00 20.00     0.410 C 
HETATM    5  F8  UNL     1     -32.845   4.995   2.275  1.00 20.00    -0.167 F 
HETATM    6  F9  UNL     1     -31.585   6.468   1.282  1.00 20.00    -0.167 F 
HETATM    7  F10 UNL     1     -33.733   6.451   0.920  1.00 20.00    -0.167 F 
ENDBRANCH   1   4
BRANCH   2   8
HETATM    8  C3  UNL     1     -35.120   6.257   3.843  1.00 20.00     0.183 C 
HETATM    9  C4  UNL     1     -34.926   4.914   4.498  1.00 20.00     0.099 C 
HETATM   10  O6  UNL     1     -36.185   6.551   3.300  1.00 20.00    -0.290 OA
ENDBRANCH   2   8
TORSDOF 2
ENDMDL
MODEL 5
REMARK VINA RESULT:      -2.2      2.001      3.436
REMARK  2 active torsions:
REMARK  status: ('A' for Active; 'I' for Inactive)
REMARK    1  A    between atoms: C1_1  and  C5_5 
REMARK    2  A    between atoms: C2_2  and  C3_3 
ROOT
HETATM    1  C1  UNL     1     -32.329   6.627   1.784  1.00 20.00     0.134 C 
HETATM    2  C2  UNL     1     -33.211   6.083   2.629  1.00 20.00     0.166 C 
HETATM    3  F7  UNL     1     -33.440   4.754   2.632  1.00 20.00    -0.202 F 
ENDROOT
BRANCH   1   4
HETATM    4  C5  UNL     1     -32.010   8.080   1.708  1.00 20.00     0.410 C 
HETATM    5  F8  UNL     1     -33.103   8.872   1.566  1.00 20.00    -0.167 F 
HETATM    6  F9  UNL     1     -31.194   8.351   0.657  1.00 20.00    -0.167 F 
HETATM    7  F10 UNL     1     -31.364   8.502   2.824  1.00 20.00    -0.167 F 
ENDBRANCH   1   4
BRANCH   2   8
HETATM    8  C3  UNL     1     -34.017   6.831   3.629  1.00 20.00     0.183 C 
HETATM    9  C4  UNL     1     -35.463   6.463   3.840  1.00 20.00     0.099 C 
HETATM   10  O6  UNL     1     -33.490   7.739   4.271  1.00 20.00    -0.290 OA
ENDBRANCH   2   8
TORSDOF 2
ENDMDL
MODEL 6
REMARK VINA RESULT:      -2.2      2.639      3.810
REMARK  2 active torsions:
REMARK  status: ('A' for Active; 'I' for Inactive)
REMARK    1  A    between atoms: C1_1  and  C5_5 
REMARK    2  A    between atoms: C2_2  and  C3_3 
ROOT
HETATM    1  C1  UNL     1     -33.198   4.876   2.700  1.00 20.00     0.134 C 
HETATM    2  C2  UNL     1     -34.104   5.171   3.637  1.00 20.00     0.166 C 
HETATM    3  F7  UNL     1     -34.465   4.260   4.565  1.00 20.00    -0.202 F 
ENDROOT
BRANCH   1   4
HETATM    4  C5  UNL     1     -32.738   5.813   1.637  1.00 20.00     0.410 C 
HETATM    5  F8  UNL     1     -32.415   7.047   2.101  1.00 20.00    -0.167 F 
HETATM    6  F9  UNL     1     -33.694   5.991   0.690  1.00 20.00    -0.167 F 
HETATM    7  F10 UNL     1     -31.640   5.335   1.000  1.00 20.00    -0.167 F 
ENDBRANCH   1   4
BRANCH   2   8
HETATM    8  C3  UNL     1     -34.801   6.475   3.778  1.00 20.00     0.183 C 
HETATM    9  C4  UNL     1     -34.072   7.643   4.389  1.00 20.00     0.099 C 
HETATM   10  O6  UNL     1     -35.965   6.583   3.391  1.00 20.00    -0.290 OA
ENDBRANCH   2   8
TORSDOF 2
ENDMDL
MODEL 7
REMARK VINA RESULT:      -1.9      1.957      2.472
REMARK  2 active torsions:
REMARK  status: ('A' for Active; 'I' for Inactive)
REMARK    1  A    between atoms: C1_1  and  C5_5 
REMARK    2  A    between atoms: C2_2  and  C3_3 
ROOT
HETATM    1  C1  UNL     1     -33.422   7.582   3.162  1.00 20.00     0.134 C 
HETATM    2  C2  UNL     1     -32.670   7.276   2.100  1.00 20.00     0.166 C 
HETATM    3  F7  UNL     1     -31.750   8.143   1.629  1.00 20.00    -0.202 F 
ENDROOT
BRANCH   1   4
HETATM    4  C5  UNL     1     -34.461   6.692   3.752  1.00 20.00     0.410 C 
HETATM    5  F8  UNL     1     -34.061   5.402   3.886  1.00 20.00    -0.167 F 
HETATM    6  F9  UNL     1     -35.585   6.674   2.991  1.00 20.00    -0.167 F 
HETATM    7  F10 UNL     1     -34.831   7.117   4.986  1.00 20.00    -0.167 F 
ENDBRANCH   1   4
BRANCH   2   8
HETATM    8  C3  UNL     1     -32.741   6.006   1.334  1.00 20.00     0.183 C 
HETATM    9  C4  UNL     1     -31.644   4.985   1.488  1.00 20.00     0.099 C 
HETATM   10  O6  UNL     1     -33.697   5.805   0.584  1.00 20.00    -0.290 OA
ENDBRANCH   2   8
TORSDOF 2
ENDMDL
MODEL 8
REMARK VINA RESULT:      -1.9      1.644      2.213
REMARK  2 active torsions:
REMARK  status: ('A' for Active; 'I' for Inactive)
REMARK    1  A    between atoms: C1_1  and  C5_5 
REMARK    2  A    between atoms: C2_2  and  C3_3 
ROOT
HETATM    1  C1  UNL     1     -33.464   7.516   4.167  1.00 20.00     0.134 C 
HETATM    2  C2  UNL     1     -32.502   8.013   3.383  1.00 20.00     0.166 C 
HETATM    3  F7  UNL     1     -31.589   8.880   3.871  1.00 20.00    -0.202 F 
ENDROOT
BRANCH   1   4
HETATM    4  C5  UNL     1     -34.512   6.557   3.720  1.00 20.00     0.410 C 
HETATM    5  F8  UNL     1     -35.131   6.922   2.569  1.00 20.00    -0.167 F 
HETATM    6  F9  UNL     1     -35.484   6.418   4.657  1.00 20.00    -0.167 F 
HETATM    7  F10 UNL     1     -33.992   5.321   3.510  1.00 20.00    -0.167 F 
ENDBRANCH   1   4
BRANCH   2   8
HETATM    8  C3  UNL     1     -32.315   7.696   1.945  1.00 20.00     0.183 C 
HETATM    9  C4  UNL     1     -32.330   8.811   0.931  1.00 20.00     0.099 C 
HETATM   10  O6  UNL     1     -32.151   6.526   1.601  1.00 20.00    -0.290 OA
ENDBRANCH   2   8
TORSDOF 2
ENDMDL
MODEL 9
REMARK VINA RESULT:      -1.5      2.881      3.764
REMARK  2 active torsions:
REMARK  status: ('A' for Active; 'I' for Inactive)
REMARK    1  A    between atoms: C1_1  and  C5_5 
REMARK    2  A    between atoms: C2_2  and  C3_3 
ROOT
HETATM    1  C1  UNL     1     -33.228   4.449   3.144  1.00 20.00     0.134 C 
HETATM    2  C2  UNL     1     -33.567   5.711   2.858  1.00 20.00     0.166 C 
HETATM    3  F7  UNL     1     -33.120   6.312   1.736  1.00 20.00    -0.202 F 
ENDROOT
BRANCH   1   4
HETATM    4  C5  UNL     1     -33.672   3.704   4.355  1.00 20.00     0.410 C 
HETATM    5  F8  UNL     1     -34.892   4.082   4.812  1.00 20.00    -0.167 F 
HETATM    6  F9  UNL     1     -32.801   3.873   5.383  1.00 20.00    -0.167 F 
HETATM    7  F10 UNL     1     -33.740   2.370   4.115  1.00 20.00    -0.167 F 
ENDBRANCH   1   4
BRANCH   2   8
HETATM    8  C3  UNL     1     -34.437   6.577   3.694  1.00 20.00     0.183 C 
HETATM    9  C4  UNL     1     -33.829   7.729   4.451  1.00 20.00     0.099 C 
HETATM   10  O6  UNL     1     -35.644   6.341   3.754  1.00 20.00    -0.290 OA
ENDBRANCH   2   8
TORSDOF 2
ENDMDL
