MODEL 1
REMARK VINA RESULT:       2.5      0.000      0.000
REMARK  0 active torsions:
REMARK  status: ('A' for Active; 'I' for Inactive)
ROOT
HETATM    1  C1  UNL     1     -32.381   9.642   0.545  1.00 20.00     0.001 C 
HETATM    2  C2  UNL     1     -31.048   8.898   0.526  1.00 20.00     0.001 C 
HETATM    3  C3  UNL     1     -33.386   8.701   1.210  1.00 20.00     0.011 C 
HETATM    4  C4  UNL     1     -31.336   7.513   1.094  1.00 20.00     0.011 C 
HETATM    5  C5  UNL     1     -32.083   8.303   3.389  1.00 20.00     0.096 C 
HETATM    6  C6  UNL     1     -33.245   6.379   2.309  1.00 20.00     0.096 C 
HETATM    7  C7  UNL     1     -32.535   7.714   2.035  1.00 20.00    -0.022 C 
HETATM    8  S8  UNL     1     -33.459   8.174   4.564  1.00 20.00    -0.097 SA
HETATM    9  S9  UNL     1     -34.450   6.643   3.634  1.00 20.00    -0.097 SA
ENDROOT
TORSDOF 0
ENDMDL
MODEL 2
REMARK VINA RESULT:       2.6      2.352      4.198
REMARK  0 active torsions:
REMARK  status: ('A' for Active; 'I' for Inactive)
ROOT
HETATM    1  C1  UNL     1     -34.139   4.524   4.485  1.00 20.00     0.001 C 
HETATM    2  C2  UNL     1     -35.501   5.208   4.553  1.00 20.00     0.001 C 
HETATM    3  C3  UNL     1     -33.364   5.226   3.370  1.00 20.00     0.011 C 
HETATM    4  C4  UNL     1     -35.515   6.223   3.415  1.00 20.00     0.011 C 
HETATM    5  C5  UNL     1     -33.577   7.623   4.269  1.00 20.00     0.096 C 
HETATM    6  C6  UNL     1     -33.827   7.226   1.819  1.00 20.00     0.096 C 
HETATM    7  C7  UNL     1     -34.040   6.602   3.207  1.00 20.00    -0.022 C 
HETATM    8  S8  UNL     1     -31.971   8.299   3.759  1.00 20.00    -0.097 SA
HETATM    9  S9  UNL     1     -32.149   7.904   1.758  1.00 20.00    -0.097 SA
ENDROOT
TORSDOF 0
ENDMDL
MODEL 3
REMARK VINA RESULT:       3.0      1.652      2.583
REMARK  0 active torsions:
REMARK  status: ('A' for Active; 'I' for Inactive)
ROOT
HETATM    1  C1  UNL     1     -31.667   8.132   3.072  1.00 20.00     0.001 C 
HETATM    2  C2  UNL     1     -31.980   8.013   1.583  1.00 20.00     0.001 C 
HETATM    3  C3  UNL     1     -32.908   7.630   3.811  1.00 20.00     0.011 C 
HETATM    4  C4  UNL     1     -33.425   7.534   1.498  1.00 20.00     0.011 C 
HETATM    5  C5  UNL     1     -33.056   5.323   2.690  1.00 20.00     0.096 C 
HETATM    6  C6  UNL     1     -35.156   6.606   3.094  1.00 20.00     0.096 C 
HETATM    7  C7  UNL     1     -33.655   6.742   2.796  1.00 20.00    -0.022 C 
HETATM    8  S8  UNL     1     -33.669   4.331   4.081  1.00 20.00    -0.097 SA
HETATM    9  S9  UNL     1     -35.355   5.431   4.457  1.00 20.00    -0.097 SA
ENDROOT
TORSDOF 0
ENDMDL
MODEL 4
REMARK VINA RESULT:       3.5      2.407      3.621
REMARK  0 active torsions:
REMARK  status: ('A' for Active; 'I' for Inactive)
ROOT
HETATM    1  C1  UNL     1     -33.244   8.272   4.653  1.00 20.00     0.001 C 
HETATM    2  C2  UNL     1     -34.270   7.261   4.148  1.00 20.00     0.001 C 
HETATM    3  C3  UNL     1     -32.140   8.325   3.596  1.00 20.00     0.011 C 
HETATM    4  C4  UNL     1     -33.689   6.686   2.861  1.00 20.00     0.011 C 
HETATM    5  C5  UNL     1     -33.633   8.876   1.579  1.00 20.00     0.096 C 
HETATM    6  C6  UNL     1     -31.778   7.234   1.295  1.00 20.00     0.096 C 
HETATM    7  C7  UNL     1     -32.792   7.801   2.300  1.00 20.00    -0.022 C 
HETATM    8  S8  UNL     1     -32.513   9.951   0.638  1.00 20.00    -0.097 SA
HETATM    9  S9  UNL     1     -30.963   8.624   0.471  1.00 20.00    -0.097 SA
ENDROOT
TORSDOF 0
ENDMDL
MODEL 5
REMARK VINA RESULT:       3.5      2.500      4.081
REMARK  0 active torsions:
REMARK  status: ('A' for Active; 'I' for Inactive)
ROOT
HETATM    1  C1  UNL     1     -36.035   6.422   3.239  1.00 20.00     0.001 C 
HETATM    2  C2  UNL     1     -35.437   6.017   4.583  1.00 20.00     0.001 C 
HETATM    3  C3  UNL     1     -34.978   7.278   2.541  1.00 20.00     0.011 C 
HETATM    4  C4  UNL     1     -34.089   6.724   4.669  1.00 20.00     0.011 C 
HETATM    5  C5  UNL     1     -33.048   5.586   2.653  1.00 20.00     0.096 C 
HETATM    6  C6  UNL     1     -32.569   7.994   3.093  1.00 20.00     0.096 C 
HETATM    7  C7  UNL     1     -33.640   6.899   3.209  1.00 20.00    -0.022 C 
HETATM    8  S8  UNL     1     -32.215   5.948   1.081  1.00 20.00    -0.097 SA
HETATM    9  S9  UNL     1     -31.890   7.942   1.416  1.00 20.00    -0.097 SA
ENDROOT
TORSDOF 0
ENDMDL
MODEL 6
REMARK VINA RESULT:       3.5      1.025      1.087
REMARK  0 active torsions:
REMARK  status: ('A' for Active; 'I' for Inactive)
ROOT
HETATM    1  C1  UNL     1     -32.915   9.643  -0.030  1.00 20.00     0.001 C 
HETATM    2  C2  UNL     1     -31.430   9.790   0.291  1.00 20.00     0.001 C 
HETATM    3  C3  UNL     1     -33.311   8.235   0.416  1.00 20.00     0.011 C 
HETATM    4  C4  UNL     1     -30.984   8.435   0.827  1.00 20.00     0.011 C 
HETATM    5  C5  UNL     1     -32.514   8.417   2.852  1.00 20.00     0.096 C 
HETATM    6  C6  UNL     1     -32.100   6.299   1.601  1.00 20.00     0.096 C 
HETATM    7  C7  UNL     1     -32.247   7.821   1.453  1.00 20.00    -0.022 C 
HETATM    8  S8  UNL     1     -33.779   7.409   3.676  1.00 20.00    -0.097 SA
HETATM    9  S9  UNL     1     -33.486   5.694   2.596  1.00 20.00    -0.097 SA
ENDROOT
TORSDOF 0
ENDMDL
MODEL 7
REMARK VINA RESULT:       3.6      1.307      1.650
REMARK  0 active torsions:
REMARK  status: ('A' for Active; 'I' for Inactive)
ROOT
HETATM    1  C1  UNL     1     -33.079   8.203   0.472  1.00 20.00     0.001 C 
HETATM    2  C2  UNL     1     -31.850   8.651   1.258  1.00 20.00     0.001 C 
HETATM    3  C3  UNL     1     -33.468   6.834   1.030  1.00 20.00     0.011 C 
HETATM    4  C4  UNL     1     -31.504   7.491   2.185  1.00 20.00     0.011 C 
HETATM    5  C5  UNL     1     -33.677   7.524   3.497  1.00 20.00     0.096 C 
HETATM    6  C6  UNL     1     -32.606   5.342   2.940  1.00 20.00     0.096 C 
HETATM    7  C7  UNL     1     -32.840   6.774   2.438  1.00 20.00    -0.022 C 
HETATM    8  S8  UNL     1     -35.050   6.454   4.012  1.00 20.00    -0.097 SA
HETATM    9  S9  UNL     1     -34.196   4.669   3.485  1.00 20.00    -0.097 SA
ENDROOT
TORSDOF 0
ENDMDL
MODEL 8
REMARK VINA RESULT:       4.5      2.586      3.619
REMARK  0 active torsions:
REMARK  status: ('A' for Active; 'I' for Inactive)
ROOT
HETATM    1  C1  UNL     1     -33.396   5.522   1.856  1.00 20.00     0.001 C 
HETATM    2  C2  UNL     1     -33.240   5.946   3.315  1.00 20.00     0.001 C 
HETATM    3  C3  UNL     1     -33.503   6.814   1.046  1.00 20.00     0.011 C 
HETATM    4  C4  UNL     1     -33.355   7.466   3.321  1.00 20.00     0.011 C 
HETATM    5  C5  UNL     1     -31.325   7.906   1.862  1.00 20.00     0.096 C 
HETATM    6  C6  UNL     1     -33.362   9.322   1.601  1.00 20.00     0.096 C 
HETATM    7  C7  UNL     1     -32.868   7.905   1.931  1.00 20.00    -0.022 C 
HETATM    8  S8  UNL     1     -30.816   8.769   0.349  1.00 20.00    -0.097 SA
HETATM    9  S9  UNL     1     -32.520   9.876   0.097  1.00 20.00    -0.097 SA
ENDROOT
TORSDOF 0
ENDMDL
MODEL 9
REMARK VINA RESULT:       4.5      1.659      3.144
REMARK  0 active torsions:
REMARK  status: ('A' for Active; 'I' for Inactive)
ROOT
HETATM    1  C1  UNL     1     -32.377   4.543   1.265  1.00 20.00     0.001 C 
HETATM    2  C2  UNL     1     -33.514   4.998   0.354  1.00 20.00     0.001 C 
HETATM    3  C3  UNL     1     -31.755   5.815   1.841  1.00 20.00     0.011 C 
HETATM    4  C4  UNL     1     -33.461   6.521   0.352  1.00 20.00     0.011 C 
HETATM    5  C5  UNL     1     -33.901   6.818   2.834  1.00 20.00     0.096 C 
HETATM    6  C6  UNL     1     -32.286   8.327   1.680  1.00 20.00     0.096 C 
HETATM    7  C7  UNL     1     -32.846   6.897   1.710  1.00 20.00    -0.022 C 
HETATM    8  S8  UNL     1     -33.224   7.613   4.319  1.00 20.00    -0.097 SA
HETATM    9  S9  UNL     1     -31.847   8.796   3.373  1.00 20.00    -0.097 SA
ENDROOT
TORSDOF 0
ENDMDL
