MODEL 1
REMARK VINA RESULT:      -0.6      0.000      0.000
REMARK  0 active torsions:
REMARK  status: ('A' for Active; 'I' for Inactive)
ROOT
HETATM    1  C1  UNL     1     -33.376   5.568   2.810  1.00 20.00     0.117 A 
HETATM    2  C2  UNL     1     -33.966   6.658   3.306  1.00 20.00    -0.042 A 
HETATM    3  C3  UNL     1     -32.470   6.020   1.751  1.00 20.00     0.186 A 
HETATM    4  C4  UNL     1     -34.988   6.572   4.385  1.00 20.00     0.039 C 
HETATM    5  C5  UNL     1     -33.526   7.946   2.690  1.00 20.00     0.049 A 
HETATM    6  C6  UNL     1     -35.433   5.114   4.557  1.00 20.00     0.031 C 
HETATM    7  C7  UNL     1     -34.244   4.155   4.438  1.00 20.00     0.176 C 
HETATM    8  C8  UNL     1     -32.559   7.520   1.572  1.00 20.00     0.062 A 
HETATM    9  C9  UNL     1     -31.194   8.179   1.686  1.00 20.00     0.018 C 
HETATM   10  O10 UNL     1     -31.753   5.269   1.107  1.00 20.00    -0.290 OA
HETATM   11  O11 UNL     1     -33.548   4.271   3.185  1.00 20.00    -0.347 OA
ENDROOT
TORSDOF 0
ENDMDL
MODEL 2
REMARK VINA RESULT:       0.7      1.754      4.222
REMARK  0 active torsions:
REMARK  status: ('A' for Active; 'I' for Inactive)
ROOT
HETATM    1  C1  UNL     1     -33.554   6.863   3.000  1.00 20.00     0.117 A 
HETATM    2  C2  UNL     1     -32.759   6.128   2.219  1.00 20.00    -0.042 A 
HETATM    3  C3  UNL     1     -34.418   5.929   3.726  1.00 20.00     0.186 A 
HETATM    4  C4  UNL     1     -31.767   6.755   1.302  1.00 20.00     0.039 C 
HETATM    5  C5  UNL     1     -32.955   4.652   2.334  1.00 20.00     0.049 A 
HETATM    6  C6  UNL     1     -32.046   8.259   1.192  1.00 20.00     0.031 C 
HETATM    7  C7  UNL     1     -32.435   8.850   2.551  1.00 20.00     0.176 C 
HETATM    8  C8  UNL     1     -34.138   4.502   3.306  1.00 20.00     0.062 A 
HETATM    9  C9  UNL     1     -33.817   3.620   4.501  1.00 20.00     0.018 C 
HETATM   10  O10 UNL     1     -35.250   6.276   4.550  1.00 20.00    -0.290 OA
HETATM   11  O11 UNL     1     -33.588   8.218   3.134  1.00 20.00    -0.347 OA
ENDROOT
TORSDOF 0
ENDMDL
MODEL 3
REMARK VINA RESULT:       0.8      1.889      2.452
REMARK  0 active torsions:
REMARK  status: ('A' for Active; 'I' for Inactive)
ROOT
HETATM    1  C1  UNL     1     -33.328   7.189   3.084  1.00 20.00     0.117 A 
HETATM    2  C2  UNL     1     -33.111   6.051   2.421  1.00 20.00    -0.042 A 
HETATM    3  C3  UNL     1     -32.407   8.186   2.530  1.00 20.00     0.186 A 
HETATM    4  C4  UNL     1     -33.852   4.801   2.748  1.00 20.00     0.039 C 
HETATM    5  C5  UNL     1     -32.074   6.136   1.349  1.00 20.00     0.049 A 
HETATM    6  C6  UNL     1     -34.588   4.975   4.083  1.00 20.00     0.031 C 
HETATM    7  C7  UNL     1     -35.197   6.376   4.201  1.00 20.00     0.176 C 
HETATM    8  C8  UNL     1     -31.529   7.571   1.462  1.00 20.00     0.062 A 
HETATM    9  C9  UNL     1     -31.613   8.342   0.156  1.00 20.00     0.018 C 
HETATM   10  O10 UNL     1     -32.366   9.349   2.901  1.00 20.00    -0.290 OA
HETATM   11  O11 UNL     1     -34.223   7.427   4.082  1.00 20.00    -0.347 OA
ENDROOT
TORSDOF 0
ENDMDL
MODEL 4
REMARK VINA RESULT:       1.6      0.884      3.724
REMARK  0 active torsions:
REMARK  status: ('A' for Active; 'I' for Inactive)
ROOT
HETATM    1  C1  UNL     1     -32.959   6.023   2.533  1.00 20.00     0.117 A 
HETATM    2  C2  UNL     1     -33.213   7.305   2.807  1.00 20.00    -0.042 A 
HETATM    3  C3  UNL     1     -33.769   5.223   3.458  1.00 20.00     0.186 A 
HETATM    4  C4  UNL     1     -32.529   8.410   2.079  1.00 20.00     0.039 C 
HETATM    5  C5  UNL     1     -34.214   7.530   3.892  1.00 20.00     0.049 A 
HETATM    6  C6  UNL     1     -31.351   7.845   1.276  1.00 20.00     0.031 C 
HETATM    7  C7  UNL     1     -31.713   6.503   0.632  1.00 20.00     0.176 C 
HETATM    8  C8  UNL     1     -34.547   6.116   4.399  1.00 20.00     0.062 A 
HETATM    9  C9  UNL     1     -36.034   5.808   4.361  1.00 20.00     0.018 C 
HETATM   10  O10 UNL     1     -33.791   4.002   3.455  1.00 20.00    -0.290 OA
HETATM   11  O11 UNL     1     -32.126   5.510   1.587  1.00 20.00    -0.347 OA
ENDROOT
TORSDOF 0
ENDMDL
