MODEL 1
REMARK VINA RESULT:       2.0      0.000      0.000
REMARK  2 active torsions:
REMARK  status: ('A' for Active; 'I' for Inactive)
REMARK    1  A    between atoms: C3_3  and  C9_9 
REMARK    2  A    between atoms: C3_3  and  S10_10 
ROOT
HETATM    1  C1  UNL     1     -33.785   6.915   4.387  1.00 20.00     0.010 A 
HETATM    2  C2  UNL     1     -34.999   6.208   3.801  1.00 20.00    -0.025 A 
HETATM    3  C3  UNL     1     -33.596   6.003   3.178  1.00 20.00     0.019 A 
HETATM    4  C4  UNL     1     -33.600   8.394   4.335  1.00 20.00     0.012 C 
HETATM    5  C5  UNL     1     -35.624   5.123   4.657  1.00 20.00     0.017 C 
HETATM    6  C6  UNL     1     -36.049   6.984   3.037  1.00 20.00     0.017 C 
ENDROOT
BRANCH   3   7
HETATM    7  C9  UNL     1     -33.260   6.588   1.825  1.00 20.00    -0.003 C 
HETATM    8  C7  UNL     1     -32.035   7.504   1.908  1.00 20.00     0.011 C 
HETATM    9  C8  UNL     1     -33.019   5.483   0.791  1.00 20.00     0.011 C 
ENDBRANCH   3   7
BRANCH   3  10
HETATM   10  S10 UNL     1     -32.732   4.473   3.445  1.00 20.00    -0.171 SA
HETATM   11  H28 UNL     1     -32.232   4.330   2.204  1.00 20.00     0.102 HD
ENDBRANCH   3  10
TORSDOF 2
ENDMDL
MODEL 2
REMARK VINA RESULT:       2.2      1.140      3.692
REMARK  2 active torsions:
REMARK  status: ('A' for Active; 'I' for Inactive)
REMARK    1  A    between atoms: C3_3  and  C9_9 
REMARK    2  A    between atoms: C3_3  and  S10_10 
ROOT
HETATM    1  C1  UNL     1     -33.565   5.323   1.120  1.00 20.00     0.010 A 
HETATM    2  C2  UNL     1     -32.285   5.915   1.692  1.00 20.00    -0.025 A 
HETATM    3  C3  UNL     1     -33.498   5.634   2.612  1.00 20.00     0.019 A 
HETATM    4  C4  UNL     1     -34.448   6.057   0.169  1.00 20.00     0.012 C 
HETATM    5  C5  UNL     1     -31.074   5.002   1.718  1.00 20.00     0.017 C 
HETATM    6  C6  UNL     1     -31.893   7.344   1.388  1.00 20.00     0.017 C 
ENDROOT
BRANCH   3   7
HETATM    7  C9  UNL     1     -34.305   6.772   3.192  1.00 20.00    -0.003 C 
HETATM    8  C7  UNL     1     -35.553   6.253   3.914  1.00 20.00     0.011 C 
HETATM    9  C8  UNL     1     -33.459   7.617   4.152  1.00 20.00     0.011 C 
ENDBRANCH   3   7
BRANCH   3  10
HETATM   10  S10 UNL     1     -33.453   4.250   3.727  1.00 20.00    -0.171 SA
HETATM   11  H28 UNL     1     -32.359   4.613   4.420  1.00 20.00     0.102 HD
ENDBRANCH   3  10
TORSDOF 2
ENDMDL
MODEL 3
REMARK VINA RESULT:       2.4      1.706      3.755
REMARK  2 active torsions:
REMARK  status: ('A' for Active; 'I' for Inactive)
REMARK    1  A    between atoms: C3_3  and  C9_9 
REMARK    2  A    between atoms: C3_3  and  S10_10 
ROOT
HETATM    1  C1  UNL     1     -31.891   6.293   2.045  1.00 20.00     0.010 A 
HETATM    2  C2  UNL     1     -32.877   7.216   1.344  1.00 20.00    -0.025 A 
HETATM    3  C3  UNL     1     -33.144   6.738   2.793  1.00 20.00     0.019 A 
HETATM    4  C4  UNL     1     -31.647   4.885   1.618  1.00 20.00     0.012 C 
HETATM    5  C5  UNL     1     -32.403   8.632   1.078  1.00 20.00     0.017 C 
HETATM    6  C6  UNL     1     -33.746   6.703   0.216  1.00 20.00     0.017 C 
ENDROOT
BRANCH   3   7
HETATM    7  C9  UNL     1     -34.249   5.750   3.087  1.00 20.00    -0.003 C 
HETATM    8  C7  UNL     1     -33.714   4.535   3.852  1.00 20.00     0.011 C 
HETATM    9  C8  UNL     1     -35.383   6.410   3.879  1.00 20.00     0.011 C 
ENDBRANCH   3   7
BRANCH   3  10
HETATM   10  S10 UNL     1     -32.922   7.870   4.145  1.00 20.00    -0.171 SA
HETATM   11  H28 UNL     1     -34.218   8.166   4.347  1.00 20.00     0.102 HD
ENDBRANCH   3  10
TORSDOF 2
ENDMDL
MODEL 4
REMARK VINA RESULT:       2.8      1.553      2.521
REMARK  2 active torsions:
REMARK  status: ('A' for Active; 'I' for Inactive)
REMARK    1  A    between atoms: C3_3  and  C9_9 
REMARK    2  A    between atoms: C3_3  and  S10_10 
ROOT
HETATM    1  C1  UNL     1     -34.118   4.994   3.247  1.00 20.00     0.010 A 
HETATM    2  C2  UNL     1     -34.431   6.477   3.386  1.00 20.00    -0.025 A 
HETATM    3  C3  UNL     1     -33.603   5.960   2.184  1.00 20.00     0.019 A 
HETATM    4  C4  UNL     1     -33.225   4.259   4.188  1.00 20.00     0.012 C 
HETATM    5  C5  UNL     1     -35.882   6.878   3.202  1.00 20.00     0.017 C 
HETATM    6  C6  UNL     1     -33.759   7.311   4.454  1.00 20.00     0.017 C 
ENDROOT
BRANCH   3   7
HETATM    7  C9  UNL     1     -32.126   6.263   2.080  1.00 20.00    -0.003 C 
HETATM    8  C7  UNL     1     -31.420   5.261   1.159  1.00 20.00     0.011 C 
HETATM    9  C8  UNL     1     -31.890   7.692   1.576  1.00 20.00     0.011 C 
ENDBRANCH   3   7
BRANCH   3  10
HETATM   10  S10 UNL     1     -34.352   5.869   0.575  1.00 20.00    -0.171 SA
HETATM   11  H28 UNL     1     -35.552   6.379   0.906  1.00 20.00     0.102 HD
ENDBRANCH   3  10
TORSDOF 2
ENDMDL
MODEL 5
REMARK VINA RESULT:       2.9      1.309      3.208
REMARK  2 active torsions:
REMARK  status: ('A' for Active; 'I' for Inactive)
REMARK    1  A    between atoms: C3_3  and  C9_9 
REMARK    2  A    between atoms: C3_3  and  S10_10 
ROOT
HETATM    1  C1  UNL     1     -34.619   6.913   2.677  1.00 20.00     0.010 A 
HETATM    2  C2  UNL     1     -33.341   7.376   3.363  1.00 20.00    -0.025 A 
HETATM    3  C3  UNL     1     -33.591   5.869   3.106  1.00 20.00     0.019 A 
HETATM    4  C4  UNL     1     -35.969   7.038   3.299  1.00 20.00     0.012 C 
HETATM    5  C5  UNL     1     -32.358   8.148   2.505  1.00 20.00     0.017 C 
HETATM    6  C6  UNL     1     -33.375   7.907   4.779  1.00 20.00     0.017 C 
ENDROOT
BRANCH   3   7
HETATM    7  C9  UNL     1     -33.889   4.931   4.252  1.00 20.00    -0.003 C 
HETATM    8  C7  UNL     1     -35.380   4.943   4.604  1.00 20.00     0.011 C 
HETATM    9  C8  UNL     1     -33.440   3.502   3.926  1.00 20.00     0.011 C 
ENDBRANCH   3   7
BRANCH   3  10
HETATM   10  S10 UNL     1     -32.694   5.038   1.816  1.00 20.00    -0.171 SA
HETATM   11  H28 UNL     1     -32.399   3.916   2.496  1.00 20.00     0.102 HD
ENDBRANCH   3  10
TORSDOF 2
ENDMDL
MODEL 6
REMARK VINA RESULT:       3.1      2.171      3.343
REMARK  2 active torsions:
REMARK  status: ('A' for Active; 'I' for Inactive)
REMARK    1  A    between atoms: C3_3  and  C9_9 
REMARK    2  A    between atoms: C3_3  and  S10_10 
ROOT
HETATM    1  C1  UNL     1     -33.921   6.110   1.428  1.00 20.00     0.010 A 
HETATM    2  C2  UNL     1     -32.864   5.434   2.290  1.00 20.00    -0.025 A 
HETATM    3  C3  UNL     1     -33.040   6.972   2.328  1.00 20.00     0.019 A 
HETATM    4  C4  UNL     1     -33.856   6.148  -0.061  1.00 20.00     0.012 C 
HETATM    5  C5  UNL     1     -33.374   4.574   3.430  1.00 20.00     0.017 C 
HETATM    6  C6  UNL     1     -31.622   4.840   1.662  1.00 20.00     0.017 C 
ENDROOT
BRANCH   3   7
HETATM    7  C9  UNL     1     -31.995   7.883   1.727  1.00 20.00    -0.003 C 
HETATM    8  C7  UNL     1     -32.644   9.010   0.916  1.00 20.00     0.011 C 
HETATM    9  C8  UNL     1     -31.089   8.475   2.813  1.00 20.00     0.011 C 
ENDBRANCH   3   7
BRANCH   3  10
HETATM   10  S10 UNL     1     -33.817   7.732   3.735  1.00 20.00    -0.171 SA
HETATM   11  H28 UNL     1     -32.720   8.307   4.258  1.00 20.00     0.102 HD
ENDBRANCH   3  10
TORSDOF 2
ENDMDL
MODEL 7
REMARK VINA RESULT:       3.2      1.956      3.465
REMARK  2 active torsions:
REMARK  status: ('A' for Active; 'I' for Inactive)
REMARK    1  A    between atoms: C3_3  and  C9_9 
REMARK    2  A    between atoms: C3_3  and  S10_10 
ROOT
HETATM    1  C1  UNL     1     -33.713   7.744   2.583  1.00 20.00     0.010 A 
HETATM    2  C2  UNL     1     -32.409   8.082   1.876  1.00 20.00    -0.025 A 
HETATM    3  C3  UNL     1     -33.044   6.678   1.720  1.00 20.00     0.019 A 
HETATM    4  C4  UNL     1     -33.834   7.642   4.065  1.00 20.00     0.012 C 
HETATM    5  C5  UNL     1     -32.496   9.093   0.749  1.00 20.00     0.017 C 
HETATM    6  C6  UNL     1     -31.124   8.238   2.660  1.00 20.00     0.017 C 
ENDROOT
BRANCH   3   7
HETATM    7  C9  UNL     1     -32.405   5.468   2.361  1.00 20.00    -0.003 C 
HETATM    8  C7  UNL     1     -33.448   4.610   3.085  1.00 20.00     0.011 C 
HETATM    9  C8  UNL     1     -31.660   4.622   1.323  1.00 20.00     0.011 C 
ENDBRANCH   3   7
BRANCH   3  10
HETATM   10  S10 UNL     1     -33.851   6.243   0.198  1.00 20.00    -0.171 SA
HETATM   11  H28 UNL     1     -35.076   6.705   0.505  1.00 20.00     0.102 HD
ENDBRANCH   3  10
TORSDOF 2
ENDMDL
MODEL 8
REMARK VINA RESULT:       3.6      2.276      3.364
REMARK  2 active torsions:
REMARK  status: ('A' for Active; 'I' for Inactive)
REMARK    1  A    between atoms: C3_3  and  C9_9 
REMARK    2  A    between atoms: C3_3  and  S10_10 
ROOT
HETATM    1  C1  UNL     1     -32.970   7.250   2.829  1.00 20.00     0.010 A 
HETATM    2  C2  UNL     1     -32.691   6.462   1.557  1.00 20.00    -0.025 A 
HETATM    3  C3  UNL     1     -32.245   7.940   1.677  1.00 20.00     0.019 A 
HETATM    4  C4  UNL     1     -34.345   7.621   3.272  1.00 20.00     0.012 C 
HETATM    5  C5  UNL     1     -31.674   5.343   1.668  1.00 20.00     0.017 C 
HETATM    6  C6  UNL     1     -33.816   6.095   0.614  1.00 20.00     0.017 C 
ENDROOT
BRANCH   3   7
HETATM    7  C9  UNL     1     -32.936   9.021   0.878  1.00 20.00    -0.003 C 
HETATM    8  C7  UNL     1     -32.804  10.385   1.564  1.00 20.00     0.011 C 
HETATM    9  C8  UNL     1     -32.378   9.096  -0.548  1.00 20.00     0.011 C 
ENDBRANCH   3   7
BRANCH   3  10
HETATM   10  S10 UNL     1     -30.526   8.322   1.915  1.00 20.00    -0.171 SA
HETATM   11  H28 UNL     1     -30.662   9.645   2.120  1.00 20.00     0.102 HD
ENDBRANCH   3  10
TORSDOF 2
ENDMDL
MODEL 9
REMARK VINA RESULT:       3.6      1.459      3.703
REMARK  2 active torsions:
REMARK  status: ('A' for Active; 'I' for Inactive)
REMARK    1  A    between atoms: C3_3  and  C9_9 
REMARK    2  A    between atoms: C3_3  and  S10_10 
ROOT
HETATM    1  C1  UNL     1     -32.719   5.403   3.328  1.00 20.00     0.010 A 
HETATM    2  C2  UNL     1     -33.014   6.171   2.048  1.00 20.00    -0.025 A 
HETATM    3  C3  UNL     1     -33.875   6.399   3.315  1.00 20.00     0.019 A 
HETATM    4  C4  UNL     1     -32.907   3.929   3.456  1.00 20.00     0.012 C 
HETATM    5  C5  UNL     1     -31.982   7.200   1.627  1.00 20.00     0.017 C 
HETATM    6  C6  UNL     1     -33.618   5.472   0.850  1.00 20.00     0.017 C 
ENDROOT
BRANCH   3   7
HETATM    7  C9  UNL     1     -35.304   5.911   3.374  1.00 20.00    -0.003 C 
HETATM    8  C7  UNL     1     -35.617   5.281   4.735  1.00 20.00     0.011 C 
HETATM    9  C8  UNL     1     -36.288   7.049   3.084  1.00 20.00     0.011 C 
ENDBRANCH   3   7
BRANCH   3  10
HETATM   10  S10 UNL     1     -33.670   7.890   4.259  1.00 20.00    -0.171 SA
HETATM   11  H28 UNL     1     -32.747   8.475   3.474  1.00 20.00     0.102 HD
ENDBRANCH   3  10
TORSDOF 2
ENDMDL
