MODEL 1
REMARK VINA RESULT:       0.4      0.000      0.000
REMARK  1 active torsions:
REMARK  status: ('A' for Active; 'I' for Inactive)
REMARK    1  A    between atoms: C3_3  and  C9_9 
ROOT
HETATM    1  C1  UNL     1     -32.144   6.553   1.433  1.00 20.00     0.178 C 
HETATM    2  C2  UNL     1     -33.609   8.369   2.510  1.00 20.00     0.087 C 
HETATM    3  C3  UNL     1     -33.353   5.749   3.319  1.00 20.00     0.185 C 
HETATM    4  C4  UNL     1     -32.244   8.039   1.869  1.00 20.00    -0.018 C 
HETATM    5  C5  UNL     1     -31.088   8.373   2.837  1.00 20.00     0.018 C 
HETATM    6  C6  UNL     1     -32.066   8.938   0.627  1.00 20.00     0.018 C 
HETATM    7  O10 UNL     1     -33.222   5.739   1.899  1.00 20.00    -0.374 OA
HETATM    8  S11 UNL     1     -34.031   7.320   3.937  1.00 20.00    -0.136 SA
ENDROOT
BRANCH   3   9
HETATM    9  C9  UNL     1     -34.301   4.621   3.702  1.00 20.00     0.017 C 
HETATM   10  C7  UNL     1     -33.544   3.490   4.401  1.00 20.00     0.013 C 
HETATM   11  C8  UNL     1     -35.428   5.140   4.595  1.00 20.00     0.013 C 
ENDBRANCH   3   9
TORSDOF 1
ENDMDL
MODEL 2
REMARK VINA RESULT:       2.2      1.243      4.437
REMARK  1 active torsions:
REMARK  status: ('A' for Active; 'I' for Inactive)
REMARK    1  A    between atoms: C3_3  and  C9_9 
ROOT
HETATM    1  C1  UNL     1     -33.617   5.746   2.044  1.00 20.00     0.178 C 
HETATM    2  C2  UNL     1     -33.232   6.814   4.350  1.00 20.00     0.087 C 
HETATM    3  C3  UNL     1     -32.990   8.037   1.893  1.00 20.00     0.185 C 
HETATM    4  C4  UNL     1     -34.116   5.869   3.508  1.00 20.00    -0.018 C 
HETATM    5  C5  UNL     1     -35.586   6.343   3.516  1.00 20.00     0.018 C 
HETATM    6  C6  UNL     1     -34.089   4.473   4.165  1.00 20.00     0.018 C 
HETATM    7  O10 UNL     1     -32.593   6.681   1.701  1.00 20.00    -0.374 OA
HETATM    8  S11 UNL     1     -33.065   8.489   3.655  1.00 20.00    -0.136 SA
ENDROOT
BRANCH   3   9
HETATM    9  C9  UNL     1     -31.959   8.921   1.204  1.00 20.00     0.017 C 
HETATM   10  C7  UNL     1     -31.128   8.110   0.209  1.00 20.00     0.013 C 
HETATM   11  C8  UNL     1     -32.638  10.096   0.499  1.00 20.00     0.013 C 
ENDBRANCH   3   9
TORSDOF 1
ENDMDL
MODEL 3
REMARK VINA RESULT:       2.2      0.597      1.223
REMARK  1 active torsions:
REMARK  status: ('A' for Active; 'I' for Inactive)
REMARK    1  A    between atoms: C3_3  and  C9_9 
ROOT
HETATM    1  C1  UNL     1     -32.344   6.649   1.484  1.00 20.00     0.178 C 
HETATM    2  C2  UNL     1     -33.424   8.757   2.483  1.00 20.00     0.087 C 
HETATM    3  C3  UNL     1     -33.302   6.254   3.626  1.00 20.00     0.185 C 
HETATM    4  C4  UNL     1     -32.222   8.181   1.704  1.00 20.00    -0.018 C 
HETATM    5  C5  UNL     1     -30.896   8.495   2.430  1.00 20.00     0.018 C 
HETATM    6  C6  UNL     1     -32.160   8.880   0.329  1.00 20.00     0.018 C 
HETATM    7  O10 UNL     1     -33.407   6.042   2.220  1.00 20.00    -0.374 OA
HETATM    8  S11 UNL     1     -33.710   7.964   4.097  1.00 20.00    -0.136 SA
ENDROOT
BRANCH   3   9
HETATM    9  C9  UNL     1     -34.283   5.310   4.309  1.00 20.00     0.017 C 
HETATM   10  C7  UNL     1     -35.724   5.674   3.950  1.00 20.00     0.013 C 
HETATM   11  C8  UNL     1     -33.990   3.858   3.932  1.00 20.00     0.013 C 
ENDBRANCH   3   9
TORSDOF 1
ENDMDL
MODEL 4
REMARK VINA RESULT:       3.0      1.692      4.539
REMARK  1 active torsions:
REMARK  status: ('A' for Active; 'I' for Inactive)
REMARK    1  A    between atoms: C3_3  and  C9_9 
ROOT
HETATM    1  C1  UNL     1     -33.773   7.525   3.904  1.00 20.00     0.178 C 
HETATM    2  C2  UNL     1     -34.213   5.901   1.961  1.00 20.00     0.087 C 
HETATM    3  C3  UNL     1     -32.197   7.770   2.137  1.00 20.00     0.185 C 
HETATM    4  C4  UNL     1     -34.168   6.081   3.494  1.00 20.00    -0.018 C 
HETATM    5  C5  UNL     1     -33.190   5.074   4.136  1.00 20.00     0.018 C 
HETATM    6  C6  UNL     1     -35.571   5.767   4.056  1.00 20.00     0.018 C 
HETATM    7  O10 UNL     1     -33.318   8.331   2.816  1.00 20.00    -0.374 OA
HETATM    8  S11 UNL     1     -32.659   6.334   1.118  1.00 20.00    -0.136 SA
ENDROOT
BRANCH   3   9
HETATM    9  C9  UNL     1     -31.619   8.848   1.232  1.00 20.00     0.017 C 
HETATM   10  C7  UNL     1     -31.106   8.242  -0.075  1.00 20.00     0.013 C 
HETATM   11  C8  UNL     1     -32.660   9.931   0.945  1.00 20.00     0.013 C 
ENDBRANCH   3   9
TORSDOF 1
ENDMDL
MODEL 5
REMARK VINA RESULT:       3.0      1.343      1.963
REMARK  1 active torsions:
REMARK  status: ('A' for Active; 'I' for Inactive)
REMARK    1  A    between atoms: C3_3  and  C9_9 
ROOT
HETATM    1  C1  UNL     1     -32.932   8.073   3.339  1.00 20.00     0.178 C 
HETATM    2  C2  UNL     1     -31.676   6.543   1.699  1.00 20.00     0.087 C 
HETATM    3  C3  UNL     1     -34.110   6.052   2.893  1.00 20.00     0.185 C 
HETATM    4  C4  UNL     1     -32.088   7.991   2.039  1.00 20.00    -0.018 C 
HETATM    5  C5  UNL     1     -32.873   8.628   0.871  1.00 20.00     0.018 C 
HETATM    6  C6  UNL     1     -30.802   8.826   2.225  1.00 20.00     0.018 C 
HETATM    7  O10 UNL     1     -33.348   6.800   3.839  1.00 20.00    -0.374 OA
HETATM    8  S11 UNL     1     -33.078   5.390   1.548  1.00 20.00    -0.136 SA
ENDROOT
BRANCH   3   9
HETATM    9  C9  UNL     1     -34.753   4.890   3.636  1.00 20.00     0.017 C 
HETATM   10  C7  UNL     1     -33.693   3.891   4.102  1.00 20.00     0.013 C 
HETATM   11  C8  UNL     1     -35.572   5.393   4.825  1.00 20.00     0.013 C 
ENDBRANCH   3   9
TORSDOF 1
ENDMDL
MODEL 6
REMARK VINA RESULT:       3.3      1.475      2.348
REMARK  1 active torsions:
REMARK  status: ('A' for Active; 'I' for Inactive)
REMARK    1  A    between atoms: C3_3  and  C9_9 
ROOT
HETATM    1  C1  UNL     1     -32.491   8.658   2.559  1.00 20.00     0.178 C 
HETATM    2  C2  UNL     1     -31.697   6.684   1.117  1.00 20.00     0.087 C 
HETATM    3  C3  UNL     1     -33.783   6.691   2.916  1.00 20.00     0.185 C 
HETATM    4  C4  UNL     1     -31.985   8.200   1.165  1.00 20.00    -0.018 C 
HETATM    5  C5  UNL     1     -33.013   8.598   0.084  1.00 20.00     0.018 C 
HETATM    6  C6  UNL     1     -30.675   8.949   0.838  1.00 20.00     0.018 C 
HETATM    7  O10 UNL     1     -32.802   7.581   3.444  1.00 20.00    -0.374 OA
HETATM    8  S11 UNL     1     -33.117   5.645   1.584  1.00 20.00    -0.136 SA
ENDROOT
BRANCH   3   9
HETATM    9  C9  UNL     1     -34.254   5.796   4.054  1.00 20.00     0.017 C 
HETATM   10  C7  UNL     1     -35.758   5.951   4.279  1.00 20.00     0.013 C 
HETATM   11  C8  UNL     1     -33.904   4.334   3.773  1.00 20.00     0.013 C 
ENDBRANCH   3   9
TORSDOF 1
ENDMDL
