MODEL 1
REMARK VINA RESULT:      -0.8      0.000      0.000
REMARK  1 active torsions:
REMARK  status: ('A' for Active; 'I' for Inactive)
REMARK    1  A    between atoms: C6_6  and  C8_8 
ROOT
HETATM    1  C1  UNL     1     -33.626   8.333   3.279  1.00 20.00     0.061 C 
HETATM    2  C2  UNL     1     -32.744   5.283   2.204  1.00 20.00     0.066 C 
HETATM    3  C3  UNL     1     -34.277   7.349   4.282  1.00 20.00     0.170 C 
HETATM    4  C4  UNL     1     -32.452   7.655   2.689  1.00 20.00     0.153 A 
HETATM    5  C5  UNL     1     -32.962   6.645   1.682  1.00 20.00     0.153 A 
HETATM    6  C6  UNL     1     -33.432   5.160   3.599  1.00 20.00     0.123 C 
HETATM    7  O9  UNL     1     -34.572   6.046   3.732  1.00 20.00    -0.386 OA
HETATM    8  O10 UNL     1     -32.013   7.640   1.343  1.00 20.00    -0.375 OA
ENDROOT
BRANCH   6   9
HETATM    9  C8  UNL     1     -33.937   3.738   3.818  1.00 20.00     0.027 C 
HETATM   10  C7  UNL     1     -33.105   3.003   4.818  1.00 20.00     0.007 C 
ENDBRANCH   6   9
TORSDOF 1
ENDMDL
MODEL 2
REMARK VINA RESULT:      -0.7      1.476      2.478
REMARK  1 active torsions:
REMARK  status: ('A' for Active; 'I' for Inactive)
REMARK    1  A    between atoms: C6_6  and  C8_8 
ROOT
HETATM    1  C1  UNL     1     -31.807   6.764   1.315  1.00 20.00     0.061 C 
HETATM    2  C2  UNL     1     -33.659   7.883   3.875  1.00 20.00     0.066 C 
HETATM    3  C3  UNL     1     -32.924   5.706   1.495  1.00 20.00     0.170 C 
HETATM    4  C4  UNL     1     -32.318   8.046   1.844  1.00 20.00     0.153 A 
HETATM    5  C5  UNL     1     -32.280   7.967   3.357  1.00 20.00     0.153 A 
HETATM    6  C6  UNL     1     -34.374   6.664   3.214  1.00 20.00     0.123 C 
HETATM    7  O9  UNL     1     -33.445   5.616   2.840  1.00 20.00    -0.386 OA
HETATM    8  O10 UNL     1     -31.653   9.013   2.638  1.00 20.00    -0.375 OA
ENDROOT
BRANCH   6   9
HETATM    9  C8  UNL     1     -35.381   6.052   4.181  1.00 20.00     0.027 C 
HETATM   10  C7  UNL     1     -34.983   4.673   4.597  1.00 20.00     0.007 C 
ENDBRANCH   6   9
TORSDOF 1
ENDMDL
MODEL 3
REMARK VINA RESULT:      -0.5      1.520      3.824
REMARK  1 active torsions:
REMARK  status: ('A' for Active; 'I' for Inactive)
REMARK    1  A    between atoms: C6_6  and  C8_8 
ROOT
HETATM    1  C1  UNL     1     -34.516   6.739   4.543  1.00 20.00     0.061 C 
HETATM    2  C2  UNL     1     -32.691   5.923   1.852  1.00 20.00     0.066 C 
HETATM    3  C3  UNL     1     -34.009   8.089   3.977  1.00 20.00     0.170 C 
HETATM    4  C4  UNL     1     -34.548   5.772   3.426  1.00 20.00     0.153 A 
HETATM    5  C5  UNL     1     -33.122   5.349   3.141  1.00 20.00     0.153 A 
HETATM    6  C6  UNL     1     -32.875   7.472   1.902  1.00 20.00     0.123 C 
HETATM    7  O9  UNL     1     -32.765   7.998   3.247  1.00 20.00    -0.386 OA
HETATM    8  O10 UNL     1     -34.149   4.413   3.409  1.00 20.00    -0.375 OA
ENDROOT
BRANCH   6   9
HETATM    9  C8  UNL     1     -31.807   8.159   1.058  1.00 20.00     0.027 C 
HETATM   10  C7  UNL     1     -32.286   9.467   0.516  1.00 20.00     0.007 C 
ENDBRANCH   6   9
TORSDOF 1
ENDMDL
MODEL 4
REMARK VINA RESULT:       0.1      1.793      2.380
REMARK  1 active torsions:
REMARK  status: ('A' for Active; 'I' for Inactive)
REMARK    1  A    between atoms: C6_6  and  C8_8 
ROOT
HETATM    1  C1  UNL     1     -31.545   7.686   1.375  1.00 20.00     0.061 C 
HETATM    2  C2  UNL     1     -33.674   5.359   2.510  1.00 20.00     0.066 C 
HETATM    3  C3  UNL     1     -32.358   8.394   2.487  1.00 20.00     0.170 C 
HETATM    4  C4  UNL     1     -31.561   6.237   1.666  1.00 20.00     0.153 A 
HETATM    5  C5  UNL     1     -32.928   5.706   1.286  1.00 20.00     0.153 A 
HETATM    6  C6  UNL     1     -33.738   6.613   3.436  1.00 20.00     0.123 C 
HETATM    7  O9  UNL     1     -33.684   7.854   2.689  1.00 20.00    -0.386 OA
HETATM    8  O10 UNL     1     -31.731   5.150   0.775  1.00 20.00    -0.375 OA
ENDROOT
BRANCH   6   9
HETATM    9  C8  UNL     1     -35.039   6.620   4.231  1.00 20.00     0.027 C 
HETATM   10  C7  UNL     1     -35.488   5.236   4.570  1.00 20.00     0.007 C 
ENDBRANCH   6   9
TORSDOF 1
ENDMDL
MODEL 5
REMARK VINA RESULT:       0.3      1.310      4.245
REMARK  1 active torsions:
REMARK  status: ('A' for Active; 'I' for Inactive)
REMARK    1  A    between atoms: C6_6  and  C8_8 
ROOT
HETATM    1  C1  UNL     1     -33.768   4.774   2.560  1.00 20.00     0.061 C 
HETATM    2  C2  UNL     1     -33.644   8.012   3.416  1.00 20.00     0.066 C 
HETATM    3  C3  UNL     1     -32.591   5.361   1.742  1.00 20.00     0.170 C 
HETATM    4  C4  UNL     1     -33.938   5.616   3.762  1.00 20.00     0.153 A 
HETATM    5  C5  UNL     1     -34.612   6.903   3.332  1.00 20.00     0.153 A 
HETATM    6  C6  UNL     1     -32.391   7.657   2.556  1.00 20.00     0.123 C 
HETATM    7  O9  UNL     1     -32.712   6.772   1.454  1.00 20.00    -0.386 OA
HETATM    8  O10 UNL     1     -35.133   6.084   4.362  1.00 20.00    -0.375 OA
ENDROOT
BRANCH   6   9
HETATM    9  C8  UNL     1     -31.782   8.920   1.959  1.00 20.00     0.027 C 
HETATM   10  C7  UNL     1     -32.403   9.267   0.644  1.00 20.00     0.007 C 
ENDBRANCH   6   9
TORSDOF 1
ENDMDL
MODEL 6
REMARK VINA RESULT:       0.6      1.350      3.194
REMARK  1 active torsions:
REMARK  status: ('A' for Active; 'I' for Inactive)
REMARK    1  A    between atoms: C6_6  and  C8_8 
ROOT
HETATM    1  C1  UNL     1     -34.601   7.426   4.538  1.00 20.00     0.061 C 
HETATM    2  C2  UNL     1     -33.583   4.935   2.539  1.00 20.00     0.066 C 
HETATM    3  C3  UNL     1     -33.664   8.098   3.504  1.00 20.00     0.170 C 
HETATM    4  C4  UNL     1     -35.149   6.203   3.914  1.00 20.00     0.153 A 
HETATM    5  C5  UNL     1     -34.055   5.155   3.919  1.00 20.00     0.153 A 
HETATM    6  C6  UNL     1     -33.122   6.301   1.940  1.00 20.00     0.123 C 
HETATM    7  O9  UNL     1     -32.655   7.221   2.958  1.00 20.00    -0.386 OA
HETATM    8  O10 UNL     1     -35.334   4.918   4.480  1.00 20.00    -0.375 OA
ENDROOT
BRANCH   6   9
HETATM    9  C8  UNL     1     -31.973   6.089   0.960  1.00 20.00     0.027 C 
HETATM   10  C7  UNL     1     -31.687   4.637   0.748  1.00 20.00     0.007 C 
ENDBRANCH   6   9
TORSDOF 1
ENDMDL
MODEL 7
REMARK VINA RESULT:       1.2      1.919      2.477
REMARK  1 active torsions:
REMARK  status: ('A' for Active; 'I' for Inactive)
REMARK    1  A    between atoms: C6_6  and  C8_8 
ROOT
HETATM    1  C1  UNL     1     -33.902   7.753   4.125  1.00 20.00     0.061 C 
HETATM    2  C2  UNL     1     -31.830   7.028   1.592  1.00 20.00     0.066 C 
HETATM    3  C3  UNL     1     -34.432   6.420   3.542  1.00 20.00     0.170 C 
HETATM    4  C4  UNL     1     -32.462   7.838   3.804  1.00 20.00     0.153 A 
HETATM    5  C5  UNL     1     -32.338   8.196   2.337  1.00 20.00     0.153 A 
HETATM    6  C6  UNL     1     -32.775   5.813   1.851  1.00 20.00     0.123 C 
HETATM    7  O9  UNL     1     -34.134   6.224   2.141  1.00 20.00    -0.386 OA
HETATM    8  O10 UNL     1     -31.712   8.953   3.356  1.00 20.00    -0.375 OA
ENDROOT
BRANCH   6   9
HETATM    9  C8  UNL     1     -32.827   4.911   0.623  1.00 20.00     0.027 C 
HETATM   10  C7  UNL     1     -31.489   4.324   0.309  1.00 20.00     0.007 C 
ENDBRANCH   6   9
TORSDOF 1
ENDMDL
MODEL 8
REMARK VINA RESULT:       1.4      1.594      3.028
REMARK  1 active torsions:
REMARK  status: ('A' for Active; 'I' for Inactive)
REMARK    1  A    between atoms: C6_6  and  C8_8 
ROOT
HETATM    1  C1  UNL     1     -32.606   8.500   3.163  1.00 20.00     0.061 C 
HETATM    2  C2  UNL     1     -33.909   5.468   2.573  1.00 20.00     0.066 C 
HETATM    3  C3  UNL     1     -31.930   8.019   1.854  1.00 20.00     0.170 C 
HETATM    4  C4  UNL     1     -33.905   7.804   3.274  1.00 20.00     0.153 A 
HETATM    5  C5  UNL     1     -33.629   6.377   3.701  1.00 20.00     0.153 A 
HETATM    6  C6  UNL     1     -33.063   5.916   1.340  1.00 20.00     0.123 C 
HETATM    7  O9  UNL     1     -31.836   6.583   1.726  1.00 20.00    -0.386 OA
HETATM    8  O10 UNL     1     -34.512   7.223   4.414  1.00 20.00    -0.375 OA
ENDROOT
BRANCH   6   9
HETATM    9  C8  UNL     1     -32.675   4.707   0.497  1.00 20.00     0.027 C 
HETATM   10  C7  UNL     1     -31.219   4.393   0.616  1.00 20.00     0.007 C 
ENDBRANCH   6   9
TORSDOF 1
ENDMDL
MODEL 9
REMARK VINA RESULT:       1.6      1.755      3.026
REMARK  1 active torsions:
REMARK  status: ('A' for Active; 'I' for Inactive)
REMARK    1  A    between atoms: C6_6  and  C8_8 
ROOT
HETATM    1  C1  UNL     1     -31.965   5.650   0.881  1.00 20.00     0.061 C 
HETATM    2  C2  UNL     1     -32.896   8.220   2.821  1.00 20.00     0.066 C 
HETATM    3  C3  UNL     1     -33.100   5.090   1.773  1.00 20.00     0.170 C 
HETATM    4  C4  UNL     1     -32.161   7.112   0.777  1.00 20.00     0.153 A 
HETATM    5  C5  UNL     1     -31.715   7.730   2.086  1.00 20.00     0.153 A 
HETATM    6  C6  UNL     1     -33.900   7.040   3.010  1.00 20.00     0.123 C 
HETATM    7  O9  UNL     1     -33.236   5.752   3.050  1.00 20.00    -0.386 OA
HETATM    8  O10 UNL     1     -31.198   8.148   0.836  1.00 20.00    -0.375 OA
ENDROOT
BRANCH   6   9
HETATM    9  C8  UNL     1     -34.662   7.197   4.321  1.00 20.00     0.027 C 
HETATM   10  C7  UNL     1     -33.940   8.089   5.278  1.00 20.00     0.007 C 
ENDBRANCH   6   9
TORSDOF 1
ENDMDL
