MODEL 1
REMARK VINA RESULT:       2.8      0.000      0.000
REMARK  1 active torsions:
REMARK  status: ('A' for Active; 'I' for Inactive)
REMARK    1  A    between atoms: C9_9  and  C12_12 
ROOT
HETATM    1  C1  UNL     1     -34.074   4.322   4.385  1.00 20.00     0.012 C 
HETATM    2  C2  UNL     1     -35.213   4.998   4.558  1.00 20.00     0.052 C 
HETATM    3  C3  UNL     1     -32.798   5.934   0.770  1.00 20.00    -0.025 C 
HETATM    4  C4  UNL     1     -33.677   6.580   1.555  1.00 20.00    -0.008 C 
HETATM    5  C5  UNL     1     -32.370   4.237   2.587  1.00 20.00    -0.014 C 
HETATM    6  C6  UNL     1     -33.263   4.892   3.343  1.00 20.00    -0.041 C 
HETATM    7  C7  UNL     1     -35.146   6.132   3.606  1.00 20.00     0.166 C 
HETATM    8  C8  UNL     1     -31.904   4.825   1.279  1.00 20.00     0.054 C 
HETATM    9  C9  UNL     1     -33.752   6.285   3.023  1.00 20.00     0.071 C 
HETATM   10  O13 UNL     1     -36.097   6.866   3.384  1.00 20.00    -0.292 OA
ENDROOT
BRANCH   9  11
HETATM   11  C12 UNL     1     -33.000   7.359   3.822  1.00 20.00     0.002 C 
HETATM   12  C10 UNL     1     -32.332   8.350   2.876  1.00 20.00     0.011 C 
HETATM   13  C11 UNL     1     -33.952   8.075   4.773  1.00 20.00     0.011 C 
ENDBRANCH   9  11
TORSDOF 1
ENDMDL
MODEL 2
REMARK VINA RESULT:       3.3      1.439      4.048
REMARK  1 active torsions:
REMARK  status: ('A' for Active; 'I' for Inactive)
REMARK    1  A    between atoms: C9_9  and  C12_12 
ROOT
HETATM    1  C1  UNL     1     -31.775   8.182   1.934  1.00 20.00     0.012 C 
HETATM    2  C2  UNL     1     -32.117   7.696   0.739  1.00 20.00     0.052 C 
HETATM    3  C3  UNL     1     -35.021   6.916   4.205  1.00 20.00    -0.025 C 
HETATM    4  C4  UNL     1     -34.706   6.325   3.039  1.00 20.00    -0.008 C 
HETATM    5  C5  UNL     1     -32.869   8.231   4.158  1.00 20.00    -0.014 C 
HETATM    6  C6  UNL     1     -32.587   7.638   2.990  1.00 20.00    -0.041 C 
HETATM    7  C7  UNL     1     -33.198   6.718   1.006  1.00 20.00     0.166 C 
HETATM    8  C8  UNL     1     -34.043   7.768   4.983  1.00 20.00     0.054 C 
HETATM    9  C9  UNL     1     -33.314   6.412   2.489  1.00 20.00     0.071 C 
HETATM   10  O13 UNL     1     -33.856   6.200   0.117  1.00 20.00    -0.292 OA
ENDROOT
BRANCH   9  11
HETATM   11  C12 UNL     1     -32.542   5.119   2.787  1.00 20.00     0.002 C 
HETATM   12  C10 UNL     1     -33.447   4.112   3.486  1.00 20.00     0.011 C 
HETATM   13  C11 UNL     1     -31.971   4.535   1.500  1.00 20.00     0.011 C 
ENDBRANCH   9  11
TORSDOF 1
ENDMDL
MODEL 3
REMARK VINA RESULT:       3.9      1.699      3.314
REMARK  1 active torsions:
REMARK  status: ('A' for Active; 'I' for Inactive)
REMARK    1  A    between atoms: C9_9  and  C12_12 
ROOT
HETATM    1  C1  UNL     1     -34.923   6.571   3.652  1.00 20.00     0.012 C 
HETATM    2  C2  UNL     1     -34.755   5.331   4.119  1.00 20.00     0.052 C 
HETATM    3  C3  UNL     1     -31.249   7.169   1.797  1.00 20.00    -0.025 C 
HETATM    4  C4  UNL     1     -31.712   5.933   2.055  1.00 20.00    -0.008 C 
HETATM    5  C5  UNL     1     -33.472   8.174   2.440  1.00 20.00    -0.014 C 
HETATM    6  C6  UNL     1     -33.903   6.933   2.704  1.00 20.00    -0.041 C 
HETATM    7  C7  UNL     1     -33.572   4.798   3.403  1.00 20.00     0.166 C 
HETATM    8  C8  UNL     1     -32.142   8.389   1.763  1.00 20.00     0.054 C 
HETATM    9  C9  UNL     1     -33.181   5.690   2.238  1.00 20.00     0.071 C 
HETATM   10  O13 UNL     1     -33.039   3.740   3.702  1.00 20.00    -0.292 OA
ENDROOT
BRANCH   9  11
HETATM   11  C12 UNL     1     -33.790   5.115   0.952  1.00 20.00     0.002 C 
HETATM   12  C10 UNL     1     -34.338   6.238   0.078  1.00 20.00     0.011 C 
HETATM   13  C11 UNL     1     -32.752   4.295   0.195  1.00 20.00     0.011 C 
ENDBRANCH   9  11
TORSDOF 1
ENDMDL
MODEL 4
REMARK VINA RESULT:       4.0      2.213      3.972
REMARK  1 active torsions:
REMARK  status: ('A' for Active; 'I' for Inactive)
REMARK    1  A    between atoms: C9_9  and  C12_12 
ROOT
HETATM    1  C1  UNL     1     -33.095   5.616   1.476  1.00 20.00     0.012 C 
HETATM    2  C2  UNL     1     -31.849   5.815   1.040  1.00 20.00     0.052 C 
HETATM    3  C3  UNL     1     -33.238   8.366   4.593  1.00 20.00    -0.025 C 
HETATM    4  C4  UNL     1     -32.342   8.479   3.597  1.00 20.00    -0.008 C 
HETATM    5  C5  UNL     1     -34.438   6.528   3.350  1.00 20.00    -0.014 C 
HETATM    6  C6  UNL     1     -33.522   6.651   2.379  1.00 20.00    -0.041 C 
HETATM    7  C7  UNL     1     -31.421   7.099   1.645  1.00 20.00     0.166 C 
HETATM    8  C8  UNL     1     -34.492   7.528   4.476  1.00 20.00     0.054 C 
HETATM    9  C9  UNL     1     -32.593   7.837   2.265  1.00 20.00     0.071 C 
HETATM   10  O13 UNL     1     -30.271   7.507   1.586  1.00 20.00    -0.292 OA
ENDROOT
BRANCH   9  11
HETATM   11  C12 UNL     1     -33.105   8.879   1.260  1.00 20.00     0.002 C 
HETATM   12  C10 UNL     1     -32.744  10.285   1.726  1.00 20.00     0.011 C 
HETATM   13  C11 UNL     1     -32.535   8.603  -0.125  1.00 20.00     0.011 C 
ENDBRANCH   9  11
TORSDOF 1
ENDMDL
MODEL 5
REMARK VINA RESULT:       4.2      1.501      2.691
REMARK  1 active torsions:
REMARK  status: ('A' for Active; 'I' for Inactive)
REMARK    1  A    between atoms: C9_9  and  C12_12 
ROOT
HETATM    1  C1  UNL     1     -32.452   5.677   1.797  1.00 20.00     0.012 C 
HETATM    2  C2  UNL     1     -33.540   5.322   2.484  1.00 20.00     0.052 C 
HETATM    3  C3  UNL     1     -33.157   9.751   1.348  1.00 20.00    -0.025 C 
HETATM    4  C4  UNL     1     -33.760   9.037   2.314  1.00 20.00    -0.008 C 
HETATM    5  C5  UNL     1     -31.657   7.800   0.793  1.00 20.00    -0.014 C 
HETATM    6  C6  UNL     1     -32.286   7.106   1.752  1.00 20.00    -0.041 C 
HETATM    7  C7  UNL     1     -34.123   6.591   2.982  1.00 20.00     0.166 C 
HETATM    8  C8  UNL     1     -31.910   9.278   0.634  1.00 20.00     0.054 C 
HETATM    9  C9  UNL     1     -33.161   7.751   2.801  1.00 20.00     0.071 C 
HETATM   10  O13 UNL     1     -35.220   6.650   3.518  1.00 20.00    -0.292 OA
ENDROOT
BRANCH   9  11
HETATM   11  C12 UNL     1     -32.411   7.979   4.121  1.00 20.00     0.002 C 
HETATM   12  C10 UNL     1     -31.401   9.111   3.967  1.00 20.00     0.011 C 
HETATM   13  C11 UNL     1     -33.395   8.278   5.244  1.00 20.00     0.011 C 
ENDBRANCH   9  11
TORSDOF 1
ENDMDL
MODEL 6
REMARK VINA RESULT:       4.9      2.017      3.691
REMARK  1 active torsions:
REMARK  status: ('A' for Active; 'I' for Inactive)
REMARK    1  A    between atoms: C9_9  and  C12_12 
ROOT
HETATM    1  C1  UNL     1     -32.909   8.826   0.398  1.00 20.00     0.012 C 
HETATM    2  C2  UNL     1     -32.015   9.383   1.219  1.00 20.00     0.052 C 
HETATM    3  C3  UNL     1     -32.548   4.835   1.513  1.00 20.00    -0.025 C 
HETATM    4  C4  UNL     1     -32.157   5.830   2.328  1.00 20.00    -0.008 C 
HETATM    5  C5  UNL     1     -33.624   6.495  -0.052  1.00 20.00    -0.014 C 
HETATM    6  C6  UNL     1     -33.208   7.469   0.770  1.00 20.00    -0.041 C 
HETATM    7  C7  UNL     1     -31.728   8.354   2.246  1.00 20.00     0.166 C 
HETATM    8  C8  UNL     1     -33.498   5.049   0.355  1.00 20.00     0.054 C 
HETATM    9  C9  UNL     1     -32.724   7.210   2.177  1.00 20.00     0.071 C 
HETATM   10  O13 UNL     1     -30.830   8.471   3.067  1.00 20.00    -0.292 OA
ENDROOT
BRANCH   9  11
HETATM   11  C12 UNL     1     -33.823   7.451   3.221  1.00 20.00     0.002 C 
HETATM   12  C10 UNL     1     -34.518   6.140   3.571  1.00 20.00     0.011 C 
HETATM   13  C11 UNL     1     -33.236   8.103   4.467  1.00 20.00     0.011 C 
ENDBRANCH   9  11
TORSDOF 1
ENDMDL
MODEL 7
REMARK VINA RESULT:       5.1      1.459      3.156
REMARK  1 active torsions:
REMARK  status: ('A' for Active; 'I' for Inactive)
REMARK    1  A    between atoms: C9_9  and  C12_12 
ROOT
HETATM    1  C1  UNL     1     -32.050   8.170   1.782  1.00 20.00     0.012 C 
HETATM    2  C2  UNL     1     -31.993   8.763   2.977  1.00 20.00     0.052 C 
HETATM    3  C3  UNL     1     -33.022   4.291   2.926  1.00 20.00    -0.025 C 
HETATM    4  C4  UNL     1     -33.256   5.340   3.733  1.00 20.00    -0.008 C 
HETATM    5  C5  UNL     1     -32.435   5.841   1.024  1.00 20.00    -0.014 C 
HETATM    6  C6  UNL     1     -32.659   6.868   1.855  1.00 20.00    -0.041 C 
HETATM    7  C7  UNL     1     -32.655   7.824   3.914  1.00 20.00     0.166 C 
HETATM    8  C8  UNL     1     -32.792   4.436   1.438  1.00 20.00     0.054 C 
HETATM    9  C9  UNL     1     -33.389   6.724   3.169  1.00 20.00     0.071 C 
HETATM   10  O13 UNL     1     -32.639   7.979   5.126  1.00 20.00    -0.292 OA
ENDROOT
BRANCH   9  11
HETATM   11  C12 UNL     1     -34.870   7.111   3.055  1.00 20.00     0.002 C 
HETATM   12  C10 UNL     1     -35.724   6.207   3.936  1.00 20.00     0.011 C 
HETATM   13  C11 UNL     1     -35.065   8.575   3.430  1.00 20.00     0.011 C 
ENDBRANCH   9  11
TORSDOF 1
ENDMDL
MODEL 8
REMARK VINA RESULT:       5.7      1.918      3.602
REMARK  1 active torsions:
REMARK  status: ('A' for Active; 'I' for Inactive)
REMARK    1  A    between atoms: C9_9  and  C12_12 
ROOT
HETATM    1  C1  UNL     1     -34.262   5.483   3.098  1.00 20.00     0.012 C 
HETATM    2  C2  UNL     1     -33.434   4.809   2.296  1.00 20.00     0.052 C 
HETATM    3  C3  UNL     1     -31.851   8.722   4.097  1.00 20.00    -0.025 C 
HETATM    4  C4  UNL     1     -31.615   7.984   2.998  1.00 20.00    -0.008 C 
HETATM    5  C5  UNL     1     -34.054   7.548   4.454  1.00 20.00    -0.014 C 
HETATM    6  C6  UNL     1     -33.788   6.815   3.364  1.00 20.00    -0.041 C 
HETATM    7  C7  UNL     1     -32.354   5.764   1.953  1.00 20.00     0.166 C 
HETATM    8  C8  UNL     1     -33.183   8.725   4.813  1.00 20.00     0.054 C 
HETATM    9  C9  UNL     1     -32.713   7.180   2.367  1.00 20.00     0.071 C 
HETATM   10  O13 UNL     1     -31.339   5.429   1.361  1.00 20.00    -0.292 OA
ENDROOT
BRANCH   9  11
HETATM   11  C12 UNL     1     -33.282   7.919   1.148  1.00 20.00     0.002 C 
HETATM   12  C10 UNL     1     -32.340   9.040   0.722  1.00 20.00     0.011 C 
HETATM   13  C11 UNL     1     -33.519   6.944   0.001  1.00 20.00     0.011 C 
ENDBRANCH   9  11
TORSDOF 1
ENDMDL
