MODEL 1
REMARK VINA RESULT:       0.9      0.000      0.000
REMARK  0 active torsions:
REMARK  status: ('A' for Active; 'I' for Inactive)
ROOT
HETATM    1  C1  UNL     1     -32.103   7.420   1.274  1.00 20.00     0.088 C 
HETATM    2  C2  UNL     1     -33.049   5.568   2.491  1.00 20.00    -0.041 C 
HETATM    3  C3  UNL     1     -33.822   6.417   3.402  1.00 20.00    -0.050 C 
HETATM    4  C4  UNL     1     -32.258   6.032   1.511  1.00 20.00     0.101 C 
HETATM    5  C5  UNL     1     -33.518   7.689   3.704  1.00 20.00    -0.081 C 
HETATM    6  C6  UNL     1     -33.208   4.075   2.705  1.00 20.00     0.044 C 
HETATM    7  C7  UNL     1     -34.995   5.725   4.052  1.00 20.00     0.040 C 
HETATM    8  C8  UNL     1     -34.575   4.464   4.817  1.00 20.00     0.009 C 
HETATM    9  C9  UNL     1     -33.367   3.735   4.195  1.00 20.00    -0.014 C 
HETATM   10  C10 UNL     1     -34.354   8.502   4.647  1.00 20.00     0.043 C 
HETATM   11  C11 UNL     1     -32.322   8.378   3.118  1.00 20.00     0.043 C 
HETATM   12  C12 UNL     1     -33.470   2.226   4.411  1.00 20.00     0.010 C 
HETATM   13  N13 UNL     1     -31.970   8.554   1.074  1.00 20.00    -0.192 NA
ENDROOT
TORSDOF 0
ENDMDL
MODEL 2
REMARK VINA RESULT:       1.4      1.999      4.445
REMARK  0 active torsions:
REMARK  status: ('A' for Active; 'I' for Inactive)
ROOT
HETATM    1  C1  UNL     1     -33.746   4.756   3.035  1.00 20.00     0.088 C 
HETATM    2  C2  UNL     1     -32.764   6.682   1.972  1.00 20.00    -0.041 C 
HETATM    3  C3  UNL     1     -32.945   7.556   3.135  1.00 20.00    -0.050 C 
HETATM    4  C4  UNL     1     -33.134   5.392   1.928  1.00 20.00     0.101 C 
HETATM    5  C5  UNL     1     -33.869   7.373   4.091  1.00 20.00    -0.081 C 
HETATM    6  C6  UNL     1     -32.093   7.328   0.775  1.00 20.00     0.044 C 
HETATM    7  C7  UNL     1     -32.029   8.755   3.160  1.00 20.00     0.040 C 
HETATM    8  C8  UNL     1     -32.160   9.613   1.895  1.00 20.00     0.009 C 
HETATM    9  C9  UNL     1     -32.502   8.802   0.629  1.00 20.00    -0.014 C 
HETATM   10  C10 UNL     1     -33.999   8.308   5.257  1.00 20.00     0.043 C 
HETATM   11  C11 UNL     1     -34.830   6.223   4.055  1.00 20.00     0.043 C 
HETATM   12  C12 UNL     1     -31.868   9.432  -0.610  1.00 20.00     0.010 C 
HETATM   13  N13 UNL     1     -34.249   4.228   3.938  1.00 20.00    -0.192 NA
ENDROOT
TORSDOF 0
ENDMDL
