MODEL 1
REMARK VINA RESULT:       1.5      0.000      0.000
REMARK  1 active torsions:
REMARK  status: ('A' for Active; 'I' for Inactive)
REMARK    1  A    between atoms: C3_3  and  C9_9 
ROOT
HETATM    1  C1  UNL     1     -33.278   7.884   0.869  1.00 20.00     0.069 C 
HETATM    2  C2  UNL     1     -32.298   9.046   0.784  1.00 20.00     0.069 C 
HETATM    3  C3  UNL     1     -32.919   7.245   2.205  1.00 20.00     0.076 C 
HETATM    4  C4  UNL     1     -31.656   9.139  -0.601  1.00 20.00     0.042 C 
HETATM    5  C5  UNL     1     -32.922  10.390   1.158  1.00 20.00     0.042 C 
HETATM    6  C6  UNL     1     -32.834   5.722   2.094  1.00 20.00     0.043 C 
HETATM    7  N10 UNL     1     -31.247   8.717   1.765  1.00 20.00    -0.187 NA
HETATM    8  N11 UNL     1     -31.575   7.767   2.515  1.00 20.00    -0.186 NA
ENDROOT
BRANCH   3   9
HETATM    9  C9  UNL     1     -33.875   7.631   3.334  1.00 20.00     0.009 C 
HETATM   10  C7  UNL     1     -34.793   6.462   3.681  1.00 20.00     0.012 C 
HETATM   11  C8  UNL     1     -33.094   8.088   4.563  1.00 20.00     0.012 C 
ENDBRANCH   3   9
TORSDOF 1
ENDMDL
MODEL 2
REMARK VINA RESULT:       2.1      1.447      1.983
REMARK  1 active torsions:
REMARK  status: ('A' for Active; 'I' for Inactive)
REMARK    1  A    between atoms: C3_3  and  C9_9 
ROOT
HETATM    1  C1  UNL     1     -33.462   7.511   1.614  1.00 20.00     0.069 C 
HETATM    2  C2  UNL     1     -32.086   8.154   1.735  1.00 20.00     0.069 C 
HETATM    3  C3  UNL     1     -33.174   6.050   1.934  1.00 20.00     0.076 C 
HETATM    4  C4  UNL     1     -31.805   9.102   0.569  1.00 20.00     0.042 C 
HETATM    5  C5  UNL     1     -31.877   8.884   3.061  1.00 20.00     0.042 C 
HETATM    6  C6  UNL     1     -33.868   5.112   0.946  1.00 20.00     0.043 C 
HETATM    7  N10 UNL     1     -31.141   7.024   1.656  1.00 20.00    -0.187 NA
HETATM    8  N11 UNL     1     -31.715   5.913   1.762  1.00 20.00    -0.186 NA
ENDROOT
BRANCH   3   9
HETATM    9  C9  UNL     1     -33.543   5.662   3.366  1.00 20.00     0.009 C 
HETATM   10  C7  UNL     1     -34.750   6.467   3.844  1.00 20.00     0.012 C 
HETATM   11  C8  UNL     1     -33.823   4.165   3.458  1.00 20.00     0.012 C 
ENDBRANCH   3   9
TORSDOF 1
ENDMDL
MODEL 3
REMARK VINA RESULT:       2.6      1.319      3.834
REMARK  1 active torsions:
REMARK  status: ('A' for Active; 'I' for Inactive)
REMARK    1  A    between atoms: C3_3  and  C9_9 
ROOT
HETATM    1  C1  UNL     1     -33.406   7.345   2.361  1.00 20.00     0.069 C 
HETATM    2  C2  UNL     1     -33.160   5.930   1.855  1.00 20.00     0.069 C 
HETATM    3  C3  UNL     1     -32.158   8.085   1.896  1.00 20.00     0.076 C 
HETATM    4  C4  UNL     1     -33.488   4.886   2.923  1.00 20.00     0.042 C 
HETATM    5  C5  UNL     1     -33.916   5.610   0.566  1.00 20.00     0.042 C 
HETATM    6  C6  UNL     1     -31.588   8.974   3.002  1.00 20.00     0.043 C 
HETATM    7  N10 UNL     1     -31.710   5.881   1.584  1.00 20.00    -0.187 NA
HETATM    8  N11 UNL     1     -31.182   7.019   1.605  1.00 20.00    -0.186 NA
ENDROOT
BRANCH   3   9
HETATM    9  C9  UNL     1     -32.384   8.911   0.630  1.00 20.00     0.009 C 
HETATM   10  C7  UNL     1     -32.755  10.348   0.988  1.00 20.00     0.012 C 
HETATM   11  C8  UNL     1     -31.142   8.880  -0.257  1.00 20.00     0.012 C 
ENDBRANCH   3   9
TORSDOF 1
ENDMDL
MODEL 4
REMARK VINA RESULT:       3.1      1.555      4.001
REMARK  1 active torsions:
REMARK  status: ('A' for Active; 'I' for Inactive)
REMARK    1  A    between atoms: C3_3  and  C9_9 
ROOT
HETATM    1  C1  UNL     1     -34.090   6.908   2.135  1.00 20.00     0.069 C 
HETATM    2  C2  UNL     1     -34.198   6.347   3.546  1.00 20.00     0.069 C 
HETATM    3  C3  UNL     1     -32.876   7.822   2.234  1.00 20.00     0.076 C 
HETATM    4  C4  UNL     1     -35.641   6.373   4.053  1.00 20.00     0.042 C 
HETATM    5  C5  UNL     1     -33.626   4.936   3.679  1.00 20.00     0.042 C 
HETATM    6  C6  UNL     1     -33.133   9.172   1.563  1.00 20.00     0.043 C 
HETATM    7  N10 UNL     1     -33.396   7.268   4.374  1.00 20.00    -0.187 NA
HETATM    8  N11 UNL     1     -32.698   8.047   3.681  1.00 20.00    -0.186 NA
ENDROOT
BRANCH   3   9
HETATM    9  C9  UNL     1     -31.602   7.196   1.668  1.00 20.00     0.009 C 
HETATM   10  C7  UNL     1     -31.892   5.805   1.108  1.00 20.00     0.012 C 
HETATM   11  C8  UNL     1     -30.996   8.094   0.593  1.00 20.00     0.012 C 
ENDBRANCH   3   9
TORSDOF 1
ENDMDL
MODEL 5
REMARK VINA RESULT:       3.2      1.735      3.758
REMARK  1 active torsions:
REMARK  status: ('A' for Active; 'I' for Inactive)
REMARK    1  A    between atoms: C3_3  and  C9_9 
ROOT
HETATM    1  C1  UNL     1     -32.869   5.969   3.290  1.00 20.00     0.069 C 
HETATM    2  C2  UNL     1     -34.280   6.470   3.566  1.00 20.00     0.069 C 
HETATM    3  C3  UNL     1     -32.633   6.416   1.853  1.00 20.00     0.076 C 
HETATM    4  C4  UNL     1     -35.128   5.405   4.263  1.00 20.00     0.042 C 
HETATM    5  C5  UNL     1     -34.313   7.769   4.370  1.00 20.00     0.042 C 
HETATM    6  C6  UNL     1     -32.003   5.304   1.015  1.00 20.00     0.043 C 
HETATM    7  N10 UNL     1     -34.852   6.720   2.229  1.00 20.00    -0.187 NA
HETATM    8  N11 UNL     1     -33.982   6.692   1.325  1.00 20.00    -0.186 NA
ENDROOT
BRANCH   3   9
HETATM    9  C9  UNL     1     -31.789   7.687   1.748  1.00 20.00     0.009 C 
HETATM   10  C7  UNL     1     -32.438   8.683   0.790  1.00 20.00     0.012 C 
HETATM   11  C8  UNL     1     -31.592   8.314   3.125  1.00 20.00     0.012 C 
ENDBRANCH   3   9
TORSDOF 1
ENDMDL
MODEL 6
REMARK VINA RESULT:       3.2      2.492      3.372
REMARK  1 active torsions:
REMARK  status: ('A' for Active; 'I' for Inactive)
REMARK    1  A    between atoms: C3_3  and  C9_9 
ROOT
HETATM    1  C1  UNL     1     -33.811   6.567   1.734  1.00 20.00     0.069 C 
HETATM    2  C2  UNL     1     -32.945   5.355   1.418  1.00 20.00     0.069 C 
HETATM    3  C3  UNL     1     -33.950   6.489   3.249  1.00 20.00     0.076 C 
HETATM    4  C4  UNL     1     -33.487   4.574   0.221  1.00 20.00     0.042 C 
HETATM    5  C5  UNL     1     -31.476   5.708   1.187  1.00 20.00     0.042 C 
HETATM    6  C6  UNL     1     -35.394   6.726   3.693  1.00 20.00     0.043 C 
HETATM    7  N10 UNL     1     -33.049   4.503   2.618  1.00 20.00    -0.187 NA
HETATM    8  N11 UNL     1     -33.579   5.102   3.584  1.00 20.00    -0.186 NA
ENDROOT
BRANCH   3   9
HETATM    9  C9  UNL     1     -33.016   7.446   3.990  1.00 20.00     0.009 C 
HETATM   10  C7  UNL     1     -32.357   8.416   3.012  1.00 20.00     0.012 C 
HETATM   11  C8  UNL     1     -33.778   8.205   5.072  1.00 20.00     0.012 C 
ENDBRANCH   3   9
TORSDOF 1
ENDMDL
MODEL 7
REMARK VINA RESULT:       3.4      1.393      3.873
REMARK  1 active torsions:
REMARK  status: ('A' for Active; 'I' for Inactive)
REMARK    1  A    between atoms: C3_3  and  C9_9 
ROOT
HETATM    1  C1  UNL     1     -33.154   7.910   3.277  1.00 20.00     0.069 C 
HETATM    2  C2  UNL     1     -33.976   6.647   3.057  1.00 20.00     0.069 C 
HETATM    3  C3  UNL     1     -32.296   7.970   2.020  1.00 20.00     0.076 C 
HETATM    4  C4  UNL     1     -34.025   5.782   4.317  1.00 20.00     0.042 C 
HETATM    5  C5  UNL     1     -35.395   6.929   2.565  1.00 20.00     0.042 C 
HETATM    6  C6  UNL     1     -30.838   8.293   2.350  1.00 20.00     0.043 C 
HETATM    7  N10 UNL     1     -33.245   5.907   2.011  1.00 20.00    -0.187 NA
HETATM    8  N11 UNL     1     -32.359   6.606   1.463  1.00 20.00    -0.186 NA
ENDROOT
BRANCH   3   9
HETATM    9  C9  UNL     1     -32.823   8.957   0.977  1.00 20.00     0.009 C 
HETATM   10  C7  UNL     1     -32.821  10.378   1.536  1.00 20.00     0.012 C 
HETATM   11  C8  UNL     1     -31.991   8.879  -0.300  1.00 20.00     0.012 C 
ENDBRANCH   3   9
TORSDOF 1
ENDMDL
MODEL 8
REMARK VINA RESULT:       3.8      1.908      3.995
REMARK  1 active torsions:
REMARK  status: ('A' for Active; 'I' for Inactive)
REMARK    1  A    between atoms: C3_3  and  C9_9 
ROOT
HETATM    1  C1  UNL     1     -32.808   6.123   3.303  1.00 20.00     0.069 C 
HETATM    2  C2  UNL     1     -34.297   6.255   3.595  1.00 20.00     0.069 C 
HETATM    3  C3  UNL     1     -32.711   6.595   1.858  1.00 20.00     0.076 C 
HETATM    4  C4  UNL     1     -34.839   5.020   4.317  1.00 20.00     0.042 C 
HETATM    5  C5  UNL     1     -34.646   7.514   4.387  1.00 20.00     0.042 C 
HETATM    6  C6  UNL     1     -31.831   5.666   1.021  1.00 20.00     0.043 C 
HETATM    7  N10 UNL     1     -34.930   6.334   2.265  1.00 20.00    -0.187 NA
HETATM    8  N11 UNL     1     -34.092   6.514   1.348  1.00 20.00    -0.186 NA
ENDROOT
BRANCH   3   9
HETATM    9  C9  UNL     1     -32.217   8.036   1.727  1.00 20.00     0.009 C 
HETATM   10  C7  UNL     1     -31.280   8.388   2.880  1.00 20.00     0.012 C 
HETATM   11  C8  UNL     1     -31.521   8.242   0.384  1.00 20.00     0.012 C 
ENDBRANCH   3   9
TORSDOF 1
ENDMDL
MODEL 9
REMARK VINA RESULT:       3.8      2.941      4.976
REMARK  1 active torsions:
REMARK  status: ('A' for Active; 'I' for Inactive)
REMARK    1  A    between atoms: C3_3  and  C9_9 
ROOT
HETATM    1  C1  UNL     1     -32.662   4.370   3.239  1.00 20.00     0.069 C 
HETATM    2  C2  UNL     1     -33.310   3.710   4.449  1.00 20.00     0.069 C 
HETATM    3  C3  UNL     1     -33.572   5.566   2.988  1.00 20.00     0.076 C 
HETATM    4  C4  UNL     1     -33.411   2.194   4.275  1.00 20.00     0.042 C 
HETATM    5  C5  UNL     1     -32.604   4.037   5.764  1.00 20.00     0.042 C 
HETATM    6  C6  UNL     1     -33.906   5.715   1.503  1.00 20.00     0.043 C 
HETATM    7  N10 UNL     1     -34.676   4.268   4.488  1.00 20.00    -0.187 NA
HETATM    8  N11 UNL     1     -34.813   5.248   3.717  1.00 20.00    -0.186 NA
ENDROOT
BRANCH   3   9
HETATM    9  C9  UNL     1     -33.003   6.880   3.526  1.00 20.00     0.009 C 
HETATM   10  C7  UNL     1     -32.353   7.682   2.401  1.00 20.00     0.012 C 
HETATM   11  C8  UNL     1     -34.096   7.696   4.209  1.00 20.00     0.012 C 
ENDBRANCH   3   9
TORSDOF 1
ENDMDL
