MODEL 1
REMARK VINA RESULT:       2.3      0.000      0.000
REMARK  1 active torsions:
REMARK  status: ('A' for Active; 'I' for Inactive)
REMARK    1  A    between atoms: C8_8  and  C11_11 
ROOT
HETATM    1  C1  UNL     1     -32.163   8.197   1.447  1.00 20.00    -0.079 C 
HETATM    2  C2  UNL     1     -33.313   7.915   4.621  1.00 20.00     0.132 C 
HETATM    3  C3  UNL     1     -32.108   8.552   0.165  1.00 20.00     0.015 C 
HETATM    4  C4  UNL     1     -31.308   8.523   2.709  1.00 20.00     0.047 C 
HETATM    5  C5  UNL     1     -34.624   7.265   4.169  1.00 20.00     0.080 C 
HETATM    6  C6  UNL     1     -34.556   7.382   2.603  1.00 20.00     0.022 C 
HETATM    7  C7  UNL     1     -32.689   8.448   3.341  1.00 20.00     0.072 C 
HETATM    8  C8  UNL     1     -33.061   7.303   2.283  1.00 20.00    -0.004 C 
HETATM    9  O12 UNL     1     -32.918   7.968   5.775  1.00 20.00    -0.298 OA
ENDROOT
BRANCH   8  10
HETATM   10  C11 UNL     1     -32.544   5.860   2.368  1.00 20.00    -0.009 C 
HETATM   11  C9  UNL     1     -33.551   4.980   3.100  1.00 20.00     0.011 C 
HETATM   12  C10 UNL     1     -32.261   5.317   0.972  1.00 20.00     0.011 C 
ENDBRANCH   8  10
TORSDOF 1
ENDMDL
MODEL 2
REMARK VINA RESULT:       2.4      1.379      2.108
REMARK  1 active torsions:
REMARK  status: ('A' for Active; 'I' for Inactive)
REMARK    1  A    between atoms: C8_8  and  C11_11 
ROOT
HETATM    1  C1  UNL     1     -33.189   5.678   1.515  1.00 20.00    -0.079 C 
HETATM    2  C2  UNL     1     -33.092   7.966   4.012  1.00 20.00     0.132 C 
HETATM    3  C3  UNL     1     -33.548   5.082   0.380  1.00 20.00     0.015 C 
HETATM    4  C4  UNL     1     -31.874   6.333   2.037  1.00 20.00     0.047 C 
HETATM    5  C5  UNL     1     -34.580   7.795   4.329  1.00 20.00     0.080 C 
HETATM    6  C6  UNL     1     -35.084   6.858   3.172  1.00 20.00     0.022 C 
HETATM    7  C7  UNL     1     -32.900   7.253   2.683  1.00 20.00     0.072 C 
HETATM    8  C8  UNL     1     -33.870   5.987   2.836  1.00 20.00    -0.004 C 
HETATM    9  O12 UNL     1     -32.289   8.564   4.711  1.00 20.00    -0.298 OA
ENDROOT
BRANCH   8  10
HETATM   10  C11 UNL     1     -33.670   4.877   3.878  1.00 20.00    -0.009 C 
HETATM   11  C9  UNL     1     -34.939   4.691   4.702  1.00 20.00     0.011 C 
HETATM   12  C10 UNL     1     -33.270   3.575   3.194  1.00 20.00     0.011 C 
ENDBRANCH   8  10
TORSDOF 1
ENDMDL
MODEL 3
REMARK VINA RESULT:       2.6      2.138      3.629
REMARK  1 active torsions:
REMARK  status: ('A' for Active; 'I' for Inactive)
REMARK    1  A    between atoms: C8_8  and  C11_11 
ROOT
HETATM    1  C1  UNL     1     -33.184   8.181   3.585  1.00 20.00    -0.079 C 
HETATM    2  C2  UNL     1     -32.501   9.240   0.439  1.00 20.00     0.132 C 
HETATM    3  C3  UNL     1     -33.036   7.968   4.891  1.00 20.00     0.015 C 
HETATM    4  C4  UNL     1     -34.175   9.017   2.719  1.00 20.00     0.047 C 
HETATM    5  C5  UNL     1     -31.196   8.443   0.373  1.00 20.00     0.080 C 
HETATM    6  C6  UNL     1     -31.040   7.894   1.838  1.00 20.00     0.022 C 
HETATM    7  C7  UNL     1     -32.902   9.195   1.905  1.00 20.00     0.072 C 
HETATM    8  C8  UNL     1     -32.480   7.708   2.326  1.00 20.00    -0.004 C 
HETATM    9  O12 UNL     1     -33.045   9.777  -0.513  1.00 20.00    -0.298 OA
ENDROOT
BRANCH   8  10
HETATM   10  C11 UNL     1     -33.113   6.440   1.736  1.00 20.00    -0.009 C 
HETATM   11  C9  UNL     1     -32.041   5.553   1.115  1.00 20.00     0.011 C 
HETATM   12  C10 UNL     1     -33.888   5.687   2.811  1.00 20.00     0.011 C 
ENDBRANCH   8  10
TORSDOF 1
ENDMDL
MODEL 4
REMARK VINA RESULT:       2.6      1.875      4.011
REMARK  1 active torsions:
REMARK  status: ('A' for Active; 'I' for Inactive)
REMARK    1  A    between atoms: C8_8  and  C11_11 
ROOT
HETATM    1  C1  UNL     1     -34.664   6.293   3.487  1.00 20.00    -0.079 C 
HETATM    2  C2  UNL     1     -31.929   5.812   1.546  1.00 20.00     0.132 C 
HETATM    3  C3  UNL     1     -35.916   6.587   3.831  1.00 20.00     0.015 C 
HETATM    4  C4  UNL     1     -33.799   4.996   3.518  1.00 20.00     0.047 C 
HETATM    5  C5  UNL     1     -31.955   7.250   1.022  1.00 20.00     0.080 C 
HETATM    6  C6  UNL     1     -33.302   7.815   1.602  1.00 20.00     0.022 C 
HETATM    7  C7  UNL     1     -33.268   5.635   2.243  1.00 20.00     0.072 C 
HETATM    8  C8  UNL     1     -33.486   7.068   2.925  1.00 20.00    -0.004 C 
HETATM    9  O12 UNL     1     -31.006   5.027   1.397  1.00 20.00    -0.298 OA
ENDROOT
BRANCH   8  10
HETATM   10  C11 UNL     1     -32.577   7.639   4.023  1.00 20.00    -0.009 C 
HETATM   11  C9  UNL     1     -31.661   8.712   3.446  1.00 20.00     0.011 C 
HETATM   12  C10 UNL     1     -33.416   8.199   5.166  1.00 20.00     0.011 C 
ENDBRANCH   8  10
TORSDOF 1
ENDMDL
MODEL 5
REMARK VINA RESULT:       2.9      1.908      4.050
REMARK  1 active torsions:
REMARK  status: ('A' for Active; 'I' for Inactive)
REMARK    1  A    between atoms: C8_8  and  C11_11 
ROOT
HETATM    1  C1  UNL     1     -35.527   6.369   3.467  1.00 20.00    -0.079 C 
HETATM    2  C2  UNL     1     -33.107   4.024   3.824  1.00 20.00     0.132 C 
HETATM    3  C3  UNL     1     -36.538   7.049   2.931  1.00 20.00     0.015 C 
HETATM    4  C4  UNL     1     -35.356   5.489   4.743  1.00 20.00     0.047 C 
HETATM    5  C5  UNL     1     -32.416   4.431   2.520  1.00 20.00     0.080 C 
HETATM    6  C6  UNL     1     -33.415   5.472   1.898  1.00 20.00     0.022 C 
HETATM    7  C7  UNL     1     -34.451   4.734   3.781  1.00 20.00     0.072 C 
HETATM    8  C8  UNL     1     -34.069   6.138   3.111  1.00 20.00    -0.004 C 
HETATM    9  O12 UNL     1     -32.633   3.281   4.668  1.00 20.00    -0.298 OA
ENDROOT
BRANCH   8  10
HETATM   10  C11 UNL     1     -33.133   7.169   3.758  1.00 20.00    -0.009 C 
HETATM   11  C9  UNL     1     -32.390   7.955   2.685  1.00 20.00     0.011 C 
HETATM   12  C10 UNL     1     -33.922   8.102   4.669  1.00 20.00     0.011 C 
ENDBRANCH   8  10
TORSDOF 1
ENDMDL
MODEL 6
REMARK VINA RESULT:       3.7      1.511      3.020
REMARK  1 active torsions:
REMARK  status: ('A' for Active; 'I' for Inactive)
REMARK    1  A    between atoms: C8_8  and  C11_11 
ROOT
HETATM    1  C1  UNL     1     -32.120   5.813   1.573  1.00 20.00    -0.079 C 
HETATM    2  C2  UNL     1     -34.735   6.865   3.453  1.00 20.00     0.132 C 
HETATM    3  C3  UNL     1     -30.929   5.305   1.262  1.00 20.00     0.015 C 
HETATM    4  C4  UNL     1     -33.594   5.371   1.328  1.00 20.00     0.047 C 
HETATM    5  C5  UNL     1     -33.873   7.867   4.227  1.00 20.00     0.080 C 
HETATM    6  C6  UNL     1     -32.418   7.541   3.730  1.00 20.00     0.022 C 
HETATM    7  C7  UNL     1     -33.734   5.996   2.708  1.00 20.00     0.072 C 
HETATM    8  C8  UNL     1     -32.610   7.058   2.290  1.00 20.00    -0.004 C 
HETATM    9  O12 UNL     1     -35.955   6.822   3.479  1.00 20.00    -0.298 OA
ENDROOT
BRANCH   8  10
HETATM   10  C11 UNL     1     -32.857   8.233   1.333  1.00 20.00    -0.009 C 
HETATM   11  C9  UNL     1     -33.043   9.525   2.119  1.00 20.00     0.011 C 
HETATM   12  C10 UNL     1     -31.705   8.359   0.343  1.00 20.00     0.011 C 
ENDBRANCH   8  10
TORSDOF 1
ENDMDL
MODEL 7
REMARK VINA RESULT:       3.8      1.750      3.543
REMARK  1 active torsions:
REMARK  status: ('A' for Active; 'I' for Inactive)
REMARK    1  A    between atoms: C8_8  and  C11_11 
ROOT
HETATM    1  C1  UNL     1     -33.853   5.280   3.335  1.00 20.00    -0.079 C 
HETATM    2  C2  UNL     1     -32.403   7.989   1.907  1.00 20.00     0.132 C 
HETATM    3  C3  UNL     1     -33.991   4.179   4.072  1.00 20.00     0.015 C 
HETATM    4  C4  UNL     1     -34.459   6.715   3.391  1.00 20.00     0.047 C 
HETATM    5  C5  UNL     1     -31.324   7.145   1.224  1.00 20.00     0.080 C 
HETATM    6  C6  UNL     1     -31.559   5.712   1.827  1.00 20.00     0.022 C 
HETATM    7  C7  UNL     1     -33.056   7.042   2.902  1.00 20.00     0.072 C 
HETATM    8  C8  UNL     1     -33.065   5.658   2.094  1.00 20.00    -0.004 C 
HETATM    9  O12 UNL     1     -32.634   9.163   1.666  1.00 20.00    -0.298 OA
ENDROOT
BRANCH   8  10
HETATM   10  C11 UNL     1     -33.857   5.429   0.799  1.00 20.00    -0.009 C 
HETATM   11  C9  UNL     1     -33.824   6.681  -0.069  1.00 20.00     0.011 C 
HETATM   12  C10 UNL     1     -33.299   4.228   0.043  1.00 20.00     0.011 C 
ENDBRANCH   8  10
TORSDOF 1
ENDMDL
MODEL 8
REMARK VINA RESULT:       3.8      2.208      3.499
REMARK  1 active torsions:
REMARK  status: ('A' for Active; 'I' for Inactive)
REMARK    1  A    between atoms: C8_8  and  C11_11 
ROOT
HETATM    1  C1  UNL     1     -32.032   8.086   2.388  1.00 20.00    -0.079 C 
HETATM    2  C2  UNL     1     -33.530   5.774   0.417  1.00 20.00     0.132 C 
HETATM    3  C3  UNL     1     -31.088   8.695   3.103  1.00 20.00     0.015 C 
HETATM    4  C4  UNL     1     -32.813   8.436   1.086  1.00 20.00     0.047 C 
HETATM    5  C5  UNL     1     -33.256   4.640   1.408  1.00 20.00     0.080 C 
HETATM    6  C6  UNL     1     -32.339   5.325   2.485  1.00 20.00     0.022 C 
HETATM    7  C7  UNL     1     -32.678   6.930   0.913  1.00 20.00     0.072 C 
HETATM    8  C8  UNL     1     -32.803   6.783   2.504  1.00 20.00    -0.004 C 
HETATM    9  O12 UNL     1     -34.276   5.698  -0.547  1.00 20.00    -0.298 OA
ENDROOT
BRANCH   8  10
HETATM   10  C11 UNL     1     -34.120   6.944   3.276  1.00 20.00    -0.009 C 
HETATM   11  C9  UNL     1     -34.592   5.593   3.802  1.00 20.00     0.011 C 
HETATM   12  C10 UNL     1     -33.947   7.941   4.416  1.00 20.00     0.011 C 
ENDBRANCH   8  10
TORSDOF 1
ENDMDL
MODEL 9
REMARK VINA RESULT:       3.9      2.410      3.847
REMARK  1 active torsions:
REMARK  status: ('A' for Active; 'I' for Inactive)
REMARK    1  A    between atoms: C8_8  and  C11_11 
ROOT
HETATM    1  C1  UNL     1     -33.670   7.241   3.874  1.00 20.00    -0.079 C 
HETATM    2  C2  UNL     1     -33.529   5.874   0.777  1.00 20.00     0.132 C 
HETATM    3  C3  UNL     1     -33.275   7.854   4.988  1.00 20.00     0.015 C 
HETATM    4  C4  UNL     1     -34.667   7.590   2.729  1.00 20.00     0.047 C 
HETATM    5  C5  UNL     1     -32.431   4.886   1.180  1.00 20.00     0.080 C 
HETATM    6  C6  UNL     1     -32.052   5.351   2.633  1.00 20.00     0.022 C 
HETATM    7  C7  UNL     1     -33.596   6.863   1.930  1.00 20.00     0.072 C 
HETATM    8  C8  UNL     1     -33.357   5.917   3.201  1.00 20.00    -0.004 C 
HETATM    9  O12 UNL     1     -34.169   5.826  -0.262  1.00 20.00    -0.298 OA
ENDROOT
BRANCH   8  10
HETATM   10  C11 UNL     1     -34.317   4.796   3.626  1.00 20.00    -0.009 C 
HETATM   11  C9  UNL     1     -33.547   3.671   4.308  1.00 20.00     0.011 C 
HETATM   12  C10 UNL     1     -35.401   5.348   4.543  1.00 20.00     0.011 C 
ENDBRANCH   8  10
TORSDOF 1
ENDMDL
