MODEL 1
REMARK VINA RESULT:      -0.8      0.000      0.000
REMARK  1 active torsions:
REMARK  status: ('A' for Active; 'I' for Inactive)
REMARK    1  A    between atoms: C5_5  and  C7_7 
ROOT
HETATM    1  C1  UNL     1     -34.269   5.707   3.061  1.00 20.00     0.003 C 
HETATM    2  C2  UNL     1     -34.277   6.789   4.137  1.00 20.00     0.003 C 
HETATM    3  C3  UNL     1     -32.984   5.984   2.276  1.00 20.00     0.041 C 
HETATM    4  C4  UNL     1     -33.770   8.032   3.403  1.00 20.00     0.041 C 
HETATM    5  C5  UNL     1     -32.142   8.293   1.313  1.00 20.00     0.167 A 
HETATM    6  C6  UNL     1     -32.826   7.472   2.382  1.00 20.00     0.088 A 
HETATM    7  O8  UNL     1     -31.465   7.914   2.515  1.00 20.00    -0.368 OA
ENDROOT
BRANCH   5   8
HETATM    8  C7  UNL     1     -32.369   9.755   1.164  1.00 20.00     0.120 C 
HETATM    9 BR9  UNL     1     -32.762  10.202  -0.696  1.00 20.00    -0.094 Br
ENDBRANCH   5   8
TORSDOF 1
ENDMDL
MODEL 2
REMARK VINA RESULT:      -0.1      2.882      4.146
REMARK  1 active torsions:
REMARK  status: ('A' for Active; 'I' for Inactive)
REMARK    1  A    between atoms: C5_5  and  C7_7 
ROOT
HETATM    1  C1  UNL     1     -31.956   8.358   1.172  1.00 20.00     0.003 C 
HETATM    2  C2  UNL     1     -31.729   6.850   1.146  1.00 20.00     0.003 C 
HETATM    3  C3  UNL     1     -32.470   8.625   2.589  1.00 20.00     0.041 C 
HETATM    4  C4  UNL     1     -32.920   6.291   1.928  1.00 20.00     0.041 C 
HETATM    5  C5  UNL     1     -34.386   7.349   3.882  1.00 20.00     0.167 A 
HETATM    6  C6  UNL     1     -33.209   7.365   2.933  1.00 20.00     0.088 A 
HETATM    7  O8  UNL     1     -33.075   6.956   4.305  1.00 20.00    -0.368 OA
ENDROOT
BRANCH   5   8
HETATM    8  C7  UNL     1     -35.391   6.254   3.886  1.00 20.00     0.120 C 
HETATM    9 BR9  UNL     1     -34.576   4.576   4.462  1.00 20.00    -0.094 Br
ENDBRANCH   5   8
TORSDOF 1
ENDMDL
MODEL 3
REMARK VINA RESULT:       0.3      2.452      4.183
REMARK  1 active torsions:
REMARK  status: ('A' for Active; 'I' for Inactive)
REMARK    1  A    between atoms: C5_5  and  C7_7 
ROOT
HETATM    1  C1  UNL     1     -32.357   9.879  -0.049  1.00 20.00     0.003 C 
HETATM    2  C2  UNL     1     -31.312   8.771  -0.138  1.00 20.00     0.003 C 
HETATM    3  C3  UNL     1     -32.709   9.929   1.439  1.00 20.00     0.041 C 
HETATM    4  C4  UNL     1     -31.832   7.706   0.829  1.00 20.00     0.041 C 
HETATM    5  C5  UNL     1     -33.324   7.910   3.025  1.00 20.00     0.167 A 
HETATM    6  C6  UNL     1     -32.530   8.508   1.886  1.00 20.00     0.088 A 
HETATM    7  O8  UNL     1     -31.980   8.369   3.207  1.00 20.00    -0.368 OA
ENDROOT
BRANCH   5   8
HETATM    8  C7  UNL     1     -33.505   6.443   3.185  1.00 20.00     0.120 C 
HETATM    9 BR9  UNL     1     -35.214   6.053   4.046  1.00 20.00    -0.094 Br
ENDBRANCH   5   8
TORSDOF 1
ENDMDL
MODEL 4
REMARK VINA RESULT:       0.4      3.491      4.506
REMARK  1 active torsions:
REMARK  status: ('A' for Active; 'I' for Inactive)
REMARK    1  A    between atoms: C5_5  and  C7_7 
ROOT
HETATM    1  C1  UNL     1     -31.956   7.746   1.813  1.00 20.00     0.003 C 
HETATM    2  C2  UNL     1     -32.393   8.461   3.088  1.00 20.00     0.003 C 
HETATM    3  C3  UNL     1     -33.092   6.757   1.541  1.00 20.00     0.041 C 
HETATM    4  C4  UNL     1     -33.006   7.344   3.936  1.00 20.00     0.041 C 
HETATM    5  C5  UNL     1     -34.214   5.076   3.240  1.00 20.00     0.167 A 
HETATM    6  C6  UNL     1     -33.589   6.414   2.915  1.00 20.00     0.088 A 
HETATM    7  O8  UNL     1     -35.013   6.240   3.003  1.00 20.00    -0.368 OA
ENDROOT
BRANCH   5   8
HETATM    8  C7  UNL     1     -34.287   4.547   4.627  1.00 20.00     0.120 C 
HETATM    9 BR9  UNL     1     -33.169   2.957   4.813  1.00 20.00    -0.094 Br
ENDBRANCH   5   8
TORSDOF 1
ENDMDL
MODEL 5
REMARK VINA RESULT:       0.6      1.708      2.458
REMARK  1 active torsions:
REMARK  status: ('A' for Active; 'I' for Inactive)
REMARK    1  A    between atoms: C5_5  and  C7_7 
ROOT
HETATM    1  C1  UNL     1     -35.019   4.963   4.779  1.00 20.00     0.003 C 
HETATM    2  C2  UNL     1     -34.073   4.058   3.995  1.00 20.00     0.003 C 
HETATM    3  C3  UNL     1     -35.240   6.156   3.846  1.00 20.00     0.041 C 
HETATM    4  C4  UNL     1     -33.101   5.038   3.335  1.00 20.00     0.041 C 
HETATM    5  C5  UNL     1     -33.412   7.568   2.565  1.00 20.00     0.167 A 
HETATM    6  C6  UNL     1     -33.943   6.255   3.098  1.00 20.00     0.088 A 
HETATM    7  O8  UNL     1     -34.083   6.630   1.717  1.00 20.00    -0.368 OA
ENDROOT
BRANCH   5   8
HETATM    8  C7  UNL     1     -31.976   7.775   2.246  1.00 20.00     0.120 C 
HETATM    9 BR9  UNL     1     -31.776   9.051   0.781  1.00 20.00    -0.094 Br
ENDBRANCH   5   8
TORSDOF 1
ENDMDL
MODEL 6
REMARK VINA RESULT:       0.8      2.587      3.966
REMARK  1 active torsions:
REMARK  status: ('A' for Active; 'I' for Inactive)
REMARK    1  A    between atoms: C5_5  and  C7_7 
ROOT
HETATM    1  C1  UNL     1     -30.990   9.145   0.435  1.00 20.00     0.003 C 
HETATM    2  C2  UNL     1     -32.421   9.535   0.080  1.00 20.00     0.003 C 
HETATM    3  C3  UNL     1     -31.144   7.793   1.136  1.00 20.00     0.041 C 
HETATM    4  C4  UNL     1     -33.229   9.100   1.305  1.00 20.00     0.041 C 
HETATM    5  C5  UNL     1     -32.815   7.159   3.079  1.00 20.00     0.167 A 
HETATM    6  C6  UNL     1     -32.484   7.898   1.802  1.00 20.00     0.088 A 
HETATM    7  O8  UNL     1     -33.243   6.677   1.800  1.00 20.00    -0.368 OA
ENDROOT
BRANCH   5   8
HETATM    8  C7  UNL     1     -33.918   7.583   3.981  1.00 20.00     0.120 C 
HETATM    9 BR9  UNL     1     -35.299   6.205   4.070  1.00 20.00    -0.094 Br
ENDBRANCH   5   8
TORSDOF 1
ENDMDL
MODEL 7
REMARK VINA RESULT:       1.1      1.032      1.134
REMARK  1 active torsions:
REMARK  status: ('A' for Active; 'I' for Inactive)
REMARK    1  A    between atoms: C5_5  and  C7_7 
ROOT
HETATM    1  C1  UNL     1     -34.459   4.778   3.507  1.00 20.00     0.003 C 
HETATM    2  C2  UNL     1     -35.093   5.861   4.374  1.00 20.00     0.003 C 
HETATM    3  C3  UNL     1     -33.135   5.401   3.056  1.00 20.00     0.041 C 
HETATM    4  C4  UNL     1     -34.770   7.157   3.627  1.00 20.00     0.041 C 
HETATM    5  C5  UNL     1     -32.743   7.800   2.025  1.00 20.00     0.167 A 
HETATM    6  C6  UNL     1     -33.448   6.867   2.984  1.00 20.00     0.088 A 
HETATM    7  O8  UNL     1     -32.373   7.723   3.406  1.00 20.00    -0.368 OA
ENDROOT
BRANCH   5   8
HETATM    8  C7  UNL     1     -33.324   9.104   1.612  1.00 20.00     0.120 C 
HETATM    9 BR9  UNL     1     -32.539   9.700  -0.074  1.00 20.00    -0.094 Br
ENDBRANCH   5   8
TORSDOF 1
ENDMDL
MODEL 8
REMARK VINA RESULT:       1.2      2.237      4.128
REMARK  1 active torsions:
REMARK  status: ('A' for Active; 'I' for Inactive)
REMARK    1  A    between atoms: C5_5  and  C7_7 
ROOT
HETATM    1  C1  UNL     1     -32.831  10.802   0.456  1.00 20.00     0.003 C 
HETATM    2  C2  UNL     1     -32.471   9.921  -0.736  1.00 20.00     0.003 C 
HETATM    3  C3  UNL     1     -32.284  10.029   1.659  1.00 20.00     0.041 C 
HETATM    4  C4  UNL     1     -32.728   8.501  -0.226  1.00 20.00     0.041 C 
HETATM    5  C5  UNL     1     -32.619   7.473   2.227  1.00 20.00     0.167 A 
HETATM    6  C6  UNL     1     -32.410   8.595   1.236  1.00 20.00     0.088 A 
HETATM    7  O8  UNL     1     -31.329   7.753   1.672  1.00 20.00    -0.368 OA
ENDROOT
BRANCH   5   8
HETATM    8  C7  UNL     1     -33.190   6.159   1.833  1.00 20.00     0.120 C 
HETATM    9 BR9  UNL     1     -31.815   5.024   1.037  1.00 20.00    -0.094 Br
ENDBRANCH   5   8
TORSDOF 1
ENDMDL
MODEL 9
REMARK VINA RESULT:       1.4      2.517      3.145
REMARK  1 active torsions:
REMARK  status: ('A' for Active; 'I' for Inactive)
REMARK    1  A    between atoms: C5_5  and  C7_7 
ROOT
HETATM    1  C1  UNL     1     -33.931   7.698   4.580  1.00 20.00     0.003 C 
HETATM    2  C2  UNL     1     -34.980   6.681   4.143  1.00 20.00     0.003 C 
HETATM    3  C3  UNL     1     -33.149   7.990   3.297  1.00 20.00     0.041 C 
HETATM    4  C4  UNL     1     -34.220   5.771   3.175  1.00 20.00     0.041 C 
HETATM    5  C5  UNL     1     -32.137   6.250   1.588  1.00 20.00     0.167 A 
HETATM    6  C6  UNL     1     -33.221   6.693   2.545  1.00 20.00     0.088 A 
HETATM    7  O8  UNL     1     -33.354   6.842   1.121  1.00 20.00    -0.368 OA
ENDROOT
BRANCH   5   8
HETATM    8  C7  UNL     1     -31.951   4.828   1.199  1.00 20.00     0.120 C 
HETATM    9 BR9  UNL     1     -33.295   4.295  -0.114  1.00 20.00    -0.094 Br
ENDBRANCH   5   8
TORSDOF 1
ENDMDL
