MODEL 1
REMARK VINA RESULT:      -1.4      0.000      0.000
REMARK  1 active torsions:
REMARK  status: ('A' for Active; 'I' for Inactive)
REMARK    1  A    between atoms: C2_2  and  C4_4 
ROOT
HETATM    1  C1  UNL     1     -34.417   5.429   4.370  1.00 20.00     0.171 A 
HETATM    2  C2  UNL     1     -34.021   6.646   3.557  1.00 20.00     0.175 A 
HETATM    3  C3  UNL     1     -34.112   4.035   3.952  1.00 20.00     0.044 C 
HETATM    4  O5  UNL     1     -35.355   6.114   3.532  1.00 20.00    -0.352 OA
HETATM    5 CL6  UNL     1     -33.756   8.151   4.445  1.00 20.00    -0.084 Cl
ENDROOT
BRANCH   2   6
HETATM    6  C4  UNL     1     -33.295   6.527   2.257  1.00 20.00     0.172 C 
HETATM    7 CL7  UNL     1     -32.183   7.900   2.014  1.00 20.00    -0.126 Cl
ENDBRANCH   2   6
TORSDOF 1
ENDMDL
MODEL 2
REMARK VINA RESULT:      -1.3      2.375      3.205
REMARK  1 active torsions:
REMARK  status: ('A' for Active; 'I' for Inactive)
REMARK    1  A    between atoms: C2_2  and  C4_4 
ROOT
HETATM    1  C1  UNL     1     -33.357   7.781   2.783  1.00 20.00     0.171 A 
HETATM    2  C2  UNL     1     -33.906   6.505   3.390  1.00 20.00     0.175 A 
HETATM    3  C3  UNL     1     -32.172   7.813   1.887  1.00 20.00     0.044 C 
HETATM    4  O5  UNL     1     -33.076   7.408   4.137  1.00 20.00    -0.352 OA
HETATM    5 CL6  UNL     1     -35.632   6.476   3.769  1.00 20.00    -0.084 Cl
ENDROOT
BRANCH   2   6
HETATM    6  C4  UNL     1     -33.279   5.173   3.135  1.00 20.00     0.172 C 
HETATM    7 CL7  UNL     1     -33.946   3.929   4.223  1.00 20.00    -0.126 Cl
ENDBRANCH   2   6
TORSDOF 1
ENDMDL
MODEL 3
REMARK VINA RESULT:      -1.2      2.815      3.772
REMARK  1 active torsions:
REMARK  status: ('A' for Active; 'I' for Inactive)
REMARK    1  A    between atoms: C2_2  and  C4_4 
ROOT
HETATM    1  C1  UNL     1     -32.372   8.850   1.684  1.00 20.00     0.171 A 
HETATM    2  C2  UNL     1     -32.812   7.522   2.266  1.00 20.00     0.175 A 
HETATM    3  C3  UNL     1     -32.199   9.084   0.225  1.00 20.00     0.044 C 
HETATM    4  O5  UNL     1     -31.436   7.931   2.258  1.00 20.00    -0.352 OA
HETATM    5 CL6  UNL     1     -33.673   7.570   3.808  1.00 20.00    -0.084 Cl
ENDROOT
BRANCH   2   6
HETATM    6  C4  UNL     1     -33.098   6.336   1.404  1.00 20.00     0.172 C 
HETATM    7 CL7  UNL     1     -31.668   5.277   1.273  1.00 20.00    -0.126 Cl
ENDBRANCH   2   6
TORSDOF 1
ENDMDL
MODEL 4
REMARK VINA RESULT:      -1.2      2.431      3.499
REMARK  1 active torsions:
REMARK  status: ('A' for Active; 'I' for Inactive)
REMARK    1  A    between atoms: C2_2  and  C4_4 
ROOT
HETATM    1  C1  UNL     1     -32.186   6.468   1.850  1.00 20.00     0.171 A 
HETATM    2  C2  UNL     1     -33.346   6.004   2.709  1.00 20.00     0.175 A 
HETATM    3  C3  UNL     1     -31.808   7.898   1.695  1.00 20.00     0.044 C 
HETATM    4  O5  UNL     1     -33.453   6.118   1.281  1.00 20.00    -0.352 OA
HETATM    5 CL6  UNL     1     -33.234   4.379   3.395  1.00 20.00    -0.084 Cl
ENDROOT
BRANCH   2   6
HETATM    6  C4  UNL     1     -34.208   6.964   3.462  1.00 20.00     0.172 C 
HETATM    7 CL7  UNL     1     -35.565   6.124   4.256  1.00 20.00    -0.126 Cl
ENDBRANCH   2   6
TORSDOF 1
ENDMDL
MODEL 5
REMARK VINA RESULT:      -1.2      2.255      2.576
REMARK  1 active torsions:
REMARK  status: ('A' for Active; 'I' for Inactive)
REMARK    1  A    between atoms: C2_2  and  C4_4 
ROOT
HETATM    1  C1  UNL     1     -32.820   5.646   1.807  1.00 20.00     0.171 A 
HETATM    2  C2  UNL     1     -32.896   7.095   2.246  1.00 20.00     0.175 A 
HETATM    3  C3  UNL     1     -31.677   5.085   1.040  1.00 20.00     0.044 C 
HETATM    4  O5  UNL     1     -33.606   6.609   1.095  1.00 20.00    -0.352 OA
HETATM    5 CL6  UNL     1     -33.837   7.443   3.701  1.00 20.00    -0.084 Cl
ENDROOT
BRANCH   2   6
HETATM    6  C4  UNL     1     -31.817   8.077   1.924  1.00 20.00     0.172 C 
HETATM    7 CL7  UNL     1     -32.362   9.251   0.697  1.00 20.00    -0.126 Cl
ENDBRANCH   2   6
TORSDOF 1
ENDMDL
MODEL 6
REMARK VINA RESULT:      -0.9      2.123      2.705
REMARK  1 active torsions:
REMARK  status: ('A' for Active; 'I' for Inactive)
REMARK    1  A    between atoms: C2_2  and  C4_4 
ROOT
HETATM    1  C1  UNL     1     -34.154   6.420   2.998  1.00 20.00     0.171 A 
HETATM    2  C2  UNL     1     -33.050   6.311   1.965  1.00 20.00     0.175 A 
HETATM    3  C3  UNL     1     -34.182   7.467   4.053  1.00 20.00     0.044 C 
HETATM    4  O5  UNL     1     -33.092   5.468   3.127  1.00 20.00    -0.352 OA
HETATM    5 CL6  UNL     1     -33.477   5.585   0.411  1.00 20.00    -0.084 Cl
ENDROOT
BRANCH   2   6
HETATM    6  C4  UNL     1     -31.893   7.255   1.941  1.00 20.00     0.172 C 
HETATM    7 CL7  UNL     1     -32.294   8.742   1.042  1.00 20.00    -0.126 Cl
ENDBRANCH   2   6
TORSDOF 1
ENDMDL
MODEL 7
REMARK VINA RESULT:      -0.7      2.232      3.212
REMARK  1 active torsions:
REMARK  status: ('A' for Active; 'I' for Inactive)
REMARK    1  A    between atoms: C2_2  and  C4_4 
ROOT
HETATM    1  C1  UNL     1     -33.364   7.635   3.767  1.00 20.00     0.171 A 
HETATM    2  C2  UNL     1     -33.934   6.332   3.243  1.00 20.00     0.175 A 
HETATM    3  C3  UNL     1     -33.472   8.058   5.189  1.00 20.00     0.044 C 
HETATM    4  O5  UNL     1     -34.609   7.587   3.061  1.00 20.00    -0.352 OA
HETATM    5 CL6  UNL     1     -33.138   5.619   1.836  1.00 20.00    -0.084 Cl
ENDROOT
BRANCH   2   6
HETATM    6  C4  UNL     1     -34.663   5.374   4.127  1.00 20.00     0.172 C 
HETATM    7 CL7  UNL     1     -33.835   3.796   4.185  1.00 20.00    -0.126 Cl
ENDBRANCH   2   6
TORSDOF 1
ENDMDL
MODEL 8
REMARK VINA RESULT:      -0.7      2.738      3.421
REMARK  1 active torsions:
REMARK  status: ('A' for Active; 'I' for Inactive)
REMARK    1  A    between atoms: C2_2  and  C4_4 
ROOT
HETATM    1  C1  UNL     1     -32.363   6.767   1.167  1.00 20.00     0.171 A 
HETATM    2  C2  UNL     1     -32.314   8.057   1.962  1.00 20.00     0.175 A 
HETATM    3  C3  UNL     1     -32.682   5.447   1.773  1.00 20.00     0.044 C 
HETATM    4  O5  UNL     1     -31.123   7.341   1.598  1.00 20.00    -0.352 OA
HETATM    5 CL6  UNL     1     -32.672   9.550   1.089  1.00 20.00    -0.084 Cl
ENDROOT
BRANCH   2   6
HETATM    6  C4  UNL     1     -32.577   8.090   3.433  1.00 20.00     0.172 C 
HETATM    7 CL7  UNL     1     -34.242   7.570   3.801  1.00 20.00    -0.126 Cl
ENDBRANCH   2   6
TORSDOF 1
ENDMDL
MODEL 9
REMARK VINA RESULT:      -0.3      1.693      2.057
REMARK  1 active torsions:
REMARK  status: ('A' for Active; 'I' for Inactive)
REMARK    1  A    between atoms: C2_2  and  C4_4 
ROOT
HETATM    1  C1  UNL     1     -34.063   7.216   3.956  1.00 20.00     0.171 A 
HETATM    2  C2  UNL     1     -33.224   7.309   2.696  1.00 20.00     0.175 A 
HETATM    3  C3  UNL     1     -35.019   6.108   4.218  1.00 20.00     0.044 C 
HETATM    4  O5  UNL     1     -34.426   8.077   2.870  1.00 20.00    -0.352 OA
HETATM    5 CL6  UNL     1     -31.682   8.163   2.822  1.00 20.00    -0.084 Cl
ENDROOT
BRANCH   2   6
HETATM    6  C4  UNL     1     -33.309   6.286   1.612  1.00 20.00     0.172 C 
HETATM    7 CL7  UNL     1     -31.747   5.456   1.386  1.00 20.00    -0.126 Cl
ENDBRANCH   2   6
TORSDOF 1
ENDMDL
