MODEL 1
REMARK VINA RESULT:       1.1      0.000      0.000
REMARK  0 active torsions:
REMARK  status: ('A' for Active; 'I' for Inactive)
ROOT
HETATM    1  C1  UNL     1     -34.963   6.606   3.824  1.00 20.00    -0.025 A 
HETATM    2  C2  UNL     1     -34.304   7.779   3.797  1.00 20.00    -0.020 A 
HETATM    3  C3  UNL     1     -33.683   5.231   2.021  1.00 20.00     0.014 C 
HETATM    4  C4  UNL     1     -32.422   5.864   1.444  1.00 20.00     0.070 C 
HETATM    5  C5  UNL     1     -32.508   9.049   0.536  1.00 20.00     0.197 C 
HETATM    6  C6  UNL     1     -31.356   9.200   1.490  1.00 20.00     0.197 C 
HETATM    7  C7  UNL     1     -33.745   5.794   3.441  1.00 20.00     0.021 A 
HETATM    8  C8  UNL     1     -32.981   7.146   3.409  1.00 20.00     0.078 A 
HETATM    9  C9  UNL     1     -32.465   7.296   1.971  1.00 20.00     0.171 C 
HETATM   10  O10 UNL     1     -33.355   8.098   1.179  1.00 20.00    -0.352 OA
HETATM   11  O11 UNL     1     -31.155   7.873   1.970  1.00 20.00    -0.352 OA
ENDROOT
TORSDOF 0
ENDMDL
MODEL 2
REMARK VINA RESULT:       2.1      1.911      3.738
REMARK  0 active torsions:
REMARK  status: ('A' for Active; 'I' for Inactive)
ROOT
HETATM    1  C1  UNL     1     -31.666   8.458   3.534  1.00 20.00    -0.025 A 
HETATM    2  C2  UNL     1     -32.643   8.142   4.402  1.00 20.00    -0.020 A 
HETATM    3  C3  UNL     1     -32.193   6.876   1.534  1.00 20.00     0.014 C 
HETATM    4  C4  UNL     1     -33.493   6.085   1.611  1.00 20.00     0.070 C 
HETATM    5  C5  UNL     1     -34.266   4.558   4.448  1.00 20.00     0.197 C 
HETATM    6  C6  UNL     1     -35.530   5.366   4.367  1.00 20.00     0.197 C 
HETATM    7  C7  UNL     1     -32.507   8.152   2.314  1.00 20.00     0.021 A 
HETATM    8  C8  UNL     1     -33.638   7.786   3.313  1.00 20.00     0.078 A 
HETATM    9  C9  UNL     1     -33.967   6.311   3.044  1.00 20.00     0.171 C 
HETATM   10  O10 UNL     1     -33.265   5.446   3.950  1.00 20.00    -0.352 OA
HETATM   11  O11 UNL     1     -35.378   6.089   3.148  1.00 20.00    -0.352 OA
ENDROOT
TORSDOF 0
ENDMDL
MODEL 3
REMARK VINA RESULT:       2.2      1.528      3.221
REMARK  0 active torsions:
REMARK  status: ('A' for Active; 'I' for Inactive)
ROOT
HETATM    1  C1  UNL     1     -32.622   9.307   1.601  1.00 20.00    -0.025 A 
HETATM    2  C2  UNL     1     -32.024   8.462   0.741  1.00 20.00    -0.020 A 
HETATM    3  C3  UNL     1     -33.749   7.661   3.274  1.00 20.00     0.014 C 
HETATM    4  C4  UNL     1     -33.412   6.183   3.113  1.00 20.00     0.070 C 
HETATM    5  C5  UNL     1     -33.457   4.858   0.076  1.00 20.00     0.197 C 
HETATM    6  C6  UNL     1     -32.036   4.473   0.383  1.00 20.00     0.197 C 
HETATM    7  C7  UNL     1     -32.487   8.368   2.780  1.00 20.00     0.021 A 
HETATM    8  C8  UNL     1     -31.797   7.390   1.790  1.00 20.00     0.078 A 
HETATM    9  C9  UNL     1     -32.669   6.127   1.781  1.00 20.00     0.171 C 
HETATM   10  O10 UNL     1     -33.597   6.142   0.685  1.00 20.00    -0.352 OA
HETATM   11  O11 UNL     1     -31.848   4.956   1.712  1.00 20.00    -0.352 OA
ENDROOT
TORSDOF 0
ENDMDL
MODEL 4
REMARK VINA RESULT:       2.3      1.467      2.911
REMARK  0 active torsions:
REMARK  status: ('A' for Active; 'I' for Inactive)
ROOT
HETATM    1  C1  UNL     1     -34.090   7.215   4.639  1.00 20.00    -0.025 A 
HETATM    2  C2  UNL     1     -34.496   6.216   3.834  1.00 20.00    -0.020 A 
HETATM    3  C3  UNL     1     -32.250   8.355   3.192  1.00 20.00     0.014 C 
HETATM    4  C4  UNL     1     -32.100   7.859   1.759  1.00 20.00     0.070 C 
HETATM    5  C5  UNL     1     -32.070   4.594   1.196  1.00 20.00     0.197 C 
HETATM    6  C6  UNL     1     -33.222   4.890   0.277  1.00 20.00     0.197 C 
HETATM    7  C7  UNL     1     -33.732   8.135   3.491  1.00 20.00     0.021 A 
HETATM    8  C8  UNL     1     -34.199   6.983   2.559  1.00 20.00     0.078 A 
HETATM    9  C9  UNL     1     -32.971   6.606   1.719  1.00 20.00     0.171 C 
HETATM   10  O10 UNL     1     -32.273   5.489   2.289  1.00 20.00    -0.352 OA
HETATM   11  O11 UNL     1     -33.361   6.306   0.375  1.00 20.00    -0.352 OA
ENDROOT
TORSDOF 0
ENDMDL
MODEL 5
REMARK VINA RESULT:       2.5      1.510      2.742
REMARK  0 active torsions:
REMARK  status: ('A' for Active; 'I' for Inactive)
ROOT
HETATM    1  C1  UNL     1     -33.717   3.915   4.755  1.00 20.00    -0.025 A 
HETATM    2  C2  UNL     1     -32.725   4.301   3.932  1.00 20.00    -0.020 A 
HETATM    3  C3  UNL     1     -35.441   5.843   4.453  1.00 20.00     0.014 C 
HETATM    4  C4  UNL     1     -35.140   6.868   3.366  1.00 20.00     0.070 C 
HETATM    5  C5  UNL     1     -32.072   8.099   3.141  1.00 20.00     0.197 C 
HETATM    6  C6  UNL     1     -32.130   7.591   1.728  1.00 20.00     0.197 C 
HETATM    7  C7  UNL     1     -34.801   4.562   3.920  1.00 20.00     0.021 A 
HETATM    8  C8  UNL     1     -33.658   5.008   2.967  1.00 20.00     0.078 A 
HETATM    9  C9  UNL     1     -33.707   6.542   2.952  1.00 20.00     0.171 C 
HETATM   10  O10 UNL     1     -32.773   7.103   3.886  1.00 20.00    -0.352 OA
HETATM   11  O11 UNL     1     -33.440   7.035   1.635  1.00 20.00    -0.352 OA
ENDROOT
TORSDOF 0
ENDMDL
MODEL 6
REMARK VINA RESULT:       2.7      0.933      2.330
REMARK  0 active torsions:
REMARK  status: ('A' for Active; 'I' for Inactive)
ROOT
HETATM    1  C1  UNL     1     -33.690   4.903   3.511  1.00 20.00    -0.025 A 
HETATM    2  C2  UNL     1     -33.050   5.215   2.369  1.00 20.00    -0.020 A 
HETATM    3  C3  UNL     1     -34.187   7.257   4.508  1.00 20.00     0.014 C 
HETATM    4  C4  UNL     1     -33.868   8.456   3.624  1.00 20.00     0.070 C 
HETATM    5  C5  UNL     1     -30.966   8.534   2.027  1.00 20.00     0.197 C 
HETATM    6  C6  UNL     1     -31.815   8.684   0.795  1.00 20.00     0.197 C 
HETATM    7  C7  UNL     1     -34.535   6.158   3.504  1.00 20.00     0.021 A 
HETATM    8  C8  UNL     1     -33.799   6.522   2.185  1.00 20.00     0.078 A 
HETATM    9  C9  UNL     1     -33.081   7.850   2.465  1.00 20.00     0.171 C 
HETATM   10  O10 UNL     1     -31.713   7.633   2.843  1.00 20.00    -0.352 OA
HETATM   11  O11 UNL     1     -33.143   8.700   1.315  1.00 20.00    -0.352 OA
ENDROOT
TORSDOF 0
ENDMDL
MODEL 7
REMARK VINA RESULT:       2.9      1.570      3.681
REMARK  0 active torsions:
REMARK  status: ('A' for Active; 'I' for Inactive)
ROOT
HETATM    1  C1  UNL     1     -32.131  10.427   0.314  1.00 20.00    -0.025 A 
HETATM    2  C2  UNL     1     -33.120  10.312   1.220  1.00 20.00    -0.020 A 
HETATM    3  C3  UNL     1     -30.891   8.154   0.584  1.00 20.00     0.014 C 
HETATM    4  C4  UNL     1     -31.546   7.120   1.492  1.00 20.00     0.070 C 
HETATM    5  C5  UNL     1     -32.704   8.091   4.440  1.00 20.00     0.197 C 
HETATM    6  C6  UNL     1     -34.006   7.522   3.952  1.00 20.00     0.197 C 
HETATM    7  C7  UNL     1     -32.078   8.941   0.030  1.00 20.00     0.021 A 
HETATM    8  C8  UNL     1     -33.219   8.805   1.075  1.00 20.00     0.078 A 
HETATM    9  C9  UNL     1     -32.660   7.902   2.183  1.00 20.00     0.171 C 
HETATM   10  O10 UNL     1     -32.132   8.676   3.270  1.00 20.00    -0.352 OA
HETATM   11  O11 UNL     1     -33.676   7.014   2.661  1.00 20.00    -0.352 OA
ENDROOT
TORSDOF 0
ENDMDL
MODEL 8
REMARK VINA RESULT:       3.1      1.853      3.844
REMARK  0 active torsions:
REMARK  status: ('A' for Active; 'I' for Inactive)
ROOT
HETATM    1  C1  UNL     1     -32.718   6.804   0.352  1.00 20.00    -0.025 A 
HETATM    2  C2  UNL     1     -33.417   5.760   0.835  1.00 20.00    -0.020 A 
HETATM    3  C3  UNL     1     -32.429   8.284   2.474  1.00 20.00     0.014 C 
HETATM    4  C4  UNL     1     -32.890   7.683   3.797  1.00 20.00     0.070 C 
HETATM    5  C5  UNL     1     -35.829   6.158   3.917  1.00 20.00     0.197 C 
HETATM    6  C6  UNL     1     -35.034   4.983   4.415  1.00 20.00     0.197 C 
HETATM    7  C7  UNL     1     -32.002   7.064   1.660  1.00 20.00     0.021 A 
HETATM    8  C8  UNL     1     -32.807   5.860   2.221  1.00 20.00     0.078 A 
HETATM    9  C9  UNL     1     -33.645   6.425   3.376  1.00 20.00     0.171 C 
HETATM   10  O10 UNL     1     -34.974   6.755   2.943  1.00 20.00    -0.352 OA
HETATM   11  O11 UNL     1     -33.701   5.486   4.456  1.00 20.00    -0.352 OA
ENDROOT
TORSDOF 0
ENDMDL
MODEL 9
REMARK VINA RESULT:       3.7      1.737      2.606
REMARK  0 active torsions:
REMARK  status: ('A' for Active; 'I' for Inactive)
ROOT
HETATM    1  C1  UNL     1     -34.380   8.582   3.670  1.00 20.00    -0.025 A 
HETATM    2  C2  UNL     1     -33.319   8.387   2.865  1.00 20.00    -0.020 A 
HETATM    3  C3  UNL     1     -35.211   6.145   4.059  1.00 20.00     0.014 C 
HETATM    4  C4  UNL     1     -34.329   5.025   3.518  1.00 20.00     0.070 C 
HETATM    5  C5  UNL     1     -33.121   5.291   0.444  1.00 20.00     0.197 C 
HETATM    6  C6  UNL     1     -31.785   5.128   1.114  1.00 20.00     0.197 C 
HETATM    7  C7  UNL     1     -34.214   7.257   4.383  1.00 20.00     0.021 A 
HETATM    8  C8  UNL     1     -32.989   7.028   3.455  1.00 20.00     0.078 A 
HETATM    9  C9  UNL     1     -33.307   5.759   2.654  1.00 20.00     0.171 C 
HETATM   10  O10 UNL     1     -33.868   6.079   1.372  1.00 20.00    -0.352 OA
HETATM   11  O11 UNL     1     -32.127   4.966   2.488  1.00 20.00    -0.352 OA
ENDROOT
TORSDOF 0
ENDMDL
