MODEL 1
REMARK VINA RESULT:       1.1      0.000      0.000
REMARK  1 active torsions:
REMARK  status: ('A' for Active; 'I' for Inactive)
REMARK    1  A    between atoms: C3_3  and  C7_7 
ROOT
HETATM    1  C1  UNL     1     -33.198   7.850   4.293  1.00 20.00     0.089 C 
HETATM    2  C2  UNL     1     -34.166   7.240   3.289  1.00 20.00     0.053 C 
HETATM    3  C3  UNL     1     -31.951   7.841   1.858  1.00 20.00     0.112 C 
HETATM    4  C4  UNL     1     -35.072   6.201   3.934  1.00 20.00     0.022 C 
HETATM    5  S8  UNL     1     -31.965   8.829   3.390  1.00 20.00    -0.152 SA
HETATM    6  S9  UNL     1     -33.141   6.473   2.000  1.00 20.00    -0.148 SA
ENDROOT
BRANCH   3   7
HETATM    7  C7  UNL     1     -32.312   8.727   0.673  1.00 20.00     0.001 C 
HETATM    8  C5  UNL     1     -32.740  10.115   1.147  1.00 20.00     0.011 C 
HETATM    9  C6  UNL     1     -31.140   8.833  -0.301  1.00 20.00     0.011 C 
ENDBRANCH   3   7
TORSDOF 1
ENDMDL
MODEL 2
REMARK VINA RESULT:       1.5      1.291      4.383
REMARK  1 active torsions:
REMARK  status: ('A' for Active; 'I' for Inactive)
REMARK    1  A    between atoms: C3_3  and  C7_7 
ROOT
HETATM    1  C1  UNL     1     -31.826   7.291   0.751  1.00 20.00     0.089 C 
HETATM    2  C2  UNL     1     -32.773   8.349   1.299  1.00 20.00     0.053 C 
HETATM    3  C3  UNL     1     -32.865   6.323   3.090  1.00 20.00     0.112 C 
HETATM    4  C4  UNL     1     -32.327   9.757   0.930  1.00 20.00     0.022 C 
HETATM    5  S8  UNL     1     -32.249   5.691   1.495  1.00 20.00    -0.152 SA
HETATM    6  S9  UNL     1     -32.775   8.139   3.104  1.00 20.00    -0.148 SA
ENDROOT
BRANCH   3   7
HETATM    7  C7  UNL     1     -34.303   5.870   3.301  1.00 20.00     0.001 C 
HETATM    8  C5  UNL     1     -34.345   4.532   4.038  1.00 20.00     0.011 C 
HETATM    9  C6  UNL     1     -35.097   6.927   4.067  1.00 20.00     0.011 C 
ENDBRANCH   3   7
TORSDOF 1
ENDMDL
MODEL 3
REMARK VINA RESULT:       1.9      1.767      3.985
REMARK  1 active torsions:
REMARK  status: ('A' for Active; 'I' for Inactive)
REMARK    1  A    between atoms: C3_3  and  C7_7 
ROOT
HETATM    1  C1  UNL     1     -31.388   6.954   1.188  1.00 20.00     0.089 C 
HETATM    2  C2  UNL     1     -31.845   5.533   1.487  1.00 20.00     0.053 C 
HETATM    3  C3  UNL     1     -33.785   7.127   2.496  1.00 20.00     0.112 C 
HETATM    4  C4  UNL     1     -31.372   4.550   0.426  1.00 20.00     0.022 C 
HETATM    5  S8  UNL     1     -32.248   8.090   2.311  1.00 20.00    -0.152 SA
HETATM    6  S9  UNL     1     -33.661   5.587   1.536  1.00 20.00    -0.148 SA
ENDROOT
BRANCH   3   7
HETATM    7  C7  UNL     1     -34.017   6.808   3.967  1.00 20.00     0.001 C 
HETATM    8  C5  UNL     1     -33.855   8.064   4.823  1.00 20.00     0.011 C 
HETATM    9  C6  UNL     1     -35.401   6.194   4.175  1.00 20.00     0.011 C 
ENDBRANCH   3   7
TORSDOF 1
ENDMDL
MODEL 4
REMARK VINA RESULT:       2.1      2.137      3.392
REMARK  1 active torsions:
REMARK  status: ('A' for Active; 'I' for Inactive)
REMARK    1  A    between atoms: C3_3  and  C7_7 
ROOT
HETATM    1  C1  UNL     1     -33.060   4.356   2.453  1.00 20.00     0.089 C 
HETATM    2  C2  UNL     1     -33.326   4.540   3.940  1.00 20.00     0.053 C 
HETATM    3  C3  UNL     1     -34.225   6.811   2.776  1.00 20.00     0.112 C 
HETATM    4  C4  UNL     1     -33.614   3.215   4.633  1.00 20.00     0.022 C 
HETATM    5  S8  UNL     1     -33.041   5.988   1.660  1.00 20.00    -0.152 SA
HETATM    6  S9  UNL     1     -34.763   5.644   4.063  1.00 20.00    -0.148 SA
ENDROOT
BRANCH   3   7
HETATM    7  C7  UNL     1     -33.568   8.027   3.415  1.00 20.00     0.001 C 
HETATM    8  C5  UNL     1     -33.565   7.900   4.938  1.00 20.00     0.011 C 
HETATM    9  C6  UNL     1     -32.144   8.210   2.892  1.00 20.00     0.011 C 
ENDBRANCH   3   7
TORSDOF 1
ENDMDL
MODEL 5
REMARK VINA RESULT:       2.4      1.112      4.331
REMARK  1 active torsions:
REMARK  status: ('A' for Active; 'I' for Inactive)
REMARK    1  A    between atoms: C3_3  and  C7_7 
ROOT
HETATM    1  C1  UNL     1     -32.292   6.656   1.214  1.00 20.00     0.089 C 
HETATM    2  C2  UNL     1     -32.813   8.039   1.582  1.00 20.00     0.053 C 
HETATM    3  C3  UNL     1     -33.362   6.483   3.727  1.00 20.00     0.112 C 
HETATM    4  C4  UNL     1     -31.990   9.145   0.937  1.00 20.00     0.022 C 
HETATM    5  S8  UNL     1     -33.119   5.426   2.261  1.00 20.00    -0.152 SA
HETATM    6  S9  UNL     1     -32.715   8.150   3.393  1.00 20.00    -0.148 SA
ENDROOT
BRANCH   3   7
HETATM    7  C7  UNL     1     -34.844   6.557   4.066  1.00 20.00     0.001 C 
HETATM    8  C5  UNL     1     -35.652   7.029   2.857  1.00 20.00     0.011 C 
HETATM    9  C6  UNL     1     -35.356   5.203   4.555  1.00 20.00     0.011 C 
ENDBRANCH   3   7
TORSDOF 1
ENDMDL
MODEL 6
REMARK VINA RESULT:       2.4      1.766      2.770
REMARK  1 active torsions:
REMARK  status: ('A' for Active; 'I' for Inactive)
REMARK    1  A    between atoms: C3_3  and  C7_7 
ROOT
HETATM    1  C1  UNL     1     -33.279   4.308   2.303  1.00 20.00     0.089 C 
HETATM    2  C2  UNL     1     -33.421   5.054   3.623  1.00 20.00     0.053 C 
HETATM    3  C3  UNL     1     -33.189   6.985   1.742  1.00 20.00     0.112 C 
HETATM    4  C4  UNL     1     -34.279   4.287   4.619  1.00 20.00     0.022 C 
HETATM    5  S8  UNL     1     -32.521   5.421   1.086  1.00 20.00    -0.152 SA
HETATM    6  S9  UNL     1     -34.193   6.650   3.221  1.00 20.00    -0.148 SA
ENDROOT
BRANCH   3   7
HETATM    7  C7  UNL     1     -32.044   7.926   2.090  1.00 20.00     0.001 C 
HETATM    8  C5  UNL     1     -31.942   9.055   1.065  1.00 20.00     0.011 C 
HETATM    9  C6  UNL     1     -32.221   8.496   3.497  1.00 20.00     0.011 C 
ENDBRANCH   3   7
TORSDOF 1
ENDMDL
MODEL 7
REMARK VINA RESULT:       2.5      1.736      2.114
REMARK  1 active torsions:
REMARK  status: ('A' for Active; 'I' for Inactive)
REMARK    1  A    between atoms: C3_3  and  C7_7 
ROOT
HETATM    1  C1  UNL     1     -33.341   6.361   2.828  1.00 20.00     0.089 C 
HETATM    2  C2  UNL     1     -32.798   6.130   1.425  1.00 20.00     0.053 C 
HETATM    3  C3  UNL     1     -32.273   8.728   1.966  1.00 20.00     0.112 C 
HETATM    4  C4  UNL     1     -32.306   4.702   1.236  1.00 20.00     0.022 C 
HETATM    5  S8  UNL     1     -33.606   8.142   3.062  1.00 20.00    -0.152 SA
HETATM    6  S9  UNL     1     -31.428   7.304   1.214  1.00 20.00    -0.148 SA
ENDROOT
BRANCH   3   7
HETATM    7  C7  UNL     1     -32.857   9.621   0.879  1.00 20.00     0.001 C 
HETATM    8  C5  UNL     1     -32.592  11.094   1.191  1.00 20.00     0.011 C 
HETATM    9  C6  UNL     1     -32.285   9.254  -0.489  1.00 20.00     0.011 C 
ENDBRANCH   3   7
TORSDOF 1
ENDMDL
MODEL 8
REMARK VINA RESULT:       2.5      2.243      3.163
REMARK  1 active torsions:
REMARK  status: ('A' for Active; 'I' for Inactive)
REMARK    1  A    between atoms: C3_3  and  C7_7 
ROOT
HETATM    1  C1  UNL     1     -35.027   4.815   4.512  1.00 20.00     0.089 C 
HETATM    2  C2  UNL     1     -33.896   4.041   3.848  1.00 20.00     0.053 C 
HETATM    3  C3  UNL     1     -33.360   6.645   3.345  1.00 20.00     0.112 C 
HETATM    4  C4  UNL     1     -33.575   2.754   4.594  1.00 20.00     0.022 C 
HETATM    5  S8  UNL     1     -35.127   6.461   3.754  1.00 20.00    -0.152 SA
HETATM    6  S9  UNL     1     -32.456   5.149   3.850  1.00 20.00    -0.148 SA
ENDROOT
BRANCH   3   7
HETATM    7  C7  UNL     1     -33.201   6.870   1.848  1.00 20.00     0.001 C 
HETATM    8  C5  UNL     1     -32.264   8.047   1.576  1.00 20.00     0.011 C 
HETATM    9  C6  UNL     1     -32.684   5.607   1.162  1.00 20.00     0.011 C 
ENDBRANCH   3   7
TORSDOF 1
ENDMDL
MODEL 9
REMARK VINA RESULT:       2.6      1.590      4.364
REMARK  1 active torsions:
REMARK  status: ('A' for Active; 'I' for Inactive)
REMARK    1  A    between atoms: C3_3  and  C7_7 
ROOT
HETATM    1  C1  UNL     1     -32.742   8.469   2.875  1.00 20.00     0.089 C 
HETATM    2  C2  UNL     1     -32.085   7.250   2.242  1.00 20.00     0.053 C 
HETATM    3  C3  UNL     1     -34.420   6.343   3.265  1.00 20.00     0.112 C 
HETATM    4  C4  UNL     1     -31.237   7.626   1.035  1.00 20.00     0.022 C 
HETATM    5  S8  UNL     1     -33.966   7.904   4.090  1.00 20.00    -0.152 SA
HETATM    6  S9  UNL     1     -33.441   6.147   1.745  1.00 20.00    -0.148 SA
ENDROOT
BRANCH   3   7
HETATM    7  C7  UNL     1     -34.164   5.172   4.205  1.00 20.00     0.001 C 
HETATM    8  C5  UNL     1     -35.446   4.782   4.941  1.00 20.00     0.011 C 
HETATM    9  C6  UNL     1     -33.603   3.976   3.439  1.00 20.00     0.011 C 
ENDBRANCH   3   7
TORSDOF 1
ENDMDL
