MODEL 1
REMARK VINA RESULT:      -1.5      0.000      0.000
REMARK  0 active torsions:
REMARK  status: ('A' for Active; 'I' for Inactive)
ROOT
HETATM    1  C1  UNL     1     -34.196   6.473   3.363  1.00 20.00     0.218 C 
HETATM    2  C2  UNL     1     -33.729   5.506   2.297  1.00 20.00     0.105 C 
HETATM    3  C3  UNL     1     -32.438   6.121   1.736  1.00 20.00     0.040 C 
HETATM    4  C4  UNL     1     -31.266   8.411   2.142  1.00 20.00     0.033 A 
HETATM    5  C5  UNL     1     -32.348   8.657   1.132  1.00 20.00     0.033 A 
HETATM    6  C6  UNL     1     -32.511   7.563   2.156  1.00 20.00     0.033 A 
HETATM    7  N7  UNL     1     -33.480   7.649   3.195  1.00 20.00    -0.352 N 
HETATM    8  O8  UNL     1     -35.074   6.250   4.183  1.00 20.00    -0.274 OA
HETATM    9  H17 UNL     1     -33.632   8.481   3.753  1.00 20.00     0.163 HD
ENDROOT
TORSDOF 0
ENDMDL
MODEL 2
REMARK VINA RESULT:      -1.3      2.052      3.628
REMARK  0 active torsions:
REMARK  status: ('A' for Active; 'I' for Inactive)
ROOT
HETATM    1  C1  UNL     1     -32.496   7.446   2.306  1.00 20.00     0.218 C 
HETATM    2  C2  UNL     1     -32.739   8.424   3.435  1.00 20.00     0.105 C 
HETATM    3  C3  UNL     1     -33.658   7.681   4.416  1.00 20.00     0.040 C 
HETATM    4  C4  UNL     1     -34.883   5.387   4.278  1.00 20.00     0.033 A 
HETATM    5  C5  UNL     1     -35.736   6.374   3.536  1.00 20.00     0.033 A 
HETATM    6  C6  UNL     1     -34.242   6.566   3.594  1.00 20.00     0.033 A 
HETATM    7  N7  UNL     1     -33.424   6.425   2.438  1.00 20.00    -0.352 N 
HETATM    8  O8  UNL     1     -31.657   7.578   1.427  1.00 20.00    -0.274 OA
HETATM    9  H17 UNL     1     -33.510   5.658   1.780  1.00 20.00     0.163 HD
ENDROOT
TORSDOF 0
ENDMDL
MODEL 3
REMARK VINA RESULT:      -1.2      1.222      2.460
REMARK  0 active torsions:
REMARK  status: ('A' for Active; 'I' for Inactive)
ROOT
HETATM    1  C1  UNL     1     -33.611   7.417   3.614  1.00 20.00     0.218 C 
HETATM    2  C2  UNL     1     -32.491   8.248   3.025  1.00 20.00     0.105 C 
HETATM    3  C3  UNL     1     -32.192   7.608   1.661  1.00 20.00     0.040 C 
HETATM    4  C4  UNL     1     -33.058   5.436   0.515  1.00 20.00     0.033 A 
HETATM    5  C5  UNL     1     -31.960   5.019   1.449  1.00 20.00     0.033 A 
HETATM    6  C6  UNL     1     -32.794   6.234   1.765  1.00 20.00     0.033 A 
HETATM    7  N7  UNL     1     -33.700   6.255   2.863  1.00 20.00    -0.352 N 
HETATM    8  O8  UNL     1     -34.271   7.717   4.597  1.00 20.00    -0.274 OA
HETATM    9  H17 UNL     1     -34.343   5.500   3.073  1.00 20.00     0.163 HD
ENDROOT
TORSDOF 0
ENDMDL
MODEL 4
REMARK VINA RESULT:      -1.1      2.033      3.501
REMARK  0 active torsions:
REMARK  status: ('A' for Active; 'I' for Inactive)
ROOT
HETATM    1  C1  UNL     1     -32.532   6.241   1.866  1.00 20.00     0.218 C 
HETATM    2  C2  UNL     1     -32.466   7.645   2.426  1.00 20.00     0.105 C 
HETATM    3  C3  UNL     1     -33.433   7.647   3.619  1.00 20.00     0.040 C 
HETATM    4  C4  UNL     1     -35.123   5.877   4.510  1.00 20.00     0.033 A 
HETATM    5  C5  UNL     1     -35.808   6.595   3.385  1.00 20.00     0.033 A 
HETATM    6  C6  UNL     1     -34.308   6.448   3.379  1.00 20.00     0.033 A 
HETATM    7  N7  UNL     1     -33.640   5.625   2.428  1.00 20.00    -0.352 N 
HETATM    8  O8  UNL     1     -31.764   5.774   1.039  1.00 20.00    -0.274 OA
HETATM    9  H17 UNL     1     -33.943   4.688   2.187  1.00 20.00     0.163 HD
ENDROOT
TORSDOF 0
ENDMDL
MODEL 5
REMARK VINA RESULT:      -1.0      2.030      2.749
REMARK  0 active torsions:
REMARK  status: ('A' for Active; 'I' for Inactive)
ROOT
HETATM    1  C1  UNL     1     -34.110   4.316   4.120  1.00 20.00     0.218 C 
HETATM    2  C2  UNL     1     -35.340   5.084   4.554  1.00 20.00     0.105 C 
HETATM    3  C3  UNL     1     -35.262   6.422   3.805  1.00 20.00     0.040 C 
HETATM    4  C4  UNL     1     -33.420   7.488   2.305  1.00 20.00     0.033 A 
HETATM    5  C5  UNL     1     -33.022   7.755   3.728  1.00 20.00     0.033 A 
HETATM    6  C6  UNL     1     -33.821   6.523   3.389  1.00 20.00     0.033 A 
HETATM    7  N7  UNL     1     -33.263   5.217   3.493  1.00 20.00    -0.352 N 
HETATM    8  O8  UNL     1     -33.906   3.131   4.334  1.00 20.00    -0.274 OA
HETATM    9  H17 UNL     1     -32.343   4.972   3.146  1.00 20.00     0.163 HD
ENDROOT
TORSDOF 0
ENDMDL
MODEL 6
REMARK VINA RESULT:      -0.9      1.972      3.260
REMARK  0 active torsions:
REMARK  status: ('A' for Active; 'I' for Inactive)
ROOT
HETATM    1  C1  UNL     1     -32.145   7.598   1.764  1.00 20.00     0.218 C 
HETATM    2  C2  UNL     1     -32.117   6.117   1.452  1.00 20.00     0.105 C 
HETATM    3  C3  UNL     1     -33.428   5.562   2.028  1.00 20.00     0.040 C 
HETATM    4  C4  UNL     1     -35.296   6.637   3.490  1.00 20.00     0.033 A 
HETATM    5  C5  UNL     1     -34.196   6.234   4.428  1.00 20.00     0.033 A 
HETATM    6  C6  UNL     1     -33.870   6.614   3.006  1.00 20.00     0.033 A 
HETATM    7  N7  UNL     1     -33.151   7.804   2.696  1.00 20.00    -0.352 N 
HETATM    8  O8  UNL     1     -31.382   8.431   1.299  1.00 20.00    -0.274 OA
HETATM    9  H17 UNL     1     -33.353   8.706   3.112  1.00 20.00     0.163 HD
ENDROOT
TORSDOF 0
ENDMDL
MODEL 7
REMARK VINA RESULT:      -0.9      1.133      1.846
REMARK  0 active torsions:
REMARK  status: ('A' for Active; 'I' for Inactive)
ROOT
HETATM    1  C1  UNL     1     -34.505   6.669   3.760  1.00 20.00     0.218 C 
HETATM    2  C2  UNL     1     -33.764   7.608   4.686  1.00 20.00     0.105 C 
HETATM    3  C3  UNL     1     -32.875   8.459   3.767  1.00 20.00     0.040 C 
HETATM    4  C4  UNL     1     -32.360   8.332   1.217  1.00 20.00     0.033 A 
HETATM    5  C5  UNL     1     -31.469   7.326   1.885  1.00 20.00     0.033 A 
HETATM    6  C6  UNL     1     -32.807   7.665   2.492  1.00 20.00     0.033 A 
HETATM    7  N7  UNL     1     -33.873   6.723   2.526  1.00 20.00    -0.352 N 
HETATM    8  O8  UNL     1     -35.456   5.970   4.076  1.00 20.00    -0.274 OA
HETATM    9  H17 UNL     1     -34.143   6.152   1.734  1.00 20.00     0.163 HD
ENDROOT
TORSDOF 0
ENDMDL
MODEL 8
REMARK VINA RESULT:      -0.8      1.494      2.017
REMARK  0 active torsions:
REMARK  status: ('A' for Active; 'I' for Inactive)
ROOT
HETATM    1  C1  UNL     1     -34.038   5.161   3.659  1.00 20.00     0.218 C 
HETATM    2  C2  UNL     1     -34.736   6.384   4.214  1.00 20.00     0.105 C 
HETATM    3  C3  UNL     1     -34.358   7.527   3.260  1.00 20.00     0.040 C 
HETATM    4  C4  UNL     1     -32.702   7.664   1.255  1.00 20.00     0.033 A 
HETATM    5  C5  UNL     1     -31.883   7.839   2.500  1.00 20.00     0.033 A 
HETATM    6  C6  UNL     1     -33.143   7.013   2.540  1.00 20.00     0.033 A 
HETATM    7  N7  UNL     1     -33.107   5.603   2.732  1.00 20.00    -0.352 N 
HETATM    8  O8  UNL     1     -34.246   4.010   4.012  1.00 20.00    -0.274 OA
HETATM    9  H17 UNL     1     -32.469   4.986   2.242  1.00 20.00     0.163 HD
ENDROOT
TORSDOF 0
ENDMDL
MODEL 9
REMARK VINA RESULT:      -0.7      1.908      2.181
REMARK  0 active torsions:
REMARK  status: ('A' for Active; 'I' for Inactive)
ROOT
HETATM    1  C1  UNL     1     -33.990   7.363   3.951  1.00 20.00     0.218 C 
HETATM    2  C2  UNL     1     -34.736   6.049   4.040  1.00 20.00     0.105 C 
HETATM    3  C3  UNL     1     -33.952   5.082   3.141  1.00 20.00     0.040 C 
HETATM    4  C4  UNL     1     -31.948   5.433   1.515  1.00 20.00     0.033 A 
HETATM    5  C5  UNL     1     -33.184   5.831   0.763  1.00 20.00     0.033 A 
HETATM    6  C6  UNL     1     -33.133   5.986   2.262  1.00 20.00     0.033 A 
HETATM    7  N7  UNL     1     -33.114   7.269   2.880  1.00 20.00    -0.352 N 
HETATM    8  O8  UNL     1     -34.175   8.329   4.676  1.00 20.00    -0.274 OA
HETATM    9  H17 UNL     1     -32.524   8.032   2.571  1.00 20.00     0.163 HD
ENDROOT
TORSDOF 0
ENDMDL
