MODEL 1
REMARK VINA RESULT:       0.3      0.000      0.000
REMARK  1 active torsions:
REMARK  status: ('A' for Active; 'I' for Inactive)
REMARK    1  A    between atoms: C3_3  and  N9_9 
ROOT
HETATM    1  C1  UNL     1     -32.757   6.031   1.933  1.00 20.00     0.079 C 
HETATM    2  C4  UNL     1     -33.395   5.354   3.149  1.00 20.00     0.070 C 
HETATM    3  C5  UNL     1     -34.742   5.984   3.503  1.00 20.00     0.007 C 
HETATM    4  C6  UNL     1     -34.620   7.197   4.422  1.00 20.00     0.002 C 
HETATM    5  C7  UNL     1     -33.859   8.373   3.820  1.00 20.00     0.020 C 
HETATM    6  C8  UNL     1     -32.426   8.034   3.417  1.00 20.00     0.129 C 
HETATM    7  N9  UNL     1     -32.356   7.368   2.101  1.00 20.00    -0.352 N 
HETATM    8  S10 UNL     1     -32.626   5.112   0.516  1.00 20.00    -0.065 SA
ENDROOT
BRANCH   7   9
HETATM    9  C3  UNL     1     -31.883   8.147   1.061  1.00 20.00     0.081 C 
HETATM   10  C2  UNL     1     -32.425   9.322   0.730  1.00 20.00     0.030 C 
ENDBRANCH   7   9
TORSDOF 1
ENDMDL
MODEL 2
REMARK VINA RESULT:       0.7      1.340      3.352
REMARK  1 active torsions:
REMARK  status: ('A' for Active; 'I' for Inactive)
REMARK    1  A    between atoms: C3_3  and  N9_9 
ROOT
HETATM    1  C1  UNL     1     -32.952   5.810   1.971  1.00 20.00     0.079 C 
HETATM    2  C4  UNL     1     -32.852   7.311   1.687  1.00 20.00     0.070 C 
HETATM    3  C5  UNL     1     -32.269   8.073   2.876  1.00 20.00     0.007 C 
HETATM    4  C6  UNL     1     -33.319   8.484   3.906  1.00 20.00     0.002 C 
HETATM    5  C7  UNL     1     -34.030   7.317   4.584  1.00 20.00     0.020 C 
HETATM    6  C8  UNL     1     -34.765   6.399   3.611  1.00 20.00     0.129 C 
HETATM    7  N9  UNL     1     -33.862   5.423   2.970  1.00 20.00    -0.352 N 
HETATM    8  S10 UNL     1     -31.943   4.785   1.077  1.00 20.00    -0.065 SA
ENDROOT
BRANCH   7   9
HETATM    9  C3  UNL     1     -33.970   4.121   3.425  1.00 20.00     0.081 C 
HETATM   10  C2  UNL     1     -33.578   3.743   4.644  1.00 20.00     0.030 C 
ENDBRANCH   7   9
TORSDOF 1
ENDMDL
MODEL 3
REMARK VINA RESULT:       1.1      1.712      3.282
REMARK  1 active torsions:
REMARK  status: ('A' for Active; 'I' for Inactive)
REMARK    1  A    between atoms: C3_3  and  N9_9 
ROOT
HETATM    1  C1  UNL     1     -33.770   5.771   3.023  1.00 20.00     0.079 C 
HETATM    2  C4  UNL     1     -33.279   5.428   1.614  1.00 20.00     0.070 C 
HETATM    3  C5  UNL     1     -31.794   5.744   1.442  1.00 20.00     0.007 C 
HETATM    4  C6  UNL     1     -31.526   7.189   1.030  1.00 20.00     0.002 C 
HETATM    5  C7  UNL     1     -31.963   8.231   2.053  1.00 20.00     0.020 C 
HETATM    6  C8  UNL     1     -33.454   8.181   2.379  1.00 20.00     0.129 C 
HETATM    7  N9  UNL     1     -33.777   7.133   3.368  1.00 20.00    -0.352 N 
HETATM    8  S10 UNL     1     -34.227   4.479   4.019  1.00 20.00    -0.065 SA
ENDROOT
BRANCH   7   9
HETATM    9  C3  UNL     1     -34.072   7.585   4.642  1.00 20.00     0.081 C 
HETATM   10  C2  UNL     1     -33.216   8.303   5.374  1.00 20.00     0.030 C 
ENDBRANCH   7   9
TORSDOF 1
ENDMDL
MODEL 4
REMARK VINA RESULT:       1.3      2.029      2.910
REMARK  1 active torsions:
REMARK  status: ('A' for Active; 'I' for Inactive)
REMARK    1  A    between atoms: C3_3  and  N9_9 
ROOT
HETATM    1  C1  UNL     1     -33.843   7.200   3.660  1.00 20.00     0.079 C 
HETATM    2  C4  UNL     1     -34.828   6.055   3.906  1.00 20.00     0.070 C 
HETATM    3  C5  UNL     1     -34.104   4.748   4.230  1.00 20.00     0.007 C 
HETATM    4  C6  UNL     1     -33.709   3.951   2.989  1.00 20.00     0.002 C 
HETATM    5  C7  UNL     1     -32.713   4.657   2.074  1.00 20.00     0.020 C 
HETATM    6  C8  UNL     1     -33.213   5.998   1.543  1.00 20.00     0.129 C 
HETATM    7  N9  UNL     1     -33.030   7.091   2.518  1.00 20.00    -0.352 N 
HETATM    8  S10 UNL     1     -33.819   8.457   4.795  1.00 20.00    -0.065 SA
ENDROOT
BRANCH   7   9
HETATM    9  C3  UNL     1     -32.009   7.980   2.234  1.00 20.00     0.081 C 
HETATM   10  C2  UNL     1     -31.992   8.739   1.135  1.00 20.00     0.030 C 
ENDBRANCH   7   9
TORSDOF 1
ENDMDL
MODEL 5
REMARK VINA RESULT:       1.6      1.774      2.926
REMARK  1 active torsions:
REMARK  status: ('A' for Active; 'I' for Inactive)
REMARK    1  A    between atoms: C3_3  and  N9_9 
ROOT
HETATM    1  C1  UNL     1     -32.780   7.382   2.095  1.00 20.00     0.079 C 
HETATM    2  C4  UNL     1     -34.042   7.953   2.747  1.00 20.00     0.070 C 
HETATM    3  C5  UNL     1     -34.192   7.483   4.193  1.00 20.00     0.007 C 
HETATM    4  C6  UNL     1     -34.906   6.140   4.323  1.00 20.00     0.002 C 
HETATM    5  C7  UNL     1     -34.175   4.969   3.674  1.00 20.00     0.020 C 
HETATM    6  C8  UNL     1     -33.936   5.150   2.177  1.00 20.00     0.129 C 
HETATM    7  N9  UNL     1     -32.756   5.990   1.895  1.00 20.00    -0.352 N 
HETATM    8  S10 UNL     1     -31.546   8.475   1.709  1.00 20.00    -0.065 SA
ENDROOT
BRANCH   7   9
HETATM    9  C3  UNL     1     -31.639   5.316   1.436  1.00 20.00     0.081 C 
HETATM   10  C2  UNL     1     -31.672   4.481   0.394  1.00 20.00     0.030 C 
ENDBRANCH   7   9
TORSDOF 1
ENDMDL
MODEL 6
REMARK VINA RESULT:       2.2      2.149      4.203
REMARK  1 active torsions:
REMARK  status: ('A' for Active; 'I' for Inactive)
REMARK    1  A    between atoms: C3_3  and  N9_9 
ROOT
HETATM    1  C1  UNL     1     -33.242   7.580   3.818  1.00 20.00     0.079 C 
HETATM    2  C4  UNL     1     -31.915   7.964   3.158  1.00 20.00     0.070 C 
HETATM    3  C5  UNL     1     -32.092   8.273   1.672  1.00 20.00     0.007 C 
HETATM    4  C6  UNL     1     -32.012   7.036   0.782  1.00 20.00     0.002 C 
HETATM    5  C7  UNL     1     -33.106   6.003   1.033  1.00 20.00     0.020 C 
HETATM    6  C8  UNL     1     -33.125   5.466   2.462  1.00 20.00     0.129 C 
HETATM    7  N9  UNL     1     -33.824   6.373   3.393  1.00 20.00    -0.352 N 
HETATM    8  S10 UNL     1     -33.876   8.654   4.963  1.00 20.00    -0.065 SA
ENDROOT
BRANCH   7   9
HETATM    9  C3  UNL     1     -35.078   5.958   3.803  1.00 20.00     0.081 C 
HETATM   10  C2  UNL     1     -35.270   4.907   4.604  1.00 20.00     0.030 C 
ENDBRANCH   7   9
TORSDOF 1
ENDMDL
MODEL 7
REMARK VINA RESULT:       2.9      1.977      3.825
REMARK  1 active torsions:
REMARK  status: ('A' for Active; 'I' for Inactive)
REMARK    1  A    between atoms: C3_3  and  N9_9 
ROOT
HETATM    1  C1  UNL     1     -33.023   7.812   2.728  1.00 20.00     0.079 C 
HETATM    2  C4  UNL     1     -32.650   9.296   2.771  1.00 20.00     0.070 C 
HETATM    3  C5  UNL     1     -33.143  10.038   1.529  1.00 20.00     0.007 C 
HETATM    4  C6  UNL     1     -32.166   9.974   0.358  1.00 20.00     0.002 C 
HETATM    5  C7  UNL     1     -31.915   8.569  -0.181  1.00 20.00     0.020 C 
HETATM    6  C8  UNL     1     -31.351   7.606   0.861  1.00 20.00     0.129 C 
HETATM    7  N9  UNL     1     -32.402   7.041   1.730  1.00 20.00    -0.352 N 
HETATM    8  S10 UNL     1     -34.155   7.265   3.863  1.00 20.00    -0.065 SA
ENDROOT
BRANCH   7   9
HETATM    9  C3  UNL     1     -32.732   5.720   1.486  1.00 20.00     0.081 C 
HETATM   10  C2  UNL     1     -31.908   4.867   0.871  1.00 20.00     0.030 C 
ENDBRANCH   7   9
TORSDOF 1
ENDMDL
MODEL 8
REMARK VINA RESULT:       3.3      1.429      2.030
REMARK  1 active torsions:
REMARK  status: ('A' for Active; 'I' for Inactive)
REMARK    1  A    between atoms: C3_3  and  N9_9 
ROOT
HETATM    1  C1  UNL     1     -31.848   7.765   1.245  1.00 20.00     0.079 C 
HETATM    2  C4  UNL     1     -31.783   6.293   1.659  1.00 20.00     0.070 C 
HETATM    3  C5  UNL     1     -33.174   5.664   1.727  1.00 20.00     0.007 C 
HETATM    4  C6  UNL     1     -33.864   5.864   3.074  1.00 20.00     0.002 C 
HETATM    5  C7  UNL     1     -34.148   7.320   3.430  1.00 20.00     0.020 C 
HETATM    6  C8  UNL     1     -32.895   8.190   3.491  1.00 20.00     0.129 C 
HETATM    7  N9  UNL     1     -32.461   8.644   2.155  1.00 20.00    -0.352 N 
HETATM    8  S10 UNL     1     -31.203   8.173  -0.267  1.00 20.00    -0.065 SA
ENDROOT
BRANCH   7   9
HETATM    9  C3  UNL     1     -32.707   9.974   1.867  1.00 20.00     0.081 C 
HETATM   10  C2  UNL     1     -32.796  10.442   0.620  1.00 20.00     0.030 C 
ENDBRANCH   7   9
TORSDOF 1
ENDMDL
