MODEL 1
REMARK VINA RESULT:      -2.3      0.000      0.000
REMARK  3 active torsions:
REMARK  status: ('A' for Active; 'I' for Inactive)
REMARK    1  A    between atoms: C1_1  and  C5_5 
REMARK    2  A    between atoms: C1_1  and  C6_6 
REMARK    3  A    between atoms: C4_4  and  C5_5 
ROOT
HETATM    1  C1  UNL     1     -32.784   7.158   2.285  1.00 20.00     0.137 C 
HETATM    2  O7  UNL     1     -32.958   6.047   1.786  1.00 20.00    -0.297 OA
ENDROOT
BRANCH   1   3
HETATM    3  C5  UNL     1     -31.962   8.237   1.605  1.00 20.00     0.083 C 
BRANCH   3   4
HETATM    4  C4  UNL     1     -32.749   9.086   0.658  1.00 20.00    -0.008 A 
HETATM    5  C2  UNL     1     -32.696  10.585   0.762  1.00 20.00     0.005 A 
HETATM    6  C3  UNL     1     -32.046   9.889  -0.402  1.00 20.00     0.005 A 
ENDBRANCH   3   4
ENDBRANCH   1   3
BRANCH   1   7
HETATM    7  C6  UNL     1     -33.411   7.519   3.605  1.00 20.00     0.163 C 
HETATM    8 BR8  UNL     1     -34.925   6.340   3.843  1.00 20.00    -0.089 Br
ENDBRANCH   1   7
TORSDOF 3
ENDMDL
MODEL 2
REMARK VINA RESULT:      -2.2      2.577      4.121
REMARK  3 active torsions:
REMARK  status: ('A' for Active; 'I' for Inactive)
REMARK    1  A    between atoms: C1_1  and  C5_5 
REMARK    2  A    between atoms: C1_1  and  C6_6 
REMARK    3  A    between atoms: C4_4  and  C5_5 
ROOT
HETATM    1  C1  UNL     1     -32.100   7.897   1.853  1.00 20.00     0.137 C 
HETATM    2  O7  UNL     1     -31.525   8.370   2.833  1.00 20.00    -0.297 OA
ENDROOT
BRANCH   1   3
HETATM    3  C5  UNL     1     -33.185   6.842   1.974  1.00 20.00     0.083 C 
BRANCH   3   4
HETATM    4  C4  UNL     1     -33.592   6.558   3.385  1.00 20.00    -0.008 A 
HETATM    5  C2  UNL     1     -34.370   7.579   4.168  1.00 20.00     0.005 A 
HETATM    6  C3  UNL     1     -35.037   6.309   3.719  1.00 20.00     0.005 A 
ENDBRANCH   3   4
ENDBRANCH   1   3
BRANCH   1   7
HETATM    7  C6  UNL     1     -31.771   8.369   0.462  1.00 20.00     0.163 C 
HETATM    8 BR8  UNL     1     -32.591  10.108   0.255  1.00 20.00    -0.089 Br
ENDBRANCH   1   7
TORSDOF 3
ENDMDL
MODEL 3
REMARK VINA RESULT:      -1.9      2.409      4.388
REMARK  3 active torsions:
REMARK  status: ('A' for Active; 'I' for Inactive)
REMARK    1  A    between atoms: C1_1  and  C5_5 
REMARK    2  A    between atoms: C1_1  and  C6_6 
REMARK    3  A    between atoms: C4_4  and  C5_5 
ROOT
HETATM    1  C1  UNL     1     -32.537   7.194   2.068  1.00 20.00     0.137 C 
HETATM    2  O7  UNL     1     -32.474   6.216   1.324  1.00 20.00    -0.297 OA
ENDROOT
BRANCH   1   3
HETATM    3  C5  UNL     1     -33.498   7.267   3.240  1.00 20.00     0.083 C 
BRANCH   3   4
HETATM    4  C4  UNL     1     -34.563   6.216   3.210  1.00 20.00    -0.008 A 
HETATM    5  C2  UNL     1     -34.411   4.962   4.025  1.00 20.00     0.005 A 
HETATM    6  C3  UNL     1     -35.436   5.990   4.414  1.00 20.00     0.005 A 
ENDBRANCH   3   4
ENDBRANCH   1   3
BRANCH   1   7
HETATM    7  C6  UNL     1     -31.630   8.378   1.865  1.00 20.00     0.163 C 
HETATM    8 BR8  UNL     1     -32.416   9.447   0.459  1.00 20.00    -0.089 Br
ENDBRANCH   1   7
TORSDOF 3
ENDMDL
MODEL 4
REMARK VINA RESULT:      -1.8      1.874      2.567
REMARK  3 active torsions:
REMARK  status: ('A' for Active; 'I' for Inactive)
REMARK    1  A    between atoms: C1_1  and  C5_5 
REMARK    2  A    between atoms: C1_1  and  C6_6 
REMARK    3  A    between atoms: C4_4  and  C5_5 
ROOT
HETATM    1  C1  UNL     1     -34.246   6.944   3.799  1.00 20.00     0.137 C 
HETATM    2  O7  UNL     1     -34.120   7.901   4.561  1.00 20.00    -0.297 OA
ENDROOT
BRANCH   1   3
HETATM    3  C5  UNL     1     -33.468   6.828   2.501  1.00 20.00     0.083 C 
BRANCH   3   4
HETATM    4  C4  UNL     1     -32.379   7.844   2.359  1.00 20.00    -0.008 A 
HETATM    5  C2  UNL     1     -31.327   7.683   1.297  1.00 20.00     0.005 A 
HETATM    6  C3  UNL     1     -32.358   8.770   1.174  1.00 20.00     0.005 A 
ENDBRANCH   3   4
ENDBRANCH   1   3
BRANCH   1   7
HETATM    7  C6  UNL     1     -35.174   5.807   4.132  1.00 20.00     0.163 C 
HETATM    8 BR8  UNL     1     -34.093   4.205   4.194  1.00 20.00    -0.089 Br
ENDBRANCH   1   7
TORSDOF 3
ENDMDL
MODEL 5
REMARK VINA RESULT:      -1.8      3.415      5.525
REMARK  3 active torsions:
REMARK  status: ('A' for Active; 'I' for Inactive)
REMARK    1  A    between atoms: C1_1  and  C5_5 
REMARK    2  A    between atoms: C1_1  and  C6_6 
REMARK    3  A    between atoms: C4_4  and  C5_5 
ROOT
HETATM    1  C1  UNL     1     -34.409   6.191   3.720  1.00 20.00     0.137 C 
HETATM    2  O7  UNL     1     -35.601   6.190   4.028  1.00 20.00    -0.297 OA
ENDROOT
BRANCH   1   3
HETATM    3  C5  UNL     1     -33.633   4.913   3.461  1.00 20.00     0.083 C 
BRANCH   3   4
HETATM    4  C4  UNL     1     -33.932   3.820   4.437  1.00 20.00    -0.008 A 
HETATM    5  C2  UNL     1     -33.312   2.461   4.265  1.00 20.00     0.005 A 
HETATM    6  C3  UNL     1     -32.872   3.350   5.395  1.00 20.00     0.005 A 
ENDBRANCH   3   4
ENDBRANCH   1   3
BRANCH   1   7
HETATM    7  C6  UNL     1     -33.656   7.484   3.555  1.00 20.00     0.163 C 
HETATM    8 BR8  UNL     1     -32.506   7.265   2.015  1.00 20.00    -0.089 Br
ENDBRANCH   1   7
TORSDOF 3
ENDMDL
MODEL 6
REMARK VINA RESULT:      -1.6      1.161      1.225
REMARK  3 active torsions:
REMARK  status: ('A' for Active; 'I' for Inactive)
REMARK    1  A    between atoms: C1_1  and  C5_5 
REMARK    2  A    between atoms: C1_1  and  C6_6 
REMARK    3  A    between atoms: C4_4  and  C5_5 
ROOT
HETATM    1  C1  UNL     1     -32.674   7.624   2.816  1.00 20.00     0.137 C 
HETATM    2  O7  UNL     1     -32.628   8.124   3.939  1.00 20.00    -0.297 OA
ENDROOT
BRANCH   1   3
HETATM    3  C5  UNL     1     -31.914   8.199   1.635  1.00 20.00     0.083 C 
BRANCH   3   4
HETATM    4  C4  UNL     1     -32.758   9.036   0.727  1.00 20.00    -0.008 A 
HETATM    5  C2  UNL     1     -32.662  10.536   0.774  1.00 20.00     0.005 A 
HETATM    6  C3  UNL     1     -32.128   9.785  -0.414  1.00 20.00     0.005 A 
ENDBRANCH   3   4
ENDBRANCH   1   3
BRANCH   1   7
HETATM    7  C6  UNL     1     -33.481   6.379   2.558  1.00 20.00     0.163 C 
HETATM    8 BR8  UNL     1     -34.902   6.355   3.869  1.00 20.00    -0.089 Br
ENDBRANCH   1   7
TORSDOF 3
ENDMDL
MODEL 7
REMARK VINA RESULT:      -1.5      3.464      5.581
REMARK  3 active torsions:
REMARK  status: ('A' for Active; 'I' for Inactive)
REMARK    1  A    between atoms: C1_1  and  C5_5 
REMARK    2  A    between atoms: C1_1  and  C6_6 
REMARK    3  A    between atoms: C4_4  and  C5_5 
ROOT
HETATM    1  C1  UNL     1     -33.982   6.092   3.364  1.00 20.00     0.137 C 
HETATM    2  O7  UNL     1     -34.335   7.167   3.847  1.00 20.00    -0.297 OA
ENDROOT
BRANCH   1   3
HETATM    3  C5  UNL     1     -34.355   4.758   3.984  1.00 20.00     0.083 C 
BRANCH   3   4
HETATM    4  C4  UNL     1     -33.210   3.801   4.083  1.00 20.00    -0.008 A 
HETATM    5  C2  UNL     1     -32.805   3.240   5.418  1.00 20.00     0.005 A 
HETATM    6  C3  UNL     1     -33.460   2.352   4.398  1.00 20.00     0.005 A 
ENDBRANCH   3   4
ENDBRANCH   1   3
BRANCH   1   7
HETATM    7  C6  UNL     1     -33.171   6.044   2.097  1.00 20.00     0.163 C 
HETATM    8 BR8  UNL     1     -32.233   7.731   1.972  1.00 20.00    -0.089 Br
ENDBRANCH   1   7
TORSDOF 3
ENDMDL
MODEL 8
REMARK VINA RESULT:      -1.5      1.944      2.612
REMARK  3 active torsions:
REMARK  status: ('A' for Active; 'I' for Inactive)
REMARK    1  A    between atoms: C1_1  and  C5_5 
REMARK    2  A    between atoms: C1_1  and  C6_6 
REMARK    3  A    between atoms: C4_4  and  C5_5 
ROOT
HETATM    1  C1  UNL     1     -34.274   6.236   3.534  1.00 20.00     0.137 C 
HETATM    2  O7  UNL     1     -35.317   6.230   4.187  1.00 20.00    -0.297 OA
ENDROOT
BRANCH   1   3
HETATM    3  C5  UNL     1     -33.517   7.513   3.218  1.00 20.00     0.083 C 
BRANCH   3   4
HETATM    4  C4  UNL     1     -32.782   7.470   1.916  1.00 20.00    -0.008 A 
HETATM    5  C2  UNL     1     -32.437   8.746   1.199  1.00 20.00     0.005 A 
HETATM    6  C3  UNL     1     -31.351   7.927   1.840  1.00 20.00     0.005 A 
ENDBRANCH   3   4
ENDBRANCH   1   3
BRANCH   1   7
HETATM    7  C6  UNL     1     -33.672   4.953   3.029  1.00 20.00     0.163 C 
HETATM    8 BR8  UNL     1     -33.740   3.692   4.493  1.00 20.00    -0.089 Br
ENDBRANCH   1   7
TORSDOF 3
ENDMDL
MODEL 9
REMARK VINA RESULT:      -1.5      2.771      4.409
REMARK  3 active torsions:
REMARK  status: ('A' for Active; 'I' for Inactive)
REMARK    1  A    between atoms: C1_1  and  C5_5 
REMARK    2  A    between atoms: C1_1  and  C6_6 
REMARK    3  A    between atoms: C4_4  and  C5_5 
ROOT
HETATM    1  C1  UNL     1     -32.278   8.169   2.993  1.00 20.00     0.137 C 
HETATM    2  O7  UNL     1     -31.306   8.779   3.438  1.00 20.00    -0.297 OA
ENDROOT
BRANCH   1   3
HETATM    3  C5  UNL     1     -33.465   7.785   3.857  1.00 20.00     0.083 C 
BRANCH   3   4
HETATM    4  C4  UNL     1     -34.305   6.694   3.272  1.00 20.00    -0.008 A 
HETATM    5  C2  UNL     1     -34.173   5.284   3.778  1.00 20.00     0.005 A 
HETATM    6  C3  UNL     1     -35.414   6.078   4.080  1.00 20.00     0.005 A 
ENDBRANCH   3   4
ENDBRANCH   1   3
BRANCH   1   7
HETATM    7  C6  UNL     1     -32.351   7.790   1.538  1.00 20.00     0.163 C 
HETATM    8 BR8  UNL     1     -32.302   9.440   0.530  1.00 20.00    -0.089 Br
ENDBRANCH   1   7
TORSDOF 3
ENDMDL
