MODEL 1
REMARK VINA RESULT:       0.7      0.000      0.000
REMARK  1 active torsions:
REMARK  status: ('A' for Active; 'I' for Inactive)
REMARK    1  A    between atoms: C4_4  and  C10_10 
ROOT
HETATM    1  C1  UNL     1     -32.437   7.601   1.915  1.00 20.00     0.132 C 
HETATM    2  C2  UNL     1     -32.262   6.794   0.652  1.00 20.00     0.087 C 
HETATM    3  C3  UNL     1     -33.501   5.536   2.302  1.00 20.00     0.021 C 
HETATM    4  C4  UNL     1     -33.018   6.786   3.046  1.00 20.00     0.059 C 
HETATM    5  C5  UNL     1     -32.521   5.353   1.129  1.00 20.00    -0.041 C 
HETATM    6  C6  UNL     1     -33.146   4.504   0.018  1.00 20.00     0.015 C 
HETATM    7  C7  UNL     1     -31.214   4.688   1.594  1.00 20.00     0.015 C 
HETATM    8  O11 UNL     1     -32.150   8.789   2.001  1.00 20.00    -0.298 OA
ENDROOT
BRANCH   4   9
HETATM    9  C10 UNL     1     -34.155   7.462   3.792  1.00 20.00    -0.011 C 
HETATM   10  C8  UNL     1     -35.283   6.469   4.086  1.00 20.00     0.010 C 
HETATM   11  C9  UNL     1     -33.656   8.094   5.094  1.00 20.00     0.010 C 
ENDBRANCH   4   9
TORSDOF 1
ENDMDL
MODEL 2
REMARK VINA RESULT:       0.8      1.799      3.117
REMARK  1 active torsions:
REMARK  status: ('A' for Active; 'I' for Inactive)
REMARK    1  A    between atoms: C4_4  and  C10_10 
ROOT
HETATM    1  C1  UNL     1     -32.793   5.846   1.476  1.00 20.00     0.132 C 
HETATM    2  C2  UNL     1     -31.561   6.717   1.459  1.00 20.00     0.087 C 
HETATM    3  C3  UNL     1     -33.167   7.543   3.065  1.00 20.00     0.021 C 
HETATM    4  C4  UNL     1     -33.908   6.438   2.305  1.00 20.00     0.059 C 
HETATM    5  C5  UNL     1     -32.055   8.020   2.112  1.00 20.00    -0.041 C 
HETATM    6  C6  UNL     1     -30.930   8.715   2.885  1.00 20.00     0.015 C 
HETATM    7  C7  UNL     1     -32.607   8.988   1.051  1.00 20.00     0.015 C 
HETATM    8  O11 UNL     1     -32.869   4.773   0.889  1.00 20.00    -0.298 OA
ENDROOT
BRANCH   4   9
HETATM    9  C10 UNL     1     -34.574   5.460   3.258  1.00 20.00    -0.011 C 
HETATM   10  C8  UNL     1     -33.537   4.539   3.908  1.00 20.00     0.010 C 
HETATM   11  C9  UNL     1     -35.370   6.201   4.335  1.00 20.00     0.010 C 
ENDBRANCH   4   9
TORSDOF 1
ENDMDL
MODEL 3
REMARK VINA RESULT:       1.1      1.801      2.782
REMARK  1 active torsions:
REMARK  status: ('A' for Active; 'I' for Inactive)
REMARK    1  A    between atoms: C4_4  and  C10_10 
ROOT
HETATM    1  C1  UNL     1     -33.326   7.661   3.787  1.00 20.00     0.132 C 
HETATM    2  C2  UNL     1     -32.936   8.790   2.866  1.00 20.00     0.087 C 
HETATM    3  C3  UNL     1     -33.033   6.700   1.657  1.00 20.00     0.021 C 
HETATM    4  C4  UNL     1     -33.195   6.307   3.129  1.00 20.00     0.059 C 
HETATM    5  C5  UNL     1     -32.300   8.054   1.673  1.00 20.00    -0.041 C 
HETATM    6  C6  UNL     1     -32.526   8.817   0.365  1.00 20.00     0.015 C 
HETATM    7  C7  UNL     1     -30.788   7.867   1.889  1.00 20.00     0.015 C 
HETATM    8  O11 UNL     1     -33.717   7.831   4.935  1.00 20.00    -0.298 OA
ENDROOT
BRANCH   4   9
HETATM    9  C10 UNL     1     -34.389   5.390   3.330  1.00 20.00    -0.011 C 
HETATM   10  C8  UNL     1     -34.004   4.165   4.164  1.00 20.00     0.010 C 
HETATM   11  C9  UNL     1     -35.548   6.138   3.994  1.00 20.00     0.010 C 
ENDBRANCH   4   9
TORSDOF 1
ENDMDL
MODEL 4
REMARK VINA RESULT:       1.2      1.733      3.928
REMARK  1 active torsions:
REMARK  status: ('A' for Active; 'I' for Inactive)
REMARK    1  A    between atoms: C4_4  and  C10_10 
ROOT
HETATM    1  C1  UNL     1     -32.300   6.655   1.867  1.00 20.00     0.132 C 
HETATM    2  C2  UNL     1     -33.342   6.011   2.749  1.00 20.00     0.087 C 
HETATM    3  C3  UNL     1     -33.726   8.390   2.573  1.00 20.00     0.021 C 
HETATM    4  C4  UNL     1     -32.371   8.163   1.896  1.00 20.00     0.059 C 
HETATM    5  C5  UNL     1     -33.905   7.205   3.541  1.00 20.00    -0.041 C 
HETATM    6  C6  UNL     1     -35.382   6.996   3.887  1.00 20.00     0.015 C 
HETATM    7  C7  UNL     1     -33.110   7.423   4.840  1.00 20.00     0.015 C 
HETATM    8  O11 UNL     1     -31.498   6.017   1.196  1.00 20.00    -0.298 OA
ENDROOT
BRANCH   4   9
HETATM    9  C10 UNL     1     -32.316   8.823   0.529  1.00 20.00    -0.011 C 
HETATM   10  C8  UNL     1     -32.816  10.269   0.599  1.00 20.00     0.010 C 
HETATM   11  C9  UNL     1     -30.897   8.782  -0.042  1.00 20.00     0.010 C 
ENDBRANCH   4   9
TORSDOF 1
ENDMDL
MODEL 5
REMARK VINA RESULT:       1.3      1.214      3.763
REMARK  1 active torsions:
REMARK  status: ('A' for Active; 'I' for Inactive)
REMARK    1  A    between atoms: C4_4  and  C10_10 
ROOT
HETATM    1  C1  UNL     1     -33.101   7.845   3.732  1.00 20.00     0.132 C 
HETATM    2  C2  UNL     1     -33.991   7.139   4.726  1.00 20.00     0.087 C 
HETATM    3  C3  UNL     1     -33.883   5.904   2.651  1.00 20.00     0.021 C 
HETATM    4  C4  UNL     1     -33.169   7.227   2.356  1.00 20.00     0.059 C 
HETATM    5  C5  UNL     1     -34.824   6.202   3.833  1.00 20.00    -0.041 C 
HETATM    6  C6  UNL     1     -35.200   4.916   4.575  1.00 20.00     0.015 C 
HETATM    7  C7  UNL     1     -36.110   6.901   3.358  1.00 20.00     0.015 C 
HETATM    8  O11 UNL     1     -32.395   8.804   4.021  1.00 20.00    -0.298 OA
ENDROOT
BRANCH   4   9
HETATM    9  C10 UNL     1     -31.818   6.994   1.702  1.00 20.00    -0.011 C 
HETATM   10  C8  UNL     1     -31.773   5.629   1.009  1.00 20.00     0.010 C 
HETATM   11  C9  UNL     1     -31.497   8.105   0.699  1.00 20.00     0.010 C 
ENDBRANCH   4   9
TORSDOF 1
ENDMDL
MODEL 6
REMARK VINA RESULT:       1.6      1.979      2.709
REMARK  1 active torsions:
REMARK  status: ('A' for Active; 'I' for Inactive)
REMARK    1  A    between atoms: C4_4  and  C10_10 
ROOT
HETATM    1  C1  UNL     1     -32.900   7.902   4.142  1.00 20.00     0.132 C 
HETATM    2  C2  UNL     1     -32.255   8.815   3.128  1.00 20.00     0.087 C 
HETATM    3  C3  UNL     1     -33.637   7.165   2.030  1.00 20.00     0.021 C 
HETATM    4  C4  UNL     1     -33.601   6.729   3.499  1.00 20.00     0.059 C 
HETATM    5  C5  UNL     1     -32.366   8.008   1.822  1.00 20.00    -0.041 C 
HETATM    6  C6  UNL     1     -32.511   8.932   0.609  1.00 20.00     0.015 C 
HETATM    7  C7  UNL     1     -31.130   7.113   1.626  1.00 20.00     0.015 C 
HETATM    8  O11 UNL     1     -32.865   8.103   5.350  1.00 20.00    -0.298 OA
ENDROOT
BRANCH   4   9
HETATM    9  C10 UNL     1     -34.998   6.459   4.032  1.00 20.00    -0.011 C 
HETATM   10  C8  UNL     1     -36.061   6.829   2.994  1.00 20.00     0.010 C 
HETATM   11  C9  UNL     1     -35.152   4.994   4.446  1.00 20.00     0.010 C 
ENDBRANCH   4   9
TORSDOF 1
ENDMDL
MODEL 7
REMARK VINA RESULT:       1.8      1.695      3.019
REMARK  1 active torsions:
REMARK  status: ('A' for Active; 'I' for Inactive)
REMARK    1  A    between atoms: C4_4  and  C10_10 
ROOT
HETATM    1  C1  UNL     1     -32.876   6.136   1.757  1.00 20.00     0.132 C 
HETATM    2  C2  UNL     1     -31.702   6.741   1.025  1.00 20.00     0.087 C 
HETATM    3  C3  UNL     1     -32.718   8.365   2.498  1.00 20.00     0.021 C 
HETATM    4  C4  UNL     1     -33.670   7.165   2.526  1.00 20.00     0.059 C 
HETATM    5  C5  UNL     1     -31.955   8.253   1.165  1.00 20.00    -0.041 C 
HETATM    6  C6  UNL     1     -30.639   9.034   1.217  1.00 20.00     0.015 C 
HETATM    7  C7  UNL     1     -32.803   8.776  -0.007  1.00 20.00     0.015 C 
HETATM    8  O11 UNL     1     -33.141   4.940   1.734  1.00 20.00    -0.298 OA
ENDROOT
BRANCH   4   9
HETATM    9  C10 UNL     1     -34.012   6.762   3.950  1.00 20.00    -0.011 C 
HETATM   10  C8  UNL     1     -33.836   7.941   4.910  1.00 20.00     0.010 C 
HETATM   11  C9  UNL     1     -35.441   6.220   4.036  1.00 20.00     0.010 C 
ENDBRANCH   4   9
TORSDOF 1
ENDMDL
MODEL 8
REMARK VINA RESULT:       2.2      1.754      3.930
REMARK  1 active torsions:
REMARK  status: ('A' for Active; 'I' for Inactive)
REMARK    1  A    between atoms: C4_4  and  C10_10 
ROOT
HETATM    1  C1  UNL     1     -33.399   6.478   2.756  1.00 20.00     0.132 C 
HETATM    2  C2  UNL     1     -33.537   7.978   2.657  1.00 20.00     0.087 C 
HETATM    3  C3  UNL     1     -31.948   7.160   1.031  1.00 20.00     0.021 C 
HETATM    4  C4  UNL     1     -32.267   5.945   1.909  1.00 20.00     0.059 C 
HETATM    5  C5  UNL     1     -32.259   8.389   1.904  1.00 20.00    -0.041 C 
HETATM    6  C6  UNL     1     -32.500   9.630   1.040  1.00 20.00     0.015 C 
HETATM    7  C7  UNL     1     -31.113   8.678   2.889  1.00 20.00     0.015 C 
HETATM    8  O11 UNL     1     -34.135   5.776   3.438  1.00 20.00    -0.298 OA
ENDROOT
BRANCH   4   9
HETATM    9  C10 UNL     1     -32.626   4.732   1.068  1.00 20.00    -0.011 C 
HETATM   10  C8  UNL     1     -33.780   5.050   0.113  1.00 20.00     0.010 C 
HETATM   11  C9  UNL     1     -31.412   4.233   0.281  1.00 20.00     0.010 C 
ENDBRANCH   4   9
TORSDOF 1
ENDMDL
MODEL 9
REMARK VINA RESULT:       2.3      1.899      4.283
REMARK  1 active torsions:
REMARK  status: ('A' for Active; 'I' for Inactive)
REMARK    1  A    between atoms: C4_4  and  C10_10 
ROOT
HETATM    1  C1  UNL     1     -34.066   5.214   3.626  1.00 20.00     0.132 C 
HETATM    2  C2  UNL     1     -34.888   6.373   4.134  1.00 20.00     0.087 C 
HETATM    3  C3  UNL     1     -33.291   7.121   2.482  1.00 20.00     0.021 C 
HETATM    4  C4  UNL     1     -32.917   5.660   2.753  1.00 20.00     0.059 C 
HETATM    5  C5  UNL     1     -34.035   7.594   3.744  1.00 20.00    -0.041 C 
HETATM    6  C6  UNL     1     -34.913   8.811   3.440  1.00 20.00     0.015 C 
HETATM    7  C7  UNL     1     -33.050   7.955   4.869  1.00 20.00     0.015 C 
HETATM    8  O11 UNL     1     -34.316   4.044   3.888  1.00 20.00    -0.298 OA
ENDROOT
BRANCH   4   9
HETATM    9  C10 UNL     1     -32.767   4.876   1.460  1.00 20.00    -0.011 C 
HETATM   10  C8  UNL     1     -33.664   5.455   0.362  1.00 20.00     0.010 C 
HETATM   11  C9  UNL     1     -31.308   4.860   0.996  1.00 20.00     0.010 C 
ENDBRANCH   4   9
TORSDOF 1
ENDMDL
