MODEL 1
REMARK VINA RESULT:       0.6      0.000      0.000
REMARK  1 active torsions:
REMARK  status: ('A' for Active; 'I' for Inactive)
REMARK    1  A    between atoms: C3_3  and  C6_6 
ROOT
HETATM    1  C1  UNL     1     -32.445   8.339   1.187  1.00 20.00     0.134 C 
HETATM    2  C2  UNL     1     -32.735   5.972   1.460  1.00 20.00     0.137 C 
HETATM    3  C3  UNL     1     -32.852   6.421   2.910  1.00 20.00     0.075 C 
HETATM    4  N7  UNL     1     -32.796   7.140   0.613  1.00 20.00    -0.374 N 
HETATM    5  S8  UNL     1     -32.339   9.781   0.372  1.00 20.00    -0.053 SA
HETATM    6  S9  UNL     1     -32.137   8.103   2.897  1.00 20.00    -0.094 SA
HETATM    7  H20 UNL     1     -33.174   7.094  -0.329  1.00 20.00     0.161 HD
ENDROOT
BRANCH   3   8
HETATM    8  C6  UNL     1     -34.296   6.475   3.392  1.00 20.00    -0.007 C 
HETATM    9  C4  UNL     1     -34.684   5.175   4.102  1.00 20.00     0.011 C 
HETATM   10  C5  UNL     1     -34.518   7.671   4.321  1.00 20.00     0.011 C 
ENDBRANCH   3   8
TORSDOF 1
ENDMDL
MODEL 2
REMARK VINA RESULT:       0.7      2.189      4.206
REMARK  1 active torsions:
REMARK  status: ('A' for Active; 'I' for Inactive)
REMARK    1  A    between atoms: C3_3  and  C6_6 
ROOT
HETATM    1  C1  UNL     1     -33.762   6.927   3.237  1.00 20.00     0.134 C 
HETATM    2  C2  UNL     1     -31.974   8.525   3.133  1.00 20.00     0.137 C 
HETATM    3  C3  UNL     1     -31.974   8.033   1.692  1.00 20.00     0.075 C 
HETATM    4  N7  UNL     1     -33.172   8.044   3.779  1.00 20.00    -0.374 N 
HETATM    5  S8  UNL     1     -35.076   6.145   3.883  1.00 20.00    -0.053 SA
HETATM    6  S9  UNL     1     -32.915   6.469   1.772  1.00 20.00    -0.094 SA
HETATM    7  H20 UNL     1     -33.613   8.563   4.534  1.00 20.00     0.161 HD
ENDROOT
BRANCH   3   8
HETATM    8  C6  UNL     1     -32.662   9.005   0.740  1.00 20.00    -0.007 C 
HETATM    9  C4  UNL     1     -32.698  10.416   1.333  1.00 20.00     0.011 C 
HETATM   10  C5  UNL     1     -31.964   9.021  -0.622  1.00 20.00     0.011 C 
ENDBRANCH   3   8
TORSDOF 1
ENDMDL
MODEL 3
REMARK VINA RESULT:       1.6      2.474      3.899
REMARK  1 active torsions:
REMARK  status: ('A' for Active; 'I' for Inactive)
REMARK    1  A    between atoms: C3_3  and  C6_6 
ROOT
HETATM    1  C1  UNL     1     -33.530   4.748   3.419  1.00 20.00     0.134 C 
HETATM    2  C2  UNL     1     -33.019   5.621   1.242  1.00 20.00     0.137 C 
HETATM    3  C3  UNL     1     -33.400   6.908   1.961  1.00 20.00     0.075 C 
HETATM    4  N7  UNL     1     -32.867   4.576   2.227  1.00 20.00    -0.374 N 
HETATM    5  S8  UNL     1     -33.582   3.626   4.641  1.00 20.00    -0.053 SA
HETATM    6  S9  UNL     1     -34.297   6.324   3.441  1.00 20.00    -0.094 SA
HETATM    7  H20 UNL     1     -32.223   3.803   2.085  1.00 20.00     0.161 HD
ENDROOT
BRANCH   3   8
HETATM    8  C6  UNL     1     -32.185   7.727   2.380  1.00 20.00    -0.007 C 
HETATM    9  C4  UNL     1     -31.851   8.786   1.326  1.00 20.00     0.011 C 
HETATM   10  C5  UNL     1     -32.416   8.389   3.741  1.00 20.00     0.011 C 
ENDBRANCH   3   8
TORSDOF 1
ENDMDL
MODEL 4
REMARK VINA RESULT:       1.9      1.282      1.797
REMARK  1 active torsions:
REMARK  status: ('A' for Active; 'I' for Inactive)
REMARK    1  A    between atoms: C3_3  and  C6_6 
ROOT
HETATM    1  C1  UNL     1     -32.390   9.416   0.620  1.00 20.00     0.134 C 
HETATM    2  C2  UNL     1     -31.269   7.567   1.663  1.00 20.00     0.137 C 
HETATM    3  C3  UNL     1     -32.469   7.705   2.590  1.00 20.00     0.075 C 
HETATM    4  N7  UNL     1     -31.504   8.373   0.488  1.00 20.00    -0.374 N 
HETATM    5  S8  UNL     1     -32.723  10.529  -0.566  1.00 20.00    -0.053 SA
HETATM    6  S9  UNL     1     -33.107   9.377   2.220  1.00 20.00    -0.094 SA
HETATM    7  H20 UNL     1     -31.111   8.122  -0.415  1.00 20.00     0.161 HD
ENDROOT
BRANCH   3   8
HETATM    8  C6  UNL     1     -33.547   6.665   2.311  1.00 20.00    -0.007 C 
HETATM    9  C4  UNL     1     -32.943   5.406   1.686  1.00 20.00     0.011 C 
HETATM   10  C5  UNL     1     -34.306   6.308   3.592  1.00 20.00     0.011 C 
ENDBRANCH   3   8
TORSDOF 1
ENDMDL
MODEL 5
REMARK VINA RESULT:       2.1      2.098      2.786
REMARK  1 active torsions:
REMARK  status: ('A' for Active; 'I' for Inactive)
REMARK    1  A    between atoms: C3_3  and  C6_6 
ROOT
HETATM    1  C1  UNL     1     -32.083   5.742   1.193  1.00 20.00     0.134 C 
HETATM    2  C2  UNL     1     -32.233   7.941   2.145  1.00 20.00     0.137 C 
HETATM    3  C3  UNL     1     -33.644   7.438   2.419  1.00 20.00     0.075 C 
HETATM    4  N7  UNL     1     -31.421   6.821   1.730  1.00 20.00    -0.374 N 
HETATM    5  S8  UNL     1     -31.342   4.401   0.554  1.00 20.00    -0.053 SA
HETATM    6  S9  UNL     1     -33.814   6.006   1.297  1.00 20.00    -0.094 SA
HETATM    7  H20 UNL     1     -30.423   6.791   1.916  1.00 20.00     0.161 HD
ENDROOT
BRANCH   3   8
HETATM    8  C6  UNL     1     -33.838   6.992   3.863  1.00 20.00    -0.007 C 
HETATM    9  C4  UNL     1     -33.663   8.168   4.826  1.00 20.00     0.011 C 
HETATM   10  C5  UNL     1     -35.214   6.350   4.056  1.00 20.00     0.011 C 
ENDBRANCH   3   8
TORSDOF 1
ENDMDL
MODEL 6
REMARK VINA RESULT:       2.6      2.038      2.761
REMARK  1 active torsions:
REMARK  status: ('A' for Active; 'I' for Inactive)
REMARK    1  A    between atoms: C3_3  and  C6_6 
ROOT
HETATM    1  C1  UNL     1     -32.840   7.334   2.271  1.00 20.00     0.134 C 
HETATM    2  C2  UNL     1     -34.470   6.488   3.817  1.00 20.00     0.137 C 
HETATM    3  C3  UNL     1     -34.045   5.189   3.144  1.00 20.00     0.075 C 
HETATM    4  N7  UNL     1     -33.538   7.524   3.440  1.00 20.00    -0.374 N 
HETATM    5  S8  UNL     1     -31.805   8.442   1.598  1.00 20.00    -0.053 SA
HETATM    6  S9  UNL     1     -33.213   5.750   1.617  1.00 20.00    -0.094 SA
HETATM    7  H20 UNL     1     -33.334   8.305   4.058  1.00 20.00     0.161 HD
ENDROOT
BRANCH   3   8
HETATM    8  C6  UNL     1     -33.076   4.378   3.995  1.00 20.00    -0.007 C 
HETATM    9  C4  UNL     1     -33.788   3.193   4.654  1.00 20.00     0.011 C 
HETATM   10  C5  UNL     1     -31.894   3.885   3.157  1.00 20.00     0.011 C 
ENDBRANCH   3   8
TORSDOF 1
ENDMDL
MODEL 7
REMARK VINA RESULT:       2.7      2.200      3.865
REMARK  1 active torsions:
REMARK  status: ('A' for Active; 'I' for Inactive)
REMARK    1  A    between atoms: C3_3  and  C6_6 
ROOT
HETATM    1  C1  UNL     1     -33.598   7.083   3.133  1.00 20.00     0.134 C 
HETATM    2  C2  UNL     1     -31.695   8.546   3.166  1.00 20.00     0.137 C 
HETATM    3  C3  UNL     1     -31.555   7.961   1.767  1.00 20.00     0.075 C 
HETATM    4  N7  UNL     1     -32.997   8.191   3.681  1.00 20.00    -0.374 N 
HETATM    5  S8  UNL     1     -35.037   6.436   3.649  1.00 20.00    -0.053 SA
HETATM    6  S9  UNL     1     -32.614   6.473   1.816  1.00 20.00    -0.094 SA
HETATM    7  H20 UNL     1     -33.486   8.787   4.342  1.00 20.00     0.161 HD
ENDROOT
BRANCH   3   8
HETATM    8  C6  UNL     1     -32.045   8.912   0.682  1.00 20.00    -0.007 C 
HETATM    9  C4  UNL     1     -33.019   8.206  -0.264  1.00 20.00     0.011 C 
HETATM   10  C5  UNL     1     -32.707  10.148   1.298  1.00 20.00     0.011 C 
ENDBRANCH   3   8
TORSDOF 1
ENDMDL
MODEL 8
REMARK VINA RESULT:       3.0      2.124      4.077
REMARK  1 active torsions:
REMARK  status: ('A' for Active; 'I' for Inactive)
REMARK    1  A    between atoms: C3_3  and  C6_6 
ROOT
HETATM    1  C1  UNL     1     -32.549   6.198   1.546  1.00 20.00     0.134 C 
HETATM    2  C2  UNL     1     -33.110   8.095   2.905  1.00 20.00     0.137 C 
HETATM    3  C3  UNL     1     -32.125   8.743   1.941  1.00 20.00     0.075 C 
HETATM    4  N7  UNL     1     -33.452   6.787   2.398  1.00 20.00    -0.374 N 
HETATM    5  S8  UNL     1     -32.689   4.660   0.938  1.00 20.00    -0.053 SA
HETATM    6  S9  UNL     1     -31.245   7.320   1.208  1.00 20.00    -0.094 SA
HETATM    7  H20 UNL     1     -34.359   6.367   2.583  1.00 20.00     0.161 HD
ENDROOT
BRANCH   3   8
HETATM    8  C6  UNL     1     -32.818   9.545   0.846  1.00 20.00    -0.007 C 
HETATM    9  C4  UNL     1     -32.676  11.048   1.096  1.00 20.00     0.011 C 
HETATM   10  C5  UNL     1     -32.259   9.183  -0.533  1.00 20.00     0.011 C 
ENDBRANCH   3   8
TORSDOF 1
ENDMDL
