MODEL 1
REMARK VINA RESULT:      -0.5      0.000      0.000
REMARK  1 active torsions:
REMARK  status: ('A' for Active; 'I' for Inactive)
REMARK    1  A    between atoms: C7_7  and  C10_10 
ROOT
HETATM    1  C1  UNL     1     -31.785   8.415   0.360  1.00 20.00    -0.018 C 
HETATM    2  C2  UNL     1     -32.609   9.267   0.995  1.00 20.00    -0.024 C 
HETATM    3  C3  UNL     1     -32.562   6.597   1.698  1.00 20.00     0.139 C 
HETATM    4  C4  UNL     1     -31.281   8.292   2.617  1.00 20.00     0.025 C 
HETATM    5  C5  UNL     1     -31.312   7.405   1.370  1.00 20.00     0.078 C 
HETATM    6  C6  UNL     1     -32.720   8.804   2.437  1.00 20.00     0.020 C 
HETATM    7  C7  UNL     1     -33.558   7.494   2.448  1.00 20.00     0.067 C 
HETATM    8  O11 UNL     1     -32.756   5.433   1.379  1.00 20.00    -0.297 OA
ENDROOT
BRANCH   7   9
HETATM    9  C10 UNL     1     -33.867   6.962   3.835  1.00 20.00    -0.011 C 
HETATM   10  C8  UNL     1     -33.780   8.078   4.879  1.00 20.00     0.010 C 
HETATM   11  C9  UNL     1     -35.251   6.309   3.874  1.00 20.00     0.010 C 
ENDBRANCH   7   9
TORSDOF 1
ENDMDL
MODEL 2
REMARK VINA RESULT:       0.4      1.855      2.829
REMARK  1 active torsions:
REMARK  status: ('A' for Active; 'I' for Inactive)
REMARK    1  A    between atoms: C7_7  and  C10_10 
ROOT
HETATM    1  C1  UNL     1     -31.953   7.896   1.797  1.00 20.00    -0.018 C 
HETATM    2  C2  UNL     1     -31.510   6.636   1.639  1.00 20.00    -0.024 C 
HETATM    3  C3  UNL     1     -33.594   7.169   3.371  1.00 20.00     0.139 C 
HETATM    4  C4  UNL     1     -33.764   6.618   1.129  1.00 20.00     0.025 C 
HETATM    5  C5  UNL     1     -33.442   7.829   2.006  1.00 20.00     0.078 C 
HETATM    6  C6  UNL     1     -32.706   5.712   1.779  1.00 20.00     0.020 C 
HETATM    7  C7  UNL     1     -33.125   5.709   3.278  1.00 20.00     0.067 C 
HETATM    8  O11 UNL     1     -33.986   7.724   4.386  1.00 20.00    -0.297 OA
ENDROOT
BRANCH   7   9
HETATM    9  C10 UNL     1     -34.238   4.734   3.612  1.00 20.00    -0.011 C 
HETATM   10  C8  UNL     1     -33.706   3.558   4.433  1.00 20.00     0.010 C 
HETATM   11  C9  UNL     1     -35.371   5.435   4.367  1.00 20.00     0.010 C 
ENDBRANCH   7   9
TORSDOF 1
ENDMDL
MODEL 3
REMARK VINA RESULT:       0.5      0.808      1.079
REMARK  1 active torsions:
REMARK  status: ('A' for Active; 'I' for Inactive)
REMARK    1  A    between atoms: C7_7  and  C10_10 
ROOT
HETATM    1  C1  UNL     1     -31.772   8.452   0.603  1.00 20.00    -0.018 C 
HETATM    2  C2  UNL     1     -32.834   9.052   1.168  1.00 20.00    -0.024 C 
HETATM    3  C3  UNL     1     -32.331   6.380   1.648  1.00 20.00     0.139 C 
HETATM    4  C4  UNL     1     -31.570   8.176   2.894  1.00 20.00     0.025 C 
HETATM    5  C5  UNL     1     -31.244   7.445   1.590  1.00 20.00     0.078 C 
HETATM    6  C6  UNL     1     -33.044   8.418   2.532  1.00 20.00     0.020 C 
HETATM    7  C7  UNL     1     -33.586   6.978   2.302  1.00 20.00     0.067 C 
HETATM    8  O11 UNL     1     -32.234   5.244   1.208  1.00 20.00    -0.297 OA
ENDROOT
BRANCH   7   9
HETATM    9  C10 UNL     1     -33.967   6.245   3.575  1.00 20.00    -0.011 C 
HETATM   10  C8  UNL     1     -35.418   6.539   3.961  1.00 20.00     0.010 C 
HETATM   11  C9  UNL     1     -33.756   4.736   3.420  1.00 20.00     0.010 C 
ENDBRANCH   7   9
TORSDOF 1
ENDMDL
MODEL 4
REMARK VINA RESULT:       0.9      1.582      2.753
REMARK  1 active torsions:
REMARK  status: ('A' for Active; 'I' for Inactive)
REMARK    1  A    between atoms: C7_7  and  C10_10 
ROOT
HETATM    1  C1  UNL     1     -31.496   5.582   0.889  1.00 20.00    -0.018 C 
HETATM    2  C2  UNL     1     -32.205   4.744   1.666  1.00 20.00    -0.024 C 
HETATM    3  C3  UNL     1     -32.259   7.463   2.146  1.00 20.00     0.139 C 
HETATM    4  C4  UNL     1     -33.705   6.268   0.790  1.00 20.00     0.025 C 
HETATM    5  C5  UNL     1     -32.292   6.852   0.750  1.00 20.00     0.078 C 
HETATM    6  C6  UNL     1     -33.472   5.470   2.083  1.00 20.00     0.020 C 
HETATM    7  C7  UNL     1     -33.067   6.573   3.102  1.00 20.00     0.067 C 
HETATM    8  O11 UNL     1     -31.653   8.476   2.461  1.00 20.00    -0.297 OA
ENDROOT
BRANCH   7   9
HETATM    9  C10 UNL     1     -34.239   7.317   3.714  1.00 20.00    -0.011 C 
HETATM   10  C8  UNL     1     -35.387   6.357   4.037  1.00 20.00     0.010 C 
HETATM   11  C9  UNL     1     -33.811   8.070   4.976  1.00 20.00     0.010 C 
ENDBRANCH   7   9
TORSDOF 1
ENDMDL
MODEL 5
REMARK VINA RESULT:       1.7      1.347      3.779
REMARK  1 active torsions:
REMARK  status: ('A' for Active; 'I' for Inactive)
REMARK    1  A    between atoms: C7_7  and  C10_10 
ROOT
HETATM    1  C1  UNL     1     -34.730   6.865   5.211  1.00 20.00    -0.018 C 
HETATM    2  C2  UNL     1     -33.897   7.850   4.832  1.00 20.00    -0.024 C 
HETATM    3  C3  UNL     1     -33.963   5.471   3.432  1.00 20.00     0.139 C 
HETATM    4  C4  UNL     1     -35.226   7.363   3.005  1.00 20.00     0.025 C 
HETATM    5  C5  UNL     1     -35.207   6.171   3.964  1.00 20.00     0.078 C 
HETATM    6  C6  UNL     1     -33.784   7.794   3.318  1.00 20.00     0.020 C 
HETATM    7  C7  UNL     1     -32.956   6.529   2.955  1.00 20.00     0.067 C 
HETATM    8  O11 UNL     1     -33.779   4.263   3.424  1.00 20.00    -0.297 OA
ENDROOT
BRANCH   7   9
HETATM    9  C10 UNL     1     -32.646   6.390   1.476  1.00 20.00    -0.011 C 
HETATM   10  C8  UNL     1     -31.913   7.627   0.954  1.00 20.00     0.010 C 
HETATM   11  C9  UNL     1     -31.818   5.131   1.207  1.00 20.00     0.010 C 
ENDBRANCH   7   9
TORSDOF 1
ENDMDL
MODEL 6
REMARK VINA RESULT:       2.0      1.679      4.002
REMARK  1 active torsions:
REMARK  status: ('A' for Active; 'I' for Inactive)
REMARK    1  A    between atoms: C7_7  and  C10_10 
ROOT
HETATM    1  C1  UNL     1     -35.479   6.412   4.271  1.00 20.00    -0.018 C 
HETATM    2  C2  UNL     1     -35.634   6.512   2.939  1.00 20.00    -0.024 C 
HETATM    3  C3  UNL     1     -33.367   7.518   4.153  1.00 20.00     0.139 C 
HETATM    4  C4  UNL     1     -33.647   5.387   3.294  1.00 20.00     0.025 C 
HETATM    5  C5  UNL     1     -34.015   6.195   4.541  1.00 20.00     0.078 C 
HETATM    6  C6  UNL     1     -34.257   6.397   2.310  1.00 20.00     0.020 C 
HETATM    7  C7  UNL     1     -33.482   7.707   2.633  1.00 20.00     0.067 C 
HETATM    8  O11 UNL     1     -32.872   8.319   4.932  1.00 20.00    -0.297 OA
ENDROOT
BRANCH   7   9
HETATM    9  C10 UNL     1     -32.121   7.806   1.969  1.00 20.00    -0.011 C 
HETATM   10  C8  UNL     1     -31.784   6.515   1.220  1.00 20.00     0.010 C 
HETATM   11  C9  UNL     1     -32.064   9.001   1.014  1.00 20.00     0.010 C 
ENDBRANCH   7   9
TORSDOF 1
ENDMDL
MODEL 7
REMARK VINA RESULT:       2.3      0.985      3.512
REMARK  1 active torsions:
REMARK  status: ('A' for Active; 'I' for Inactive)
REMARK    1  A    between atoms: C7_7  and  C10_10 
ROOT
HETATM    1  C1  UNL     1     -33.645   6.429   4.414  1.00 20.00    -0.018 C 
HETATM    2  C2  UNL     1     -33.254   7.703   4.592  1.00 20.00    -0.024 C 
HETATM    3  C3  UNL     1     -32.955   6.490   2.129  1.00 20.00     0.139 C 
HETATM    4  C4  UNL     1     -34.782   7.712   2.857  1.00 20.00     0.025 C 
HETATM    5  C5  UNL     1     -34.183   6.312   3.013  1.00 20.00     0.078 C 
HETATM    6  C6  UNL     1     -33.499   8.441   3.288  1.00 20.00     0.020 C 
HETATM    7  C7  UNL     1     -32.449   7.935   2.257  1.00 20.00     0.067 C 
HETATM    8  O11 UNL     1     -32.433   5.612   1.459  1.00 20.00    -0.297 OA
ENDROOT
BRANCH   7   9
HETATM    9  C10 UNL     1     -32.478   8.665   0.928  1.00 20.00    -0.011 C 
HETATM   10  C8  UNL     1     -32.795  10.149   1.127  1.00 20.00     0.010 C 
HETATM   11  C9  UNL     1     -31.149   8.504   0.186  1.00 20.00     0.010 C 
ENDBRANCH   7   9
TORSDOF 1
ENDMDL
MODEL 8
REMARK VINA RESULT:       2.4      1.797      3.628
REMARK  1 active torsions:
REMARK  status: ('A' for Active; 'I' for Inactive)
REMARK    1  A    between atoms: C7_7  and  C10_10 
ROOT
HETATM    1  C1  UNL     1     -34.241   7.300   4.881  1.00 20.00    -0.018 C 
HETATM    2  C2  UNL     1     -33.328   8.064   4.256  1.00 20.00    -0.024 C 
HETATM    3  C3  UNL     1     -33.805   5.484   3.394  1.00 20.00     0.139 C 
HETATM    4  C4  UNL     1     -34.857   7.408   2.652  1.00 20.00     0.025 C 
HETATM    5  C5  UNL     1     -34.904   6.442   3.837  1.00 20.00     0.078 C 
HETATM    6  C6  UNL     1     -33.352   7.690   2.784  1.00 20.00     0.020 C 
HETATM    7  C7  UNL     1     -32.720   6.275   2.648  1.00 20.00     0.067 C 
HETATM    8  O11 UNL     1     -33.773   4.286   3.630  1.00 20.00    -0.297 OA
ENDROOT
BRANCH   7   9
HETATM    9  C10 UNL     1     -32.556   5.801   1.216  1.00 20.00    -0.011 C 
HETATM   10  C8  UNL     1     -31.429   4.772   1.107  1.00 20.00     0.010 C 
HETATM   11  C9  UNL     1     -33.864   5.211   0.682  1.00 20.00     0.010 C 
ENDBRANCH   7   9
TORSDOF 1
ENDMDL
