MODEL 1
REMARK VINA RESULT:      -1.2      0.000      0.000
REMARK  2 active torsions:
REMARK  status: ('A' for Active; 'I' for Inactive)
REMARK    1  A    between atoms: C3_3  and  C5_5 
REMARK    2  A    between atoms: C3_3  and  O9_9 
ROOT
HETATM    1  C1  UNL     1     -35.226   5.314   4.527  1.00 20.00    -0.002 A 
HETATM    2  C2  UNL     1     -35.169   6.455   3.844  1.00 20.00     0.013 A 
HETATM    3  C4  UNL     1     -34.153   4.401   4.070  1.00 20.00     0.196 A 
HETATM    4  C5  UNL     1     -34.053   6.397   2.872  1.00 20.00     0.244 A 
HETATM    5  O8  UNL     1     -33.454   5.103   3.022  1.00 20.00    -0.368 OA
ENDROOT
BRANCH   4   6
HETATM    6  C3  UNL     1     -33.027   7.421   3.233  1.00 20.00     0.291 C 
HETATM    7  O7  UNL     1     -33.035   8.061   4.276  1.00 20.00    -0.262 OA
BRANCH   6   8
HETATM    8  O9  UNL     1     -32.109   7.520   2.231  1.00 20.00    -0.324 OA
HETATM    9  C6  UNL     1     -32.290   8.621   1.336  1.00 20.00     0.213 C 
ENDBRANCH   6   8
ENDBRANCH   4   6
TORSDOF 2
ENDMDL
MODEL 2
REMARK VINA RESULT:      -1.1      1.499      3.727
REMARK  2 active torsions:
REMARK  status: ('A' for Active; 'I' for Inactive)
REMARK    1  A    between atoms: C3_3  and  C5_5 
REMARK    2  A    between atoms: C3_3  and  O9_9 
ROOT
HETATM    1  C1  UNL     1     -32.682   7.266   2.745  1.00 20.00    -0.002 A 
HETATM    2  C2  UNL     1     -33.507   6.281   2.400  1.00 20.00     0.013 A 
HETATM    3  C4  UNL     1     -33.233   7.996   3.911  1.00 20.00     0.196 A 
HETATM    4  C5  UNL     1     -34.680   6.273   3.305  1.00 20.00     0.244 A 
HETATM    5  O8  UNL     1     -34.490   7.360   4.220  1.00 20.00    -0.368 OA
ENDROOT
BRANCH   4   6
HETATM    6  C3  UNL     1     -34.686   5.005   4.095  1.00 20.00     0.291 C 
HETATM    7  O7  UNL     1     -35.564   4.698   4.891  1.00 20.00    -0.262 OA
BRANCH   6   8
HETATM    8  O9  UNL     1     -33.580   4.271   3.788  1.00 20.00    -0.324 OA
HETATM    9  C6  UNL     1     -33.362   3.116   4.604  1.00 20.00     0.213 C 
ENDBRANCH   6   8
ENDBRANCH   4   6
TORSDOF 2
ENDMDL
MODEL 3
REMARK VINA RESULT:      -0.9      1.400      3.672
REMARK  2 active torsions:
REMARK  status: ('A' for Active; 'I' for Inactive)
REMARK    1  A    between atoms: C3_3  and  C5_5 
REMARK    2  A    between atoms: C3_3  and  O9_9 
ROOT
HETATM    1  C1  UNL     1     -31.945   6.829   1.702  1.00 20.00    -0.002 A 
HETATM    2  C2  UNL     1     -33.058   6.103   1.628  1.00 20.00     0.013 A 
HETATM    3  C4  UNL     1     -32.126   7.925   2.682  1.00 20.00     0.196 A 
HETATM    4  C5  UNL     1     -34.076   6.657   2.551  1.00 20.00     0.244 A 
HETATM    5  O8  UNL     1     -33.475   7.798   3.176  1.00 20.00    -0.368 OA
ENDROOT
BRANCH   4   6
HETATM    6  C3  UNL     1     -34.374   5.654   3.618  1.00 20.00     0.291 C 
HETATM    7  O7  UNL     1     -35.306   5.749   4.406  1.00 20.00    -0.262 OA
BRANCH   6   8
HETATM    8  O9  UNL     1     -33.459   4.646   3.565  1.00 20.00    -0.324 OA
HETATM    9  C6  UNL     1     -33.713   3.538   4.434  1.00 20.00     0.213 C 
ENDBRANCH   6   8
ENDBRANCH   4   6
TORSDOF 2
ENDMDL
MODEL 4
REMARK VINA RESULT:      -0.9      1.474      3.477
REMARK  2 active torsions:
REMARK  status: ('A' for Active; 'I' for Inactive)
REMARK    1  A    between atoms: C3_3  and  C5_5 
REMARK    2  A    between atoms: C3_3  and  O9_9 
ROOT
HETATM    1  C1  UNL     1     -31.868   6.114   1.533  1.00 20.00    -0.002 A 
HETATM    2  C2  UNL     1     -33.154   5.976   1.850  1.00 20.00     0.013 A 
HETATM    3  C4  UNL     1     -31.451   7.520   1.739  1.00 20.00     0.196 A 
HETATM    4  C5  UNL     1     -33.701   7.279   2.292  1.00 20.00     0.244 A 
HETATM    5  O8  UNL     1     -32.625   8.222   2.194  1.00 20.00    -0.368 OA
ENDROOT
BRANCH   4   6
HETATM    6  C3  UNL     1     -34.100   7.187   3.729  1.00 20.00     0.291 C 
HETATM    7  O7  UNL     1     -33.484   7.714   4.646  1.00 20.00    -0.262 OA
BRANCH   6   8
HETATM    8  O9  UNL     1     -35.233   6.439   3.840  1.00 20.00    -0.324 OA
HETATM    9  C6  UNL     1     -35.067   5.159   4.460  1.00 20.00     0.213 C 
ENDBRANCH   6   8
ENDBRANCH   4   6
TORSDOF 2
ENDMDL
MODEL 5
REMARK VINA RESULT:      -0.8      1.854      3.221
REMARK  2 active torsions:
REMARK  status: ('A' for Active; 'I' for Inactive)
REMARK    1  A    between atoms: C3_3  and  C5_5 
REMARK    2  A    between atoms: C3_3  and  O9_9 
ROOT
HETATM    1  C1  UNL     1     -33.190   5.804   1.928  1.00 20.00    -0.002 A 
HETATM    2  C2  UNL     1     -32.042   6.255   1.427  1.00 20.00     0.013 A 
HETATM    3  C4  UNL     1     -33.765   6.811   2.850  1.00 20.00     0.196 A 
HETATM    4  C5  UNL     1     -31.755   7.601   1.976  1.00 20.00     0.244 A 
HETATM    5  O8  UNL     1     -32.832   7.910   2.870  1.00 20.00    -0.368 OA
ENDROOT
BRANCH   4   6
HETATM    6  C3  UNL     1     -31.778   8.603   0.868  1.00 20.00     0.291 C 
HETATM    7  O7  UNL     1     -31.052   8.553  -0.116  1.00 20.00    -0.262 OA
BRANCH   6   8
HETATM    8  O9  UNL     1     -32.717   9.554   1.133  1.00 20.00    -0.324 OA
HETATM    9  C6  UNL     1     -32.743  10.662   0.228  1.00 20.00     0.213 C 
ENDBRANCH   6   8
ENDBRANCH   4   6
TORSDOF 2
ENDMDL
MODEL 6
REMARK VINA RESULT:      -0.8      1.164      1.995
REMARK  2 active torsions:
REMARK  status: ('A' for Active; 'I' for Inactive)
REMARK    1  A    between atoms: C3_3  and  C5_5 
REMARK    2  A    between atoms: C3_3  and  O9_9 
ROOT
HETATM    1  C1  UNL     1     -34.896   5.117   3.992  1.00 20.00    -0.002 A 
HETATM    2  C2  UNL     1     -33.612   5.080   3.640  1.00 20.00     0.013 A 
HETATM    3  C4  UNL     1     -35.373   6.519   3.995  1.00 20.00     0.196 A 
HETATM    4  C5  UNL     1     -33.127   6.455   3.381  1.00 20.00     0.244 A 
HETATM    5  O8  UNL     1     -34.237   7.327   3.628  1.00 20.00    -0.368 OA
ENDROOT
BRANCH   4   6
HETATM    6  C3  UNL     1     -32.753   6.584   1.940  1.00 20.00     0.291 C 
HETATM    7  O7  UNL     1     -33.213   5.885   1.047  1.00 20.00    -0.262 OA
BRANCH   6   8
HETATM    8  O9  UNL     1     -31.839   7.585   1.795  1.00 20.00    -0.324 OA
HETATM    9  C6  UNL     1     -32.285   8.722   1.049  1.00 20.00     0.213 C 
ENDBRANCH   6   8
ENDBRANCH   4   6
TORSDOF 2
ENDMDL
MODEL 7
REMARK VINA RESULT:      -0.7      1.510      3.554
REMARK  2 active torsions:
REMARK  status: ('A' for Active; 'I' for Inactive)
REMARK    1  A    between atoms: C3_3  and  C5_5 
REMARK    2  A    between atoms: C3_3  and  O9_9 
ROOT
HETATM    1  C1  UNL     1     -32.755   8.003   2.492  1.00 20.00    -0.002 A 
HETATM    2  C2  UNL     1     -33.128   7.508   3.669  1.00 20.00     0.013 A 
HETATM    3  C4  UNL     1     -32.782   6.933   1.468  1.00 20.00     0.196 A 
HETATM    4  C5  UNL     1     -33.434   6.066   3.529  1.00 20.00     0.244 A 
HETATM    5  O8  UNL     1     -33.191   5.734   2.156  1.00 20.00    -0.368 OA
ENDROOT
BRANCH   4   6
HETATM    6  C3  UNL     1     -34.884   5.837   3.807  1.00 20.00     0.291 C 
HETATM    7  O7  UNL     1     -35.771   6.626   3.510  1.00 20.00    -0.262 OA
BRANCH   6   8
HETATM    8  O9  UNL     1     -35.045   4.635   4.429  1.00 20.00    -0.324 OA
HETATM    9  C6  UNL     1     -33.906   3.770   4.398  1.00 20.00     0.213 C 
ENDBRANCH   6   8
ENDBRANCH   4   6
TORSDOF 2
ENDMDL
MODEL 8
REMARK VINA RESULT:      -0.7      1.455      4.387
REMARK  2 active torsions:
REMARK  status: ('A' for Active; 'I' for Inactive)
REMARK    1  A    between atoms: C3_3  and  C5_5 
REMARK    2  A    between atoms: C3_3  and  O9_9 
ROOT
HETATM    1  C1  UNL     1     -32.726  10.049   0.408  1.00 20.00    -0.002 A 
HETATM    2  C2  UNL     1     -32.730   9.629   1.672  1.00 20.00     0.013 A 
HETATM    3  C4  UNL     1     -31.897   9.141  -0.418  1.00 20.00     0.196 A 
HETATM    4  C5  UNL     1     -31.902   8.407   1.792  1.00 20.00     0.244 A 
HETATM    5  O8  UNL     1     -31.384   8.140   0.483  1.00 20.00    -0.368 OA
ENDROOT
BRANCH   4   6
HETATM    6  C3  UNL     1     -32.771   7.257   2.185  1.00 20.00     0.291 C 
HETATM    7  O7  UNL     1     -32.824   6.199   1.573  1.00 20.00    -0.262 OA
BRANCH   6   8
HETATM    8  O9  UNL     1     -33.474   7.580   3.307  1.00 20.00    -0.324 OA
HETATM    9  C6  UNL     1     -34.478   6.637   3.696  1.00 20.00     0.213 C 
ENDBRANCH   6   8
ENDBRANCH   4   6
TORSDOF 2
ENDMDL
MODEL 9
REMARK VINA RESULT:      -0.4      1.569      3.333
REMARK  2 active torsions:
REMARK  status: ('A' for Active; 'I' for Inactive)
REMARK    1  A    between atoms: C3_3  and  C5_5 
REMARK    2  A    between atoms: C3_3  and  O9_9 
ROOT
HETATM    1  C1  UNL     1     -31.724   6.006   1.382  1.00 20.00    -0.002 A 
HETATM    2  C2  UNL     1     -32.975   5.624   1.628  1.00 20.00     0.013 A 
HETATM    3  C4  UNL     1     -31.569   7.445   1.696  1.00 20.00     0.196 A 
HETATM    4  C5  UNL     1     -33.759   6.779   2.125  1.00 20.00     0.244 A 
HETATM    5  O8  UNL     1     -32.864   7.898   2.138  1.00 20.00    -0.368 OA
ENDROOT
BRANCH   4   6
HETATM    6  C3  UNL     1     -34.188   6.518   3.532  1.00 20.00     0.291 C 
HETATM    7  O7  UNL     1     -34.359   5.401   4.000  1.00 20.00    -0.262 OA
BRANCH   6   8
HETATM    8  O9  UNL     1     -34.351   7.703   4.185  1.00 20.00    -0.324 OA
HETATM    9  C6  UNL     1     -33.312   8.045   5.108  1.00 20.00     0.213 C 
ENDBRANCH   6   8
ENDBRANCH   4   6
TORSDOF 2
ENDMDL
