MODEL 1
REMARK VINA RESULT:      -0.6      0.000      0.000
REMARK  0 active torsions:
REMARK  status: ('A' for Active; 'I' for Inactive)
ROOT
HETATM    1  C1  UNL     1     -31.684   6.342   1.345  1.00 20.00    -0.029 A 
HETATM    2  C2  UNL     1     -32.827   5.653   1.397  1.00 20.00    -0.023 A 
HETATM    3  C3  UNL     1     -33.435   7.383   3.915  1.00 20.00     0.155 C 
HETATM    4  C4  UNL     1     -31.779   7.721   1.921  1.00 20.00     0.040 A 
HETATM    5  C5  UNL     1     -33.898   6.463   2.027  1.00 20.00     0.050 A 
HETATM    6  C6  UNL     1     -33.211   7.800   2.449  1.00 20.00     0.071 A 
HETATM    7  C7  UNL     1     -34.287   6.142   3.514  1.00 20.00     0.101 C 
HETATM    8  C8  UNL     1     -35.777   6.325   3.800  1.00 20.00     0.042 C 
HETATM    9  O9  UNL     1     -33.082   7.856   4.976  1.00 20.00    -0.295 OA
HETATM   10 CL10 UNL     1     -33.666   4.634   4.267  1.00 20.00    -0.111 Cl
ENDROOT
TORSDOF 0
ENDMDL
MODEL 2
REMARK VINA RESULT:      -0.5      1.950      3.279
REMARK  0 active torsions:
REMARK  status: ('A' for Active; 'I' for Inactive)
ROOT
HETATM    1  C1  UNL     1     -35.092   6.899   3.947  1.00 20.00    -0.029 A 
HETATM    2  C2  UNL     1     -34.678   5.745   3.416  1.00 20.00    -0.023 A 
HETATM    3  C3  UNL     1     -32.572   7.497   1.934  1.00 20.00     0.155 C 
HETATM    4  C4  UNL     1     -34.014   7.932   4.070  1.00 20.00     0.040 A 
HETATM    5  C5  UNL     1     -33.232   5.808   3.089  1.00 20.00     0.050 A 
HETATM    6  C6  UNL     1     -32.792   7.263   3.441  1.00 20.00     0.071 A 
HETATM    7  C7  UNL     1     -32.825   6.000   1.585  1.00 20.00     0.101 C 
HETATM    8  C8  UNL     1     -31.547   5.252   1.207  1.00 20.00     0.042 C 
HETATM    9  O9  UNL     1     -32.298   8.481   1.278  1.00 20.00    -0.295 OA
HETATM   10 CL10 UNL     1     -34.081   5.813   0.316  1.00 20.00    -0.111 Cl
ENDROOT
TORSDOF 0
ENDMDL
MODEL 3
REMARK VINA RESULT:       0.4      2.218      3.682
REMARK  0 active torsions:
REMARK  status: ('A' for Active; 'I' for Inactive)
ROOT
HETATM    1  C1  UNL     1     -34.232   6.774   4.465  1.00 20.00    -0.029 A 
HETATM    2  C2  UNL     1     -33.948   7.991   3.991  1.00 20.00    -0.023 A 
HETATM    3  C3  UNL     1     -32.381   6.462   1.776  1.00 20.00     0.155 C 
HETATM    4  C4  UNL     1     -34.272   5.708   3.414  1.00 20.00     0.040 A 
HETATM    5  C5  UNL     1     -33.746   7.947   2.522  1.00 20.00     0.050 A 
HETATM    6  C6  UNL     1     -33.880   6.441   2.132  1.00 20.00     0.071 A 
HETATM    7  C7  UNL     1     -32.274   8.003   1.979  1.00 20.00     0.101 C 
HETATM    8  C8  UNL     1     -32.146   8.771   0.664  1.00 20.00     0.042 C 
HETATM    9  O9  UNL     1     -31.592   5.598   1.452  1.00 20.00    -0.295 OA
HETATM   10 CL10 UNL     1     -30.948   8.437   3.110  1.00 20.00    -0.111 Cl
ENDROOT
TORSDOF 0
ENDMDL
MODEL 4
REMARK VINA RESULT:       0.6      1.911      2.839
REMARK  0 active torsions:
REMARK  status: ('A' for Active; 'I' for Inactive)
ROOT
HETATM    1  C1  UNL     1     -32.135   8.336   3.448  1.00 20.00    -0.029 A 
HETATM    2  C2  UNL     1     -32.028   8.024   2.153  1.00 20.00    -0.023 A 
HETATM    3  C3  UNL     1     -33.624   5.462   2.920  1.00 20.00     0.155 C 
HETATM    4  C4  UNL     1     -33.356   7.774   4.108  1.00 20.00     0.040 A 
HETATM    5  C5  UNL     1     -33.174   7.188   1.719  1.00 20.00     0.050 A 
HETATM    6  C6  UNL     1     -34.021   6.948   3.008  1.00 20.00     0.071 A 
HETATM    7  C7  UNL     1     -32.934   5.648   1.535  1.00 20.00     0.101 C 
HETATM    8  C8  UNL     1     -33.738   5.046   0.383  1.00 20.00     0.042 C 
HETATM    9  O9  UNL     1     -33.796   4.511   3.655  1.00 20.00    -0.295 OA
HETATM   10 CL10 UNL     1     -31.250   5.026   1.540  1.00 20.00    -0.111 Cl
ENDROOT
TORSDOF 0
ENDMDL
MODEL 5
REMARK VINA RESULT:       1.8      2.061      2.679
REMARK  0 active torsions:
REMARK  status: ('A' for Active; 'I' for Inactive)
ROOT
HETATM    1  C1  UNL     1     -32.689   6.746   0.917  1.00 20.00    -0.029 A 
HETATM    2  C2  UNL     1     -32.328   7.732   1.744  1.00 20.00    -0.023 A 
HETATM    3  C3  UNL     1     -34.482   6.545   3.656  1.00 20.00     0.155 C 
HETATM    4  C4  UNL     1     -33.205   5.526   1.617  1.00 20.00     0.040 A 
HETATM    5  C5  UNL     1     -32.546   7.336   3.157  1.00 20.00     0.050 A 
HETATM    6  C6  UNL     1     -33.192   5.917   3.094  1.00 20.00     0.071 A 
HETATM    7  C7  UNL     1     -33.797   7.922   3.903  1.00 20.00     0.101 C 
HETATM    8  C8  UNL     1     -33.539   8.203   5.383  1.00 20.00     0.042 C 
HETATM    9  O9  UNL     1     -35.603   6.116   3.841  1.00 20.00    -0.295 OA
HETATM   10 CL10 UNL     1     -34.709   9.268   3.140  1.00 20.00    -0.111 Cl
ENDROOT
TORSDOF 0
ENDMDL
MODEL 6
REMARK VINA RESULT:       2.0      2.108      2.755
REMARK  0 active torsions:
REMARK  status: ('A' for Active; 'I' for Inactive)
ROOT
HETATM    1  C1  UNL     1     -32.497   8.837   2.251  1.00 20.00    -0.029 A 
HETATM    2  C2  UNL     1     -32.929   8.271   3.383  1.00 20.00    -0.023 A 
HETATM    3  C3  UNL     1     -33.376   5.740   1.623  1.00 20.00     0.155 C 
HETATM    4  C4  UNL     1     -31.898   7.868   1.279  1.00 20.00     0.040 A 
HETATM    5  C5  UNL     1     -32.691   6.807   3.360  1.00 20.00     0.050 A 
HETATM    6  C6  UNL     1     -32.083   6.509   1.953  1.00 20.00     0.071 A 
HETATM    7  C7  UNL     1     -33.916   5.866   3.079  1.00 20.00     0.101 C 
HETATM    8  C8  UNL     1     -33.853   4.549   3.853  1.00 20.00     0.042 C 
HETATM    9  O9  UNL     1     -33.801   5.227   0.608  1.00 20.00    -0.295 OA
HETATM   10 CL10 UNL     1     -35.571   6.561   3.120  1.00 20.00    -0.111 Cl
ENDROOT
TORSDOF 0
ENDMDL
MODEL 7
REMARK VINA RESULT:       2.1      1.859      2.811
REMARK  0 active torsions:
REMARK  status: ('A' for Active; 'I' for Inactive)
ROOT
HETATM    1  C1  UNL     1     -33.776   4.333   3.909  1.00 20.00    -0.029 A 
HETATM    2  C2  UNL     1     -34.598   5.262   4.406  1.00 20.00    -0.023 A 
HETATM    3  C3  UNL     1     -32.934   7.258   2.688  1.00 20.00     0.155 C 
HETATM    4  C4  UNL     1     -33.233   4.665   2.553  1.00 20.00     0.040 A 
HETATM    5  C5  UNL     1     -34.747   6.391   3.455  1.00 20.00     0.050 A 
HETATM    6  C6  UNL     1     -33.798   6.054   2.262  1.00 20.00     0.071 A 
HETATM    7  C7  UNL     1     -33.966   7.719   3.760  1.00 20.00     0.101 C 
HETATM    8  C8  UNL     1     -34.732   8.976   3.349  1.00 20.00     0.042 C 
HETATM    9  O9  UNL     1     -31.860   7.682   2.315  1.00 20.00    -0.295 OA
HETATM   10 CL10 UNL     1     -33.205   7.926   5.373  1.00 20.00    -0.111 Cl
ENDROOT
TORSDOF 0
ENDMDL
