MODEL 1
REMARK VINA RESULT:       0.4      0.000      0.000
REMARK  0 active torsions:
REMARK  status: ('A' for Active; 'I' for Inactive)
ROOT
HETATM    1  C1  UNL     1     -34.781   5.315   4.064  1.00 20.00     0.100 C 
HETATM    2  C2  UNL     1     -33.216   4.942   2.239  1.00 20.00     0.067 A 
HETATM    3  C3  UNL     1     -33.815   5.821   3.135  1.00 20.00     0.056 A 
HETATM    4  C4  UNL     1     -33.470   7.168   3.117  1.00 20.00    -0.001 A 
HETATM    5  C5  UNL     1     -32.284   5.458   1.352  1.00 20.00     0.129 A 
HETATM    6  C6  UNL     1     -32.527   7.583   2.190  1.00 20.00     0.135 A 
HETATM    7  C7  UNL     1     -34.099   8.135   4.067  1.00 20.00     0.053 C 
HETATM    8  N8  UNL     1     -35.562   4.903   4.816  1.00 20.00    -0.191 NA
HETATM    9  N9  UNL     1     -31.923   6.760   1.304  1.00 20.00    -0.224 NA
HETATM   10 CL10 UNL     1     -31.492   4.449   0.212  1.00 20.00    -0.062 Cl
HETATM   11 CL11 UNL     1     -32.014   9.220   2.065  1.00 20.00    -0.062 Cl
ENDROOT
TORSDOF 0
ENDMDL
MODEL 2
REMARK VINA RESULT:       1.3      2.228      3.369
REMARK  0 active torsions:
REMARK  status: ('A' for Active; 'I' for Inactive)
ROOT
HETATM    1  C1  UNL     1     -32.540   8.880   1.580  1.00 20.00     0.100 C 
HETATM    2  C2  UNL     1     -32.004   6.596   0.937  1.00 20.00     0.067 A 
HETATM    3  C3  UNL     1     -32.665   7.470   1.794  1.00 20.00     0.056 A 
HETATM    4  C4  UNL     1     -33.432   6.965   2.838  1.00 20.00    -0.001 A 
HETATM    5  C5  UNL     1     -32.143   5.236   1.166  1.00 20.00     0.129 A 
HETATM    6  C6  UNL     1     -33.505   5.588   2.981  1.00 20.00     0.135 A 
HETATM    7  C7  UNL     1     -34.151   7.879   3.776  1.00 20.00     0.053 C 
HETATM    8  N8  UNL     1     -32.438  10.023   1.405  1.00 20.00    -0.191 NA
HETATM    9  N9  UNL     1     -32.879   4.708   2.169  1.00 20.00    -0.224 NA
HETATM   10 CL10 UNL     1     -31.366   4.085   0.159  1.00 20.00    -0.062 Cl
HETATM   11 CL11 UNL     1     -34.420   4.838   4.230  1.00 20.00    -0.062 Cl
ENDROOT
TORSDOF 0
ENDMDL
MODEL 3
REMARK VINA RESULT:       1.7      0.940      2.959
REMARK  0 active torsions:
REMARK  status: ('A' for Active; 'I' for Inactive)
ROOT
HETATM    1  C1  UNL     1     -34.801   6.418   3.985  1.00 20.00     0.100 C 
HETATM    2  C2  UNL     1     -33.462   7.874   2.570  1.00 20.00     0.067 A 
HETATM    3  C3  UNL     1     -33.772   6.590   3.003  1.00 20.00     0.056 A 
HETATM    4  C4  UNL     1     -33.086   5.500   2.480  1.00 20.00    -0.001 A 
HETATM    5  C5  UNL     1     -32.464   8.013   1.618  1.00 20.00     0.129 A 
HETATM    6  C6  UNL     1     -32.105   5.745   1.534  1.00 20.00     0.135 A 
HETATM    7  C7  UNL     1     -33.397   4.108   2.929  1.00 20.00     0.053 C 
HETATM    8  N8  UNL     1     -35.635   6.280   4.780  1.00 20.00    -0.191 NA
HETATM    9  N9  UNL     1     -31.775   6.978   1.088  1.00 20.00    -0.224 NA
HETATM   10 CL10 UNL     1     -32.014   9.557   1.023  1.00 20.00    -0.062 Cl
HETATM   11 CL11 UNL     1     -31.184   4.484   0.810  1.00 20.00    -0.062 Cl
ENDROOT
TORSDOF 0
ENDMDL
MODEL 4
REMARK VINA RESULT:       1.7      2.622      3.740
REMARK  0 active torsions:
REMARK  status: ('A' for Active; 'I' for Inactive)
ROOT
HETATM    1  C1  UNL     1     -31.800   5.038   0.796  1.00 20.00     0.100 C 
HETATM    2  C2  UNL     1     -32.022   7.460   0.817  1.00 20.00     0.067 A 
HETATM    3  C3  UNL     1     -32.309   6.231   1.402  1.00 20.00     0.056 A 
HETATM    4  C4  UNL     1     -33.079   6.180   2.558  1.00 20.00    -0.001 A 
HETATM    5  C5  UNL     1     -32.526   8.599   1.424  1.00 20.00     0.129 A 
HETATM    6  C6  UNL     1     -33.536   7.377   3.086  1.00 20.00     0.135 A 
HETATM    7  C7  UNL     1     -33.405   4.873   3.207  1.00 20.00     0.053 C 
HETATM    8  N8  UNL     1     -31.386   4.072   0.304  1.00 20.00    -0.191 NA
HETATM    9  N9  UNL     1     -33.278   8.589   2.548  1.00 20.00    -0.224 NA
HETATM   10 CL10 UNL     1     -32.222  10.158   0.776  1.00 20.00    -0.062 Cl
HETATM   11 CL11 UNL     1     -34.497   7.450   4.512  1.00 20.00    -0.062 Cl
ENDROOT
TORSDOF 0
ENDMDL
MODEL 5
REMARK VINA RESULT:       1.9      2.100      4.670
REMARK  0 active torsions:
REMARK  status: ('A' for Active; 'I' for Inactive)
ROOT
HETATM    1  C1  UNL     1     -31.856   8.226   0.933  1.00 20.00     0.100 C 
HETATM    2  C2  UNL     1     -32.988   8.305   3.085  1.00 20.00     0.067 A 
HETATM    3  C3  UNL     1     -32.555   7.561   1.992  1.00 20.00     0.056 A 
HETATM    4  C4  UNL     1     -32.803   6.194   1.945  1.00 20.00    -0.001 A 
HETATM    5  C5  UNL     1     -33.660   7.638   4.096  1.00 20.00     0.129 A 
HETATM    6  C6  UNL     1     -33.485   5.623   3.008  1.00 20.00     0.135 A 
HETATM    7  C7  UNL     1     -32.351   5.370   0.783  1.00 20.00     0.053 C 
HETATM    8  N8  UNL     1     -31.289   8.764   0.076  1.00 20.00    -0.191 NA
HETATM    9  N9  UNL     1     -33.921   6.312   4.086  1.00 20.00    -0.224 NA
HETATM   10 CL10 UNL     1     -34.230   8.473   5.483  1.00 20.00    -0.062 Cl
HETATM   11 CL11 UNL     1     -33.855   3.944   3.072  1.00 20.00    -0.062 Cl
ENDROOT
TORSDOF 0
ENDMDL
MODEL 6
REMARK VINA RESULT:       2.5      2.368      4.332
REMARK  0 active torsions:
REMARK  status: ('A' for Active; 'I' for Inactive)
ROOT
HETATM    1  C1  UNL     1     -32.759   9.726   1.416  1.00 20.00     0.100 C 
HETATM    2  C2  UNL     1     -33.873   8.038   2.767  1.00 20.00     0.067 A 
HETATM    3  C3  UNL     1     -32.913   8.358   1.813  1.00 20.00     0.056 A 
HETATM    4  C4  UNL     1     -32.123   7.355   1.263  1.00 20.00    -0.001 A 
HETATM    5  C5  UNL     1     -34.001   6.707   3.134  1.00 20.00     0.129 A 
HETATM    6  C6  UNL     1     -32.331   6.056   1.698  1.00 20.00     0.135 A 
HETATM    7  C7  UNL     1     -31.086   7.670   0.234  1.00 20.00     0.053 C 
HETATM    8  N8  UNL     1     -32.634  10.834   1.095  1.00 20.00    -0.191 NA
HETATM    9  N9  UNL     1     -33.252   5.705   2.622  1.00 20.00    -0.224 NA
HETATM   10 CL10 UNL     1     -35.156   6.218   4.305  1.00 20.00    -0.062 Cl
HETATM   11 CL11 UNL     1     -31.421   4.725   1.097  1.00 20.00    -0.062 Cl
ENDROOT
TORSDOF 0
ENDMDL
MODEL 7
REMARK VINA RESULT:       2.6      2.412      3.576
REMARK  0 active torsions:
REMARK  status: ('A' for Active; 'I' for Inactive)
ROOT
HETATM    1  C1  UNL     1     -31.925   4.847   0.770  1.00 20.00     0.100 C 
HETATM    2  C2  UNL     1     -33.542   5.324   2.523  1.00 20.00     0.067 A 
HETATM    3  C3  UNL     1     -32.578   5.785   1.633  1.00 20.00     0.056 A 
HETATM    4  C4  UNL     1     -32.266   7.139   1.593  1.00 20.00    -0.001 A 
HETATM    5  C5  UNL     1     -34.159   6.253   3.347  1.00 20.00     0.129 A 
HETATM    6  C6  UNL     1     -32.940   7.985   2.459  1.00 20.00     0.135 A 
HETATM    7  C7  UNL     1     -31.233   7.662   0.648  1.00 20.00     0.053 C 
HETATM    8  N8  UNL     1     -31.397   4.086   0.070  1.00 20.00    -0.191 NA
HETATM    9  N9  UNL     1     -33.882   7.576   3.337  1.00 20.00    -0.224 NA
HETATM   10 CL10 UNL     1     -35.360   5.776   4.475  1.00 20.00    -0.062 Cl
HETATM   11 CL11 UNL     1     -32.647   9.680   2.508  1.00 20.00    -0.062 Cl
ENDROOT
TORSDOF 0
ENDMDL
MODEL 8
REMARK VINA RESULT:       2.8      1.875      3.288
REMARK  0 active torsions:
REMARK  status: ('A' for Active; 'I' for Inactive)
ROOT
HETATM    1  C1  UNL     1     -33.697   4.131   3.587  1.00 20.00     0.100 C 
HETATM    2  C2  UNL     1     -33.912   6.435   4.336  1.00 20.00     0.067 A 
HETATM    3  C3  UNL     1     -33.474   5.530   3.375  1.00 20.00     0.056 A 
HETATM    4  C4  UNL     1     -32.832   5.993   2.232  1.00 20.00    -0.001 A 
HETATM    5  C5  UNL     1     -33.684   7.783   4.108  1.00 20.00     0.129 A 
HETATM    6  C6  UNL     1     -32.653   7.360   2.099  1.00 20.00     0.135 A 
HETATM    7  C7  UNL     1     -32.350   5.043   1.184  1.00 20.00     0.053 C 
HETATM    8  N8  UNL     1     -33.879   2.998   3.758  1.00 20.00    -0.191 NA
HETATM    9  N9  UNL     1     -33.064   8.270   3.010  1.00 20.00    -0.224 NA
HETATM   10 CL10 UNL     1     -34.190   8.972   5.236  1.00 20.00    -0.062 Cl
HETATM   11 CL11 UNL     1     -31.875   8.060   0.733  1.00 20.00    -0.062 Cl
ENDROOT
TORSDOF 0
ENDMDL
MODEL 9
REMARK VINA RESULT:       3.4      1.829      2.121
REMARK  0 active torsions:
REMARK  status: ('A' for Active; 'I' for Inactive)
ROOT
HETATM    1  C1  UNL     1     -33.613   4.018   3.708  1.00 20.00     0.100 C 
HETATM    2  C2  UNL     1     -32.442   5.622   2.303  1.00 20.00     0.067 A 
HETATM    3  C3  UNL     1     -33.454   5.355   3.219  1.00 20.00     0.056 A 
HETATM    4  C4  UNL     1     -34.289   6.381   3.645  1.00 20.00    -0.001 A 
HETATM    5  C5  UNL     1     -32.310   6.925   1.847  1.00 20.00     0.129 A 
HETATM    6  C6  UNL     1     -34.074   7.649   3.128  1.00 20.00     0.135 A 
HETATM    7  C7  UNL     1     -35.386   6.123   4.627  1.00 20.00     0.053 C 
HETATM    8  N8  UNL     1     -33.740   2.935   4.103  1.00 20.00    -0.191 NA
HETATM    9  N9  UNL     1     -33.102   7.948   2.237  1.00 20.00    -0.224 NA
HETATM   10 CL10 UNL     1     -31.090   7.348   0.718  1.00 20.00    -0.062 Cl
HETATM   11 CL11 UNL     1     -35.036   9.004   3.573  1.00 20.00    -0.062 Cl
ENDROOT
TORSDOF 0
ENDMDL
