MODEL 1
REMARK VINA RESULT:       1.6      0.000      0.000
REMARK  1 active torsions:
REMARK  status: ('A' for Active; 'I' for Inactive)
REMARK    1  A    between atoms: C7_7  and  C11_11 
ROOT
HETATM    1  C1  UNL     1     -33.909   5.625   3.001  1.00 20.00    -0.021 C 
HETATM    2  C2  UNL     1     -33.066   6.254   2.159  1.00 20.00    -0.053 C 
HETATM    3  C3  UNL     1     -34.663   6.371   4.072  1.00 20.00     0.034 C 
HETATM    4  C4  UNL     1     -34.210   8.421   2.735  1.00 20.00     0.050 C 
HETATM    5  C5  UNL     1     -32.845   8.085   4.600  1.00 20.00     0.174 C 
HETATM    6  C6  UNL     1     -34.292   7.868   4.144  1.00 20.00     0.016 C 
HETATM    7  C7  UNL     1     -32.897   7.766   2.290  1.00 20.00     0.087 C 
HETATM    8  C8  UNL     1     -32.251   5.494   1.155  1.00 20.00     0.046 C 
HETATM    9  O12 UNL     1     -32.016   7.975   3.420  1.00 20.00    -0.375 OA
ENDROOT
BRANCH   7  10
HETATM   10  C11 UNL     1     -32.318   8.467   1.066  1.00 20.00     0.016 C 
HETATM   11  C9  UNL     1     -32.863   9.890   0.951  1.00 20.00     0.013 C 
HETATM   12  C10 UNL     1     -30.791   8.481   1.123  1.00 20.00     0.013 C 
ENDBRANCH   7  10
TORSDOF 1
ENDMDL
MODEL 2
REMARK VINA RESULT:       1.8      1.496      3.990
REMARK  1 active torsions:
REMARK  status: ('A' for Active; 'I' for Inactive)
REMARK    1  A    between atoms: C7_7  and  C11_11 
ROOT
HETATM    1  C1  UNL     1     -32.076   8.162   2.660  1.00 20.00    -0.021 C 
HETATM    2  C2  UNL     1     -32.984   7.704   3.544  1.00 20.00    -0.053 C 
HETATM    3  C3  UNL     1     -31.888   7.519   1.311  1.00 20.00     0.034 C 
HETATM    4  C4  UNL     1     -34.155   6.544   1.640  1.00 20.00     0.050 C 
HETATM    5  C5  UNL     1     -32.351   5.116   2.040  1.00 20.00     0.174 C 
HETATM    6  C6  UNL     1     -32.762   6.262   1.111  1.00 20.00     0.016 C 
HETATM    7  C7  UNL     1     -33.856   6.515   3.144  1.00 20.00     0.087 C 
HETATM    8  C8  UNL     1     -33.104   8.290   4.919  1.00 20.00     0.046 C 
HETATM    9  O12 UNL     1     -33.026   5.339   3.300  1.00 20.00    -0.375 OA
ENDROOT
BRANCH   7  10
HETATM   10  C11 UNL     1     -35.134   6.339   3.957  1.00 20.00     0.016 C 
HETATM   11  C9  UNL     1     -36.362   6.651   3.104  1.00 20.00     0.013 C 
HETATM   12  C10 UNL     1     -35.222   4.924   4.526  1.00 20.00     0.013 C 
ENDBRANCH   7  10
TORSDOF 1
ENDMDL
MODEL 3
REMARK VINA RESULT:       2.1      1.402      2.321
REMARK  1 active torsions:
REMARK  status: ('A' for Active; 'I' for Inactive)
REMARK    1  A    between atoms: C7_7  and  C11_11 
ROOT
HETATM    1  C1  UNL     1     -34.562   4.493   4.454  1.00 20.00    -0.021 C 
HETATM    2  C2  UNL     1     -33.454   4.704   3.717  1.00 20.00    -0.053 C 
HETATM    3  C3  UNL     1     -35.668   5.513   4.534  1.00 20.00     0.034 C 
HETATM    4  C4  UNL     1     -34.719   6.467   2.440  1.00 20.00     0.050 C 
HETATM    5  C5  UNL     1     -34.189   7.591   4.417  1.00 20.00     0.174 C 
HETATM    6  C6  UNL     1     -35.345   6.819   3.775  1.00 20.00     0.016 C 
HETATM    7  C7  UNL     1     -33.340   6.008   2.929  1.00 20.00     0.087 C 
HETATM    8  C8  UNL     1     -32.317   3.726   3.714  1.00 20.00     0.046 C 
HETATM    9  O12 UNL     1     -32.966   7.026   3.889  1.00 20.00    -0.375 OA
ENDROOT
BRANCH   7  10
HETATM   10  C11 UNL     1     -32.326   5.996   1.790  1.00 20.00     0.016 C 
HETATM   11  C9  UNL     1     -32.921   5.338   0.546  1.00 20.00     0.013 C 
HETATM   12  C10 UNL     1     -31.853   7.413   1.473  1.00 20.00     0.013 C 
ENDBRANCH   7  10
TORSDOF 1
ENDMDL
MODEL 4
REMARK VINA RESULT:       2.7      1.439      3.025
REMARK  1 active torsions:
REMARK  status: ('A' for Active; 'I' for Inactive)
REMARK    1  A    between atoms: C7_7  and  C11_11 
ROOT
HETATM    1  C1  UNL     1     -33.849   5.288   3.519  1.00 20.00    -0.021 C 
HETATM    2  C2  UNL     1     -33.717   6.597   3.225  1.00 20.00    -0.053 C 
HETATM    3  C3  UNL     1     -33.216   4.216   2.670  1.00 20.00     0.034 C 
HETATM    4  C4  UNL     1     -31.718   6.009   1.811  1.00 20.00     0.050 C 
HETATM    5  C5  UNL     1     -33.491   5.394   0.421  1.00 20.00     0.174 C 
HETATM    6  C6  UNL     1     -32.506   4.775   1.417  1.00 20.00     0.016 C 
HETATM    7  C7  UNL     1     -32.880   6.990   2.008  1.00 20.00     0.087 C 
HETATM    8  C8  UNL     1     -34.422   7.654   4.020  1.00 20.00     0.046 C 
HETATM    9  O12 UNL     1     -33.720   6.755   0.852  1.00 20.00    -0.375 OA
ENDROOT
BRANCH   7  10
HETATM   10  C11 UNL     1     -32.392   8.434   1.991  1.00 20.00     0.016 C 
HETATM   11  C9  UNL     1     -31.091   8.573   2.779  1.00 20.00     0.013 C 
HETATM   12  C10 UNL     1     -32.204   8.923   0.555  1.00 20.00     0.013 C 
ENDBRANCH   7  10
TORSDOF 1
ENDMDL
MODEL 5
REMARK VINA RESULT:       2.7      1.382      4.141
REMARK  1 active torsions:
REMARK  status: ('A' for Active; 'I' for Inactive)
REMARK    1  A    between atoms: C7_7  and  C11_11 
ROOT
HETATM    1  C1  UNL     1     -32.337   8.231   2.588  1.00 20.00    -0.021 C 
HETATM    2  C2  UNL     1     -33.094   7.404   3.336  1.00 20.00    -0.053 C 
HETATM    3  C3  UNL     1     -31.868   7.847   1.209  1.00 20.00     0.034 C 
HETATM    4  C4  UNL     1     -33.701   6.163   1.231  1.00 20.00     0.050 C 
HETATM    5  C5  UNL     1     -31.554   5.354   1.667  1.00 20.00     0.174 C 
HETATM    6  C6  UNL     1     -32.265   6.408   0.812  1.00 20.00     0.016 C 
HETATM    7  C7  UNL     1     -33.499   6.054   2.747  1.00 20.00     0.087 C 
HETATM    8  C8  UNL     1     -33.482   7.754   4.741  1.00 20.00     0.046 C 
HETATM    9  O12 UNL     1     -32.337   5.198   2.872  1.00 20.00    -0.375 OA
ENDROOT
BRANCH   7  10
HETATM   10  C11 UNL     1     -34.693   5.381   3.416  1.00 20.00     0.016 C 
HETATM   11  C9  UNL     1     -34.226   4.309   4.399  1.00 20.00     0.013 C 
HETATM   12  C10 UNL     1     -35.567   6.415   4.125  1.00 20.00     0.013 C 
ENDBRANCH   7  10
TORSDOF 1
ENDMDL
MODEL 6
REMARK VINA RESULT:       2.8      1.522      3.729
REMARK  1 active torsions:
REMARK  status: ('A' for Active; 'I' for Inactive)
REMARK    1  A    between atoms: C7_7  and  C11_11 
ROOT
HETATM    1  C1  UNL     1     -32.219   7.231   1.794  1.00 20.00    -0.021 C 
HETATM    2  C2  UNL     1     -33.036   6.178   1.999  1.00 20.00    -0.053 C 
HETATM    3  C3  UNL     1     -32.116   8.360   2.787  1.00 20.00     0.034 C 
HETATM    4  C4  UNL     1     -33.081   6.774   4.446  1.00 20.00     0.050 C 
HETATM    5  C5  UNL     1     -34.556   8.341   3.540  1.00 20.00     0.174 C 
HETATM    6  C6  UNL     1     -33.092   8.215   3.974  1.00 20.00     0.016 C 
HETATM    7  C7  UNL     1     -33.855   6.131   3.288  1.00 20.00     0.087 C 
HETATM    8  C8  UNL     1     -33.202   5.103   0.968  1.00 20.00     0.046 C 
HETATM    9  O12 UNL     1     -34.971   7.032   3.087  1.00 20.00    -0.375 OA
ENDROOT
BRANCH   7  10
HETATM   10  C11 UNL     1     -34.383   4.754   3.676  1.00 20.00     0.016 C 
HETATM   11  C9  UNL     1     -33.253   3.871   4.200  1.00 20.00     0.013 C 
HETATM   12  C10 UNL     1     -35.495   4.877   4.717  1.00 20.00     0.013 C 
ENDBRANCH   7  10
TORSDOF 1
ENDMDL
MODEL 7
REMARK VINA RESULT:       3.0      1.335      3.150
REMARK  1 active torsions:
REMARK  status: ('A' for Active; 'I' for Inactive)
REMARK    1  A    between atoms: C7_7  and  C11_11 
ROOT
HETATM    1  C1  UNL     1     -32.961   8.260   3.741  1.00 20.00    -0.021 C 
HETATM    2  C2  UNL     1     -32.703   7.735   2.527  1.00 20.00    -0.053 C 
HETATM    3  C3  UNL     1     -33.864   7.568   4.729  1.00 20.00     0.034 C 
HETATM    4  C4  UNL     1     -33.454   5.499   3.408  1.00 20.00     0.050 C 
HETATM    5  C5  UNL     1     -35.490   6.577   3.028  1.00 20.00     0.174 C 
HETATM    6  C6  UNL     1     -34.508   6.283   4.166  1.00 20.00     0.016 C 
HETATM    7  C7  UNL     1     -33.332   6.390   2.166  1.00 20.00     0.087 C 
HETATM    8  C8  UNL     1     -31.877   8.470   1.514  1.00 20.00     0.046 C 
HETATM    9  O12 UNL     1     -34.708   6.672   1.815  1.00 20.00    -0.375 OA
ENDROOT
BRANCH   7  10
HETATM   10  C11 UNL     1     -32.663   5.645   1.016  1.00 20.00     0.016 C 
HETATM   11  C9  UNL     1     -31.531   4.759   1.533  1.00 20.00     0.013 C 
HETATM   12  C10 UNL     1     -33.686   4.811   0.245  1.00 20.00     0.013 C 
ENDBRANCH   7  10
TORSDOF 1
ENDMDL
MODEL 8
REMARK VINA RESULT:       3.3      1.378      3.022
REMARK  1 active torsions:
REMARK  status: ('A' for Active; 'I' for Inactive)
REMARK    1  A    between atoms: C7_7  and  C11_11 
ROOT
HETATM    1  C1  UNL     1     -34.038   6.721   3.794  1.00 20.00    -0.021 C 
HETATM    2  C2  UNL     1     -33.639   5.631   3.108  1.00 20.00    -0.053 C 
HETATM    3  C3  UNL     1     -33.817   8.115   3.267  1.00 20.00     0.034 C 
HETATM    4  C4  UNL     1     -33.550   7.053   1.031  1.00 20.00     0.050 C 
HETATM    5  C5  UNL     1     -31.579   7.667   2.122  1.00 20.00     0.174 C 
HETATM    6  C6  UNL     1     -33.023   8.144   1.942  1.00 20.00     0.016 C 
HETATM    7  C7  UNL     1     -32.967   5.830   1.750  1.00 20.00     0.087 C 
HETATM    8  C8  UNL     1     -33.780   4.252   3.678  1.00 20.00     0.046 C 
HETATM    9  O12 UNL     1     -31.602   6.224   2.032  1.00 20.00    -0.375 OA
ENDROOT
BRANCH   7  10
HETATM   10  C11 UNL     1     -32.959   4.606   0.841  1.00 20.00     0.016 C 
HETATM   11  C9  UNL     1     -33.973   4.770  -0.291  1.00 20.00     0.013 C 
HETATM   12  C10 UNL     1     -31.561   4.362   0.276  1.00 20.00     0.013 C 
ENDBRANCH   7  10
TORSDOF 1
ENDMDL
MODEL 9
REMARK VINA RESULT:       4.3      1.133      3.418
REMARK  1 active torsions:
REMARK  status: ('A' for Active; 'I' for Inactive)
REMARK    1  A    between atoms: C7_7  and  C11_11 
ROOT
HETATM    1  C1  UNL     1     -31.816   6.285   0.970  1.00 20.00    -0.021 C 
HETATM    2  C2  UNL     1     -32.745   6.183   1.941  1.00 20.00    -0.053 C 
HETATM    3  C3  UNL     1     -31.079   7.573   0.710  1.00 20.00     0.034 C 
HETATM    4  C4  UNL     1     -31.758   8.237   3.011  1.00 20.00     0.050 C 
HETATM    5  C5  UNL     1     -33.005   9.155   1.263  1.00 20.00     0.174 C 
HETATM    6  C6  UNL     1     -31.568   8.741   1.593  1.00 20.00     0.016 C 
HETATM    7  C7  UNL     1     -33.032   7.408   2.808  1.00 20.00     0.087 C 
HETATM    8  C8  UNL     1     -33.539   4.926   2.136  1.00 20.00     0.046 C 
HETATM    9  O12 UNL     1     -33.875   8.274   2.011  1.00 20.00    -0.375 OA
ENDROOT
BRANCH   7  10
HETATM   10  C11 UNL     1     -33.721   7.120   4.137  1.00 20.00     0.016 C 
HETATM   11  C9  UNL     1     -33.556   8.298   5.096  1.00 20.00     0.013 C 
HETATM   12  C10 UNL     1     -35.200   6.807   3.922  1.00 20.00     0.013 C 
ENDBRANCH   7  10
TORSDOF 1
ENDMDL
