MODEL 1
REMARK VINA RESULT:      -0.2      0.000      0.000
REMARK  1 active torsions:
REMARK  status: ('A' for Active; 'I' for Inactive)
REMARK    1  A    between atoms: C7_7  and  C10_10 
ROOT
HETATM    1  C1  UNL     1     -31.421   7.198   1.382  1.00 20.00    -0.004 C 
HETATM    2  C2  UNL     1     -32.026   5.886   1.368  1.00 20.00    -0.004 C 
HETATM    3  C3  UNL     1     -31.986   8.354   1.757  1.00 20.00    -0.019 C 
HETATM    4  C4  UNL     1     -33.096   5.426   2.036  1.00 20.00    -0.014 C 
HETATM    5  C5  UNL     1     -33.534   7.500   3.425  1.00 20.00     0.138 C 
HETATM    6  C6  UNL     1     -33.357   8.516   2.320  1.00 20.00     0.106 C 
HETATM    7  C7  UNL     1     -34.018   6.112   3.011  1.00 20.00     0.081 C 
HETATM    8  O11 UNL     1     -33.265   7.790   4.592  1.00 20.00    -0.297 OA
ENDROOT
BRANCH   7   9
HETATM    9  C10 UNL     1     -34.229   5.229   4.242  1.00 20.00    -0.008 C 
HETATM   10  C8  UNL     1     -35.699   5.222   4.649  1.00 20.00     0.010 C 
HETATM   11  C9  UNL     1     -33.738   3.810   3.970  1.00 20.00     0.010 C 
ENDBRANCH   7   9
TORSDOF 1
ENDMDL
MODEL 2
REMARK VINA RESULT:       0.1      1.488      2.532
REMARK  1 active torsions:
REMARK  status: ('A' for Active; 'I' for Inactive)
REMARK    1  A    between atoms: C7_7  and  C10_10 
ROOT
HETATM    1  C1  UNL     1     -32.738   8.898   1.859  1.00 20.00    -0.004 C 
HETATM    2  C2  UNL     1     -33.288   8.579   3.155  1.00 20.00    -0.004 C 
HETATM    3  C3  UNL     1     -31.942   8.132   1.098  1.00 20.00    -0.019 C 
HETATM    4  C4  UNL     1     -33.472   7.386   3.741  1.00 20.00    -0.014 C 
HETATM    5  C5  UNL     1     -32.747   5.944   1.787  1.00 20.00     0.138 C 
HETATM    6  C6  UNL     1     -31.518   6.737   1.406  1.00 20.00     0.106 C 
HETATM    7  C7  UNL     1     -33.168   5.993   3.254  1.00 20.00     0.081 C 
HETATM    8  O11 UNL     1     -33.382   5.323   0.933  1.00 20.00    -0.297 OA
ENDROOT
BRANCH   7   9
HETATM    9  C10 UNL     1     -34.371   5.079   3.497  1.00 20.00    -0.008 C 
HETATM   10  C8  UNL     1     -33.952   3.845   4.290  1.00 20.00     0.010 C 
HETATM   11  C9  UNL     1     -35.477   5.837   4.224  1.00 20.00     0.010 C 
ENDBRANCH   7   9
TORSDOF 1
ENDMDL
MODEL 3
REMARK VINA RESULT:       0.2      1.612      3.187
REMARK  1 active torsions:
REMARK  status: ('A' for Active; 'I' for Inactive)
REMARK    1  A    between atoms: C7_7  and  C10_10 
ROOT
HETATM    1  C1  UNL     1     -32.732   8.269   4.127  1.00 20.00    -0.004 C 
HETATM    2  C2  UNL     1     -32.214   8.157   2.784  1.00 20.00    -0.004 C 
HETATM    3  C3  UNL     1     -33.879   7.766   4.605  1.00 20.00    -0.019 C 
HETATM    4  C4  UNL     1     -32.506   7.268   1.822  1.00 20.00    -0.014 C 
HETATM    5  C5  UNL     1     -34.052   5.797   3.189  1.00 20.00     0.138 C 
HETATM    6  C6  UNL     1     -34.837   6.905   3.854  1.00 20.00     0.106 C 
HETATM    7  C7  UNL     1     -33.462   6.103   1.814  1.00 20.00     0.081 C 
HETATM    8  O11 UNL     1     -33.881   4.719   3.761  1.00 20.00    -0.297 OA
ENDROOT
BRANCH   7   9
HETATM    9  C10 UNL     1     -32.773   4.864   1.239  1.00 20.00    -0.008 C 
HETATM   10  C8  UNL     1     -33.436   4.444  -0.070  1.00 20.00     0.010 C 
HETATM   11  C9  UNL     1     -31.286   5.130   1.030  1.00 20.00     0.010 C 
ENDBRANCH   7   9
TORSDOF 1
ENDMDL
MODEL 4
REMARK VINA RESULT:       0.6      1.593      3.426
REMARK  1 active torsions:
REMARK  status: ('A' for Active; 'I' for Inactive)
REMARK    1  A    between atoms: C7_7  and  C10_10 
ROOT
HETATM    1  C1  UNL     1     -34.695   7.268   4.107  1.00 20.00    -0.004 C 
HETATM    2  C2  UNL     1     -34.549   5.910   3.638  1.00 20.00    -0.004 C 
HETATM    3  C3  UNL     1     -33.753   8.220   4.160  1.00 20.00    -0.019 C 
HETATM    4  C4  UNL     1     -33.622   5.376   2.826  1.00 20.00    -0.014 C 
HETATM    5  C5  UNL     1     -32.401   7.524   2.263  1.00 20.00     0.138 C 
HETATM    6  C6  UNL     1     -32.354   8.094   3.662  1.00 20.00     0.106 C 
HETATM    7  C7  UNL     1     -32.435   6.002   2.142  1.00 20.00     0.081 C 
HETATM    8  O11 UNL     1     -32.443   8.271   1.283  1.00 20.00    -0.297 OA
ENDROOT
BRANCH   7   9
HETATM    9  C10 UNL     1     -32.396   5.581   0.671  1.00 20.00    -0.008 C 
HETATM   10  C8  UNL     1     -31.407   4.436   0.470  1.00 20.00     0.010 C 
HETATM   11  C9  UNL     1     -33.789   5.181   0.195  1.00 20.00     0.010 C 
ENDBRANCH   7   9
TORSDOF 1
ENDMDL
MODEL 5
REMARK VINA RESULT:       0.7      1.564      4.258
REMARK  1 active torsions:
REMARK  status: ('A' for Active; 'I' for Inactive)
REMARK    1  A    between atoms: C7_7  and  C10_10 
ROOT
HETATM    1  C1  UNL     1     -34.248   5.647   4.231  1.00 20.00    -0.004 C 
HETATM    2  C2  UNL     1     -34.311   7.067   3.976  1.00 20.00    -0.004 C 
HETATM    3  C3  UNL     1     -34.039   4.666   3.341  1.00 20.00    -0.019 C 
HETATM    4  C4  UNL     1     -33.832   7.777   2.944  1.00 20.00    -0.014 C 
HETATM    5  C5  UNL     1     -32.647   5.876   1.758  1.00 20.00     0.138 C 
HETATM    6  C6  UNL     1     -33.747   4.848   1.891  1.00 20.00     0.106 C 
HETATM    7  C7  UNL     1     -33.077   7.341   1.714  1.00 20.00     0.081 C 
HETATM    8  O11 UNL     1     -31.465   5.529   1.721  1.00 20.00    -0.297 OA
ENDROOT
BRANCH   7   9
HETATM    9  C10 UNL     1     -31.866   8.249   1.494  1.00 20.00    -0.008 C 
HETATM   10  C8  UNL     1     -32.241   9.434   0.609  1.00 20.00     0.010 C 
HETATM   11  C9  UNL     1     -31.309   8.728   2.831  1.00 20.00     0.010 C 
ENDBRANCH   7   9
TORSDOF 1
ENDMDL
MODEL 6
REMARK VINA RESULT:       2.2      1.445      4.065
REMARK  1 active torsions:
REMARK  status: ('A' for Active; 'I' for Inactive)
REMARK    1  A    between atoms: C7_7  and  C10_10 
ROOT
HETATM    1  C1  UNL     1     -33.863   5.478   2.811  1.00 20.00    -0.004 C 
HETATM    2  C2  UNL     1     -32.833   5.643   1.813  1.00 20.00    -0.004 C 
HETATM    3  C3  UNL     1     -34.151   6.299   3.832  1.00 20.00    -0.019 C 
HETATM    4  C4  UNL     1     -32.189   6.753   1.418  1.00 20.00    -0.014 C 
HETATM    5  C5  UNL     1     -33.498   8.410   2.819  1.00 20.00     0.138 C 
HETATM    6  C6  UNL     1     -33.507   7.615   4.104  1.00 20.00     0.106 C 
HETATM    7  C7  UNL     1     -32.317   8.182   1.878  1.00 20.00     0.081 C 
HETATM    8  O11 UNL     1     -34.426   9.175   2.549  1.00 20.00    -0.297 OA
ENDROOT
BRANCH   7   9
HETATM    9  C10 UNL     1     -32.408   9.115   0.669  1.00 20.00    -0.008 C 
HETATM   10  C8  UNL     1     -32.531  10.567   1.122  1.00 20.00     0.010 C 
HETATM   11  C9  UNL     1     -31.193   8.934  -0.236  1.00 20.00     0.010 C 
ENDBRANCH   7   9
TORSDOF 1
ENDMDL
MODEL 7
REMARK VINA RESULT:       2.6      1.537      4.202
REMARK  1 active torsions:
REMARK  status: ('A' for Active; 'I' for Inactive)
REMARK    1  A    between atoms: C7_7  and  C10_10 
ROOT
HETATM    1  C1  UNL     1     -34.159   5.278   4.109  1.00 20.00    -0.004 C 
HETATM    2  C2  UNL     1     -34.506   6.680   4.117  1.00 20.00    -0.004 C 
HETATM    3  C3  UNL     1     -33.782   4.536   3.058  1.00 20.00    -0.019 C 
HETATM    4  C4  UNL     1     -34.197   7.646   3.238  1.00 20.00    -0.014 C 
HETATM    5  C5  UNL     1     -32.690   6.263   1.743  1.00 20.00     0.138 C 
HETATM    6  C6  UNL     1     -33.563   5.032   1.670  1.00 20.00     0.106 C 
HETATM    7  C7  UNL     1     -33.399   7.597   1.961  1.00 20.00     0.081 C 
HETATM    8  O11 UNL     1     -31.464   6.167   1.660  1.00 20.00    -0.297 OA
ENDROOT
BRANCH   7   9
HETATM    9  C10 UNL     1     -32.394   8.751   1.927  1.00 20.00    -0.008 C 
HETATM   10  C8  UNL     1     -31.161   8.409   2.756  1.00 20.00     0.010 C 
HETATM   11  C9  UNL     1     -32.005   9.075   0.488  1.00 20.00     0.010 C 
ENDBRANCH   7   9
TORSDOF 1
ENDMDL
MODEL 8
REMARK VINA RESULT:       2.6      1.496      2.392
REMARK  1 active torsions:
REMARK  status: ('A' for Active; 'I' for Inactive)
REMARK    1  A    between atoms: C7_7  and  C10_10 
ROOT
HETATM    1  C1  UNL     1     -31.979   8.456   1.460  1.00 20.00    -0.004 C 
HETATM    2  C2  UNL     1     -32.447   8.771   2.790  1.00 20.00    -0.004 C 
HETATM    3  C3  UNL     1     -31.677   7.248   0.965  1.00 20.00    -0.019 C 
HETATM    4  C4  UNL     1     -33.037   7.983   3.702  1.00 20.00    -0.014 C 
HETATM    5  C5  UNL     1     -33.228   5.903   2.267  1.00 20.00     0.138 C 
HETATM    6  C6  UNL     1     -31.838   5.947   1.674  1.00 20.00     0.106 C 
HETATM    7  C7  UNL     1     -33.404   6.523   3.652  1.00 20.00     0.081 C 
HETATM    8  O11 UNL     1     -34.165   5.416   1.632  1.00 20.00    -0.297 OA
ENDROOT
BRANCH   7   9
HETATM    9  C10 UNL     1     -34.838   6.326   4.148  1.00 20.00    -0.008 C 
HETATM   10  C8  UNL     1     -35.835   6.877   3.133  1.00 20.00     0.010 C 
HETATM   11  C9  UNL     1     -35.108   4.850   4.424  1.00 20.00     0.010 C 
ENDBRANCH   7   9
TORSDOF 1
ENDMDL
