MODEL 1
REMARK VINA RESULT:       1.7      0.000      0.000
REMARK  0 active torsions:
REMARK  status: ('A' for Active; 'I' for Inactive)
ROOT
HETATM    1  C1  UNL     1     -35.519   5.255   4.658  1.00 20.00     0.001 C 
HETATM    2  C2  UNL     1     -34.271   4.374   4.686  1.00 20.00     0.001 C 
HETATM    3  C3  UNL     1     -32.258   6.676   1.202  1.00 20.00     0.004 C 
HETATM    4  C4  UNL     1     -31.787   7.976   1.848  1.00 20.00     0.034 C 
HETATM    5  C5  UNL     1     -35.448   6.042   3.353  1.00 20.00     0.012 C 
HETATM    6  C6  UNL     1     -33.446   4.752   3.456  1.00 20.00     0.012 C 
HETATM    7  C7  UNL     1     -33.726   6.393   1.522  1.00 20.00     0.012 C 
HETATM    8  C8  UNL     1     -32.190   8.080   3.283  1.00 20.00     0.152 A 
HETATM    9  C9  UNL     1     -33.280   7.218   3.868  1.00 20.00     0.159 A 
HETATM   10  C10 UNL     1     -33.949   6.146   3.030  1.00 20.00    -0.012 C 
HETATM   11  O11 UNL     1     -33.534   8.566   3.463  1.00 20.00    -0.375 OA
ENDROOT
TORSDOF 0
ENDMDL
MODEL 2
REMARK VINA RESULT:       2.0      1.010      3.697
REMARK  0 active torsions:
REMARK  status: ('A' for Active; 'I' for Inactive)
ROOT
HETATM    1  C1  UNL     1     -32.008   8.311   1.461  1.00 20.00     0.001 C 
HETATM    2  C2  UNL     1     -32.800   7.481   0.453  1.00 20.00     0.001 C 
HETATM    3  C3  UNL     1     -34.081   4.367   3.639  1.00 20.00     0.004 C 
HETATM    4  C4  UNL     1     -35.166   5.085   4.435  1.00 20.00     0.034 C 
HETATM    5  C5  UNL     1     -31.869   7.439   2.705  1.00 20.00     0.012 C 
HETATM    6  C6  UNL     1     -33.203   6.194   1.172  1.00 20.00     0.012 C 
HETATM    7  C7  UNL     1     -32.825   5.229   3.504  1.00 20.00     0.012 C 
HETATM    8  C8  UNL     1     -35.368   6.495   3.984  1.00 20.00     0.152 A 
HETATM    9  C9  UNL     1     -34.338   7.221   3.156  1.00 20.00     0.159 A 
HETATM   10  C10 UNL     1     -33.089   6.506   2.678  1.00 20.00    -0.012 C 
HETATM   11  O11 UNL     1     -34.432   7.420   4.569  1.00 20.00    -0.375 OA
ENDROOT
TORSDOF 0
ENDMDL
MODEL 3
REMARK VINA RESULT:       2.2      1.389      2.352
REMARK  0 active torsions:
REMARK  status: ('A' for Active; 'I' for Inactive)
ROOT
HETATM    1  C1  UNL     1     -34.875   4.760   4.312  1.00 20.00     0.001 C 
HETATM    2  C2  UNL     1     -35.809   5.886   3.871  1.00 20.00     0.001 C 
HETATM    3  C3  UNL     1     -32.306   8.620   2.553  1.00 20.00     0.004 C 
HETATM    4  C4  UNL     1     -31.843   8.009   1.234  1.00 20.00     0.034 C 
HETATM    5  C5  UNL     1     -33.477   5.369   4.358  1.00 20.00     0.012 C 
HETATM    6  C6  UNL     1     -34.920   7.090   3.560  1.00 20.00     0.012 C 
HETATM    7  C7  UNL     1     -32.414   7.561   3.651  1.00 20.00     0.012 C 
HETATM    8  C8  UNL     1     -32.589   6.762   0.888  1.00 20.00     0.152 A 
HETATM    9  C9  UNL     1     -33.376   5.994   1.920  1.00 20.00     0.159 A 
HETATM   10  C10 UNL     1     -33.506   6.516   3.337  1.00 20.00    -0.012 C 
HETATM   11  O11 UNL     1     -32.061   5.586   1.531  1.00 20.00    -0.375 OA
ENDROOT
TORSDOF 0
ENDMDL
MODEL 4
REMARK VINA RESULT:       2.2      1.513      3.915
REMARK  0 active torsions:
REMARK  status: ('A' for Active; 'I' for Inactive)
ROOT
HETATM    1  C1  UNL     1     -31.874   7.862   1.598  1.00 20.00     0.001 C 
HETATM    2  C2  UNL     1     -31.720   8.338   3.041  1.00 20.00     0.001 C 
HETATM    3  C3  UNL     1     -35.487   6.045   4.469  1.00 20.00     0.004 C 
HETATM    4  C4  UNL     1     -35.028   4.591   4.526  1.00 20.00     0.034 C 
HETATM    5  C5  UNL     1     -33.277   7.269   1.499  1.00 20.00     0.012 C 
HETATM    6  C6  UNL     1     -32.988   7.909   3.777  1.00 20.00     0.012 C 
HETATM    7  C7  UNL     1     -35.134   6.689   3.127  1.00 20.00     0.012 C 
HETATM    8  C8  UNL     1     -33.623   4.415   4.050  1.00 20.00     0.152 A 
HETATM    9  C9  UNL     1     -32.926   5.466   3.223  1.00 20.00     0.159 A 
HETATM   10  C10 UNL     1     -33.607   6.786   2.920  1.00 20.00    -0.012 C 
HETATM   11  O11 UNL     1     -33.517   4.313   2.617  1.00 20.00    -0.375 OA
ENDROOT
TORSDOF 0
ENDMDL
MODEL 5
REMARK VINA RESULT:       2.3      1.371      4.040
REMARK  0 active torsions:
REMARK  status: ('A' for Active; 'I' for Inactive)
ROOT
HETATM    1  C1  UNL     1     -31.468   9.649   0.929  1.00 20.00     0.001 C 
HETATM    2  C2  UNL     1     -32.694   9.368   0.063  1.00 20.00     0.001 C 
HETATM    3  C3  UNL     1     -33.544   5.310   2.137  1.00 20.00     0.004 C 
HETATM    4  C4  UNL     1     -34.145   5.708   3.482  1.00 20.00     0.034 C 
HETATM    5  C5  UNL     1     -31.135   8.333   1.625  1.00 20.00     0.012 C 
HETATM    6  C6  UNL     1     -33.116   7.930   0.362  1.00 20.00     0.012 C 
HETATM    7  C7  UNL     1     -32.240   6.062   1.864  1.00 20.00     0.012 C 
HETATM    8  C8  UNL     1     -34.173   7.188   3.681  1.00 20.00     0.152 A 
HETATM    9  C9  UNL     1     -33.325   8.119   2.852  1.00 20.00     0.159 A 
HETATM   10  C10 UNL     1     -32.472   7.582   1.719  1.00 20.00    -0.012 C 
HETATM   11  O11 UNL     1     -32.926   7.721   4.167  1.00 20.00    -0.375 OA
ENDROOT
TORSDOF 0
ENDMDL
MODEL 6
REMARK VINA RESULT:       2.7      1.491      3.056
REMARK  0 active torsions:
REMARK  status: ('A' for Active; 'I' for Inactive)
ROOT
HETATM    1  C1  UNL     1     -33.254   4.729   0.186  1.00 20.00     0.001 C 
HETATM    2  C2  UNL     1     -31.976   4.476   0.984  1.00 20.00     0.001 C 
HETATM    3  C3  UNL     1     -32.451   8.364   3.463  1.00 20.00     0.004 C 
HETATM    4  C4  UNL     1     -33.559   8.029   4.457  1.00 20.00     0.034 C 
HETATM    5  C5  UNL     1     -33.639   6.180   0.460  1.00 20.00     0.012 C 
HETATM    6  C6  UNL     1     -31.711   5.746   1.793  1.00 20.00     0.012 C 
HETATM    7  C7  UNL     1     -32.859   8.012   2.032  1.00 20.00     0.012 C 
HETATM    8  C8  UNL     1     -34.129   6.665   4.241  1.00 20.00     0.152 A 
HETATM    9  C9  UNL     1     -33.928   5.915   2.948  1.00 20.00     0.159 A 
HETATM   10  C10 UNL     1     -33.059   6.492   1.848  1.00 20.00    -0.012 C 
HETATM   11  O11 UNL     1     -35.140   6.626   3.216  1.00 20.00    -0.375 OA
ENDROOT
TORSDOF 0
ENDMDL
MODEL 7
REMARK VINA RESULT:       2.9      1.622      4.043
REMARK  0 active torsions:
REMARK  status: ('A' for Active; 'I' for Inactive)
ROOT
HETATM    1  C1  UNL     1     -31.530   8.777   0.940  1.00 20.00     0.001 C 
HETATM    2  C2  UNL     1     -30.902   8.733   2.332  1.00 20.00     0.001 C 
HETATM    3  C3  UNL     1     -34.570   6.597   4.195  1.00 20.00     0.004 C 
HETATM    4  C4  UNL     1     -34.442   5.157   3.704  1.00 20.00     0.034 C 
HETATM    5  C5  UNL     1     -33.003   8.432   1.133  1.00 20.00     0.012 C 
HETATM    6  C6  UNL     1     -31.996   8.251   3.285  1.00 20.00     0.012 C 
HETATM    7  C7  UNL     1     -34.449   7.593   3.041  1.00 20.00     0.012 C 
HETATM    8  C8  UNL     1     -33.284   4.970   2.779  1.00 20.00     0.152 A 
HETATM    9  C9  UNL     1     -32.616   6.136   2.095  1.00 20.00     0.159 A 
HETATM   10  C10 UNL     1     -33.047   7.558   2.395  1.00 20.00    -0.012 C 
HETATM   11  O11 UNL     1     -33.582   5.328   1.416  1.00 20.00    -0.375 OA
ENDROOT
TORSDOF 0
ENDMDL
MODEL 8
REMARK VINA RESULT:       3.6      1.631      3.332
REMARK  0 active torsions:
REMARK  status: ('A' for Active; 'I' for Inactive)
ROOT
HETATM    1  C1  UNL     1     -31.595   4.525   0.334  1.00 20.00     0.001 C 
HETATM    2  C2  UNL     1     -33.015   4.719  -0.194  1.00 20.00     0.001 C 
HETATM    3  C3  UNL     1     -34.469   6.728   3.722  1.00 20.00     0.004 C 
HETATM    4  C4  UNL     1     -33.872   8.131   3.655  1.00 20.00     0.034 C 
HETATM    5  C5  UNL     1     -31.667   4.779   1.836  1.00 20.00     0.012 C 
HETATM    6  C6  UNL     1     -33.856   5.194   0.990  1.00 20.00     0.012 C 
HETATM    7  C7  UNL     1     -33.408   5.658   3.459  1.00 20.00     0.012 C 
HETATM    8  C8  UNL     1     -33.008   8.328   2.452  1.00 20.00     0.152 A 
HETATM    9  C9  UNL     1     -32.463   7.164   1.665  1.00 20.00     0.159 A 
HETATM   10  C10 UNL     1     -32.850   5.742   2.022  1.00 20.00    -0.012 C 
HETATM   11  O11 UNL     1     -31.662   7.847   2.633  1.00 20.00    -0.375 OA
ENDROOT
TORSDOF 0
ENDMDL
MODEL 9
REMARK VINA RESULT:       4.6      2.528      3.928
REMARK  0 active torsions:
REMARK  status: ('A' for Active; 'I' for Inactive)
ROOT
HETATM    1  C1  UNL     1     -31.801   5.555   1.422  1.00 20.00     0.001 C 
HETATM    2  C2  UNL     1     -33.284   5.789   1.702  1.00 20.00     0.001 C 
HETATM    3  C3  UNL     1     -32.792  10.397   1.831  1.00 20.00     0.004 C 
HETATM    4  C4  UNL     1     -32.643  10.788   0.363  1.00 20.00     0.034 C 
HETATM    5  C5  UNL     1     -31.106   6.884   1.702  1.00 20.00     0.012 C 
HETATM    6  C6  UNL     1     -33.435   7.276   2.025  1.00 20.00     0.012 C 
HETATM    7  C7  UNL     1     -31.840   9.260   2.204  1.00 20.00     0.012 C 
HETATM    8  C8  UNL     1     -32.628   9.603  -0.546  1.00 20.00     0.152 A 
HETATM    9  C9  UNL     1     -32.358   8.211  -0.035  1.00 20.00     0.159 A 
HETATM   10  C10 UNL     1     -32.177   7.956   1.449  1.00 20.00    -0.012 C 
HETATM   11  O11 UNL     1     -31.331   8.987  -0.658  1.00 20.00    -0.375 OA
ENDROOT
TORSDOF 0
ENDMDL
