MODEL 1
REMARK VINA RESULT:      -0.1      0.000      0.000
REMARK  1 active torsions:
REMARK  status: ('A' for Active; 'I' for Inactive)
REMARK    1  A    between atoms: C3_3  and  C7_7 
ROOT
HETATM    1  C1  UNL     1     -32.372   8.663   1.188  1.00 20.00     0.255 C 
HETATM    2  C2  UNL     1     -31.987   6.499   1.484  1.00 20.00     0.157 C 
HETATM    3  C3  UNL     1     -32.475   7.110   2.783  1.00 20.00     0.164 C 
HETATM    4  C4  UNL     1     -32.570   5.151   1.106  1.00 20.00     0.043 C 
HETATM    5  O8  UNL     1     -32.338   7.485   0.514  1.00 20.00    -0.314 OA
HETATM    6  O9  UNL     1     -32.311   8.508   2.535  1.00 20.00    -0.313 OA
HETATM    7  S10 UNL     1     -32.481  10.126   0.448  1.00 20.00    -0.025 SA
ENDROOT
BRANCH   3   8
HETATM    8  C7  UNL     1     -33.931   6.851   3.148  1.00 20.00     0.010 C 
HETATM    9  C5  UNL     1     -34.127   5.413   3.637  1.00 20.00     0.012 C 
HETATM   10  C6  UNL     1     -34.414   7.839   4.212  1.00 20.00     0.012 C 
ENDBRANCH   3   8
TORSDOF 1
ENDMDL
MODEL 2
REMARK VINA RESULT:       1.0      2.206      2.922
REMARK  1 active torsions:
REMARK  status: ('A' for Active; 'I' for Inactive)
REMARK    1  A    between atoms: C3_3  and  C7_7 
ROOT
HETATM    1  C1  UNL     1     -32.345   5.898   1.294  1.00 20.00     0.255 C 
HETATM    2  C2  UNL     1     -32.176   7.973   2.058  1.00 20.00     0.157 C 
HETATM    3  C3  UNL     1     -33.554   7.425   2.377  1.00 20.00     0.164 C 
HETATM    4  C4  UNL     1     -31.485   8.755   3.158  1.00 20.00     0.043 C 
HETATM    5  O8  UNL     1     -31.431   6.799   1.736  1.00 20.00    -0.314 OA
HETATM    6  O9  UNL     1     -33.627   6.284   1.519  1.00 20.00    -0.313 OA
HETATM    7  S10 UNL     1     -31.940   4.481   0.566  1.00 20.00    -0.025 SA
ENDROOT
BRANCH   3   8
HETATM    8  C7  UNL     1     -33.786   6.968   3.811  1.00 20.00     0.010 C 
HETATM    9  C5  UNL     1     -33.794   8.160   4.772  1.00 20.00     0.012 C 
HETATM   10  C6  UNL     1     -35.095   6.184   3.931  1.00 20.00     0.012 C 
ENDBRANCH   3   8
TORSDOF 1
ENDMDL
MODEL 3
REMARK VINA RESULT:       1.1      3.228      3.802
REMARK  1 active torsions:
REMARK  status: ('A' for Active; 'I' for Inactive)
REMARK    1  A    between atoms: C3_3  and  C7_7 
ROOT
HETATM    1  C1  UNL     1     -33.528   4.394   3.680  1.00 20.00     0.255 C 
HETATM    2  C2  UNL     1     -33.233   5.599   1.843  1.00 20.00     0.157 C 
HETATM    3  C3  UNL     1     -33.915   6.446   2.900  1.00 20.00     0.164 C 
HETATM    4  C4  UNL     1     -32.122   6.264   1.052  1.00 20.00     0.043 C 
HETATM    5  O8  UNL     1     -32.722   4.498   2.593  1.00 20.00    -0.314 OA
HETATM    6  O9  UNL     1     -34.359   5.457   3.833  1.00 20.00    -0.313 OA
HETATM    7  S10 UNL     1     -33.495   3.115   4.712  1.00 20.00    -0.025 SA
ENDROOT
BRANCH   3   8
HETATM    8  C7  UNL     1     -33.034   7.445   3.639  1.00 20.00     0.010 C 
HETATM    9  C5  UNL     1     -32.500   8.516   2.683  1.00 20.00     0.012 C 
HETATM   10  C6  UNL     1     -33.797   8.101   4.792  1.00 20.00     0.012 C 
ENDBRANCH   3   8
TORSDOF 1
ENDMDL
MODEL 4
REMARK VINA RESULT:       1.2      2.156      3.776
REMARK  1 active torsions:
REMARK  status: ('A' for Active; 'I' for Inactive)
REMARK    1  A    between atoms: C3_3  and  C7_7 
ROOT
HETATM    1  C1  UNL     1     -32.232   6.087   1.497  1.00 20.00     0.255 C 
HETATM    2  C2  UNL     1     -32.910   7.518   3.050  1.00 20.00     0.157 C 
HETATM    3  C3  UNL     1     -32.030   8.238   2.046  1.00 20.00     0.164 C 
HETATM    4  C4  UNL     1     -34.165   8.243   3.496  1.00 20.00     0.043 C 
HETATM    5  O8  UNL     1     -33.246   6.308   2.372  1.00 20.00    -0.314 OA
HETATM    6  O9  UNL     1     -31.395   7.149   1.371  1.00 20.00    -0.313 OA
HETATM    7  S10 UNL     1     -32.042   4.680   0.670  1.00 20.00    -0.025 SA
ENDROOT
BRANCH   3   8
HETATM    8  C7  UNL     1     -32.745   9.097   1.011  1.00 20.00     0.010 C 
HETATM    9  C5  UNL     1     -32.711  10.575   1.408  1.00 20.00     0.012 C 
HETATM   10  C6  UNL     1     -32.130   8.909  -0.378  1.00 20.00     0.012 C 
ENDBRANCH   3   8
TORSDOF 1
ENDMDL
MODEL 5
REMARK VINA RESULT:       1.4      3.412      4.530
REMARK  1 active torsions:
REMARK  status: ('A' for Active; 'I' for Inactive)
REMARK    1  A    between atoms: C3_3  and  C7_7 
ROOT
HETATM    1  C1  UNL     1     -33.803   4.414   4.169  1.00 20.00     0.255 C 
HETATM    2  C2  UNL     1     -35.034   6.250   3.994  1.00 20.00     0.157 C 
HETATM    3  C3  UNL     1     -33.608   6.554   3.576  1.00 20.00     0.164 C 
HETATM    4  C4  UNL     1     -36.135   6.835   3.130  1.00 20.00     0.043 C 
HETATM    5  O8  UNL     1     -35.080   4.824   3.964  1.00 20.00    -0.314 OA
HETATM    6  O9  UNL     1     -32.899   5.425   4.093  1.00 20.00    -0.313 OA
HETATM    7  S10 UNL     1     -33.390   2.852   4.472  1.00 20.00    -0.025 SA
ENDROOT
BRANCH   3   8
HETATM    8  C7  UNL     1     -33.346   6.646   2.079  1.00 20.00     0.010 C 
HETATM    9  C5  UNL     1     -32.492   7.873   1.746  1.00 20.00     0.012 C 
HETATM   10  C6  UNL     1     -32.668   5.375   1.562  1.00 20.00     0.012 C 
ENDBRANCH   3   8
TORSDOF 1
ENDMDL
MODEL 6
REMARK VINA RESULT:       1.5      2.624      3.428
REMARK  1 active torsions:
REMARK  status: ('A' for Active; 'I' for Inactive)
REMARK    1  A    between atoms: C3_3  and  C7_7 
ROOT
HETATM    1  C1  UNL     1     -34.185   5.907   3.206  1.00 20.00     0.255 C 
HETATM    2  C2  UNL     1     -32.905   5.432   1.459  1.00 20.00     0.157 C 
HETATM    3  C3  UNL     1     -33.175   6.923   1.500  1.00 20.00     0.164 C 
HETATM    4  C4  UNL     1     -31.485   5.006   1.138  1.00 20.00     0.043 C 
HETATM    5  O8  UNL     1     -33.270   5.004   2.771  1.00 20.00    -0.314 OA
HETATM    6  O9  UNL     1     -34.274   7.003   2.410  1.00 20.00    -0.313 OA
HETATM    7  S10 UNL     1     -35.089   5.697   4.563  1.00 20.00    -0.025 SA
ENDROOT
BRANCH   3   8
HETATM    8  C7  UNL     1     -32.047   7.802   2.026  1.00 20.00     0.010 C 
HETATM    9  C5  UNL     1     -31.739   8.941   1.051  1.00 20.00     0.012 C 
HETATM   10  C6  UNL     1     -32.389   8.366   3.406  1.00 20.00     0.012 C 
ENDBRANCH   3   8
TORSDOF 1
ENDMDL
MODEL 7
REMARK VINA RESULT:       1.9      2.332      3.583
REMARK  1 active torsions:
REMARK  status: ('A' for Active; 'I' for Inactive)
REMARK    1  A    between atoms: C3_3  and  C7_7 
ROOT
HETATM    1  C1  UNL     1     -33.930   6.472   3.197  1.00 20.00     0.255 C 
HETATM    2  C2  UNL     1     -32.218   7.564   2.304  1.00 20.00     0.157 C 
HETATM    3  C3  UNL     1     -32.057   6.077   2.054  1.00 20.00     0.164 C 
HETATM    4  C4  UNL     1     -31.905   8.486   1.142  1.00 20.00     0.043 C 
HETATM    5  O8  UNL     1     -33.591   7.679   2.678  1.00 20.00    -0.314 OA
HETATM    6  O9  UNL     1     -32.989   5.516   2.982  1.00 20.00    -0.313 OA
HETATM    7  S10 UNL     1     -35.337   6.194   3.998  1.00 20.00    -0.025 SA
ENDROOT
BRANCH   3   8
HETATM    8  C7  UNL     1     -32.407   5.582   0.657  1.00 20.00     0.010 C 
HETATM    9  C5  UNL     1     -31.537   4.385   0.265  1.00 20.00     0.012 C 
HETATM   10  C6  UNL     1     -33.889   5.212   0.562  1.00 20.00     0.012 C 
ENDBRANCH   3   8
TORSDOF 1
ENDMDL
MODEL 8
REMARK VINA RESULT:       2.2      1.229      2.733
REMARK  1 active torsions:
REMARK  status: ('A' for Active; 'I' for Inactive)
REMARK    1  A    between atoms: C3_3  and  C7_7 
ROOT
HETATM    1  C1  UNL     1     -32.506   7.885   1.748  1.00 20.00     0.255 C 
HETATM    2  C2  UNL     1     -33.789   7.776   3.554  1.00 20.00     0.157 C 
HETATM    3  C3  UNL     1     -33.923   6.492   2.759  1.00 20.00     0.164 C 
HETATM    4  C4  UNL     1     -33.671   7.635   5.059  1.00 20.00     0.043 C 
HETATM    5  O8  UNL     1     -32.608   8.368   3.013  1.00 20.00    -0.314 OA
HETATM    6  O9  UNL     1     -33.365   6.864   1.496  1.00 20.00    -0.313 OA
HETATM    7  S10 UNL     1     -31.447   8.473   0.638  1.00 20.00    -0.025 SA
ENDROOT
BRANCH   3   8
HETATM    8  C7  UNL     1     -33.159   5.285   3.289  1.00 20.00     0.010 C 
HETATM    9  C5  UNL     1     -34.110   4.278   3.941  1.00 20.00     0.012 C 
HETATM   10  C6  UNL     1     -32.359   4.610   2.173  1.00 20.00     0.012 C 
ENDBRANCH   3   8
TORSDOF 1
ENDMDL
MODEL 9
REMARK VINA RESULT:       2.6      2.232      3.485
REMARK  1 active torsions:
REMARK  status: ('A' for Active; 'I' for Inactive)
REMARK    1  A    between atoms: C3_3  and  C7_7 
ROOT
HETATM    1  C1  UNL     1     -33.914   7.255   4.128  1.00 20.00     0.255 C 
HETATM    2  C2  UNL     1     -34.299   5.146   3.561  1.00 20.00     0.157 C 
HETATM    3  C3  UNL     1     -33.879   5.932   2.334  1.00 20.00     0.164 C 
HETATM    4  C4  UNL     1     -33.690   3.767   3.726  1.00 20.00     0.043 C 
HETATM    5  O8  UNL     1     -33.907   5.997   4.638  1.00 20.00    -0.314 OA
HETATM    6  O9  UNL     1     -34.040   7.282   2.776  1.00 20.00    -0.313 OA
HETATM    7  S10 UNL     1     -33.777   8.607   5.052  1.00 20.00    -0.025 SA
ENDROOT
BRANCH   3   8
HETATM    8  C7  UNL     1     -32.442   5.743   1.868  1.00 20.00     0.010 C 
HETATM    9  C5  UNL     1     -32.381   4.858   0.621  1.00 20.00     0.012 C 
HETATM   10  C6  UNL     1     -31.773   7.092   1.591  1.00 20.00     0.012 C 
ENDBRANCH   3   8
TORSDOF 1
ENDMDL
