MODEL 1
REMARK VINA RESULT:      -0.3      0.000      0.000
REMARK  1 active torsions:
REMARK  status: ('A' for Active; 'I' for Inactive)
REMARK    1  A    between atoms: C7_7  and  C10_10 
ROOT
HETATM    1  C1  UNL     1     -32.791   5.804   1.632  1.00 20.00    -0.017 C 
HETATM    2  C2  UNL     1     -31.674   6.555   1.636  1.00 20.00    -0.019 C 
HETATM    3  C3  UNL     1     -34.097   6.999   3.460  1.00 20.00     0.135 C 
HETATM    4  C4  UNL     1     -33.036   7.764   4.223  1.00 20.00     0.080 C 
HETATM    5  C5  UNL     1     -32.323   8.596   3.145  1.00 20.00     0.022 C 
HETATM    6  C6  UNL     1     -33.699   6.976   1.952  1.00 20.00     0.090 C 
HETATM    7  C7  UNL     1     -32.436   7.865   1.792  1.00 20.00    -0.006 C 
HETATM    8  O11 UNL     1     -35.058   6.465   4.001  1.00 20.00    -0.297 OA
ENDROOT
BRANCH   7   9
HETATM    9  C10 UNL     1     -32.371   8.797   0.591  1.00 20.00    -0.009 C 
HETATM   10  C8  UNL     1     -32.786  10.216   0.981  1.00 20.00     0.011 C 
HETATM   11  C9  UNL     1     -30.968   8.801  -0.019  1.00 20.00     0.011 C 
ENDBRANCH   7   9
TORSDOF 1
ENDMDL
MODEL 2
REMARK VINA RESULT:       0.9      1.844      3.373
REMARK  1 active torsions:
REMARK  status: ('A' for Active; 'I' for Inactive)
REMARK    1  A    between atoms: C7_7  and  C10_10 
ROOT
HETATM    1  C1  UNL     1     -35.624   5.999   4.217  1.00 20.00    -0.017 C 
HETATM    2  C2  UNL     1     -35.487   6.695   3.073  1.00 20.00    -0.019 C 
HETATM    3  C3  UNL     1     -33.770   4.287   3.881  1.00 20.00     0.135 C 
HETATM    4  C4  UNL     1     -33.513   4.318   2.390  1.00 20.00     0.080 C 
HETATM    5  C5  UNL     1     -33.231   5.798   2.086  1.00 20.00     0.022 C 
HETATM    6  C6  UNL     1     -34.137   5.731   4.348  1.00 20.00     0.090 C 
HETATM    7  C7  UNL     1     -33.964   6.671   3.125  1.00 20.00    -0.006 C 
HETATM    8  O11 UNL     1     -33.732   3.260   4.548  1.00 20.00    -0.297 OA
ENDROOT
BRANCH   7   9
HETATM    9  C10 UNL     1     -33.305   8.022   3.356  1.00 20.00    -0.009 C 
HETATM   10  C8  UNL     1     -32.860   8.168   4.812  1.00 20.00     0.011 C 
HETATM   11  C9  UNL     1     -32.113   8.214   2.415  1.00 20.00     0.011 C 
ENDBRANCH   7   9
TORSDOF 1
ENDMDL
MODEL 3
REMARK VINA RESULT:       1.3      1.961      4.129
REMARK  1 active torsions:
REMARK  status: ('A' for Active; 'I' for Inactive)
REMARK    1  A    between atoms: C7_7  and  C10_10 
ROOT
HETATM    1  C1  UNL     1     -32.798   8.561   4.245  1.00 20.00    -0.017 C 
HETATM    2  C2  UNL     1     -32.912   7.310   4.728  1.00 20.00    -0.019 C 
HETATM    3  C3  UNL     1     -32.591   8.027   1.765  1.00 20.00     0.135 C 
HETATM    4  C4  UNL     1     -32.177   6.571   1.741  1.00 20.00     0.080 C 
HETATM    5  C5  UNL     1     -33.254   5.858   2.574  1.00 20.00     0.022 C 
HETATM    6  C6  UNL     1     -33.558   8.244   2.971  1.00 20.00     0.090 C 
HETATM    7  C7  UNL     1     -33.831   6.852   3.602  1.00 20.00    -0.006 C 
HETATM    8  O11 UNL     1     -32.164   8.860   0.974  1.00 20.00    -0.297 OA
ENDROOT
BRANCH   7   9
HETATM    9  C10 UNL     1     -35.257   6.531   4.022  1.00 20.00    -0.009 C 
HETATM   10  C8  UNL     1     -36.235   6.794   2.876  1.00 20.00     0.011 C 
HETATM   11  C9  UNL     1     -35.371   5.081   4.496  1.00 20.00     0.011 C 
ENDBRANCH   7   9
TORSDOF 1
ENDMDL
MODEL 4
REMARK VINA RESULT:       1.8      2.013      3.717
REMARK  1 active torsions:
REMARK  status: ('A' for Active; 'I' for Inactive)
REMARK    1  A    between atoms: C7_7  and  C10_10 
ROOT
HETATM    1  C1  UNL     1     -32.239   7.665   1.310  1.00 20.00    -0.017 C 
HETATM    2  C2  UNL     1     -32.023   7.658   2.639  1.00 20.00    -0.019 C 
HETATM    3  C3  UNL     1     -32.860   5.218   0.982  1.00 20.00     0.135 C 
HETATM    4  C4  UNL     1     -32.308   4.535   2.215  1.00 20.00     0.080 C 
HETATM    5  C5  UNL     1     -32.926   5.314   3.386  1.00 20.00     0.022 C 
HETATM    6  C6  UNL     1     -33.356   6.641   1.387  1.00 20.00     0.090 C 
HETATM    7  C7  UNL     1     -33.218   6.758   2.929  1.00 20.00    -0.006 C 
HETATM    8  O11 UNL     1     -32.844   4.707  -0.132  1.00 20.00    -0.297 OA
ENDROOT
BRANCH   7   9
HETATM    9  C10 UNL     1     -34.353   7.420   3.695  1.00 20.00    -0.009 C 
HETATM   10  C8  UNL     1     -35.441   6.403   4.042  1.00 20.00     0.011 C 
HETATM   11  C9  UNL     1     -33.832   8.095   4.965  1.00 20.00     0.011 C 
ENDBRANCH   7   9
TORSDOF 1
ENDMDL
MODEL 5
REMARK VINA RESULT:       1.9      1.986      4.149
REMARK  1 active torsions:
REMARK  status: ('A' for Active; 'I' for Inactive)
REMARK    1  A    between atoms: C7_7  and  C10_10 
ROOT
HETATM    1  C1  UNL     1     -33.291   8.525   3.904  1.00 20.00    -0.017 C 
HETATM    2  C2  UNL     1     -32.860   7.317   4.314  1.00 20.00    -0.019 C 
HETATM    3  C3  UNL     1     -32.567   8.414   1.466  1.00 20.00     0.135 C 
HETATM    4  C4  UNL     1     -31.518   7.323   1.448  1.00 20.00     0.080 C 
HETATM    5  C5  UNL     1     -32.223   6.111   2.077  1.00 20.00     0.022 C 
HETATM    6  C6  UNL     1     -33.656   8.032   2.516  1.00 20.00     0.090 C 
HETATM    7  C7  UNL     1     -33.316   6.612   3.042  1.00 20.00    -0.006 C 
HETATM    8  O11 UNL     1     -32.491   9.429   0.784  1.00 20.00    -0.297 OA
ENDROOT
BRANCH   7   9
HETATM    9  C10 UNL     1     -34.462   5.629   3.225  1.00 20.00    -0.009 C 
HETATM   10  C8  UNL     1     -33.956   4.303   3.794  1.00 20.00     0.011 C 
HETATM   11  C9  UNL     1     -35.544   6.218   4.132  1.00 20.00     0.011 C 
ENDBRANCH   7   9
TORSDOF 1
ENDMDL
MODEL 6
REMARK VINA RESULT:       2.0      2.110      3.713
REMARK  1 active torsions:
REMARK  status: ('A' for Active; 'I' for Inactive)
REMARK    1  A    between atoms: C7_7  and  C10_10 
ROOT
HETATM    1  C1  UNL     1     -32.166   6.026   1.147  1.00 20.00    -0.017 C 
HETATM    2  C2  UNL     1     -33.471   6.177   1.442  1.00 20.00    -0.019 C 
HETATM    3  C3  UNL     1     -31.495   8.476   0.982  1.00 20.00     0.135 C 
HETATM    4  C4  UNL     1     -32.809   9.199   0.775  1.00 20.00     0.080 C 
HETATM    5  C5  UNL     1     -33.683   8.739   1.953  1.00 20.00     0.022 C 
HETATM    6  C6  UNL     1     -31.747   7.258   1.925  1.00 20.00     0.090 C 
HETATM    7  C7  UNL     1     -33.223   7.336   2.400  1.00 20.00    -0.006 C 
HETATM    8  O11 UNL     1     -30.452   8.808   0.432  1.00 20.00    -0.297 OA
ENDROOT
BRANCH   7   9
HETATM    9  C10 UNL     1     -33.515   7.038   3.862  1.00 20.00    -0.009 C 
HETATM   10  C8  UNL     1     -33.303   8.284   4.724  1.00 20.00     0.011 C 
HETATM   11  C9  UNL     1     -34.940   6.509   4.035  1.00 20.00     0.011 C 
ENDBRANCH   7   9
TORSDOF 1
ENDMDL
MODEL 7
REMARK VINA RESULT:       2.2      1.525      3.113
REMARK  1 active torsions:
REMARK  status: ('A' for Active; 'I' for Inactive)
REMARK    1  A    between atoms: C7_7  and  C10_10 
ROOT
HETATM    1  C1  UNL     1     -32.092   8.784   1.784  1.00 20.00    -0.017 C 
HETATM    2  C2  UNL     1     -32.960   8.129   0.990  1.00 20.00    -0.019 C 
HETATM    3  C3  UNL     1     -32.848   7.889   4.044  1.00 20.00     0.135 C 
HETATM    4  C4  UNL     1     -34.244   7.369   3.780  1.00 20.00     0.080 C 
HETATM    5  C5  UNL     1     -34.068   6.391   2.608  1.00 20.00     0.022 C 
HETATM    6  C6  UNL     1     -31.980   7.638   2.772  1.00 20.00     0.090 C 
HETATM    7  C7  UNL     1     -32.847   6.826   1.772  1.00 20.00    -0.006 C 
HETATM    8  O11 UNL     1     -32.526   8.452   5.085  1.00 20.00    -0.297 OA
ENDROOT
BRANCH   7   9
HETATM    9  C10 UNL     1     -32.183   5.681   1.025  1.00 20.00    -0.009 C 
HETATM   10  C8  UNL     1     -31.382   4.797   1.983  1.00 20.00     0.011 C 
HETATM   11  C9  UNL     1     -33.222   4.845   0.275  1.00 20.00     0.011 C 
ENDBRANCH   7   9
TORSDOF 1
ENDMDL
MODEL 8
REMARK VINA RESULT:       2.4      1.282      2.896
REMARK  1 active torsions:
REMARK  status: ('A' for Active; 'I' for Inactive)
REMARK    1  A    between atoms: C7_7  and  C10_10 
ROOT
HETATM    1  C1  UNL     1     -33.572   7.545   5.086  1.00 20.00    -0.017 C 
HETATM    2  C2  UNL     1     -33.618   8.391   4.039  1.00 20.00    -0.019 C 
HETATM    3  C3  UNL     1     -35.147   5.740   4.225  1.00 20.00     0.135 C 
HETATM    4  C4  UNL     1     -35.938   6.436   3.139  1.00 20.00     0.080 C 
HETATM    5  C5  UNL     1     -34.865   7.005   2.197  1.00 20.00     0.022 C 
HETATM    6  C6  UNL     1     -33.693   6.308   4.217  1.00 20.00     0.090 C 
HETATM    7  C7  UNL     1     -33.579   7.271   3.005  1.00 20.00    -0.006 C 
HETATM    8  O11 UNL     1     -35.636   4.914   4.988  1.00 20.00    -0.297 OA
ENDROOT
BRANCH   7   9
HETATM    9  C10 UNL     1     -32.312   7.211   2.168  1.00 20.00    -0.009 C 
HETATM   10  C8  UNL     1     -32.293   5.953   1.299  1.00 20.00     0.011 C 
HETATM   11  C9  UNL     1     -32.176   8.461   1.295  1.00 20.00     0.011 C 
ENDBRANCH   7   9
TORSDOF 1
ENDMDL
MODEL 9
REMARK VINA RESULT:       2.5      1.970      3.621
REMARK  1 active torsions:
REMARK  status: ('A' for Active; 'I' for Inactive)
REMARK    1  A    between atoms: C7_7  and  C10_10 
ROOT
HETATM    1  C1  UNL     1     -35.470   5.693   4.406  1.00 20.00    -0.017 C 
HETATM    2  C2  UNL     1     -35.332   6.463   3.310  1.00 20.00    -0.019 C 
HETATM    3  C3  UNL     1     -33.730   3.912   3.878  1.00 20.00     0.135 C 
HETATM    4  C4  UNL     1     -33.523   4.038   2.384  1.00 20.00     0.080 C 
HETATM    5  C5  UNL     1     -33.168   5.518   2.176  1.00 20.00     0.022 C 
HETATM    6  C6  UNL     1     -33.997   5.335   4.460  1.00 20.00     0.090 C 
HETATM    7  C7  UNL     1     -33.812   6.352   3.302  1.00 20.00    -0.006 C 
HETATM    8  O11 UNL     1     -33.728   2.837   4.468  1.00 20.00    -0.297 OA
ENDROOT
BRANCH   7   9
HETATM    9  C10 UNL     1     -33.069   7.644   3.604  1.00 20.00    -0.009 C 
HETATM   10  C8  UNL     1     -32.373   8.176   2.350  1.00 20.00     0.011 C 
HETATM   11  C9  UNL     1     -34.021   8.699   4.171  1.00 20.00     0.011 C 
ENDBRANCH   7   9
TORSDOF 1
ENDMDL
