MODEL 1
REMARK VINA RESULT:      -1.7      0.000      0.000
REMARK  1 active torsions:
REMARK  status: ('A' for Active; 'I' for Inactive)
REMARK    1  A    between atoms: C3_3  and  C8_8 
ROOT
HETATM    1  C1  UNL     1     -33.784   7.203   3.544  1.00 20.00     0.145 C 
HETATM    2  C4  UNL     1     -33.405   8.225   2.487  1.00 20.00     0.088 C 
HETATM    3  C5  UNL     1     -33.188   5.506   1.813  1.00 20.00     0.028 C 
HETATM    4  C6  UNL     1     -32.192   6.453   1.134  1.00 20.00     0.011 C 
HETATM    5  C7  UNL     1     -33.316   5.776   3.308  1.00 20.00     0.151 C 
HETATM    6  C8  UNL     1     -32.087   7.825   1.822  1.00 20.00     0.014 C 
HETATM    7  O9  UNL     1     -34.432   7.540   4.535  1.00 20.00    -0.296 OA
HETATM    8 CL10 UNL     1     -34.493   4.653   4.028  1.00 20.00    -0.117 Cl
ENDROOT
BRANCH   6   9
HETATM    9  C3  UNL     1     -31.621   8.869   0.856  1.00 20.00    -0.032 C 
HETATM   10  C2  UNL     1     -32.421   9.788   0.304  1.00 20.00     0.007 C 
ENDBRANCH   6   9
TORSDOF 1
ENDMDL
MODEL 2
REMARK VINA RESULT:      -0.9      1.608      2.257
REMARK  1 active torsions:
REMARK  status: ('A' for Active; 'I' for Inactive)
REMARK    1  A    between atoms: C3_3  and  C8_8 
ROOT
HETATM    1  C1  UNL     1     -32.711   5.783   1.824  1.00 20.00     0.145 C 
HETATM    2  C4  UNL     1     -31.910   7.002   1.406  1.00 20.00     0.088 C 
HETATM    3  C5  UNL     1     -33.499   7.211   3.714  1.00 20.00     0.028 C 
HETATM    4  C6  UNL     1     -33.308   8.499   2.906  1.00 20.00     0.011 C 
HETATM    5  C7  UNL     1     -33.830   6.016   2.827  1.00 20.00     0.151 C 
HETATM    6  C8  UNL     1     -32.786   8.254   1.479  1.00 20.00     0.014 C 
HETATM    7  O9  UNL     1     -32.454   4.675   1.356  1.00 20.00    -0.296 OA
HETATM    8 CL10 UNL     1     -34.027   4.557   3.825  1.00 20.00    -0.117 Cl
ENDROOT
BRANCH   6   9
HETATM    9  C3  UNL     1     -32.064   9.459   0.963  1.00 20.00    -0.032 C 
HETATM   10  C2  UNL     1     -32.549  10.275   0.021  1.00 20.00     0.007 C 
ENDBRANCH   6   9
TORSDOF 1
ENDMDL
MODEL 3
REMARK VINA RESULT:      -0.7      2.671      4.596
REMARK  1 active torsions:
REMARK  status: ('A' for Active; 'I' for Inactive)
REMARK    1  A    between atoms: C3_3  and  C8_8 
ROOT
HETATM    1  C1  UNL     1     -32.409   6.499   1.751  1.00 20.00     0.145 C 
HETATM    2  C4  UNL     1     -33.155   5.250   2.184  1.00 20.00     0.088 C 
HETATM    3  C5  UNL     1     -34.171   7.735   3.015  1.00 20.00     0.028 C 
HETATM    4  C6  UNL     1     -34.409   6.555   3.965  1.00 20.00     0.011 C 
HETATM    5  C7  UNL     1     -32.737   7.782   2.499  1.00 20.00     0.151 C 
HETATM    6  C8  UNL     1     -33.509   5.342   3.670  1.00 20.00     0.014 C 
HETATM    7  O9  UNL     1     -31.580   6.448   0.843  1.00 20.00    -0.296 OA
HETATM    8 CL10 UNL     1     -32.535   9.163   1.397  1.00 20.00    -0.117 Cl
ENDROOT
BRANCH   6   9
HETATM    9  C3  UNL     1     -34.143   4.079   4.161  1.00 20.00    -0.032 C 
HETATM   10  C2  UNL     1     -33.457   3.027   4.620  1.00 20.00     0.007 C 
ENDBRANCH   6   9
TORSDOF 1
ENDMDL
MODEL 4
REMARK VINA RESULT:      -0.1      2.567      4.590
REMARK  1 active torsions:
REMARK  status: ('A' for Active; 'I' for Inactive)
REMARK    1  A    between atoms: C3_3  and  C8_8 
ROOT
HETATM    1  C1  UNL     1     -33.191   6.870   2.739  1.00 20.00     0.145 C 
HETATM    2  C4  UNL     1     -33.215   5.358   2.611  1.00 20.00     0.088 C 
HETATM    3  C5  UNL     1     -35.366   6.591   3.932  1.00 20.00     0.028 C 
HETATM    4  C6  UNL     1     -34.998   5.181   4.408  1.00 20.00     0.011 C 
HETATM    5  C7  UNL     1     -34.140   7.480   3.759  1.00 20.00     0.151 C 
HETATM    6  C8  UNL     1     -33.603   4.725   3.948  1.00 20.00     0.014 C 
HETATM    7  O9  UNL     1     -32.428   7.544   2.048  1.00 20.00    -0.296 OA
HETATM    8 CL10 UNL     1     -34.636   9.093   3.195  1.00 20.00    -0.117 Cl
ENDROOT
BRANCH   6   9
HETATM    9  C3  UNL     1     -33.524   3.232   3.892  1.00 20.00    -0.032 C 
HETATM   10  C2  UNL     1     -33.095   2.466   4.901  1.00 20.00     0.007 C 
ENDBRANCH   6   9
TORSDOF 1
ENDMDL
MODEL 5
REMARK VINA RESULT:       0.1      2.744      4.408
REMARK  1 active torsions:
REMARK  status: ('A' for Active; 'I' for Inactive)
REMARK    1  A    between atoms: C3_3  and  C8_8 
ROOT
HETATM    1  C1  UNL     1     -32.386   6.270   1.606  1.00 20.00     0.145 C 
HETATM    2  C4  UNL     1     -33.703   5.854   2.236  1.00 20.00     0.088 C 
HETATM    3  C5  UNL     1     -33.078   8.594   2.201  1.00 20.00     0.028 C 
HETATM    4  C6  UNL     1     -33.925   8.108   3.383  1.00 20.00     0.011 C 
HETATM    5  C7  UNL     1     -31.895   7.674   1.922  1.00 20.00     0.151 C 
HETATM    6  C8  UNL     1     -33.897   6.581   3.568  1.00 20.00     0.014 C 
HETATM    7  O9  UNL     1     -31.764   5.490   0.885  1.00 20.00    -0.296 OA
HETATM    8 CL10 UNL     1     -30.965   8.288   0.535  1.00 20.00    -0.117 Cl
ENDROOT
BRANCH   6   9
HETATM    9  C3  UNL     1     -35.129   6.109   4.276  1.00 20.00    -0.032 C 
HETATM   10  C2  UNL     1     -35.323   4.850   4.682  1.00 20.00     0.007 C 
ENDBRANCH   6   9
TORSDOF 1
ENDMDL
MODEL 6
REMARK VINA RESULT:       0.2      1.930      3.017
REMARK  1 active torsions:
REMARK  status: ('A' for Active; 'I' for Inactive)
REMARK    1  A    between atoms: C3_3  and  C8_8 
ROOT
HETATM    1  C1  UNL     1     -34.338   6.292   3.658  1.00 20.00     0.145 C 
HETATM    2  C4  UNL     1     -33.626   5.322   2.732  1.00 20.00     0.088 C 
HETATM    3  C5  UNL     1     -32.407   7.810   3.206  1.00 20.00     0.028 C 
HETATM    4  C6  UNL     1     -32.153   7.183   1.830  1.00 20.00     0.011 C 
HETATM    5  C7  UNL     1     -33.876   7.740   3.610  1.00 20.00     0.151 C 
HETATM    6  C8  UNL     1     -33.140   6.056   1.480  1.00 20.00     0.014 C 
HETATM    7  O9  UNL     1     -35.243   5.903   4.394  1.00 20.00    -0.296 OA
HETATM    8 CL10 UNL     1     -34.097   8.472   5.216  1.00 20.00    -0.117 Cl
ENDROOT
BRANCH   6   9
HETATM    9  C3  UNL     1     -32.536   5.109   0.491  1.00 20.00    -0.032 C 
HETATM   10  C2  UNL     1     -31.359   4.497   0.662  1.00 20.00     0.007 C 
ENDBRANCH   6   9
TORSDOF 1
ENDMDL
MODEL 7
REMARK VINA RESULT:       0.5      2.268      4.132
REMARK  1 active torsions:
REMARK  status: ('A' for Active; 'I' for Inactive)
REMARK    1  A    between atoms: C3_3  and  C8_8 
ROOT
HETATM    1  C1  UNL     1     -33.573   7.397   3.235  1.00 20.00     0.145 C 
HETATM    2  C4  UNL     1     -33.640   6.170   4.128  1.00 20.00     0.088 C 
HETATM    3  C5  UNL     1     -32.084   6.005   1.794  1.00 20.00     0.028 C 
HETATM    4  C6  UNL     1     -32.739   4.701   2.265  1.00 20.00     0.011 C 
HETATM    5  C7  UNL     1     -33.053   7.181   1.822  1.00 20.00     0.151 C 
HETATM    6  C8  UNL     1     -33.874   4.919   3.280  1.00 20.00     0.014 C 
HETATM    7  O9  UNL     1     -33.934   8.496   3.655  1.00 20.00    -0.296 OA
HETATM    8 CL10 UNL     1     -32.227   8.659   1.277  1.00 20.00    -0.117 Cl
ENDROOT
BRANCH   6   9
HETATM    9  C3  UNL     1     -34.062   3.705   4.135  1.00 20.00    -0.032 C 
HETATM   10  C2  UNL     1     -33.067   3.071   4.763  1.00 20.00     0.007 C 
ENDBRANCH   6   9
TORSDOF 1
ENDMDL
MODEL 8
REMARK VINA RESULT:       0.7      2.480      3.996
REMARK  1 active torsions:
REMARK  status: ('A' for Active; 'I' for Inactive)
REMARK    1  A    between atoms: C3_3  and  C8_8 
ROOT
HETATM    1  C1  UNL     1     -32.317   8.210   3.092  1.00 20.00     0.145 C 
HETATM    2  C4  UNL     1     -33.141   7.365   4.048  1.00 20.00     0.088 C 
HETATM    3  C5  UNL     1     -32.584   6.298   1.509  1.00 20.00     0.028 C 
HETATM    4  C6  UNL     1     -33.911   5.871   2.146  1.00 20.00     0.011 C 
HETATM    5  C7  UNL     1     -32.342   7.798   1.628  1.00 20.00     0.151 C 
HETATM    6  C8  UNL     1     -34.345   6.772   3.315  1.00 20.00     0.014 C 
HETATM    7  O9  UNL     1     -31.677   9.176   3.504  1.00 20.00    -0.296 OA
HETATM    8 CL10 UNL     1     -30.784   8.221   0.881  1.00 20.00    -0.117 Cl
ENDROOT
BRANCH   6   9
HETATM    9  C3  UNL     1     -35.245   6.029   4.253  1.00 20.00    -0.032 C 
HETATM   10  C2  UNL     1     -35.068   4.750   4.604  1.00 20.00     0.007 C 
ENDBRANCH   6   9
TORSDOF 1
ENDMDL
MODEL 9
REMARK VINA RESULT:       0.9      2.467      3.543
REMARK  1 active torsions:
REMARK  status: ('A' for Active; 'I' for Inactive)
REMARK    1  A    between atoms: C3_3  and  C8_8 
ROOT
HETATM    1  C1  UNL     1     -32.154   7.098   1.632  1.00 20.00     0.145 C 
HETATM    2  C4  UNL     1     -32.486   7.752   2.962  1.00 20.00     0.088 C 
HETATM    3  C5  UNL     1     -33.154   5.042   2.634  1.00 20.00     0.028 C 
HETATM    4  C6  UNL     1     -34.067   5.858   3.557  1.00 20.00     0.011 C 
HETATM    5  C7  UNL     1     -32.843   5.776   1.335  1.00 20.00     0.151 C 
HETATM    6  C8  UNL     1     -33.907   7.378   3.387  1.00 20.00     0.014 C 
HETATM    7  O9  UNL     1     -31.371   7.635   0.850  1.00 20.00    -0.296 OA
HETATM    8 CL10 UNL     1     -31.772   4.781   0.320  1.00 20.00    -0.117 Cl
ENDROOT
BRANCH   6   9
HETATM    9  C3  UNL     1     -34.312   8.098   4.636  1.00 20.00    -0.032 C 
HETATM   10  C2  UNL     1     -33.462   8.450   5.606  1.00 20.00     0.007 C 
ENDBRANCH   6   9
TORSDOF 1
ENDMDL
