MODEL 1
REMARK VINA RESULT:      -0.6      0.000      0.000
REMARK  1 active torsions:
REMARK  status: ('A' for Active; 'I' for Inactive)
REMARK    1  A    between atoms: C2_2  and  C10_10 
ROOT
HETATM    1  C1  UNL     1     -32.507   5.275   1.927  1.00 20.00    -0.017 C 
HETATM    2  C2  UNL     1     -33.558   5.251   2.774  1.00 20.00    -0.068 C 
HETATM    3  C3  UNL     1     -33.443   7.658   3.614  1.00 20.00     0.135 C 
HETATM    4  C4  UNL     1     -32.039   8.113   3.281  1.00 20.00     0.080 C 
HETATM    5  C5  UNL     1     -31.895   7.822   1.779  1.00 20.00     0.017 C 
HETATM    6  C6  UNL     1     -32.827   6.661   1.406  1.00 20.00     0.024 C 
HETATM    7  C7  UNL     1     -33.929   6.697   2.487  1.00 20.00     0.092 C 
HETATM    8  O11 UNL     1     -34.030   7.985   4.640  1.00 20.00    -0.297 OA
ENDROOT
BRANCH   2   9
HETATM    9  C10 UNL     1     -34.117   4.194   3.745  1.00 20.00     0.007 C 
HETATM   10  C8  UNL     1     -32.969   3.579   4.510  1.00 20.00     0.014 C 
HETATM   11  C9  UNL     1     -35.138   4.842   4.654  1.00 20.00     0.014 C 
ENDBRANCH   2   9
TORSDOF 1
ENDMDL
MODEL 2
REMARK VINA RESULT:       0.1      1.696      4.113
REMARK  1 active torsions:
REMARK  status: ('A' for Active; 'I' for Inactive)
REMARK    1  A    between atoms: C2_2  and  C10_10 
ROOT
HETATM    1  C1  UNL     1     -33.891   7.711   4.140  1.00 20.00    -0.017 C 
HETATM    2  C2  UNL     1     -33.335   7.722   2.911  1.00 20.00    -0.068 C 
HETATM    3  C3  UNL     1     -33.488   5.229   2.385  1.00 20.00     0.135 C 
HETATM    4  C4  UNL     1     -33.677   4.565   3.732  1.00 20.00     0.080 C 
HETATM    5  C5  UNL     1     -34.886   5.292   4.343  1.00 20.00     0.017 C 
HETATM    6  C6  UNL     1     -34.962   6.709   3.759  1.00 20.00     0.024 C 
HETATM    7  C7  UNL     1     -34.228   6.601   2.405  1.00 20.00     0.092 C 
HETATM    8  O11 UNL     1     -32.812   4.742   1.486  1.00 20.00    -0.297 OA
ENDROOT
BRANCH   2   9
HETATM    9  C10 UNL     1     -32.167   8.502   2.279  1.00 20.00     0.007 C 
HETATM   10  C8  UNL     1     -31.200   7.517   1.663  1.00 20.00     0.014 C 
HETATM   11  C9  UNL     1     -32.712   9.487   1.269  1.00 20.00     0.014 C 
ENDBRANCH   2   9
TORSDOF 1
ENDMDL
MODEL 3
REMARK VINA RESULT:       0.8      1.619      2.402
REMARK  1 active torsions:
REMARK  status: ('A' for Active; 'I' for Inactive)
REMARK    1  A    between atoms: C2_2  and  C10_10 
ROOT
HETATM    1  C1  UNL     1     -33.186   5.119   2.706  1.00 20.00    -0.017 C 
HETATM    2  C2  UNL     1     -33.920   6.250   2.758  1.00 20.00    -0.068 C 
HETATM    3  C3  UNL     1     -32.334   7.808   1.503  1.00 20.00     0.135 C 
HETATM    4  C4  UNL     1     -30.991   7.113   1.562  1.00 20.00     0.080 C 
HETATM    5  C5  UNL     1     -31.271   5.706   1.012  1.00 20.00     0.017 C 
HETATM    6  C6  UNL     1     -32.740   5.351   1.277  1.00 20.00     0.024 C 
HETATM    7  C7  UNL     1     -33.445   6.720   1.393  1.00 20.00     0.092 C 
HETATM    8  O11 UNL     1     -32.466   9.024   1.586  1.00 20.00    -0.297 OA
ENDROOT
BRANCH   2   9
HETATM    9  C10 UNL     1     -34.822   6.884   3.834  1.00 20.00     0.007 C 
HETATM   10  C8  UNL     1     -35.518   5.782   4.598  1.00 20.00     0.014 C 
HETATM   11  C9  UNL     1     -33.985   7.770   4.729  1.00 20.00     0.014 C 
ENDBRANCH   2   9
TORSDOF 1
ENDMDL
MODEL 4
REMARK VINA RESULT:       0.8      1.311      3.864
REMARK  1 active torsions:
REMARK  status: ('A' for Active; 'I' for Inactive)
REMARK    1  A    between atoms: C2_2  and  C10_10 
ROOT
HETATM    1  C1  UNL     1     -33.052   6.499   1.260  1.00 20.00    -0.017 C 
HETATM    2  C2  UNL     1     -32.454   7.566   1.829  1.00 20.00    -0.068 C 
HETATM    3  C3  UNL     1     -33.709   7.583   4.052  1.00 20.00     0.135 C 
HETATM    4  C4  UNL     1     -34.952   6.760   3.795  1.00 20.00     0.080 C 
HETATM    5  C5  UNL     1     -34.416   5.434   3.232  1.00 20.00     0.017 C 
HETATM    6  C6  UNL     1     -33.069   5.695   2.544  1.00 20.00     0.024 C 
HETATM    7  C7  UNL     1     -32.536   6.973   3.226  1.00 20.00     0.092 C 
HETATM    8  O11 UNL     1     -33.700   8.583   4.761  1.00 20.00    -0.297 OA
ENDROOT
BRANCH   2   9
HETATM    9  C10 UNL     1     -31.963   8.923   1.290  1.00 20.00     0.007 C 
HETATM   10  C8  UNL     1     -31.258   8.698  -0.027  1.00 20.00     0.014 C 
HETATM   11  C9  UNL     1     -33.138   9.866   1.164  1.00 20.00     0.014 C 
ENDBRANCH   2   9
TORSDOF 1
ENDMDL
MODEL 5
REMARK VINA RESULT:       1.0      1.791      2.835
REMARK  1 active torsions:
REMARK  status: ('A' for Active; 'I' for Inactive)
REMARK    1  A    between atoms: C2_2  and  C10_10 
ROOT
HETATM    1  C1  UNL     1     -33.650   8.367   3.645  1.00 20.00    -0.017 C 
HETATM    2  C2  UNL     1     -33.932   7.049   3.708  1.00 20.00    -0.068 C 
HETATM    3  C3  UNL     1     -32.775   6.293   1.563  1.00 20.00     0.135 C 
HETATM    4  C4  UNL     1     -32.608   7.560   0.752  1.00 20.00     0.080 C 
HETATM    5  C5  UNL     1     -31.889   8.526   1.706  1.00 20.00     0.017 C 
HETATM    6  C6  UNL     1     -32.235   8.145   3.152  1.00 20.00     0.024 C 
HETATM    7  C7  UNL     1     -32.611   6.650   3.071  1.00 20.00     0.092 C 
HETATM    8  O11 UNL     1     -33.044   5.206   1.063  1.00 20.00    -0.297 OA
ENDROOT
BRANCH   2   9
HETATM    9  C10 UNL     1     -35.167   6.246   4.160  1.00 20.00     0.007 C 
HETATM   10  C8  UNL     1     -36.297   6.504   3.192  1.00 20.00     0.014 C 
HETATM   11  C9  UNL     1     -34.804   4.780   4.250  1.00 20.00     0.014 C 
ENDBRANCH   2   9
TORSDOF 1
ENDMDL
MODEL 6
REMARK VINA RESULT:       1.0      1.964      4.562
REMARK  1 active torsions:
REMARK  status: ('A' for Active; 'I' for Inactive)
REMARK    1  A    between atoms: C2_2  and  C10_10 
ROOT
HETATM    1  C1  UNL     1     -31.737   7.882   0.359  1.00 20.00    -0.017 C 
HETATM    2  C2  UNL     1     -32.289   8.863   1.103  1.00 20.00    -0.068 C 
HETATM    3  C3  UNL     1     -33.394   7.423   2.898  1.00 20.00     0.135 C 
HETATM    4  C4  UNL     1     -33.473   6.042   2.284  1.00 20.00     0.080 C 
HETATM    5  C5  UNL     1     -32.031   5.741   1.847  1.00 20.00     0.017 C 
HETATM    6  C6  UNL     1     -31.311   7.067   1.562  1.00 20.00     0.024 C 
HETATM    7  C7  UNL     1     -32.082   8.105   2.405  1.00 20.00     0.092 C 
HETATM    8  O11 UNL     1     -34.273   7.891   3.614  1.00 20.00    -0.297 OA
ENDROOT
BRANCH   2   9
HETATM    9  C10 UNL     1     -32.966  10.204   0.763  1.00 20.00     0.007 C 
HETATM   10  C8  UNL     1     -32.217  11.318   1.456  1.00 20.00     0.014 C 
HETATM   11  C9  UNL     1     -33.005  10.377  -0.739  1.00 20.00     0.014 C 
ENDBRANCH   2   9
TORSDOF 1
ENDMDL
MODEL 7
REMARK VINA RESULT:       1.1      1.800      2.420
REMARK  1 active torsions:
REMARK  status: ('A' for Active; 'I' for Inactive)
REMARK    1  A    between atoms: C2_2  and  C10_10 
ROOT
HETATM    1  C1  UNL     1     -34.074   7.494   3.461  1.00 20.00    -0.017 C 
HETATM    2  C2  UNL     1     -33.807   6.171   3.446  1.00 20.00    -0.068 C 
HETATM    3  C3  UNL     1     -32.301   6.095   1.386  1.00 20.00     0.135 C 
HETATM    4  C4  UNL     1     -32.603   7.379   0.644  1.00 20.00     0.080 C 
HETATM    5  C5  UNL     1     -32.399   8.479   1.698  1.00 20.00     0.017 C 
HETATM    6  C6  UNL     1     -32.659   7.889   3.090  1.00 20.00     0.024 C 
HETATM    7  C7  UNL     1     -32.397   6.377   2.916  1.00 20.00     0.092 C 
HETATM    8  O11 UNL     1     -32.076   5.030   0.822  1.00 20.00    -0.297 OA
ENDROOT
BRANCH   2   9
HETATM    9  C10 UNL     1     -34.641   4.913   3.752  1.00 20.00     0.007 C 
HETATM   10  C8  UNL     1     -33.708   3.795   4.154  1.00 20.00     0.014 C 
HETATM   11  C9  UNL     1     -35.655   5.236   4.828  1.00 20.00     0.014 C 
ENDBRANCH   2   9
TORSDOF 1
ENDMDL
MODEL 8
REMARK VINA RESULT:       1.5      1.950      2.848
REMARK  1 active torsions:
REMARK  status: ('A' for Active; 'I' for Inactive)
REMARK    1  A    between atoms: C2_2  and  C10_10 
ROOT
HETATM    1  C1  UNL     1     -31.459   7.157   1.887  1.00 20.00    -0.017 C 
HETATM    2  C2  UNL     1     -32.559   6.426   1.612  1.00 20.00    -0.068 C 
HETATM    3  C3  UNL     1     -34.018   7.152   3.576  1.00 20.00     0.135 C 
HETATM    4  C4  UNL     1     -33.045   7.727   4.582  1.00 20.00     0.080 C 
HETATM    5  C5  UNL     1     -32.258   8.781   3.786  1.00 20.00     0.017 C 
HETATM    6  C6  UNL     1     -32.249   8.379   2.305  1.00 20.00     0.024 C 
HETATM    7  C7  UNL     1     -33.502   7.492   2.145  1.00 20.00     0.092 C 
HETATM    8  O11 UNL     1     -35.002   6.494   3.894  1.00 20.00    -0.297 OA
ENDROOT
BRANCH   2   9
HETATM    9  C10 UNL     1     -32.782   5.006   1.059  1.00 20.00     0.007 C 
HETATM   10  C8  UNL     1     -33.890   5.051   0.033  1.00 20.00     0.014 C 
HETATM   11  C9  UNL     1     -31.484   4.482   0.487  1.00 20.00     0.014 C 
ENDBRANCH   2   9
TORSDOF 1
ENDMDL
MODEL 9
REMARK VINA RESULT:       1.7      1.070      3.508
REMARK  1 active torsions:
REMARK  status: ('A' for Active; 'I' for Inactive)
REMARK    1  A    between atoms: C2_2  and  C10_10 
ROOT
HETATM    1  C1  UNL     1     -33.796   4.306   2.628  1.00 20.00    -0.017 C 
HETATM    2  C2  UNL     1     -33.095   5.439   2.409  1.00 20.00    -0.068 C 
HETATM    3  C3  UNL     1     -34.420   7.019   3.913  1.00 20.00     0.135 C 
HETATM    4  C4  UNL     1     -35.743   6.319   4.132  1.00 20.00     0.080 C 
HETATM    5  C5  UNL     1     -35.351   4.925   4.648  1.00 20.00     0.017 C 
HETATM    6  C6  UNL     1     -33.958   4.570   4.110  1.00 20.00     0.024 C 
HETATM    7  C7  UNL     1     -33.300   5.939   3.830  1.00 20.00     0.092 C 
HETATM    8  O11 UNL     1     -34.317   8.234   3.779  1.00 20.00    -0.297 OA
ENDROOT
BRANCH   2   9
HETATM    9  C10 UNL     1     -32.424   6.051   1.165  1.00 20.00     0.007 C 
HETATM   10  C8  UNL     1     -31.757   7.348   1.560  1.00 20.00     0.014 C 
HETATM   11  C9  UNL     1     -31.450   5.053   0.580  1.00 20.00     0.014 C 
ENDBRANCH   2   9
TORSDOF 1
ENDMDL
