MODEL 1
REMARK VINA RESULT:       0.8      0.000      0.000
REMARK  0 active torsions:
REMARK  status: ('A' for Active; 'I' for Inactive)
ROOT
HETATM    1  C1  UNL     1     -33.446   7.509   3.985  1.00 20.00     0.161 C 
HETATM    2  C2  UNL     1     -32.245   8.037   3.237  1.00 20.00     0.091 C 
HETATM    3  C3  UNL     1     -32.476   7.737   1.770  1.00 20.00     0.084 C 
HETATM    4  C4  UNL     1     -34.159   6.356   3.304  1.00 20.00     0.141 C 
HETATM    5  C5  UNL     1     -35.618   6.693   3.037  1.00 20.00     0.053 C 
HETATM    6  O6  UNL     1     -33.777   7.954   5.080  1.00 20.00    -0.295 OA
HETATM    7  S7  UNL     1     -33.251   6.108   1.747  1.00 20.00    -0.135 SA
HETATM    8 CL8  UNL     1     -34.013   4.929   4.349  1.00 20.00    -0.099 Cl
ENDROOT
TORSDOF 0
ENDMDL
MODEL 2
REMARK VINA RESULT:       1.0      2.065      2.425
REMARK  0 active torsions:
REMARK  status: ('A' for Active; 'I' for Inactive)
ROOT
HETATM    1  C1  UNL     1     -33.457   5.678   3.051  1.00 20.00     0.161 C 
HETATM    2  C2  UNL     1     -32.605   5.621   1.806  1.00 20.00     0.091 C 
HETATM    3  C3  UNL     1     -31.992   6.996   1.632  1.00 20.00     0.084 C 
HETATM    4  C4  UNL     1     -33.990   7.057   3.392  1.00 20.00     0.141 C 
HETATM    5  C5  UNL     1     -33.544   7.491   4.780  1.00 20.00     0.053 C 
HETATM    6  O6  UNL     1     -33.730   4.671   3.699  1.00 20.00    -0.295 OA
HETATM    7  S7  UNL     1     -33.295   8.148   2.113  1.00 20.00    -0.135 SA
HETATM    8 CL8  UNL     1     -35.760   7.003   3.275  1.00 20.00    -0.099 Cl
ENDROOT
TORSDOF 0
ENDMDL
MODEL 3
REMARK VINA RESULT:       1.2      2.712      3.468
REMARK  0 active torsions:
REMARK  status: ('A' for Active; 'I' for Inactive)
ROOT
HETATM    1  C1  UNL     1     -32.745   6.319   2.085  1.00 20.00     0.161 C 
HETATM    2  C2  UNL     1     -33.670   5.624   3.056  1.00 20.00     0.091 C 
HETATM    3  C3  UNL     1     -34.602   6.685   3.608  1.00 20.00     0.084 C 
HETATM    4  C4  UNL     1     -32.521   7.793   2.369  1.00 20.00     0.141 C 
HETATM    5  C5  UNL     1     -32.926   8.649   1.179  1.00 20.00     0.053 C 
HETATM    6  O6  UNL     1     -32.185   5.716   1.175  1.00 20.00    -0.295 OA
HETATM    7  S7  UNL     1     -33.567   8.148   3.814  1.00 20.00    -0.135 SA
HETATM    8 CL8  UNL     1     -30.805   8.019   2.765  1.00 20.00    -0.099 Cl
ENDROOT
TORSDOF 0
ENDMDL
MODEL 4
REMARK VINA RESULT:       1.2      2.108      2.348
REMARK  0 active torsions:
REMARK  status: ('A' for Active; 'I' for Inactive)
ROOT
HETATM    1  C1  UNL     1     -32.668   7.728   2.220  1.00 20.00     0.161 C 
HETATM    2  C2  UNL     1     -32.017   6.590   1.472  1.00 20.00     0.091 C 
HETATM    3  C3  UNL     1     -32.909   5.379   1.655  1.00 20.00     0.084 C 
HETATM    4  C4  UNL     1     -33.544   7.302   3.384  1.00 20.00     0.141 C 
HETATM    5  C5  UNL     1     -34.968   7.808   3.212  1.00 20.00     0.053 C 
HETATM    6  O6  UNL     1     -32.456   8.902   1.931  1.00 20.00    -0.295 OA
HETATM    7  S7  UNL     1     -33.490   5.485   3.361  1.00 20.00    -0.135 SA
HETATM    8 CL8  UNL     1     -32.817   7.933   4.875  1.00 20.00    -0.099 Cl
ENDROOT
TORSDOF 0
ENDMDL
MODEL 5
REMARK VINA RESULT:       1.2      2.561      3.102
REMARK  0 active torsions:
REMARK  status: ('A' for Active; 'I' for Inactive)
ROOT
HETATM    1  C1  UNL     1     -32.458   7.577   1.862  1.00 20.00     0.161 C 
HETATM    2  C2  UNL     1     -33.067   8.340   3.014  1.00 20.00     0.091 C 
HETATM    3  C3  UNL     1     -33.460   7.316   4.059  1.00 20.00     0.084 C 
HETATM    4  C4  UNL     1     -32.945   6.147   1.722  1.00 20.00     0.141 C 
HETATM    5  C5  UNL     1     -31.788   5.163   1.793  1.00 20.00     0.053 C 
HETATM    6  O6  UNL     1     -31.670   8.100   1.080  1.00 20.00    -0.295 OA
HETATM    7  S7  UNL     1     -34.089   5.911   3.116  1.00 20.00    -0.135 SA
HETATM    8 CL8  UNL     1     -33.806   6.012   0.175  1.00 20.00    -0.099 Cl
ENDROOT
TORSDOF 0
ENDMDL
MODEL 6
REMARK VINA RESULT:       1.4      2.252      2.566
REMARK  0 active torsions:
REMARK  status: ('A' for Active; 'I' for Inactive)
ROOT
HETATM    1  C1  UNL     1     -33.518   6.019   2.986  1.00 20.00     0.161 C 
HETATM    2  C2  UNL     1     -33.477   7.297   3.788  1.00 20.00     0.091 C 
HETATM    3  C3  UNL     1     -33.225   8.423   2.805  1.00 20.00     0.084 C 
HETATM    4  C4  UNL     1     -32.721   6.054   1.695  1.00 20.00     0.141 C 
HETATM    5  C5  UNL     1     -33.607   5.762   0.494  1.00 20.00     0.053 C 
HETATM    6  O6  UNL     1     -34.112   5.020   3.383  1.00 20.00    -0.295 OA
HETATM    7  S7  UNL     1     -32.050   7.743   1.615  1.00 20.00    -0.135 SA
HETATM    8 CL8  UNL     1     -31.410   4.865   1.829  1.00 20.00    -0.099 Cl
ENDROOT
TORSDOF 0
ENDMDL
MODEL 7
REMARK VINA RESULT:       1.5      2.073      3.026
REMARK  0 active torsions:
REMARK  status: ('A' for Active; 'I' for Inactive)
ROOT
HETATM    1  C1  UNL     1     -33.563   7.567   3.318  1.00 20.00     0.161 C 
HETATM    2  C2  UNL     1     -34.257   6.226   3.321  1.00 20.00     0.091 C 
HETATM    3  C3  UNL     1     -33.279   5.226   2.739  1.00 20.00     0.084 C 
HETATM    4  C4  UNL     1     -32.492   7.724   2.254  1.00 20.00     0.141 C 
HETATM    5  C5  UNL     1     -31.144   8.052   2.876  1.00 20.00     0.053 C 
HETATM    6  O6  UNL     1     -33.885   8.468   4.088  1.00 20.00    -0.295 OA
HETATM    7  S7  UNL     1     -32.446   6.115   1.407  1.00 20.00    -0.135 SA
HETATM    8 CL8  UNL     1     -33.012   9.004   1.140  1.00 20.00    -0.099 Cl
ENDROOT
TORSDOF 0
ENDMDL
MODEL 8
REMARK VINA RESULT:       1.7      2.294      3.188
REMARK  0 active torsions:
REMARK  status: ('A' for Active; 'I' for Inactive)
ROOT
HETATM    1  C1  UNL     1     -32.543   8.121   3.300  1.00 20.00     0.161 C 
HETATM    2  C2  UNL     1     -33.754   7.530   3.981  1.00 20.00     0.091 C 
HETATM    3  C3  UNL     1     -34.056   6.221   3.280  1.00 20.00     0.084 C 
HETATM    4  C4  UNL     1     -32.362   7.700   1.853  1.00 20.00     0.141 C 
HETATM    5  C5  UNL     1     -31.017   7.023   1.642  1.00 20.00     0.053 C 
HETATM    6  O6  UNL     1     -31.800   8.916   3.868  1.00 20.00    -0.295 OA
HETATM    7  S7  UNL     1     -33.731   6.545   1.535  1.00 20.00    -0.135 SA
HETATM    8 CL8  UNL     1     -32.516   9.149   0.839  1.00 20.00    -0.099 Cl
ENDROOT
TORSDOF 0
ENDMDL
MODEL 9
REMARK VINA RESULT:       3.2      2.895      3.467
REMARK  0 active torsions:
REMARK  status: ('A' for Active; 'I' for Inactive)
ROOT
HETATM    1  C1  UNL     1     -31.999   7.538   1.424  1.00 20.00     0.161 C 
HETATM    2  C2  UNL     1     -32.111   8.143   0.045  1.00 20.00     0.091 C 
HETATM    3  C3  UNL     1     -32.111   9.648   0.226  1.00 20.00     0.084 C 
HETATM    4  C4  UNL     1     -32.542   8.407   2.543  1.00 20.00     0.141 C 
HETATM    5  C5  UNL     1     -31.469   8.699   3.580  1.00 20.00     0.053 C 
HETATM    6  O6  UNL     1     -31.549   6.410   1.604  1.00 20.00    -0.295 OA
HETATM    7  S7  UNL     1     -33.085   9.934   1.718  1.00 20.00    -0.135 SA
HETATM    8 CL8  UNL     1     -33.923   7.562   3.271  1.00 20.00    -0.099 Cl
ENDROOT
TORSDOF 0
ENDMDL
