MODEL 1
REMARK VINA RESULT:       0.5      0.000      0.000
REMARK  0 active torsions:
REMARK  status: ('A' for Active; 'I' for Inactive)
ROOT
HETATM    1  C1  UNL     1     -32.461   6.311   2.029  1.00 20.00     0.086 C 
HETATM    2  C2  UNL     1     -33.356   6.100   3.000  1.00 20.00    -0.064 C 
HETATM    3  C3  UNL     1     -32.080   7.693   1.679  1.00 20.00     0.283 C 
HETATM    4  C4  UNL     1     -33.921   4.770   3.404  1.00 20.00     0.035 C 
HETATM    5  C5  UNL     1     -35.038   5.133   4.383  1.00 20.00     0.005 C 
HETATM    6  C6  UNL     1     -35.399   6.583   4.057  1.00 20.00     0.016 C 
HETATM    7  C7  UNL     1     -34.181   8.376   2.707  1.00 20.00     0.192 C 
HETATM    8  C8  UNL     1     -34.056   7.228   3.700  1.00 20.00     0.002 C 
HETATM    9  C9  UNL     1     -33.282   7.662   4.955  1.00 20.00     0.022 C 
HETATM   10  O10 UNL     1     -31.077   7.916   1.010  1.00 20.00    -0.260 OA
HETATM   11  O11 UNL     1     -32.888   8.692   2.136  1.00 20.00    -0.317 OA
ENDROOT
TORSDOF 0
ENDMDL
MODEL 2
REMARK VINA RESULT:       0.8      1.061      2.444
REMARK  0 active torsions:
REMARK  status: ('A' for Active; 'I' for Inactive)
ROOT
HETATM    1  C1  UNL     1     -33.215   8.101   2.619  1.00 20.00     0.086 C 
HETATM    2  C2  UNL     1     -33.725   6.899   2.905  1.00 20.00    -0.064 C 
HETATM    3  C3  UNL     1     -32.166   8.220   1.588  1.00 20.00     0.283 C 
HETATM    4  C4  UNL     1     -34.717   6.596   3.989  1.00 20.00     0.035 C 
HETATM    5  C5  UNL     1     -34.775   5.069   4.013  1.00 20.00     0.005 C 
HETATM    6  C6  UNL     1     -33.464   4.609   3.374  1.00 20.00     0.016 C 
HETATM    7  C7  UNL     1     -31.731   5.852   1.967  1.00 20.00     0.192 C 
HETATM    8  C8  UNL     1     -33.209   5.641   2.269  1.00 20.00     0.002 C 
HETATM    9  C9  UNL     1     -33.995   5.308   0.989  1.00 20.00     0.022 C 
HETATM   10  O10 UNL     1     -31.883   9.311   1.104  1.00 20.00    -0.260 OA
HETATM   11  O11 UNL     1     -31.542   7.069   1.205  1.00 20.00    -0.317 OA
ENDROOT
TORSDOF 0
ENDMDL
MODEL 3
REMARK VINA RESULT:       1.8      1.951      3.656
REMARK  0 active torsions:
REMARK  status: ('A' for Active; 'I' for Inactive)
ROOT
HETATM    1  C1  UNL     1     -33.966   5.837   2.895  1.00 20.00     0.086 C 
HETATM    2  C2  UNL     1     -33.081   6.627   2.279  1.00 20.00    -0.064 C 
HETATM    3  C3  UNL     1     -34.750   6.368   4.027  1.00 20.00     0.283 C 
HETATM    4  C4  UNL     1     -32.139   6.212   1.187  1.00 20.00     0.035 C 
HETATM    5  C5  UNL     1     -31.224   7.424   1.016  1.00 20.00     0.005 C 
HETATM    6  C6  UNL     1     -31.326   8.190   2.336  1.00 20.00     0.016 C 
HETATM    7  C7  UNL     1     -33.003   8.051   4.258  1.00 20.00     0.192 C 
HETATM    8  C8  UNL     1     -32.792   8.022   2.750  1.00 20.00     0.002 C 
HETATM    9  C9  UNL     1     -33.702   9.041   2.043  1.00 20.00     0.022 C 
HETATM   10  O10 UNL     1     -35.752   5.783   4.425  1.00 20.00    -0.260 OA
HETATM   11  O11 UNL     1     -34.311   7.528   4.594  1.00 20.00    -0.317 OA
ENDROOT
TORSDOF 0
ENDMDL
MODEL 4
REMARK VINA RESULT:       2.2      2.148      3.375
REMARK  0 active torsions:
REMARK  status: ('A' for Active; 'I' for Inactive)
ROOT
HETATM    1  C1  UNL     1     -32.863   7.930   3.587  1.00 20.00     0.086 C 
HETATM    2  C2  UNL     1     -32.742   6.916   2.724  1.00 20.00    -0.064 C 
HETATM    3  C3  UNL     1     -33.924   7.890   4.611  1.00 20.00     0.283 C 
HETATM    4  C4  UNL     1     -31.788   6.851   1.568  1.00 20.00     0.035 C 
HETATM    5  C5  UNL     1     -32.226   5.602   0.805  1.00 20.00     0.005 C 
HETATM    6  C6  UNL     1     -33.677   5.366   1.224  1.00 20.00     0.016 C 
HETATM    7  C7  UNL     1     -35.059   6.292   3.163  1.00 20.00     0.192 C 
HETATM    8  C8  UNL     1     -33.705   5.765   2.703  1.00 20.00     0.002 C 
HETATM    9  C9  UNL     1     -33.218   4.623   3.609  1.00 20.00     0.022 C 
HETATM   10  O10 UNL     1     -33.891   8.642   5.580  1.00 20.00    -0.260 OA
HETATM   11  O11 UNL     1     -34.927   6.983   4.429  1.00 20.00    -0.317 OA
ENDROOT
TORSDOF 0
ENDMDL
MODEL 5
REMARK VINA RESULT:       2.8      1.904      4.247
REMARK  0 active torsions:
REMARK  status: ('A' for Active; 'I' for Inactive)
ROOT
HETATM    1  C1  UNL     1     -34.131   8.334   2.892  1.00 20.00     0.086 C 
HETATM    2  C2  UNL     1     -33.182   8.738   2.041  1.00 20.00    -0.064 C 
HETATM    3  C3  UNL     1     -34.091   6.960   3.427  1.00 20.00     0.283 C 
HETATM    4  C4  UNL     1     -33.137  10.059   1.333  1.00 20.00     0.035 C 
HETATM    5  C5  UNL     1     -31.987   9.899   0.338  1.00 20.00     0.005 C 
HETATM    6  C6  UNL     1     -31.829   8.390   0.149  1.00 20.00     0.016 C 
HETATM    7  C7  UNL     1     -32.701   6.407   1.504  1.00 20.00     0.192 C 
HETATM    8  C8  UNL     1     -32.112   7.812   1.540  1.00 20.00     0.002 C 
HETATM    9  C9  UNL     1     -30.869   7.868   2.443  1.00 20.00     0.022 C 
HETATM   10  O10 UNL     1     -34.761   6.649   4.407  1.00 20.00    -0.260 OA
HETATM   11  O11 UNL     1     -33.279   6.070   2.788  1.00 20.00    -0.317 OA
ENDROOT
TORSDOF 0
ENDMDL
MODEL 6
REMARK VINA RESULT:       3.0      1.452      1.763
REMARK  0 active torsions:
REMARK  status: ('A' for Active; 'I' for Inactive)
ROOT
HETATM    1  C1  UNL     1     -32.759   4.377   2.544  1.00 20.00     0.086 C 
HETATM    2  C2  UNL     1     -33.651   4.928   3.373  1.00 20.00    -0.064 C 
HETATM    3  C3  UNL     1     -32.054   5.226   1.565  1.00 20.00     0.283 C 
HETATM    4  C4  UNL     1     -34.520   4.192   4.349  1.00 20.00     0.035 C 
HETATM    5  C5  UNL     1     -35.484   5.264   4.859  1.00 20.00     0.005 C 
HETATM    6  C6  UNL     1     -35.480   6.349   3.781  1.00 20.00     0.016 C 
HETATM    7  C7  UNL     1     -33.889   6.807   1.836  1.00 20.00     0.192 C 
HETATM    8  C8  UNL     1     -34.028   6.379   3.290  1.00 20.00     0.002 C 
HETATM    9  C9  UNL     1     -33.136   7.232   4.207  1.00 20.00     0.022 C 
HETATM   10  O10 UNL     1     -31.045   4.823   0.995  1.00 20.00    -0.260 OA
HETATM   11  O11 UNL     1     -32.574   6.466   1.333  1.00 20.00    -0.317 OA
ENDROOT
TORSDOF 0
ENDMDL
MODEL 7
REMARK VINA RESULT:       3.0      1.718      3.416
REMARK  0 active torsions:
REMARK  status: ('A' for Active; 'I' for Inactive)
ROOT
HETATM    1  C1  UNL     1     -33.839   6.935   3.728  1.00 20.00     0.086 C 
HETATM    2  C2  UNL     1     -33.285   6.667   2.541  1.00 20.00    -0.064 C 
HETATM    3  C3  UNL     1     -33.413   8.134   4.475  1.00 20.00     0.283 C 
HETATM    4  C4  UNL     1     -33.532   5.444   1.709  1.00 20.00     0.035 C 
HETATM    5  C5  UNL     1     -32.495   5.549   0.591  1.00 20.00     0.005 C 
HETATM    6  C6  UNL     1     -31.405   6.468   1.143  1.00 20.00     0.016 C 
HETATM    7  C7  UNL     1     -31.377   8.065   3.138  1.00 20.00     0.192 C 
HETATM    8  C8  UNL     1     -32.177   7.503   1.970  1.00 20.00     0.002 C 
HETATM    9  C9  UNL     1     -32.737   8.631   1.088  1.00 20.00     0.022 C 
HETATM   10  O10 UNL     1     -34.083   8.562   5.409  1.00 20.00    -0.260 OA
HETATM   11  O11 UNL     1     -32.255   8.734   4.075  1.00 20.00    -0.317 OA
ENDROOT
TORSDOF 0
ENDMDL
MODEL 8
REMARK VINA RESULT:       3.2      2.628      3.732
REMARK  0 active torsions:
REMARK  status: ('A' for Active; 'I' for Inactive)
ROOT
HETATM    1  C1  UNL     1     -33.053   4.677   3.097  1.00 20.00     0.086 C 
HETATM    2  C2  UNL     1     -33.295   5.970   2.856  1.00 20.00    -0.064 C 
HETATM    3  C3  UNL     1     -33.965   3.917   3.974  1.00 20.00     0.283 C 
HETATM    4  C4  UNL     1     -32.416   6.901   2.076  1.00 20.00     0.035 C 
HETATM    5  C5  UNL     1     -33.047   8.274   2.305  1.00 20.00     0.005 C 
HETATM    6  C6  UNL     1     -33.860   8.130   3.592  1.00 20.00     0.016 C 
HETATM    7  C7  UNL     1     -34.650   6.072   4.882  1.00 20.00     0.192 C 
HETATM    8  C8  UNL     1     -34.424   6.707   3.516  1.00 20.00     0.002 C 
HETATM    9  C9  UNL     1     -35.698   6.645   2.658  1.00 20.00     0.022 C 
HETATM   10  O10 UNL     1     -33.943   2.691   3.990  1.00 20.00    -0.260 OA
HETATM   11  O11 UNL     1     -34.822   4.640   4.750  1.00 20.00    -0.317 OA
ENDROOT
TORSDOF 0
ENDMDL
MODEL 9
REMARK VINA RESULT:       3.3      1.920      2.947
REMARK  0 active torsions:
REMARK  status: ('A' for Active; 'I' for Inactive)
ROOT
HETATM    1  C1  UNL     1     -32.474   6.582   1.747  1.00 20.00     0.086 C 
HETATM    2  C2  UNL     1     -33.070   7.198   2.772  1.00 20.00    -0.064 C 
HETATM    3  C3  UNL     1     -32.865   5.202   1.401  1.00 20.00     0.283 C 
HETATM    4  C4  UNL     1     -32.718   8.553   3.313  1.00 20.00     0.035 C 
HETATM    5  C5  UNL     1     -33.545   8.660   4.593  1.00 20.00     0.005 C 
HETATM    6  C6  UNL     1     -33.861   7.216   4.986  1.00 20.00     0.016 C 
HETATM    7  C7  UNL     1     -33.713   5.027   3.679  1.00 20.00     0.192 C 
HETATM    8  C8  UNL     1     -34.075   6.506   3.645  1.00 20.00     0.002 C 
HETATM    9  C9  UNL     1     -35.503   6.714   3.114  1.00 20.00     0.022 C 
HETATM   10  O10 UNL     1     -32.557   4.715   0.318  1.00 20.00    -0.260 OA
HETATM   11  O11 UNL     1     -33.581   4.509   2.332  1.00 20.00    -0.317 OA
ENDROOT
TORSDOF 0
ENDMDL
