MODEL 1
REMARK VINA RESULT:      -0.7      0.000      0.000
REMARK  0 active torsions:
REMARK  status: ('A' for Active; 'I' for Inactive)
ROOT
HETATM    1  C1  UNL     1     -32.630   7.337   2.245  1.00 20.00     0.154 C 
HETATM    2  C2  UNL     1     -33.639   8.244   2.920  1.00 20.00     0.081 C 
HETATM    3  C3  UNL     1     -34.171   7.611   4.199  1.00 20.00     0.018 C 
HETATM    4  C4  UNL     1     -34.844   6.264   3.960  1.00 20.00     0.076 C 
HETATM    5  C5  UNL     1     -33.141   5.978   1.812  1.00 20.00     0.212 C 
HETATM    6  O6  UNL     1     -31.485   7.734   2.028  1.00 20.00    -0.295 OA
HETATM    7  S7  UNL     1     -33.679   5.050   3.270  1.00 20.00    -0.141 SA
HETATM    8 CL8  UNL     1     -31.866   5.091   0.952  1.00 20.00    -0.105 Cl
ENDROOT
TORSDOF 0
ENDMDL
MODEL 2
REMARK VINA RESULT:      -0.5      2.694      3.434
REMARK  0 active torsions:
REMARK  status: ('A' for Active; 'I' for Inactive)
ROOT
HETATM    1  C1  UNL     1     -33.521   5.458   2.673  1.00 20.00     0.154 C 
HETATM    2  C2  UNL     1     -32.669   5.796   1.467  1.00 20.00     0.081 C 
HETATM    3  C3  UNL     1     -31.717   6.943   1.777  1.00 20.00     0.018 C 
HETATM    4  C4  UNL     1     -32.439   8.216   2.206  1.00 20.00     0.076 C 
HETATM    5  C5  UNL     1     -34.416   6.566   3.188  1.00 20.00     0.212 C 
HETATM    6  O6  UNL     1     -33.502   4.323   3.149  1.00 20.00    -0.295 OA
HETATM    7  S7  UNL     1     -33.393   7.957   3.732  1.00 20.00    -0.141 SA
HETATM    8 CL8  UNL     1     -35.415   5.972   4.532  1.00 20.00    -0.105 Cl
ENDROOT
TORSDOF 0
ENDMDL
MODEL 3
REMARK VINA RESULT:      -0.4      2.350      2.887
REMARK  0 active torsions:
REMARK  status: ('A' for Active; 'I' for Inactive)
ROOT
HETATM    1  C1  UNL     1     -34.207   6.537   3.704  1.00 20.00     0.154 C 
HETATM    2  C2  UNL     1     -33.637   7.936   3.591  1.00 20.00     0.081 C 
HETATM    3  C3  UNL     1     -33.110   8.198   2.186  1.00 20.00     0.018 C 
HETATM    4  C4  UNL     1     -32.020   7.217   1.768  1.00 20.00     0.076 C 
HETATM    5  C5  UNL     1     -33.240   5.401   3.443  1.00 20.00     0.212 C 
HETATM    6  O6  UNL     1     -35.378   6.369   4.042  1.00 20.00    -0.295 OA
HETATM    7  S7  UNL     1     -32.637   5.507   1.740  1.00 20.00    -0.141 SA
HETATM    8 CL8  UNL     1     -34.042   3.840   3.718  1.00 20.00    -0.105 Cl
ENDROOT
TORSDOF 0
ENDMDL
MODEL 4
REMARK VINA RESULT:       0.2      2.002      2.439
REMARK  0 active torsions:
REMARK  status: ('A' for Active; 'I' for Inactive)
ROOT
HETATM    1  C1  UNL     1     -33.045   6.027   2.089  1.00 20.00     0.154 C 
HETATM    2  C2  UNL     1     -33.679   5.216   3.201  1.00 20.00     0.081 C 
HETATM    3  C3  UNL     1     -34.838   5.974   3.835  1.00 20.00     0.018 C 
HETATM    4  C4  UNL     1     -34.420   7.318   4.421  1.00 20.00     0.076 C 
HETATM    5  C5  UNL     1     -32.451   7.361   2.493  1.00 20.00     0.212 C 
HETATM    6  O6  UNL     1     -32.985   5.575   0.946  1.00 20.00    -0.295 OA
HETATM    7  S7  UNL     1     -33.762   8.428   3.140  1.00 20.00    -0.141 SA
HETATM    8 CL8  UNL     1     -31.663   8.128   1.098  1.00 20.00    -0.105 Cl
ENDROOT
TORSDOF 0
ENDMDL
MODEL 5
REMARK VINA RESULT:       0.3      1.996      2.503
REMARK  0 active torsions:
REMARK  status: ('A' for Active; 'I' for Inactive)
ROOT
HETATM    1  C1  UNL     1     -34.187   7.068   3.659  1.00 20.00     0.154 C 
HETATM    2  C2  UNL     1     -35.286   6.133   4.122  1.00 20.00     0.081 C 
HETATM    3  C3  UNL     1     -34.721   4.768   4.490  1.00 20.00     0.018 C 
HETATM    4  C4  UNL     1     -33.994   4.093   3.333  1.00 20.00     0.076 C 
HETATM    5  C5  UNL     1     -33.415   6.632   2.431  1.00 20.00     0.212 C 
HETATM    6  O6  UNL     1     -33.996   8.137   4.239  1.00 20.00    -0.295 OA
HETATM    7  S7  UNL     1     -32.565   5.074   2.782  1.00 20.00    -0.141 SA
HETATM    8 CL8  UNL     1     -32.242   7.885   1.969  1.00 20.00    -0.105 Cl
ENDROOT
TORSDOF 0
ENDMDL
MODEL 6
REMARK VINA RESULT:       0.7      1.737      2.028
REMARK  0 active torsions:
REMARK  status: ('A' for Active; 'I' for Inactive)
ROOT
HETATM    1  C1  UNL     1     -32.788   8.004   3.252  1.00 20.00     0.154 C 
HETATM    2  C2  UNL     1     -34.035   7.499   3.950  1.00 20.00     0.081 C 
HETATM    3  C3  UNL     1     -34.091   5.977   3.929  1.00 20.00     0.018 C 
HETATM    4  C4  UNL     1     -34.084   5.401   2.518  1.00 20.00     0.076 C 
HETATM    5  C5  UNL     1     -32.650   7.639   1.788  1.00 20.00     0.212 C 
HETATM    6  O6  UNL     1     -31.983   8.713   3.855  1.00 20.00    -0.295 OA
HETATM    7  S7  UNL     1     -32.559   5.838   1.628  1.00 20.00    -0.141 SA
HETATM    8 CL8  UNL     1     -31.194   8.394   1.105  1.00 20.00    -0.105 Cl
ENDROOT
TORSDOF 0
ENDMDL
MODEL 7
REMARK VINA RESULT:       1.1      2.299      2.926
REMARK  0 active torsions:
REMARK  status: ('A' for Active; 'I' for Inactive)
ROOT
HETATM    1  C1  UNL     1     -32.531   7.776   2.432  1.00 20.00     0.154 C 
HETATM    2  C2  UNL     1     -31.851   6.757   1.541  1.00 20.00     0.081 C 
HETATM    3  C3  UNL     1     -32.816   5.647   1.146  1.00 20.00     0.018 C 
HETATM    4  C4  UNL     1     -33.391   4.903   2.346  1.00 20.00     0.076 C 
HETATM    5  C5  UNL     1     -33.071   7.255   3.748  1.00 20.00     0.212 C 
HETATM    6  O6  UNL     1     -32.578   8.959   2.099  1.00 20.00    -0.295 OA
HETATM    7  S7  UNL     1     -34.348   6.014   3.422  1.00 20.00    -0.141 SA
HETATM    8 CL8  UNL     1     -33.740   8.592   4.707  1.00 20.00    -0.105 Cl
ENDROOT
TORSDOF 0
ENDMDL
MODEL 8
REMARK VINA RESULT:       1.8      2.244      2.676
REMARK  0 active torsions:
REMARK  status: ('A' for Active; 'I' for Inactive)
ROOT
HETATM    1  C1  UNL     1     -34.113   6.574   3.330  1.00 20.00     0.154 C 
HETATM    2  C2  UNL     1     -33.763   7.261   4.634  1.00 20.00     0.081 C 
HETATM    3  C3  UNL     1     -33.135   8.625   4.381  1.00 20.00     0.018 C 
HETATM    4  C4  UNL     1     -31.864   8.547   3.542  1.00 20.00     0.076 C 
HETATM    5  C5  UNL     1     -32.954   6.291   2.395  1.00 20.00     0.212 C 
HETATM    6  O6  UNL     1     -35.272   6.231   3.099  1.00 20.00    -0.295 OA
HETATM    7  S7  UNL     1     -32.195   7.856   1.893  1.00 20.00    -0.141 SA
HETATM    8 CL8  UNL     1     -33.523   5.396   0.970  1.00 20.00    -0.105 Cl
ENDROOT
TORSDOF 0
ENDMDL
MODEL 9
REMARK VINA RESULT:       1.9      2.296      2.723
REMARK  0 active torsions:
REMARK  status: ('A' for Active; 'I' for Inactive)
ROOT
HETATM    1  C1  UNL     1     -32.076   7.388   1.883  1.00 20.00     0.154 C 
HETATM    2  C2  UNL     1     -32.423   5.989   1.417  1.00 20.00     0.081 C 
HETATM    3  C3  UNL     1     -33.870   5.648   1.748  1.00 20.00     0.018 C 
HETATM    4  C4  UNL     1     -34.174   5.729   3.240  1.00 20.00     0.076 C 
HETATM    5  C5  UNL     1     -32.196   7.643   3.372  1.00 20.00     0.212 C 
HETATM    6  O6  UNL     1     -31.672   8.228   1.080  1.00 20.00    -0.295 OA
HETATM    7  S7  UNL     1     -33.917   7.411   3.881  1.00 20.00    -0.141 SA
HETATM    8 CL8  UNL     1     -31.656   9.291   3.755  1.00 20.00    -0.105 Cl
ENDROOT
TORSDOF 0
ENDMDL
