MODEL 1
REMARK VINA RESULT:      -2.0      0.000      0.000
REMARK  1 active torsions:
REMARK  status: ('A' for Active; 'I' for Inactive)
REMARK    1  A    between atoms: C2_2  and  C6_6 
ROOT
HETATM    1  C3  UNL     1     -32.190   8.429   3.033  1.00 20.00     0.003 C 
HETATM    2  C4  UNL     1     -33.357   7.837   3.848  1.00 20.00     0.011 C 
HETATM    3  C5  UNL     1     -32.011   7.833   1.635  1.00 20.00     0.034 C 
HETATM    4  C6  UNL     1     -34.178   6.763   3.106  1.00 20.00     0.039 C 
HETATM    5  C7  UNL     1     -32.093   6.343   1.694  1.00 20.00     0.151 A 
HETATM    6  C8  UNL     1     -33.238   5.769   2.477  1.00 20.00     0.158 A 
HETATM    7  O9  UNL     1     -33.226   5.757   1.044  1.00 20.00    -0.375 OA
ENDROOT
BRANCH   4   8
HETATM    8  C2  UNL     1     -35.187   6.150   4.028  1.00 20.00    -0.030 C 
HETATM    9  C1  UNL     1     -35.092   4.913   4.526  1.00 20.00     0.007 C 
ENDBRANCH   4   8
TORSDOF 1
ENDMDL
MODEL 2
REMARK VINA RESULT:      -1.7      1.774      2.529
REMARK  1 active torsions:
REMARK  status: ('A' for Active; 'I' for Inactive)
REMARK    1  A    between atoms: C2_2  and  C6_6 
ROOT
HETATM    1  C3  UNL     1     -32.456   6.643   1.510  1.00 20.00     0.003 C 
HETATM    2  C4  UNL     1     -32.968   5.307   2.085  1.00 20.00     0.011 C 
HETATM    3  C5  UNL     1     -32.556   7.835   2.463  1.00 20.00     0.034 C 
HETATM    4  C6  UNL     1     -33.465   5.383   3.542  1.00 20.00     0.039 C 
HETATM    5  C7  UNL     1     -33.898   7.864   3.118  1.00 20.00     0.151 A 
HETATM    6  C8  UNL     1     -34.388   6.564   3.688  1.00 20.00     0.158 A 
HETATM    7  O9  UNL     1     -33.906   7.620   4.528  1.00 20.00    -0.375 OA
ENDROOT
BRANCH   4   8
HETATM    8  C2  UNL     1     -34.073   4.079   3.955  1.00 20.00    -0.030 C 
HETATM    9  C1  UNL     1     -33.406   3.108   4.588  1.00 20.00     0.007 C 
ENDBRANCH   4   8
TORSDOF 1
ENDMDL
MODEL 3
REMARK VINA RESULT:      -1.3      1.135      3.373
REMARK  1 active torsions:
REMARK  status: ('A' for Active; 'I' for Inactive)
REMARK    1  A    between atoms: C2_2  and  C6_6 
ROOT
HETATM    1  C3  UNL     1     -34.175   6.879   3.674  1.00 20.00     0.003 C 
HETATM    2  C4  UNL     1     -33.467   8.069   2.995  1.00 20.00     0.011 C 
HETATM    3  C5  UNL     1     -33.594   5.505   3.333  1.00 20.00     0.034 C 
HETATM    4  C6  UNL     1     -32.265   7.682   2.111  1.00 20.00     0.039 C 
HETATM    5  C7  UNL     1     -33.363   5.390   1.862  1.00 20.00     0.151 A 
HETATM    6  C8  UNL     1     -32.662   6.545   1.207  1.00 20.00     0.158 A 
HETATM    7  O9  UNL     1     -31.994   5.302   1.454  1.00 20.00    -0.375 OA
ENDROOT
BRANCH   4   8
HETATM    8  C2  UNL     1     -31.743   8.884   1.386  1.00 20.00    -0.030 C 
HETATM    9  C1  UNL     1     -32.419   9.537   0.434  1.00 20.00     0.007 C 
ENDBRANCH   4   8
TORSDOF 1
ENDMDL
MODEL 4
REMARK VINA RESULT:      -1.2      1.427      2.197
REMARK  1 active torsions:
REMARK  status: ('A' for Active; 'I' for Inactive)
REMARK    1  A    between atoms: C2_2  and  C6_6 
ROOT
HETATM    1  C3  UNL     1     -32.413   5.659   1.121  1.00 20.00     0.003 C 
HETATM    2  C4  UNL     1     -33.618   5.598   2.082  1.00 20.00     0.011 C 
HETATM    3  C5  UNL     1     -31.378   6.737   1.453  1.00 20.00     0.034 C 
HETATM    4  C6  UNL     1     -33.565   6.610   3.243  1.00 20.00     0.039 C 
HETATM    5  C7  UNL     1     -32.058   8.033   1.751  1.00 20.00     0.151 A 
HETATM    6  C8  UNL     1     -33.223   7.971   2.697  1.00 20.00     0.158 A 
HETATM    7  O9  UNL     1     -31.951   8.493   3.102  1.00 20.00    -0.375 OA
ENDROOT
BRANCH   4   8
HETATM    8  C2  UNL     1     -34.841   6.571   4.027  1.00 20.00    -0.030 C 
HETATM    9  C1  UNL     1     -35.438   5.444   4.430  1.00 20.00     0.007 C 
ENDBRANCH   4   8
TORSDOF 1
ENDMDL
MODEL 5
REMARK VINA RESULT:      -1.1      1.669      3.935
REMARK  1 active torsions:
REMARK  status: ('A' for Active; 'I' for Inactive)
REMARK    1  A    between atoms: C2_2  and  C6_6 
ROOT
HETATM    1  C3  UNL     1     -33.635   5.221   2.716  1.00 20.00     0.003 C 
HETATM    2  C4  UNL     1     -32.711   6.118   1.867  1.00 20.00     0.011 C 
HETATM    3  C5  UNL     1     -34.638   5.975   3.592  1.00 20.00     0.034 C 
HETATM    4  C6  UNL     1     -32.974   7.630   2.013  1.00 20.00     0.039 C 
HETATM    5  C7  UNL     1     -33.960   7.097   4.307  1.00 20.00     0.151 A 
HETATM    6  C8  UNL     1     -33.072   7.976   3.475  1.00 20.00     0.158 A 
HETATM    7  O9  UNL     1     -34.362   8.414   3.917  1.00 20.00    -0.375 OA
ENDROOT
BRANCH   4   8
HETATM    8  C2  UNL     1     -31.936   8.413   1.269  1.00 20.00    -0.030 C 
HETATM    9  C1  UNL     1     -32.205   9.480   0.509  1.00 20.00     0.007 C 
ENDBRANCH   4   8
TORSDOF 1
ENDMDL
MODEL 6
REMARK VINA RESULT:      -0.5      1.471      3.144
REMARK  1 active torsions:
REMARK  status: ('A' for Active; 'I' for Inactive)
REMARK    1  A    between atoms: C2_2  and  C6_6 
ROOT
HETATM    1  C3  UNL     1     -34.225   6.702   3.867  1.00 20.00     0.003 C 
HETATM    2  C4  UNL     1     -33.810   5.629   2.841  1.00 20.00     0.011 C 
HETATM    3  C5  UNL     1     -33.858   8.138   3.483  1.00 20.00     0.034 C 
HETATM    4  C6  UNL     1     -33.123   6.182   1.576  1.00 20.00     0.039 C 
HETATM    5  C7  UNL     1     -32.449   8.198   2.991  1.00 20.00     0.151 A 
HETATM    6  C8  UNL     1     -32.052   7.159   1.982  1.00 20.00     0.158 A 
HETATM    7  O9  UNL     1     -32.290   8.521   1.606  1.00 20.00    -0.375 OA
ENDROOT
BRANCH   4   8
HETATM    8  C2  UNL     1     -32.630   5.058   0.718  1.00 20.00    -0.030 C 
HETATM    9  C1  UNL     1     -31.386   4.569   0.765  1.00 20.00     0.007 C 
ENDBRANCH   4   8
TORSDOF 1
ENDMDL
MODEL 7
REMARK VINA RESULT:      -0.4      1.497      3.045
REMARK  1 active torsions:
REMARK  status: ('A' for Active; 'I' for Inactive)
REMARK    1  A    between atoms: C2_2  and  C6_6 
ROOT
HETATM    1  C3  UNL     1     -32.348   8.509   3.094  1.00 20.00     0.003 C 
HETATM    2  C4  UNL     1     -32.181   7.551   1.897  1.00 20.00     0.011 C 
HETATM    3  C5  UNL     1     -33.104   7.922   4.288  1.00 20.00     0.034 C 
HETATM    4  C6  UNL     1     -32.774   6.144   2.112  1.00 20.00     0.039 C 
HETATM    5  C7  UNL     1     -34.336   7.217   3.824  1.00 20.00     0.151 A 
HETATM    6  C8  UNL     1     -34.168   6.275   2.667  1.00 20.00     0.158 A 
HETATM    7  O9  UNL     1     -34.343   5.797   4.006  1.00 20.00    -0.375 OA
ENDROOT
BRANCH   4   8
HETATM    8  C2  UNL     1     -32.693   5.345   0.848  1.00 20.00    -0.030 C 
HETATM    9  C1  UNL     1     -31.651   4.577   0.513  1.00 20.00     0.007 C 
ENDBRANCH   4   8
TORSDOF 1
ENDMDL
MODEL 8
REMARK VINA RESULT:      -0.0      1.653      2.566
REMARK  1 active torsions:
REMARK  status: ('A' for Active; 'I' for Inactive)
REMARK    1  A    between atoms: C2_2  and  C6_6 
ROOT
HETATM    1  C3  UNL     1     -33.031   5.234   1.419  1.00 20.00     0.003 C 
HETATM    2  C4  UNL     1     -33.878   5.826   2.565  1.00 20.00     0.011 C 
HETATM    3  C5  UNL     1     -31.701   5.948   1.166  1.00 20.00     0.034 C 
HETATM    4  C6  UNL     1     -33.229   7.019   3.293  1.00 20.00     0.039 C 
HETATM    5  C7  UNL     1     -31.903   7.428   1.149  1.00 20.00     0.151 A 
HETATM    6  C8  UNL     1     -32.717   8.002   2.273  1.00 20.00     0.158 A 
HETATM    7  O9  UNL     1     -31.292   8.149   2.224  1.00 20.00    -0.375 OA
ENDROOT
BRANCH   4   8
HETATM    8  C2  UNL     1     -34.186   7.610   4.282  1.00 20.00    -0.030 C 
HETATM    9  C1  UNL     1     -33.816   8.344   5.336  1.00 20.00     0.007 C 
ENDBRANCH   4   8
TORSDOF 1
ENDMDL
MODEL 9
REMARK VINA RESULT:       0.3      1.124      1.486
REMARK  1 active torsions:
REMARK  status: ('A' for Active; 'I' for Inactive)
REMARK    1  A    between atoms: C2_2  and  C6_6 
ROOT
HETATM    1  C3  UNL     1     -31.470   8.200   1.672  1.00 20.00     0.003 C 
HETATM    2  C4  UNL     1     -32.441   8.246   2.869  1.00 20.00     0.011 C 
HETATM    3  C5  UNL     1     -31.785   7.127   0.627  1.00 20.00     0.034 C 
HETATM    4  C6  UNL     1     -33.594   7.226   2.800  1.00 20.00     0.039 C 
HETATM    5  C7  UNL     1     -32.080   5.824   1.296  1.00 20.00     0.151 A 
HETATM    6  C8  UNL     1     -33.035   5.871   2.453  1.00 20.00     0.158 A 
HETATM    7  O9  UNL     1     -33.427   5.355   1.174  1.00 20.00    -0.375 OA
ENDROOT
BRANCH   4   8
HETATM    8  C2  UNL     1     -34.388   7.250   4.070  1.00 20.00    -0.030 C 
HETATM    9  C1  UNL     1     -34.046   7.953   5.154  1.00 20.00     0.007 C 
ENDBRANCH   4   8
TORSDOF 1
ENDMDL
