MODEL 1
REMARK VINA RESULT:       0.2      0.000      0.000
REMARK  1 active torsions:
REMARK  status: ('A' for Active; 'I' for Inactive)
REMARK    1  A    between atoms: C4_4  and  C9_9 
ROOT
HETATM    1  C1  UNL     1     -34.642   7.459   4.181  1.00 20.00     0.007 A 
HETATM    2  C2  UNL     1     -34.775   6.131   4.213  1.00 20.00     0.074 A 
HETATM    3  C3  UNL     1     -33.714   8.087   3.282  1.00 20.00     0.026 A 
HETATM    4  C4  UNL     1     -32.957   7.353   2.449  1.00 20.00     0.018 A 
HETATM    5  C5  UNL     1     -33.954   5.280   3.306  1.00 20.00     0.247 A 
HETATM    6  C8  UNL     1     -32.235   5.179   1.533  1.00 20.00     0.159 C 
HETATM    7  N10 UNL     1     -33.068   5.956   2.450  1.00 20.00    -0.322 N 
HETATM    8  O11 UNL     1     -34.102   4.060   3.361  1.00 20.00    -0.268 OA
ENDROOT
BRANCH   4   9
HETATM    9  C9  UNL     1     -31.991   8.022   1.512  1.00 20.00     0.028 C 
HETATM   10  C6  UNL     1     -32.676   9.172   0.784  1.00 20.00     0.016 C 
HETATM   11  C7  UNL     1     -30.760   8.508   2.269  1.00 20.00     0.016 C 
ENDBRANCH   4   9
TORSDOF 1
ENDMDL
MODEL 2
REMARK VINA RESULT:       0.3      2.062      4.274
REMARK  1 active torsions:
REMARK  status: ('A' for Active; 'I' for Inactive)
REMARK    1  A    between atoms: C4_4  and  C9_9 
ROOT
HETATM    1  C1  UNL     1     -32.281   5.773   0.973  1.00 20.00     0.007 A 
HETATM    2  C2  UNL     1     -31.929   7.060   0.958  1.00 20.00     0.074 A 
HETATM    3  C3  UNL     1     -33.055   5.232   2.055  1.00 20.00     0.026 A 
HETATM    4  C4  UNL     1     -33.446   6.009   3.080  1.00 20.00     0.018 A 
HETATM    5  C5  UNL     1     -32.340   7.957   2.075  1.00 20.00     0.247 A 
HETATM    6  C8  UNL     1     -33.535   8.192   4.225  1.00 20.00     0.159 C 
HETATM    7  N10 UNL     1     -33.098   7.367   3.101  1.00 20.00    -0.322 N 
HETATM    8  O11 UNL     1     -31.998   9.138   2.030  1.00 20.00    -0.268 OA
ENDROOT
BRANCH   4   9
HETATM    9  C9  UNL     1     -34.256   5.432   4.206  1.00 20.00     0.028 C 
HETATM   10  C6  UNL     1     -35.728   5.783   4.026  1.00 20.00     0.016 C 
HETATM   11  C7  UNL     1     -34.060   3.923   4.290  1.00 20.00     0.016 C 
ENDBRANCH   4   9
TORSDOF 1
ENDMDL
MODEL 3
REMARK VINA RESULT:       0.4      1.919      3.805
REMARK  1 active torsions:
REMARK  status: ('A' for Active; 'I' for Inactive)
REMARK    1  A    between atoms: C4_4  and  C9_9 
ROOT
HETATM    1  C1  UNL     1     -32.844   8.449   4.136  1.00 20.00     0.007 A 
HETATM    2  C2  UNL     1     -32.130   8.642   3.025  1.00 20.00     0.074 A 
HETATM    3  C3  UNL     1     -33.626   7.258   4.315  1.00 20.00     0.026 A 
HETATM    4  C4  UNL     1     -33.657   6.305   3.367  1.00 20.00     0.018 A 
HETATM    5  C5  UNL     1     -32.137   7.610   1.949  1.00 20.00     0.247 A 
HETATM    6  C8  UNL     1     -32.968   5.417   1.171  1.00 20.00     0.159 C 
HETATM    7  N10 UNL     1     -32.920   6.468   2.186  1.00 20.00    -0.322 N 
HETATM    8  O11 UNL     1     -31.468   7.820   0.937  1.00 20.00    -0.268 OA
ENDROOT
BRANCH   4   9
HETATM    9  C9  UNL     1     -34.478   5.062   3.566  1.00 20.00     0.028 C 
HETATM   10  C6  UNL     1     -33.609   3.944   4.130  1.00 20.00     0.016 C 
HETATM   11  C7  UNL     1     -35.667   5.344   4.477  1.00 20.00     0.016 C 
ENDBRANCH   4   9
TORSDOF 1
ENDMDL
MODEL 4
REMARK VINA RESULT:       1.3      1.622      3.240
REMARK  1 active torsions:
REMARK  status: ('A' for Active; 'I' for Inactive)
REMARK    1  A    between atoms: C4_4  and  C9_9 
ROOT
HETATM    1  C1  UNL     1     -31.954   8.406   1.996  1.00 20.00     0.007 A 
HETATM    2  C2  UNL     1     -32.630   8.608   3.129  1.00 20.00     0.074 A 
HETATM    3  C3  UNL     1     -32.029   7.149   1.306  1.00 20.00     0.026 A 
HETATM    4  C4  UNL     1     -32.785   6.144   1.782  1.00 20.00     0.018 A 
HETATM    5  C5  UNL     1     -33.479   7.520   3.692  1.00 20.00     0.247 A 
HETATM    6  C8  UNL     1     -34.327   5.211   3.466  1.00 20.00     0.159 C 
HETATM    7  N10 UNL     1     -33.512   6.317   2.968  1.00 20.00    -0.322 N 
HETATM    8  O11 UNL     1     -34.090   7.741   4.738  1.00 20.00    -0.268 OA
ENDROOT
BRANCH   4   9
HETATM    9  C9  UNL     1     -32.856   4.834   1.050  1.00 20.00     0.028 C 
HETATM   10  C6  UNL     1     -33.876   4.919  -0.079  1.00 20.00     0.016 C 
HETATM   11  C7  UNL     1     -31.483   4.440   0.519  1.00 20.00     0.016 C 
ENDBRANCH   4   9
TORSDOF 1
ENDMDL
MODEL 5
REMARK VINA RESULT:       1.3      0.941      2.503
REMARK  1 active torsions:
REMARK  status: ('A' for Active; 'I' for Inactive)
REMARK    1  A    between atoms: C4_4  and  C9_9 
ROOT
HETATM    1  C1  UNL     1     -32.795   4.900   1.529  1.00 20.00     0.007 A 
HETATM    2  C2  UNL     1     -33.653   4.520   2.479  1.00 20.00     0.074 A 
HETATM    3  C3  UNL     1     -32.363   6.266   1.427  1.00 20.00     0.026 A 
HETATM    4  C4  UNL     1     -32.811   7.197   2.286  1.00 20.00     0.018 A 
HETATM    5  C5  UNL     1     -34.175   5.522   3.452  1.00 20.00     0.247 A 
HETATM    6  C8  UNL     1     -34.183   7.870   4.223  1.00 20.00     0.159 C 
HETATM    7  N10 UNL     1     -33.711   6.840   3.299  1.00 20.00    -0.322 N 
HETATM    8  O11 UNL     1     -34.964   5.139   4.314  1.00 20.00    -0.268 OA
ENDROOT
BRANCH   4   9
HETATM    9  C9  UNL     1     -32.351   8.623   2.170  1.00 20.00     0.028 C 
HETATM   10  C6  UNL     1     -30.977   8.785   2.808  1.00 20.00     0.016 C 
HETATM   11  C7  UNL     1     -32.331   9.063   0.710  1.00 20.00     0.016 C 
ENDBRANCH   4   9
TORSDOF 1
ENDMDL
MODEL 6
REMARK VINA RESULT:       1.4      1.427      3.428
REMARK  1 active torsions:
REMARK  status: ('A' for Active; 'I' for Inactive)
REMARK    1  A    between atoms: C4_4  and  C9_9 
ROOT
HETATM    1  C1  UNL     1     -31.954   8.187   1.474  1.00 20.00     0.007 A 
HETATM    2  C2  UNL     1     -31.614   7.082   0.806  1.00 20.00     0.074 A 
HETATM    3  C3  UNL     1     -32.807   8.120   2.628  1.00 20.00     0.026 A 
HETATM    4  C4  UNL     1     -33.283   6.942   3.066  1.00 20.00     0.018 A 
HETATM    5  C5  UNL     1     -32.122   5.756   1.258  1.00 20.00     0.247 A 
HETATM    6  C8  UNL     1     -33.478   4.489   2.890  1.00 20.00     0.159 C 
HETATM    7  N10 UNL     1     -32.949   5.758   2.394  1.00 20.00    -0.322 N 
HETATM    8  O11 UNL     1     -31.789   4.757   0.620  1.00 20.00    -0.268 OA
ENDROOT
BRANCH   4   9
HETATM    9  C9  UNL     1     -34.173   6.885   4.275  1.00 20.00     0.028 C 
HETATM   10  C6  UNL     1     -34.050   8.174   5.078  1.00 20.00     0.016 C 
HETATM   11  C7  UNL     1     -35.619   6.631   3.865  1.00 20.00     0.016 C 
ENDBRANCH   4   9
TORSDOF 1
ENDMDL
MODEL 7
REMARK VINA RESULT:       1.7      2.104      3.964
REMARK  1 active torsions:
REMARK  status: ('A' for Active; 'I' for Inactive)
REMARK    1  A    between atoms: C4_4  and  C9_9 
ROOT
HETATM    1  C1  UNL     1     -32.445   5.089   1.512  1.00 20.00     0.007 A 
HETATM    2  C2  UNL     1     -31.666   5.944   0.847  1.00 20.00     0.074 A 
HETATM    3  C3  UNL     1     -33.371   5.553   2.508  1.00 20.00     0.026 A 
HETATM    4  C4  UNL     1     -33.478   6.862   2.793  1.00 20.00     0.018 A 
HETATM    5  C5  UNL     1     -31.753   7.405   1.132  1.00 20.00     0.247 A 
HETATM    6  C8  UNL     1     -32.814   9.212   2.441  1.00 20.00     0.159 C 
HETATM    7  N10 UNL     1     -32.679   7.794   2.115  1.00 20.00    -0.322 N 
HETATM    8  O11 UNL     1     -31.021   8.166   0.501  1.00 20.00    -0.268 OA
ENDROOT
BRANCH   4   9
HETATM    9  C9  UNL     1     -34.450   7.336   3.835  1.00 20.00     0.028 C 
HETATM   10  C6  UNL     1     -35.378   6.198   4.243  1.00 20.00     0.016 C 
HETATM   11  C7  UNL     1     -33.711   7.899   5.043  1.00 20.00     0.016 C 
ENDBRANCH   4   9
TORSDOF 1
ENDMDL
MODEL 8
REMARK VINA RESULT:       1.9      1.738      3.216
REMARK  1 active torsions:
REMARK  status: ('A' for Active; 'I' for Inactive)
REMARK    1  A    between atoms: C4_4  and  C9_9 
ROOT
HETATM    1  C1  UNL     1     -34.614   5.251   4.025  1.00 20.00     0.007 A 
HETATM    2  C2  UNL     1     -34.632   6.513   4.457  1.00 20.00     0.074 A 
HETATM    3  C3  UNL     1     -33.858   4.877   2.863  1.00 20.00     0.026 A 
HETATM    4  C4  UNL     1     -33.145   5.791   2.181  1.00 20.00     0.018 A 
HETATM    5  C5  UNL     1     -33.856   7.558   3.730  1.00 20.00     0.247 A 
HETATM    6  C8  UNL     1     -32.351   8.102   1.847  1.00 20.00     0.159 C 
HETATM    7  N10 UNL     1     -33.135   7.127   2.603  1.00 20.00    -0.322 N 
HETATM    8  O11 UNL     1     -33.893   8.712   4.155  1.00 20.00    -0.268 OA
ENDROOT
BRANCH   4   9
HETATM    9  C9  UNL     1     -32.356   5.388   0.968  1.00 20.00     0.028 C 
HETATM   10  C6  UNL     1     -31.154   4.546   1.379  1.00 20.00     0.016 C 
HETATM   11  C7  UNL     1     -33.239   4.636  -0.022  1.00 20.00     0.016 C 
ENDBRANCH   4   9
TORSDOF 1
ENDMDL
MODEL 9
REMARK VINA RESULT:       2.0      1.348      1.909
REMARK  1 active torsions:
REMARK  status: ('A' for Active; 'I' for Inactive)
REMARK    1  A    between atoms: C4_4  and  C9_9 
ROOT
HETATM    1  C1  UNL     1     -34.792   7.639   3.706  1.00 20.00     0.007 A 
HETATM    2  C2  UNL     1     -35.350   6.638   4.389  1.00 20.00     0.074 A 
HETATM    3  C3  UNL     1     -33.674   7.406   2.834  1.00 20.00     0.026 A 
HETATM    4  C4  UNL     1     -33.164   6.172   2.682  1.00 20.00     0.018 A 
HETATM    5  C5  UNL     1     -34.815   5.254   4.250  1.00 20.00     0.247 A 
HETATM    6  C8  UNL     1     -33.152   3.760   3.198  1.00 20.00     0.159 C 
HETATM    7  N10 UNL     1     -33.723   5.093   3.380  1.00 20.00    -0.322 N 
HETATM    8  O11 UNL     1     -35.353   4.354   4.894  1.00 20.00    -0.268 OA
ENDROOT
BRANCH   4   9
HETATM    9  C9  UNL     1     -31.996   5.940   1.766  1.00 20.00     0.028 C 
HETATM   10  C6  UNL     1     -32.431   5.119   0.558  1.00 20.00     0.016 C 
HETATM   11  C7  UNL     1     -31.382   7.266   1.333  1.00 20.00     0.016 C 
ENDBRANCH   4   9
TORSDOF 1
ENDMDL
