MODEL 1
REMARK VINA RESULT:      -0.5      0.000      0.000
REMARK  1 active torsions:
REMARK  status: ('A' for Active; 'I' for Inactive)
REMARK    1  A    between atoms: C2_2  and  C9_9 
ROOT
HETATM    1  C1  UNL     1     -33.102   7.411   3.963  1.00 20.00     0.057 A 
HETATM    2  C2  UNL     1     -33.584   6.519   3.094  1.00 20.00    -0.069 A 
HETATM    3  C3  UNL     1     -32.170   8.252   3.202  1.00 20.00     0.189 A 
HETATM    4  C4  UNL     1     -33.073   6.659   1.689  1.00 20.00     0.086 A 
HETATM    5  C5  UNL     1     -32.060   7.802   1.768  1.00 20.00     0.167 A 
HETATM    6  C6  UNL     1     -32.342   8.930   0.793  1.00 20.00     0.061 C 
HETATM    7  O10 UNL     1     -31.545   9.174   3.703  1.00 20.00    -0.290 OA
HETATM    8  F11 UNL     1     -30.814   7.314   1.519  1.00 20.00    -0.234 F 
ENDROOT
BRANCH   2   9
HETATM    9  C9  UNL     1     -34.570   5.450   3.417  1.00 20.00     0.006 C 
HETATM   10  C7  UNL     1     -33.862   4.218   3.980  1.00 20.00     0.014 C 
HETATM   11  C8  UNL     1     -35.630   5.956   4.398  1.00 20.00     0.014 C 
ENDBRANCH   2   9
TORSDOF 1
ENDMDL
MODEL 2
REMARK VINA RESULT:       0.0      2.207      3.896
REMARK  1 active torsions:
REMARK  status: ('A' for Active; 'I' for Inactive)
REMARK    1  A    between atoms: C2_2  and  C9_9 
ROOT
HETATM    1  C1  UNL     1     -32.907   7.831   3.658  1.00 20.00     0.057 A 
HETATM    2  C2  UNL     1     -32.846   6.982   2.628  1.00 20.00    -0.069 A 
HETATM    3  C3  UNL     1     -34.120   7.471   4.404  1.00 20.00     0.189 A 
HETATM    4  C4  UNL     1     -33.954   5.972   2.569  1.00 20.00     0.086 A 
HETATM    5  C5  UNL     1     -34.862   6.338   3.745  1.00 20.00     0.167 A 
HETATM    6  C6  UNL     1     -35.108   5.185   4.701  1.00 20.00     0.061 C 
HETATM    7  O10 UNL     1     -34.479   8.058   5.413  1.00 20.00    -0.290 OA
HETATM    8  F11 UNL     1     -36.060   6.770   3.267  1.00 20.00    -0.234 F 
ENDROOT
BRANCH   2   9
HETATM    9  C9  UNL     1     -31.779   6.969   1.588  1.00 20.00     0.006 C 
HETATM   10  C7  UNL     1     -31.898   5.723   0.711  1.00 20.00     0.014 C 
HETATM   11  C8  UNL     1     -31.830   8.236   0.731  1.00 20.00     0.014 C 
ENDBRANCH   2   9
TORSDOF 1
ENDMDL
MODEL 3
REMARK VINA RESULT:       0.2      1.712      2.432
REMARK  1 active torsions:
REMARK  status: ('A' for Active; 'I' for Inactive)
REMARK    1  A    between atoms: C2_2  and  C9_9 
ROOT
HETATM    1  C1  UNL     1     -32.786   7.960   2.314  1.00 20.00     0.057 A 
HETATM    2  C2  UNL     1     -33.543   7.071   2.961  1.00 20.00    -0.069 A 
HETATM    3  C3  UNL     1     -31.964   7.184   1.376  1.00 20.00     0.189 A 
HETATM    4  C4  UNL     1     -33.348   5.643   2.540  1.00 20.00     0.086 A 
HETATM    5  C5  UNL     1     -32.228   5.706   1.500  1.00 20.00     0.167 A 
HETATM    6  C6  UNL     1     -32.601   5.080   0.169  1.00 20.00     0.061 C 
HETATM    7  O10 UNL     1     -31.149   7.695   0.625  1.00 20.00    -0.290 OA
HETATM    8  F11 UNL     1     -31.129   5.068   1.988  1.00 20.00    -0.234 F 
ENDROOT
BRANCH   2   9
HETATM    9  C9  UNL     1     -34.538   7.398   4.020  1.00 20.00     0.006 C 
HETATM   10  C7  UNL     1     -35.345   6.157   4.403  1.00 20.00     0.014 C 
HETATM   11  C8  UNL     1     -33.856   7.996   5.252  1.00 20.00     0.014 C 
ENDBRANCH   2   9
TORSDOF 1
ENDMDL
MODEL 4
REMARK VINA RESULT:       0.2      1.627      2.048
REMARK  1 active torsions:
REMARK  status: ('A' for Active; 'I' for Inactive)
REMARK    1  A    between atoms: C2_2  and  C9_9 
ROOT
HETATM    1  C1  UNL     1     -32.783   5.805   1.911  1.00 20.00     0.057 A 
HETATM    2  C2  UNL     1     -33.610   5.994   2.943  1.00 20.00    -0.069 A 
HETATM    3  C3  UNL     1     -32.121   7.096   1.685  1.00 20.00     0.189 A 
HETATM    4  C4  UNL     1     -33.591   7.375   3.529  1.00 20.00     0.086 A 
HETATM    5  C5  UNL     1     -32.620   8.151   2.637  1.00 20.00     0.167 A 
HETATM    6  C6  UNL     1     -31.488   8.810   3.403  1.00 20.00     0.061 C 
HETATM    7  O10 UNL     1     -31.296   7.275   0.802  1.00 20.00    -0.290 OA
HETATM    8  F11 UNL     1     -33.306   9.112   1.961  1.00 20.00    -0.234 F 
ENDROOT
BRANCH   2   9
HETATM    9  C9  UNL     1     -34.501   4.955   3.531  1.00 20.00     0.006 C 
HETATM   10  C7  UNL     1     -33.676   3.858   4.206  1.00 20.00     0.014 C 
HETATM   11  C8  UNL     1     -35.487   5.573   4.524  1.00 20.00     0.014 C 
ENDBRANCH   2   9
TORSDOF 1
ENDMDL
MODEL 5
REMARK VINA RESULT:       0.2      2.230      4.263
REMARK  1 active torsions:
REMARK  status: ('A' for Active; 'I' for Inactive)
REMARK    1  A    between atoms: C2_2  and  C9_9 
ROOT
HETATM    1  C1  UNL     1     -32.316   6.716   1.689  1.00 20.00     0.057 A 
HETATM    2  C2  UNL     1     -32.505   8.032   1.818  1.00 20.00    -0.069 A 
HETATM    3  C3  UNL     1     -33.181   6.085   2.694  1.00 20.00     0.189 A 
HETATM    4  C4  UNL     1     -33.499   8.433   2.870  1.00 20.00     0.086 A 
HETATM    5  C5  UNL     1     -33.920   7.111   3.514  1.00 20.00     0.167 A 
HETATM    6  C6  UNL     1     -35.420   6.879   3.499  1.00 20.00     0.061 C 
HETATM    7  O10 UNL     1     -33.247   4.875   2.850  1.00 20.00    -0.290 OA
HETATM    8  F11 UNL     1     -33.489   7.086   4.805  1.00 20.00    -0.234 F 
ENDROOT
BRANCH   2   9
HETATM    9  C9  UNL     1     -31.830   9.081   1.004  1.00 20.00     0.006 C 
HETATM   10  C7  UNL     1     -31.208   8.470  -0.252  1.00 20.00     0.014 C 
HETATM   11  C8  UNL     1     -32.804  10.200   0.630  1.00 20.00     0.014 C 
ENDBRANCH   2   9
TORSDOF 1
ENDMDL
MODEL 6
REMARK VINA RESULT:       0.3      1.788      2.348
REMARK  1 active torsions:
REMARK  status: ('A' for Active; 'I' for Inactive)
REMARK    1  A    between atoms: C2_2  and  C9_9 
ROOT
HETATM    1  C1  UNL     1     -33.326   5.658   2.394  1.00 20.00     0.057 A 
HETATM    2  C2  UNL     1     -33.947   6.595   3.115  1.00 20.00    -0.069 A 
HETATM    3  C3  UNL     1     -32.244   6.350   1.683  1.00 20.00     0.189 A 
HETATM    4  C4  UNL     1     -33.367   7.975   3.001  1.00 20.00     0.086 A 
HETATM    5  C5  UNL     1     -32.241   7.827   1.977  1.00 20.00     0.167 A 
HETATM    6  C6  UNL     1     -30.893   8.304   2.486  1.00 20.00     0.061 C 
HETATM    7  O10 UNL     1     -31.476   5.779   0.923  1.00 20.00    -0.290 OA
HETATM    8  F11 UNL     1     -32.558   8.534   0.858  1.00 20.00    -0.234 F 
ENDROOT
BRANCH   2   9
HETATM    9  C9  UNL     1     -35.121   6.359   4.002  1.00 20.00     0.006 C 
HETATM   10  C7  UNL     1     -36.424   6.650   3.259  1.00 20.00     0.014 C 
HETATM   11  C8  UNL     1     -35.121   4.930   4.548  1.00 20.00     0.014 C 
ENDBRANCH   2   9
TORSDOF 1
ENDMDL
MODEL 7
REMARK VINA RESULT:       0.4      2.695      4.462
REMARK  1 active torsions:
REMARK  status: ('A' for Active; 'I' for Inactive)
REMARK    1  A    between atoms: C2_2  and  C9_9 
ROOT
HETATM    1  C1  UNL     1     -34.681   6.471   3.814  1.00 20.00     0.057 A 
HETATM    2  C2  UNL     1     -33.534   6.457   3.129  1.00 20.00    -0.069 A 
HETATM    3  C3  UNL     1     -34.888   5.094   4.279  1.00 20.00     0.189 A 
HETATM    4  C4  UNL     1     -32.843   5.126   3.071  1.00 20.00     0.086 A 
HETATM    5  C5  UNL     1     -33.793   4.176   3.803  1.00 20.00     0.167 A 
HETATM    6  C6  UNL     1     -33.137   3.428   4.949  1.00 20.00     0.061 C 
HETATM    7  O10 UNL     1     -35.857   4.753   4.940  1.00 20.00    -0.290 OA
HETATM    8  F11 UNL     1     -34.287   3.268   2.918  1.00 20.00    -0.234 F 
ENDROOT
BRANCH   2   9
HETATM    9  C9  UNL     1     -32.918   7.638   2.462  1.00 20.00     0.006 C 
HETATM   10  C7  UNL     1     -32.194   8.516   3.483  1.00 20.00     0.014 C 
HETATM   11  C8  UNL     1     -31.959   7.205   1.351  1.00 20.00     0.014 C 
ENDBRANCH   2   9
TORSDOF 1
ENDMDL
MODEL 8
REMARK VINA RESULT:       0.6      2.688      4.126
REMARK  1 active torsions:
REMARK  status: ('A' for Active; 'I' for Inactive)
REMARK    1  A    between atoms: C2_2  and  C9_9 
ROOT
HETATM    1  C1  UNL     1     -33.386   4.826   3.262  1.00 20.00     0.057 A 
HETATM    2  C2  UNL     1     -33.009   5.924   2.602  1.00 20.00    -0.069 A 
HETATM    3  C3  UNL     1     -34.595   5.198   4.007  1.00 20.00     0.189 A 
HETATM    4  C4  UNL     1     -33.898   7.119   2.795  1.00 20.00     0.086 A 
HETATM    5  C5  UNL     1     -34.950   6.648   3.801  1.00 20.00     0.167 A 
HETATM    6  C6  UNL     1     -36.376   6.823   3.313  1.00 20.00     0.061 C 
HETATM    7  O10 UNL     1     -35.201   4.419   4.726  1.00 20.00    -0.290 OA
HETATM    8  F11 UNL     1     -34.799   7.342   4.962  1.00 20.00    -0.234 F 
ENDROOT
BRANCH   2   9
HETATM    9  C9  UNL     1     -31.821   6.026   1.710  1.00 20.00     0.006 C 
HETATM   10  C7  UNL     1     -31.942   5.051   0.539  1.00 20.00     0.014 C 
HETATM   11  C8  UNL     1     -31.635   7.456   1.200  1.00 20.00     0.014 C 
ENDBRANCH   2   9
TORSDOF 1
ENDMDL
MODEL 9
REMARK VINA RESULT:       1.1      1.885      2.841
REMARK  1 active torsions:
REMARK  status: ('A' for Active; 'I' for Inactive)
REMARK    1  A    between atoms: C2_2  and  C9_9 
ROOT
HETATM    1  C1  UNL     1     -33.607   6.094   2.671  1.00 20.00     0.057 A 
HETATM    2  C2  UNL     1     -32.785   5.858   1.645  1.00 20.00    -0.069 A 
HETATM    3  C3  UNL     1     -33.364   7.486   3.070  1.00 20.00     0.189 A 
HETATM    4  C4  UNL     1     -31.936   7.023   1.229  1.00 20.00     0.086 A 
HETATM    5  C5  UNL     1     -32.282   8.121   2.236  1.00 20.00     0.167 A 
HETATM    6  C6  UNL     1     -32.746   9.413   1.589  1.00 20.00     0.061 C 
HETATM    7  O10 UNL     1     -33.955   8.027   3.992  1.00 20.00    -0.290 OA
HETATM    8  F11 UNL     1     -31.188   8.386   3.002  1.00 20.00    -0.234 F 
ENDROOT
BRANCH   2   9
HETATM    9  C9  UNL     1     -32.677   4.566   0.911  1.00 20.00     0.006 C 
HETATM   10  C7  UNL     1     -33.723   4.490  -0.202  1.00 20.00     0.014 C 
HETATM   11  C8  UNL     1     -31.270   4.374   0.339  1.00 20.00     0.014 C 
ENDBRANCH   2   9
TORSDOF 1
ENDMDL
