MODEL 1
REMARK VINA RESULT:       0.3      0.000      0.000
REMARK  1 active torsions:
REMARK  status: ('A' for Active; 'I' for Inactive)
REMARK    1  A    between atoms: C7_7  and  C10_10 
ROOT
HETATM    1  C1  UNL     1     -34.155   7.145   4.948  1.00 20.00    -0.018 C 
HETATM    2  C2  UNL     1     -33.827   7.947   3.922  1.00 20.00    -0.024 C 
HETATM    3  C3  UNL     1     -34.083   5.232   3.533  1.00 20.00     0.139 C 
HETATM    4  C4  UNL     1     -35.751   6.826   3.299  1.00 20.00     0.025 C 
HETATM    5  C5  UNL     1     -35.029   6.049   4.405  1.00 20.00     0.078 C 
HETATM    6  C6  UNL     1     -34.457   7.368   2.669  1.00 20.00     0.020 C 
HETATM    7  C7  UNL     1     -33.749   6.040   2.271  1.00 20.00     0.067 C 
HETATM    8  O11 UNL     1     -33.625   4.136   3.819  1.00 20.00    -0.297 OA
ENDROOT
BRANCH   7   9
HETATM    9  C10 UNL     1     -32.260   6.156   2.007  1.00 20.00    -0.011 C 
HETATM   10  C8  UNL     1     -31.804   5.119   0.978  1.00 20.00     0.010 C 
HETATM   11  C9  UNL     1     -31.895   7.565   1.534  1.00 20.00     0.010 C 
ENDBRANCH   7   9
TORSDOF 1
ENDMDL
MODEL 2
REMARK VINA RESULT:       1.0      1.533      3.747
REMARK  1 active torsions:
REMARK  status: ('A' for Active; 'I' for Inactive)
REMARK    1  A    between atoms: C7_7  and  C10_10 
ROOT
HETATM    1  C1  UNL     1     -32.638   8.815   0.614  1.00 20.00    -0.018 C 
HETATM    2  C2  UNL     1     -32.698   9.388   1.828  1.00 20.00    -0.024 C 
HETATM    3  C3  UNL     1     -32.694   6.643   1.590  1.00 20.00     0.139 C 
HETATM    4  C4  UNL     1     -30.838   8.014   1.834  1.00 20.00     0.025 C 
HETATM    5  C5  UNL     1     -31.818   7.562   0.746  1.00 20.00     0.078 C 
HETATM    6  C6  UNL     1     -31.940   8.496   2.793  1.00 20.00     0.020 C 
HETATM    7  C7  UNL     1     -32.719   7.170   3.032  1.00 20.00     0.067 C 
HETATM    8  O11 UNL     1     -33.315   5.677   1.174  1.00 20.00    -0.297 OA
ENDROOT
BRANCH   7   9
HETATM    9  C10 UNL     1     -34.120   7.336   3.587  1.00 20.00    -0.011 C 
HETATM   10  C8  UNL     1     -34.785   5.976   3.813  1.00 20.00     0.010 C 
HETATM   11  C9  UNL     1     -34.103   8.138   4.891  1.00 20.00     0.010 C 
ENDBRANCH   7   9
TORSDOF 1
ENDMDL
MODEL 3
REMARK VINA RESULT:       1.2      1.791      3.969
REMARK  1 active torsions:
REMARK  status: ('A' for Active; 'I' for Inactive)
REMARK    1  A    between atoms: C7_7  and  C10_10 
ROOT
HETATM    1  C1  UNL     1     -31.481   5.951   1.563  1.00 20.00    -0.018 C 
HETATM    2  C2  UNL     1     -32.738   5.487   1.662  1.00 20.00    -0.024 C 
HETATM    3  C3  UNL     1     -32.119   8.017   2.561  1.00 20.00     0.139 C 
HETATM    4  C4  UNL     1     -32.847   7.444   0.434  1.00 20.00     0.025 C 
HETATM    5  C5  UNL     1     -31.564   7.423   1.272  1.00 20.00     0.078 C 
HETATM    6  C6  UNL     1     -33.676   6.664   1.469  1.00 20.00     0.020 C 
HETATM    7  C7  UNL     1     -33.598   7.625   2.691  1.00 20.00     0.067 C 
HETATM    8  O11 UNL     1     -31.476   8.654   3.381  1.00 20.00    -0.297 OA
ENDROOT
BRANCH   7   9
HETATM    9  C10 UNL     1     -33.939   6.999   4.028  1.00 20.00    -0.011 C 
HETATM   10  C8  UNL     1     -33.867   8.035   5.153  1.00 20.00     0.010 C 
HETATM   11  C9  UNL     1     -35.327   6.354   3.994  1.00 20.00     0.010 C 
ENDBRANCH   7   9
TORSDOF 1
ENDMDL
MODEL 4
REMARK VINA RESULT:       1.6      1.475      3.443
REMARK  1 active torsions:
REMARK  status: ('A' for Active; 'I' for Inactive)
REMARK    1  A    between atoms: C7_7  and  C10_10 
ROOT
HETATM    1  C1  UNL     1     -32.867   8.506   1.036  1.00 20.00    -0.018 C 
HETATM    2  C2  UNL     1     -33.485   8.726   2.208  1.00 20.00    -0.024 C 
HETATM    3  C3  UNL     1     -32.180   6.342   1.755  1.00 20.00     0.139 C 
HETATM    4  C4  UNL     1     -31.275   8.257   2.700  1.00 20.00     0.025 C 
HETATM    5  C5  UNL     1     -31.633   7.696   1.320  1.00 20.00     0.078 C 
HETATM    6  C6  UNL     1     -32.677   8.030   3.288  1.00 20.00     0.020 C 
HETATM    7  C7  UNL     1     -32.806   6.485   3.150  1.00 20.00     0.067 C 
HETATM    8  O11 UNL     1     -32.169   5.324   1.080  1.00 20.00    -0.297 OA
ENDROOT
BRANCH   7   9
HETATM    9  C10 UNL     1     -34.219   5.944   3.234  1.00 20.00    -0.011 C 
HETATM   10  C8  UNL     1     -34.226   4.507   3.762  1.00 20.00     0.010 C 
HETATM   11  C9  UNL     1     -35.097   6.834   4.116  1.00 20.00     0.010 C 
ENDBRANCH   7   9
TORSDOF 1
ENDMDL
MODEL 5
REMARK VINA RESULT:       1.8      1.124      3.385
REMARK  1 active torsions:
REMARK  status: ('A' for Active; 'I' for Inactive)
REMARK    1  A    between atoms: C7_7  and  C10_10 
ROOT
HETATM    1  C1  UNL     1     -33.632   5.517   0.593  1.00 20.00    -0.018 C 
HETATM    2  C2  UNL     1     -33.493   6.843   0.756  1.00 20.00    -0.024 C 
HETATM    3  C3  UNL     1     -33.183   5.142   2.901  1.00 20.00     0.139 C 
HETATM    4  C4  UNL     1     -31.516   5.876   1.464  1.00 20.00     0.025 C 
HETATM    5  C5  UNL     1     -32.647   4.843   1.506  1.00 20.00     0.078 C 
HETATM    6  C6  UNL     1     -32.428   7.064   1.813  1.00 20.00     0.020 C 
HETATM    7  C7  UNL     1     -32.953   6.628   3.212  1.00 20.00     0.067 C 
HETATM    8  O11 UNL     1     -33.749   4.341   3.629  1.00 20.00    -0.297 OA
ENDROOT
BRANCH   7   9
HETATM    9  C10 UNL     1     -34.203   7.344   3.685  1.00 20.00    -0.011 C 
HETATM   10  C8  UNL     1     -35.340   6.351   3.939  1.00 20.00     0.010 C 
HETATM   11  C9  UNL     1     -33.923   8.161   4.948  1.00 20.00     0.010 C 
ENDBRANCH   7   9
TORSDOF 1
ENDMDL
MODEL 6
REMARK VINA RESULT:       2.1      1.332      1.789
REMARK  1 active torsions:
REMARK  status: ('A' for Active; 'I' for Inactive)
REMARK    1  A    between atoms: C7_7  and  C10_10 
ROOT
HETATM    1  C1  UNL     1     -33.349   6.423   4.624  1.00 20.00    -0.018 C 
HETATM    2  C2  UNL     1     -33.516   7.753   4.530  1.00 20.00    -0.024 C 
HETATM    3  C3  UNL     1     -33.378   6.207   2.253  1.00 20.00     0.139 C 
HETATM    4  C4  UNL     1     -35.298   6.780   3.423  1.00 20.00     0.025 C 
HETATM    5  C5  UNL     1     -34.132   5.788   3.509  1.00 20.00     0.078 C 
HETATM    6  C6  UNL     1     -34.392   8.019   3.320  1.00 20.00     0.020 C 
HETATM    7  C7  UNL     1     -33.615   7.705   2.008  1.00 20.00     0.067 C 
HETATM    8  O11 UNL     1     -32.660   5.481   1.582  1.00 20.00    -0.297 OA
ENDROOT
BRANCH   7   9
HETATM    9  C10 UNL     1     -32.335   8.492   1.811  1.00 20.00    -0.011 C 
HETATM   10  C8  UNL     1     -31.138   7.556   1.626  1.00 20.00     0.010 C 
HETATM   11  C9  UNL     1     -32.453   9.441   0.616  1.00 20.00     0.010 C 
ENDBRANCH   7   9
TORSDOF 1
ENDMDL
MODEL 7
REMARK VINA RESULT:       2.1      1.655      3.641
REMARK  1 active torsions:
REMARK  status: ('A' for Active; 'I' for Inactive)
REMARK    1  A    between atoms: C7_7  and  C10_10 
ROOT
HETATM    1  C1  UNL     1     -31.219   6.697   1.858  1.00 20.00    -0.018 C 
HETATM    2  C2  UNL     1     -32.124   5.767   1.510  1.00 20.00    -0.024 C 
HETATM    3  C3  UNL     1     -32.818   7.800   3.237  1.00 20.00     0.139 C 
HETATM    4  C4  UNL     1     -33.021   7.817   0.926  1.00 20.00     0.025 C 
HETATM    5  C5  UNL     1     -31.947   8.005   2.003  1.00 20.00     0.078 C 
HETATM    6  C6  UNL     1     -33.480   6.447   1.453  1.00 20.00     0.020 C 
HETATM    7  C7  UNL     1     -33.955   6.830   2.885  1.00 20.00     0.067 C 
HETATM    8  O11 UNL     1     -32.612   8.287   4.338  1.00 20.00    -0.297 OA
ENDROOT
BRANCH   7   9
HETATM    9  C10 UNL     1     -34.080   5.672   3.855  1.00 20.00    -0.011 C 
HETATM   10  C8  UNL     1     -35.468   5.642   4.498  1.00 20.00     0.010 C 
HETATM   11  C9  UNL     1     -33.791   4.339   3.159  1.00 20.00     0.010 C 
ENDBRANCH   7   9
TORSDOF 1
ENDMDL
MODEL 8
REMARK VINA RESULT:       3.0      2.044      3.596
REMARK  1 active torsions:
REMARK  status: ('A' for Active; 'I' for Inactive)
REMARK    1  A    between atoms: C7_7  and  C10_10 
ROOT
HETATM    1  C1  UNL     1     -33.898   5.643   1.421  1.00 20.00    -0.018 C 
HETATM    2  C2  UNL     1     -33.172   6.061   0.371  1.00 20.00    -0.024 C 
HETATM    3  C3  UNL     1     -33.022   7.393   2.778  1.00 20.00     0.139 C 
HETATM    4  C4  UNL     1     -31.678   5.633   2.083  1.00 20.00     0.025 C 
HETATM    5  C5  UNL     1     -33.078   5.874   2.659  1.00 20.00     0.078 C 
HETATM    6  C6  UNL     1     -31.863   6.609   0.909  1.00 20.00     0.020 C 
HETATM    7  C7  UNL     1     -32.108   7.943   1.673  1.00 20.00     0.067 C 
HETATM    8  O11 UNL     1     -33.644   8.063   3.588  1.00 20.00    -0.297 OA
ENDROOT
BRANCH   7   9
HETATM    9  C10 UNL     1     -32.750   9.047   0.857  1.00 20.00    -0.011 C 
HETATM   10  C8  UNL     1     -32.647  10.393   1.578  1.00 20.00     0.010 C 
HETATM   11  C9  UNL     1     -32.114   9.143  -0.532  1.00 20.00     0.010 C 
ENDBRANCH   7   9
TORSDOF 1
ENDMDL
MODEL 9
REMARK VINA RESULT:       3.0      1.280      1.929
REMARK  1 active torsions:
REMARK  status: ('A' for Active; 'I' for Inactive)
REMARK    1  A    between atoms: C7_7  and  C10_10 
ROOT
HETATM    1  C1  UNL     1     -33.189   8.024   4.946  1.00 20.00    -0.018 C 
HETATM    2  C2  UNL     1     -32.326   7.967   3.918  1.00 20.00    -0.024 C 
HETATM    3  C3  UNL     1     -34.673   6.525   3.840  1.00 20.00     0.139 C 
HETATM    4  C4  UNL     1     -34.346   8.681   3.049  1.00 20.00     0.025 C 
HETATM    5  C5  UNL     1     -34.578   7.949   4.375  1.00 20.00     0.078 C 
HETATM    6  C6  UNL     1     -33.140   7.818   2.646  1.00 20.00     0.020 C 
HETATM    7  C7  UNL     1     -33.797   6.408   2.585  1.00 20.00     0.067 C 
HETATM    8  O11 UNL     1     -35.302   5.615   4.358  1.00 20.00    -0.297 OA
ENDROOT
BRANCH   7   9
HETATM    9  C10 UNL     1     -32.830   5.241   2.633  1.00 20.00    -0.011 C 
HETATM   10  C8  UNL     1     -33.490   4.007   3.252  1.00 20.00     0.010 C 
HETATM   11  C9  UNL     1     -32.298   4.911   1.237  1.00 20.00     0.010 C 
ENDBRANCH   7   9
TORSDOF 1
ENDMDL
