MODEL 1
REMARK VINA RESULT:      -0.1      0.000      0.000
REMARK  0 active torsions:
REMARK  status: ('A' for Active; 'I' for Inactive)
ROOT
HETATM    1  C1  UNL     1     -34.559   6.584   3.714  1.00 20.00     0.051 C 
HETATM    2  C2  UNL     1     -35.459   5.531   4.228  1.00 20.00     0.058 C 
HETATM    3  C3  UNL     1     -34.418   4.386   4.236  1.00 20.00     0.007 C 
HETATM    4  C4  UNL     1     -32.195   5.998   0.828  1.00 20.00     0.004 C 
HETATM    5  C5  UNL     1     -31.637   7.041   1.837  1.00 20.00     0.036 C 
HETATM    6  C6  UNL     1     -33.076   4.987   3.723  1.00 20.00     0.018 C 
HETATM    7  C7  UNL     1     -33.611   5.600   1.344  1.00 20.00     0.018 C 
HETATM    8  C8  UNL     1     -32.904   7.430   2.549  1.00 20.00     0.169 C 
HETATM    9  C9  UNL     1     -33.548   6.088   2.766  1.00 20.00     0.031 C 
HETATM   10  N10 UNL     1     -34.281   7.710   4.299  1.00 20.00    -0.142 NA
HETATM   11  O11 UNL     1     -32.980   8.083   3.792  1.00 20.00    -0.250 OA
ENDROOT
TORSDOF 0
ENDMDL
MODEL 2
REMARK VINA RESULT:       0.4      1.433      3.230
REMARK  0 active torsions:
REMARK  status: ('A' for Active; 'I' for Inactive)
ROOT
HETATM    1  C1  UNL     1     -32.007   6.254   1.826  1.00 20.00     0.051 C 
HETATM    2  C2  UNL     1     -31.665   5.165   0.888  1.00 20.00     0.058 C 
HETATM    3  C3  UNL     1     -33.100   4.911   0.368  1.00 20.00     0.007 C 
HETATM    4  C4  UNL     1     -34.980   6.068   4.148  1.00 20.00     0.004 C 
HETATM    5  C5  UNL     1     -34.663   7.529   3.720  1.00 20.00     0.036 C 
HETATM    6  C6  UNL     1     -34.036   5.916   1.104  1.00 20.00     0.018 C 
HETATM    7  C7  UNL     1     -33.880   5.172   3.501  1.00 20.00     0.018 C 
HETATM    8  C8  UNL     1     -33.241   7.371   3.255  1.00 20.00     0.169 C 
HETATM    9  C9  UNL     1     -33.330   6.102   2.452  1.00 20.00     0.031 C 
HETATM   10  N10 UNL     1     -31.523   7.459   1.813  1.00 20.00    -0.142 NA
HETATM   11  O11 UNL     1     -32.538   8.275   2.441  1.00 20.00    -0.250 OA
ENDROOT
TORSDOF 0
ENDMDL
MODEL 3
REMARK VINA RESULT:       0.6      1.904      3.659
REMARK  0 active torsions:
REMARK  status: ('A' for Active; 'I' for Inactive)
ROOT
HETATM    1  C1  UNL     1     -32.751   6.821   1.781  1.00 20.00     0.051 C 
HETATM    2  C2  UNL     1     -32.295   8.202   1.520  1.00 20.00     0.058 C 
HETATM    3  C3  UNL     1     -32.212   8.652   2.999  1.00 20.00     0.007 C 
HETATM    4  C4  UNL     1     -35.470   6.023   4.278  1.00 20.00     0.004 C 
HETATM    5  C5  UNL     1     -34.429   4.874   4.160  1.00 20.00     0.036 C 
HETATM    6  C6  UNL     1     -32.636   7.432   3.870  1.00 20.00     0.018 C 
HETATM    7  C7  UNL     1     -35.048   7.107   3.239  1.00 20.00     0.018 C 
HETATM    8  C8  UNL     1     -33.806   5.211   2.833  1.00 20.00     0.169 C 
HETATM    9  C9  UNL     1     -33.627   6.699   2.958  1.00 20.00     0.031 C 
HETATM   10  N10 UNL     1     -32.153   5.731   1.406  1.00 20.00    -0.142 NA
HETATM   11  O11 UNL     1     -32.574   4.729   2.359  1.00 20.00    -0.250 OA
ENDROOT
TORSDOF 0
ENDMDL
MODEL 4
REMARK VINA RESULT:       0.9      1.852      2.574
REMARK  0 active torsions:
REMARK  status: ('A' for Active; 'I' for Inactive)
ROOT
HETATM    1  C1  UNL     1     -33.587   5.327   3.248  1.00 20.00     0.051 C 
HETATM    2  C2  UNL     1     -34.573   4.934   4.276  1.00 20.00     0.058 C 
HETATM    3  C3  UNL     1     -35.495   6.169   4.129  1.00 20.00     0.007 C 
HETATM    4  C4  UNL     1     -32.217   8.837   2.990  1.00 20.00     0.004 C 
HETATM    5  C5  UNL     1     -32.284   8.133   1.605  1.00 20.00     0.036 C 
HETATM    6  C6  UNL     1     -34.874   7.071   3.021  1.00 20.00     0.018 C 
HETATM    7  C7  UNL     1     -32.691   7.787   4.041  1.00 20.00     0.018 C 
HETATM    8  C8  UNL     1     -32.370   6.695   2.039  1.00 20.00     0.169 C 
HETATM    9  C9  UNL     1     -33.375   6.781   3.155  1.00 20.00     0.031 C 
HETATM   10  N10 UNL     1     -33.260   4.640   2.195  1.00 20.00    -0.142 NA
HETATM   11  O11 UNL     1     -32.797   5.620   1.239  1.00 20.00    -0.250 OA
ENDROOT
TORSDOF 0
ENDMDL
MODEL 5
REMARK VINA RESULT:       0.9      1.014      3.192
REMARK  0 active torsions:
REMARK  status: ('A' for Active; 'I' for Inactive)
ROOT
HETATM    1  C1  UNL     1     -32.407   6.882   2.401  1.00 20.00     0.051 C 
HETATM    2  C2  UNL     1     -31.503   6.263   1.409  1.00 20.00     0.058 C 
HETATM    3  C3  UNL     1     -32.574   5.404   0.695  1.00 20.00     0.007 C 
HETATM    4  C4  UNL     1     -34.987   4.893   4.311  1.00 20.00     0.004 C 
HETATM    5  C5  UNL     1     -35.440   6.361   4.073  1.00 20.00     0.036 C 
HETATM    6  C6  UNL     1     -33.932   5.684   1.406  1.00 20.00     0.018 C 
HETATM    7  C7  UNL     1     -33.549   4.775   3.718  1.00 20.00     0.018 C 
HETATM    8  C8  UNL     1     -34.115   7.006   3.772  1.00 20.00     0.169 C 
HETATM    9  C9  UNL     1     -33.497   5.997   2.842  1.00 20.00     0.031 C 
HETATM   10  N10 UNL     1     -32.609   8.155   2.567  1.00 20.00    -0.142 NA
HETATM   11  O11 UNL     1     -33.932   8.249   3.143  1.00 20.00    -0.250 OA
ENDROOT
TORSDOF 0
ENDMDL
MODEL 6
REMARK VINA RESULT:       2.8      1.598      3.168
REMARK  0 active torsions:
REMARK  status: ('A' for Active; 'I' for Inactive)
ROOT
HETATM    1  C1  UNL     1     -32.598   7.651   3.138  1.00 20.00     0.051 C 
HETATM    2  C2  UNL     1     -31.721   8.839   3.110  1.00 20.00     0.058 C 
HETATM    3  C3  UNL     1     -31.789   9.082   1.583  1.00 20.00     0.007 C 
HETATM    4  C4  UNL     1     -32.280   4.837   0.640  1.00 20.00     0.004 C 
HETATM    5  C5  UNL     1     -33.744   5.019   1.130  1.00 20.00     0.036 C 
HETATM    6  C6  UNL     1     -32.712   7.979   0.987  1.00 20.00     0.018 C 
HETATM    7  C7  UNL     1     -31.419   5.869   1.430  1.00 20.00     0.018 C 
HETATM    8  C8  UNL     1     -33.508   5.798   2.396  1.00 20.00     0.169 C 
HETATM    9  C9  UNL     1     -32.484   6.801   1.942  1.00 20.00     0.031 C 
HETATM   10  N10 UNL     1     -33.698   7.523   3.819  1.00 20.00    -0.142 NA
HETATM   11  O11 UNL     1     -34.474   6.544   3.092  1.00 20.00    -0.250 OA
ENDROOT
TORSDOF 0
ENDMDL
