MODEL 1
REMARK VINA RESULT:       3.6      0.000      0.000
REMARK  1 active torsions:
REMARK  status: ('A' for Active; 'I' for Inactive)
REMARK    1  A    between atoms: C6_6  and  C9_9 
ROOT
HETATM    1  C1  UNL     1     -31.653   6.051   1.917  1.00 20.00     0.302 C 
HETATM    2  C2  UNL     1     -31.257   7.456   2.397  1.00 20.00     0.303 C 
HETATM    3  C3  UNL     1     -33.829   6.341   2.858  1.00 20.00     0.307 C 
HETATM    4  C4  UNL     1     -33.396   6.994   0.582  1.00 20.00     0.308 C 
HETATM    5  C5  UNL     1     -33.470   7.771   3.325  1.00 20.00     0.247 C 
HETATM    6  C6  UNL     1     -33.037   8.417   1.068  1.00 20.00     0.251 C 
HETATM    7  C7  UNL     1     -33.074   7.813   4.803  1.00 20.00     0.045 C 
HETATM    8  N10 UNL     1     -33.100   5.980   1.620  1.00 20.00     0.094 N 
HETATM    9  N11 UNL     1     -32.431   8.361   2.430  1.00 20.00     0.102 N 
ENDROOT
BRANCH   6  10
HETATM   10  C9  UNL     1     -32.165   9.168   0.059  1.00 20.00     0.033 C 
HETATM   11  C8  UNL     1     -32.547  10.608  -0.031  1.00 20.00     0.007 C 
ENDBRANCH   6  10
TORSDOF 1
ENDMDL
MODEL 2
REMARK VINA RESULT:       3.7      1.327      3.740
REMARK  1 active torsions:
REMARK  status: ('A' for Active; 'I' for Inactive)
REMARK    1  A    between atoms: C6_6  and  C9_9 
ROOT
HETATM    1  C1  UNL     1     -33.302   5.530   0.742  1.00 20.00     0.302 C 
HETATM    2  C2  UNL     1     -34.105   6.818   0.981  1.00 20.00     0.303 C 
HETATM    3  C3  UNL     1     -31.357   6.570   1.658  1.00 20.00     0.307 C 
HETATM    4  C4  UNL     1     -32.870   5.359   3.085  1.00 20.00     0.308 C 
HETATM    5  C5  UNL     1     -32.148   7.869   1.941  1.00 20.00     0.247 C 
HETATM    6  C6  UNL     1     -33.650   6.667   3.353  1.00 20.00     0.251 C 
HETATM    7  C7  UNL     1     -31.924   8.927   0.857  1.00 20.00     0.045 C 
HETATM    8  N10 UNL     1     -32.231   5.377   1.749  1.00 20.00     0.094 N 
HETATM    9  N11 UNL     1     -33.591   7.558   2.158  1.00 20.00     0.102 N 
ENDROOT
BRANCH   6  10
HETATM   10  C9  UNL     1     -35.081   6.398   3.825  1.00 20.00     0.033 C 
HETATM   11  C8  UNL     1     -35.203   5.056   4.468  1.00 20.00     0.007 C 
ENDBRANCH   6  10
TORSDOF 1
ENDMDL
MODEL 3
REMARK VINA RESULT:       4.5      1.245      1.553
REMARK  1 active torsions:
REMARK  status: ('A' for Active; 'I' for Inactive)
REMARK    1  A    between atoms: C6_6  and  C9_9 
ROOT
HETATM    1  C1  UNL     1     -30.956   7.713   2.716  1.00 20.00     0.302 C 
HETATM    2  C2  UNL     1     -32.099   8.568   3.286  1.00 20.00     0.303 C 
HETATM    3  C3  UNL     1     -32.547   6.157   1.851  1.00 20.00     0.307 C 
HETATM    4  C4  UNL     1     -31.821   8.019   0.510  1.00 20.00     0.308 C 
HETATM    5  C5  UNL     1     -33.720   7.013   2.385  1.00 20.00     0.247 C 
HETATM    6  C6  UNL     1     -32.997   8.860   1.058  1.00 20.00     0.251 C 
HETATM    7  C7  UNL     1     -34.263   6.482   3.715  1.00 20.00     0.045 C 
HETATM    8  N10 UNL     1     -31.384   7.001   1.493  1.00 20.00     0.094 N 
HETATM    9  N11 UNL     1     -33.320   8.449   2.455  1.00 20.00     0.102 N 
ENDROOT
BRANCH   6  10
HETATM   10  C9  UNL     1     -32.742  10.364   0.923  1.00 20.00     0.033 C 
HETATM   11  C8  UNL     1     -32.263  10.718  -0.445  1.00 20.00     0.007 C 
ENDBRANCH   6  10
TORSDOF 1
ENDMDL
MODEL 4
REMARK VINA RESULT:       4.5      2.091      4.296
REMARK  1 active torsions:
REMARK  status: ('A' for Active; 'I' for Inactive)
REMARK    1  A    between atoms: C6_6  and  C9_9 
ROOT
HETATM    1  C1  UNL     1     -35.027   6.728   2.243  1.00 20.00     0.302 C 
HETATM    2  C2  UNL     1     -35.203   6.404   3.734  1.00 20.00     0.303 C 
HETATM    3  C3  UNL     1     -32.892   7.695   2.700  1.00 20.00     0.307 C 
HETATM    4  C4  UNL     1     -33.074   5.354   2.170  1.00 20.00     0.308 C 
HETATM    5  C5  UNL     1     -33.026   7.353   4.203  1.00 20.00     0.247 C 
HETATM    6  C6  UNL     1     -33.210   5.033   3.676  1.00 20.00     0.251 C 
HETATM    7  C7  UNL     1     -33.494   8.555   5.029  1.00 20.00     0.045 C 
HETATM    8  N10 UNL     1     -33.600   6.703   1.858  1.00 20.00     0.094 N 
HETATM    9  N11 UNL     1     -33.894   6.153   4.384  1.00 20.00     0.102 N 
ENDROOT
BRANCH   6  10
HETATM   10  C9  UNL     1     -33.880   3.677   3.917  1.00 20.00     0.033 C 
HETATM   11  C8  UNL     1     -33.098   2.844   4.878  1.00 20.00     0.007 C 
ENDBRANCH   6  10
TORSDOF 1
ENDMDL
MODEL 5
REMARK VINA RESULT:       4.6      1.260      3.342
REMARK  1 active torsions:
REMARK  status: ('A' for Active; 'I' for Inactive)
REMARK    1  A    between atoms: C6_6  and  C9_9 
ROOT
HETATM    1  C1  UNL     1     -31.946   8.338   3.640  1.00 20.00     0.302 C 
HETATM    2  C2  UNL     1     -31.092   8.132   2.380  1.00 20.00     0.303 C 
HETATM    3  C3  UNL     1     -33.782   9.041   2.285  1.00 20.00     0.307 C 
HETATM    4  C4  UNL     1     -33.512   6.717   2.849  1.00 20.00     0.308 C 
HETATM    5  C5  UNL     1     -32.958   8.813   0.997  1.00 20.00     0.247 C 
HETATM    6  C6  UNL     1     -32.687   6.509   1.558  1.00 20.00     0.251 C 
HETATM    7  C7  UNL     1     -32.357  10.115   0.458  1.00 20.00     0.045 C 
HETATM    8  N10 UNL     1     -33.377   8.102   3.357  1.00 20.00     0.094 N 
HETATM    9  N11 UNL     1     -31.933   7.751   1.220  1.00 20.00     0.102 N 
ENDROOT
BRANCH   6  10
HETATM   10  C9  UNL     1     -31.790   5.272   1.640  1.00 20.00     0.033 C 
HETATM   11  C8  UNL     1     -31.833   4.479   0.377  1.00 20.00     0.007 C 
ENDBRANCH   6  10
TORSDOF 1
ENDMDL
MODEL 6
REMARK VINA RESULT:       4.8      2.198      4.599
REMARK  1 active torsions:
REMARK  status: ('A' for Active; 'I' for Inactive)
REMARK    1  A    between atoms: C6_6  and  C9_9 
ROOT
HETATM    1  C1  UNL     1     -34.169   7.595   4.649  1.00 20.00     0.302 C 
HETATM    2  C2  UNL     1     -32.884   6.766   4.505  1.00 20.00     0.303 C 
HETATM    3  C3  UNL     1     -34.609   7.324   2.317  1.00 20.00     0.307 C 
HETATM    4  C4  UNL     1     -35.462   5.728   3.905  1.00 20.00     0.308 C 
HETATM    5  C5  UNL     1     -33.338   6.459   2.147  1.00 20.00     0.247 C 
HETATM    6  C6  UNL     1     -34.182   4.879   3.724  1.00 20.00     0.251 C 
HETATM    7  C7  UNL     1     -32.159   7.268   1.599  1.00 20.00     0.045 C 
HETATM    8  N10 UNL     1     -35.191   7.166   3.670  1.00 20.00     0.094 N 
HETATM    9  N11 UNL     1     -33.016   5.759   3.425  1.00 20.00     0.102 N 
ENDROOT
BRANCH   6  10
HETATM   10  C9  UNL     1     -33.936   3.948   4.914  1.00 20.00     0.033 C 
HETATM   11  C8  UNL     1     -33.129   2.756   4.519  1.00 20.00     0.007 C 
ENDBRANCH   6  10
TORSDOF 1
ENDMDL
MODEL 7
REMARK VINA RESULT:       4.9      1.906      3.340
REMARK  1 active torsions:
REMARK  status: ('A' for Active; 'I' for Inactive)
REMARK    1  A    between atoms: C6_6  and  C9_9 
ROOT
HETATM    1  C1  UNL     1     -35.605   6.450   2.581  1.00 20.00     0.302 C 
HETATM    2  C2  UNL     1     -34.293   5.970   1.941  1.00 20.00     0.303 C 
HETATM    3  C3  UNL     1     -34.970   5.439   4.649  1.00 20.00     0.307 C 
HETATM    4  C4  UNL     1     -34.366   7.721   4.179  1.00 20.00     0.308 C 
HETATM    5  C5  UNL     1     -33.627   4.970   4.042  1.00 20.00     0.247 C 
HETATM    6  C6  UNL     1     -33.030   7.232   3.573  1.00 20.00     0.251 C 
HETATM    7  C7  UNL     1     -33.674   3.504   3.601  1.00 20.00     0.045 C 
HETATM    8  N10 UNL     1     -35.430   6.702   4.027  1.00 20.00     0.094 N 
HETATM    9  N11 UNL     1     -33.206   5.891   2.946  1.00 20.00     0.102 N 
ENDROOT
BRANCH   6  10
HETATM   10  C9  UNL     1     -32.421   8.262   2.618  1.00 20.00     0.033 C 
HETATM   11  C8  UNL     1     -31.574   7.608   1.576  1.00 20.00     0.007 C 
ENDBRANCH   6  10
TORSDOF 1
ENDMDL
MODEL 8
REMARK VINA RESULT:       5.1      1.161      3.739
REMARK  1 active torsions:
REMARK  status: ('A' for Active; 'I' for Inactive)
REMARK    1  A    between atoms: C6_6  and  C9_9 
ROOT
HETATM    1  C1  UNL     1     -30.832   7.545   2.306  1.00 20.00     0.302 C 
HETATM    2  C2  UNL     1     -31.828   6.913   1.321  1.00 20.00     0.303 C 
HETATM    3  C3  UNL     1     -31.903   9.662   2.035  1.00 20.00     0.307 C 
HETATM    4  C4  UNL     1     -32.637   8.144   3.752  1.00 20.00     0.308 C 
HETATM    5  C5  UNL     1     -32.939   9.048   1.064  1.00 20.00     0.247 C 
HETATM    6  C6  UNL     1     -33.664   7.541   2.766  1.00 20.00     0.251 C 
HETATM    7  C7  UNL     1     -32.576   9.300  -0.402  1.00 20.00     0.045 C 
HETATM    8  N10 UNL     1     -31.451   8.671   3.038  1.00 20.00     0.094 N 
HETATM    9  N11 UNL     1     -33.140   7.602   1.372  1.00 20.00     0.102 N 
ENDROOT
BRANCH   6  10
HETATM   10  C9  UNL     1     -34.099   6.132   3.178  1.00 20.00     0.033 C 
HETATM   11  C8  UNL     1     -35.299   6.166   4.065  1.00 20.00     0.007 C 
ENDBRANCH   6  10
TORSDOF 1
ENDMDL
MODEL 9
REMARK VINA RESULT:       5.3      1.202      3.247
REMARK  1 active torsions:
REMARK  status: ('A' for Active; 'I' for Inactive)
REMARK    1  A    between atoms: C6_6  and  C9_9 
ROOT
HETATM    1  C1  UNL     1     -32.988   8.291   1.115  1.00 20.00     0.302 C 
HETATM    2  C2  UNL     1     -33.795   6.991   0.978  1.00 20.00     0.303 C 
HETATM    3  C3  UNL     1     -32.764   7.910   3.461  1.00 20.00     0.307 C 
HETATM    4  C4  UNL     1     -31.117   7.049   1.931  1.00 20.00     0.308 C 
HETATM    5  C5  UNL     1     -33.546   6.579   3.350  1.00 20.00     0.247 C 
HETATM    6  C6  UNL     1     -31.915   5.728   1.831  1.00 20.00     0.251 C 
HETATM    7  C7  UNL     1     -35.016   6.740   3.747  1.00 20.00     0.045 C 
HETATM    8  N10 UNL     1     -32.010   8.196   2.219  1.00 20.00     0.094 N 
HETATM    9  N11 UNL     1     -33.374   5.992   1.990  1.00 20.00     0.102 N 
ENDROOT
BRANCH   6  10
HETATM   10  C9  UNL     1     -31.585   4.953   0.552  1.00 20.00     0.033 C 
HETATM   11  C8  UNL     1     -32.778   4.220   0.034  1.00 20.00     0.007 C 
ENDBRANCH   6  10
TORSDOF 1
ENDMDL
