MODEL 1
REMARK VINA RESULT:       0.1      0.000      0.000
REMARK  1 active torsions:
REMARK  status: ('A' for Active; 'I' for Inactive)
REMARK    1  A    between atoms: C4_4  and  C7_7 
ROOT
HETATM    1  C1  UNL     1     -34.218   7.365   4.235  1.00 20.00     0.268 C 
HETATM    2  C2  UNL     1     -35.281   6.306   4.305  1.00 20.00     0.184 C 
HETATM    3  C3  UNL     1     -33.319   4.892   2.950  1.00 20.00     0.107 C 
HETATM    4  C4  UNL     1     -33.516   6.216   2.225  1.00 20.00     0.144 C 
HETATM    5  O8  UNL     1     -34.136   8.263   5.068  1.00 20.00    -0.264 OA
HETATM    6  O9  UNL     1     -33.385   7.305   3.164  1.00 20.00    -0.314 OA
HETATM    7  S10 UNL     1     -34.565   4.649   4.251  1.00 20.00    -0.157 SA
ENDROOT
BRANCH   4   8
HETATM    8  C7  UNL     1     -32.443   6.413   1.161  1.00 20.00     0.008 C 
HETATM    9  C5  UNL     1     -31.582   7.633   1.482  1.00 20.00     0.012 C 
HETATM   10  C6  UNL     1     -31.573   5.163   1.035  1.00 20.00     0.012 C 
ENDBRANCH   4   8
TORSDOF 1
ENDMDL
MODEL 2
REMARK VINA RESULT:       0.2      1.962      3.993
REMARK  1 active torsions:
REMARK  status: ('A' for Active; 'I' for Inactive)
REMARK    1  A    between atoms: C4_4  and  C7_7 
ROOT
HETATM    1  C1  UNL     1     -32.213   8.460   1.217  1.00 20.00     0.268 C 
HETATM    2  C2  UNL     1     -31.225   7.329   1.204  1.00 20.00     0.184 C 
HETATM    3  C3  UNL     1     -33.427   5.997   2.238  1.00 20.00     0.107 C 
HETATM    4  C4  UNL     1     -33.226   7.264   3.059  1.00 20.00     0.144 C 
HETATM    5  O8  UNL     1     -32.134   9.404   0.436  1.00 20.00    -0.264 OA
HETATM    6  O9  UNL     1     -33.170   8.407   2.179  1.00 20.00    -0.314 OA
HETATM    7  S10 UNL     1     -32.055   5.730   1.076  1.00 20.00    -0.157 SA
ENDROOT
BRANCH   4   8
HETATM    8  C7  UNL     1     -34.402   7.485   4.004  1.00 20.00     0.008 C 
HETATM    9  C5  UNL     1     -35.188   6.190   4.200  1.00 20.00     0.012 C 
HETATM   10  C6  UNL     1     -33.919   8.027   5.348  1.00 20.00     0.012 C 
ENDBRANCH   4   8
TORSDOF 1
ENDMDL
MODEL 3
REMARK VINA RESULT:       0.6      1.717      2.523
REMARK  1 active torsions:
REMARK  status: ('A' for Active; 'I' for Inactive)
REMARK    1  A    between atoms: C4_4  and  C7_7 
ROOT
HETATM    1  C1  UNL     1     -33.479   7.677   3.875  1.00 20.00     0.268 C 
HETATM    2  C2  UNL     1     -34.228   6.530   3.260  1.00 20.00     0.184 C 
HETATM    3  C3  UNL     1     -32.138   6.733   1.448  1.00 20.00     0.107 C 
HETATM    4  C4  UNL     1     -32.740   8.121   1.615  1.00 20.00     0.144 C 
HETATM    5  O8  UNL     1     -33.531   7.920   5.078  1.00 20.00    -0.264 OA
HETATM    6  O9  UNL     1     -32.781   8.465   3.017  1.00 20.00    -0.314 OA
HETATM    7  S10 UNL     1     -33.130   5.468   2.296  1.00 20.00    -0.157 SA
ENDROOT
BRANCH   4   8
HETATM    8  C7  UNL     1     -31.876   9.170   0.924  1.00 20.00     0.008 C 
HETATM    9  C5  UNL     1     -31.065   8.541  -0.206  1.00 20.00     0.012 C 
HETATM   10  C6  UNL     1     -32.738  10.313   0.392  1.00 20.00     0.012 C 
ENDBRANCH   4   8
TORSDOF 1
ENDMDL
MODEL 4
REMARK VINA RESULT:       0.8      0.440      1.198
REMARK  1 active torsions:
REMARK  status: ('A' for Active; 'I' for Inactive)
REMARK    1  A    between atoms: C4_4  and  C7_7 
ROOT
HETATM    1  C1  UNL     1     -34.232   7.402   4.219  1.00 20.00     0.268 C 
HETATM    2  C2  UNL     1     -35.372   6.426   4.176  1.00 20.00     0.184 C 
HETATM    3  C3  UNL     1     -33.319   4.762   3.337  1.00 20.00     0.107 C 
HETATM    4  C4  UNL     1     -33.272   6.020   2.481  1.00 20.00     0.144 C 
HETATM    5  O8  UNL     1     -34.229   8.369   4.975  1.00 20.00    -0.264 OA
HETATM    6  O9  UNL     1     -33.225   7.184   3.334  1.00 20.00    -0.314 OA
HETATM    7  S10 UNL     1     -34.796   4.728   4.395  1.00 20.00    -0.157 SA
ENDROOT
BRANCH   4   8
HETATM    8  C7  UNL     1     -32.010   6.043   1.625  1.00 20.00     0.008 C 
HETATM    9  C5  UNL     1     -32.120   5.043   0.476  1.00 20.00     0.012 C 
HETATM   10  C6  UNL     1     -31.749   7.449   1.088  1.00 20.00     0.012 C 
ENDBRANCH   4   8
TORSDOF 1
ENDMDL
MODEL 5
REMARK VINA RESULT:       0.8      1.889      3.635
REMARK  1 active torsions:
REMARK  status: ('A' for Active; 'I' for Inactive)
REMARK    1  A    between atoms: C4_4  and  C7_7 
ROOT
HETATM    1  C1  UNL     1     -32.414   8.185   1.772  1.00 20.00     0.268 C 
HETATM    2  C2  UNL     1     -31.323   7.174   1.570  1.00 20.00     0.184 C 
HETATM    3  C3  UNL     1     -33.448   5.459   2.052  1.00 20.00     0.107 C 
HETATM    4  C4  UNL     1     -33.425   6.491   3.171  1.00 20.00     0.144 C 
HETATM    5  O8  UNL     1     -32.376   9.298   1.255  1.00 20.00    -0.264 OA
HETATM    6  O9  UNL     1     -33.422   7.819   2.605  1.00 20.00    -0.314 OA
HETATM    7  S10 UNL     1     -31.984   5.599   0.983  1.00 20.00    -0.157 SA
ENDROOT
BRANCH   4   8
HETATM    8  C7  UNL     1     -34.676   6.377   4.035  1.00 20.00     0.008 C 
HETATM    9  C5  UNL     1     -35.899   6.901   3.285  1.00 20.00     0.012 C 
HETATM   10  C6  UNL     1     -34.897   4.930   4.474  1.00 20.00     0.012 C 
ENDBRANCH   4   8
TORSDOF 1
ENDMDL
MODEL 6
REMARK VINA RESULT:       0.9      2.226      4.080
REMARK  1 active torsions:
REMARK  status: ('A' for Active; 'I' for Inactive)
REMARK    1  A    between atoms: C4_4  and  C7_7 
ROOT
HETATM    1  C1  UNL     1     -32.307   6.247   1.657  1.00 20.00     0.268 C 
HETATM    2  C2  UNL     1     -31.970   7.698   1.465  1.00 20.00     0.184 C 
HETATM    3  C3  UNL     1     -33.047   7.817   4.017  1.00 20.00     0.107 C 
HETATM    4  C4  UNL     1     -34.038   7.073   3.132  1.00 20.00     0.144 C 
HETATM    5  O8  UNL     1     -31.695   5.353   1.081  1.00 20.00    -0.264 OA
HETATM    6  O9  UNL     1     -33.366   5.982   2.466  1.00 20.00    -0.314 OA
HETATM    7  S10 UNL     1     -31.683   8.523   3.046  1.00 20.00    -0.157 SA
ENDROOT
BRANCH   4   8
HETATM    8  C7  UNL     1     -35.156   6.462   3.971  1.00 20.00     0.008 C 
HETATM    9  C5  UNL     1     -36.496   6.574   3.246  1.00 20.00     0.012 C 
HETATM   10  C6  UNL     1     -34.846   5.003   4.300  1.00 20.00     0.012 C 
ENDBRANCH   4   8
TORSDOF 1
ENDMDL
MODEL 7
REMARK VINA RESULT:       1.1      2.320      4.279
REMARK  1 active torsions:
REMARK  status: ('A' for Active; 'I' for Inactive)
REMARK    1  A    between atoms: C4_4  and  C7_7 
ROOT
HETATM    1  C1  UNL     1     -32.469   5.827   1.464  1.00 20.00     0.268 C 
HETATM    2  C2  UNL     1     -32.113   7.024   0.630  1.00 20.00     0.184 C 
HETATM    3  C3  UNL     1     -32.540   8.278   3.067  1.00 20.00     0.107 C 
HETATM    4  C4  UNL     1     -33.751   7.400   2.781  1.00 20.00     0.144 C 
HETATM    5  O8  UNL     1     -32.060   4.700   1.197  1.00 20.00    -0.264 OA
HETATM    6  O9  UNL     1     -33.316   6.052   2.502  1.00 20.00    -0.314 OA
HETATM    7  S10 UNL     1     -31.413   8.347   1.641  1.00 20.00    -0.157 SA
ENDROOT
BRANCH   4   8
HETATM    8  C7  UNL     1     -34.666   7.331   3.999  1.00 20.00     0.008 C 
HETATM    9  C5  UNL     1     -35.167   5.904   4.215  1.00 20.00     0.012 C 
HETATM   10  C6  UNL     1     -33.942   7.839   5.245  1.00 20.00     0.012 C 
ENDBRANCH   4   8
TORSDOF 1
ENDMDL
MODEL 8
REMARK VINA RESULT:       1.3      1.954      3.384
REMARK  1 active torsions:
REMARK  status: ('A' for Active; 'I' for Inactive)
REMARK    1  A    between atoms: C4_4  and  C7_7 
ROOT
HETATM    1  C1  UNL     1     -33.724   7.883   3.427  1.00 20.00     0.268 C 
HETATM    2  C2  UNL     1     -32.343   7.968   2.843  1.00 20.00     0.184 C 
HETATM    3  C3  UNL     1     -33.093   5.478   1.880  1.00 20.00     0.107 C 
HETATM    4  C4  UNL     1     -33.360   5.493   3.379  1.00 20.00     0.144 C 
HETATM    5  O8  UNL     1     -34.388   8.885   3.679  1.00 20.00    -0.264 OA
HETATM    6  O9  UNL     1     -34.176   6.635   3.713  1.00 20.00    -0.314 OA
HETATM    7  S10 UNL     1     -32.199   6.968   1.346  1.00 20.00    -0.157 SA
ENDROOT
BRANCH   4   8
HETATM    8  C7  UNL     1     -34.137   4.250   3.800  1.00 20.00     0.008 C 
HETATM    9  C5  UNL     1     -33.226   3.265   4.528  1.00 20.00     0.012 C 
HETATM   10  C6  UNL     1     -35.326   4.632   4.681  1.00 20.00     0.012 C 
ENDBRANCH   4   8
TORSDOF 1
ENDMDL
MODEL 9
REMARK VINA RESULT:       1.9      2.193      3.424
REMARK  1 active torsions:
REMARK  status: ('A' for Active; 'I' for Inactive)
REMARK    1  A    between atoms: C4_4  and  C7_7 
ROOT
HETATM    1  C1  UNL     1     -32.895   5.673   1.498  1.00 20.00     0.268 C 
HETATM    2  C2  UNL     1     -33.114   5.552   2.979  1.00 20.00     0.184 C 
HETATM    3  C3  UNL     1     -33.576   8.269   2.671  1.00 20.00     0.107 C 
HETATM    4  C4  UNL     1     -32.247   7.948   2.001  1.00 20.00     0.144 C 
HETATM    5  O8  UNL     1     -33.080   4.731   0.732  1.00 20.00    -0.264 OA
HETATM    6  O9  UNL     1     -32.429   6.870   1.058  1.00 20.00    -0.314 OA
HETATM    7  S10 UNL     1     -34.224   6.840   3.588  1.00 20.00    -0.157 SA
ENDROOT
BRANCH   4   8
HETATM    8  C7  UNL     1     -31.738   9.149   1.211  1.00 20.00     0.008 C 
HETATM    9  C5  UNL     1     -31.153   8.706  -0.128  1.00 20.00     0.012 C 
HETATM   10  C6  UNL     1     -32.857  10.166   0.996  1.00 20.00     0.012 C 
ENDBRANCH   4   8
TORSDOF 1
ENDMDL
