MODEL 1
REMARK VINA RESULT:       1.1      0.000      0.000
REMARK  1 active torsions:
REMARK  status: ('A' for Active; 'I' for Inactive)
REMARK    1  A    between atoms: C6_6  and  C10_10 
ROOT
HETATM    1  C1  UNL     1     -31.499   6.906   1.205  1.00 20.00     0.014 C 
HETATM    2  C2  UNL     1     -32.169   5.775   2.001  1.00 20.00     0.039 C 
HETATM    3  C3  UNL     1     -33.753   7.541   1.645  1.00 20.00     0.049 C 
HETATM    4  C4  UNL     1     -32.129   8.438   3.066  1.00 20.00     0.177 C 
HETATM    5  C5  UNL     1     -32.352   8.137   1.580  1.00 20.00    -0.020 C 
HETATM    6  C6  UNL     1     -33.331   6.512   2.685  1.00 20.00     0.064 C 
HETATM    7  C7  UNL     1     -32.168   9.322   0.663  1.00 20.00     0.017 C 
HETATM    8  O11 UNL     1     -32.750   7.318   3.740  1.00 20.00    -0.379 OA
ENDROOT
BRANCH   6   9
HETATM    9  C10 UNL     1     -34.423   5.620   3.225  1.00 20.00     0.012 C 
HETATM   10  C8  UNL     1     -33.836   4.391   3.932  1.00 20.00     0.012 C 
HETATM   11  C9  UNL     1     -35.340   6.385   4.186  1.00 20.00     0.012 C 
ENDBRANCH   6   9
TORSDOF 1
ENDMDL
MODEL 2
REMARK VINA RESULT:       1.2      1.180      1.422
REMARK  1 active torsions:
REMARK  status: ('A' for Active; 'I' for Inactive)
REMARK    1  A    between atoms: C6_6  and  C10_10 
ROOT
HETATM    1  C1  UNL     1     -32.070   6.557   1.082  1.00 20.00     0.014 C 
HETATM    2  C2  UNL     1     -32.952   6.174   2.280  1.00 20.00     0.039 C 
HETATM    3  C3  UNL     1     -33.329   8.476   1.721  1.00 20.00     0.049 C 
HETATM    4  C4  UNL     1     -31.128   8.377   2.498  1.00 20.00     0.177 C 
HETATM    5  C5  UNL     1     -31.939   8.087   1.231  1.00 20.00    -0.020 C 
HETATM    6  C6  UNL     1     -33.232   7.543   2.920  1.00 20.00     0.064 C 
HETATM    7  C7  UNL     1     -31.443   8.793  -0.009  1.00 20.00     0.017 C 
HETATM    8  O11 UNL     1     -32.005   7.958   3.570  1.00 20.00    -0.379 OA
ENDROOT
BRANCH   6   9
HETATM    9  C10 UNL     1     -34.391   7.571   3.886  1.00 20.00     0.012 C 
HETATM   10  C8  UNL     1     -35.073   6.199   3.974  1.00 20.00     0.012 C 
HETATM   11  C9  UNL     1     -33.941   8.020   5.281  1.00 20.00     0.012 C 
ENDBRANCH   6   9
TORSDOF 1
ENDMDL
MODEL 3
REMARK VINA RESULT:       1.2      0.687      1.247
REMARK  1 active torsions:
REMARK  status: ('A' for Active; 'I' for Inactive)
REMARK    1  A    between atoms: C6_6  and  C10_10 
ROOT
HETATM    1  C1  UNL     1     -31.986   6.614   1.450  1.00 20.00     0.014 C 
HETATM    2  C2  UNL     1     -32.804   5.790   2.457  1.00 20.00     0.039 C 
HETATM    3  C3  UNL     1     -33.867   7.913   2.119  1.00 20.00     0.049 C 
HETATM    4  C4  UNL     1     -31.846   8.393   3.189  1.00 20.00     0.177 C 
HETATM    5  C5  UNL     1     -32.386   8.065   1.793  1.00 20.00    -0.020 C 
HETATM    6  C6  UNL     1     -33.584   6.883   3.204  1.00 20.00     0.064 C 
HETATM    7  C7  UNL     1     -32.034   9.075   0.727  1.00 20.00     0.017 C 
HETATM    8  O11 UNL     1     -32.634   7.556   4.068  1.00 20.00    -0.379 OA
ENDROOT
BRANCH   6   9
HETATM    9  C10 UNL     1     -34.775   6.393   3.990  1.00 20.00     0.012 C 
HETATM   10  C8  UNL     1     -36.087   6.700   3.256  1.00 20.00     0.012 C 
HETATM   11  C9  UNL     1     -34.674   4.889   4.271  1.00 20.00     0.012 C 
ENDBRANCH   6   9
TORSDOF 1
ENDMDL
MODEL 4
REMARK VINA RESULT:       1.3      1.299      3.906
REMARK  1 active torsions:
REMARK  status: ('A' for Active; 'I' for Inactive)
REMARK    1  A    between atoms: C6_6  and  C10_10 
ROOT
HETATM    1  C1  UNL     1     -32.927   7.689   4.369  1.00 20.00     0.014 C 
HETATM    2  C2  UNL     1     -31.891   8.461   3.538  1.00 20.00     0.039 C 
HETATM    3  C3  UNL     1     -33.908   8.215   2.263  1.00 20.00     0.049 C 
HETATM    4  C4  UNL     1     -33.051   6.054   2.494  1.00 20.00     0.177 C 
HETATM    5  C5  UNL     1     -33.852   7.090   3.289  1.00 20.00    -0.020 C 
HETATM    6  C6  UNL     1     -32.393   8.226   2.105  1.00 20.00     0.064 C 
HETATM    7  C7  UNL     1     -35.179   6.594   3.813  1.00 20.00     0.017 C 
HETATM    8  O11 UNL     1     -32.080   6.850   1.774  1.00 20.00    -0.379 OA
ENDROOT
BRANCH   6   9
HETATM    9  C10 UNL     1     -31.834   9.171   1.069  1.00 20.00     0.012 C 
HETATM   10  C8  UNL     1     -31.353   8.411  -0.173  1.00 20.00     0.012 C 
HETATM   11  C9  UNL     1     -32.870  10.227   0.666  1.00 20.00     0.012 C 
ENDBRANCH   6   9
TORSDOF 1
ENDMDL
MODEL 5
REMARK VINA RESULT:       1.5      1.270      4.049
REMARK  1 active torsions:
REMARK  status: ('A' for Active; 'I' for Inactive)
REMARK    1  A    between atoms: C6_6  and  C10_10 
ROOT
HETATM    1  C1  UNL     1     -32.841   7.708   4.208  1.00 20.00     0.014 C 
HETATM    2  C2  UNL     1     -32.017   8.437   3.136  1.00 20.00     0.039 C 
HETATM    3  C3  UNL     1     -34.186   7.919   2.254  1.00 20.00     0.049 C 
HETATM    4  C4  UNL     1     -33.134   5.857   2.566  1.00 20.00     0.177 C 
HETATM    5  C5  UNL     1     -33.877   6.929   3.370  1.00 20.00    -0.020 C 
HETATM    6  C6  UNL     1     -32.723   8.003   1.842  1.00 20.00     0.064 C 
HETATM    7  C7  UNL     1     -35.058   6.419   4.160  1.00 20.00     0.017 C 
HETATM    8  O11 UNL     1     -32.358   6.619   1.612  1.00 20.00    -0.379 OA
ENDROOT
BRANCH   6   9
HETATM    9  C10 UNL     1     -32.415   8.851   0.632  1.00 20.00     0.012 C 
HETATM   10  C8  UNL     1     -32.757  10.325   0.887  1.00 20.00     0.012 C 
HETATM   11  C9  UNL     1     -30.943   8.721   0.222  1.00 20.00     0.012 C 
ENDBRANCH   6   9
TORSDOF 1
ENDMDL
MODEL 6
REMARK VINA RESULT:       1.6      1.517      2.668
REMARK  1 active torsions:
REMARK  status: ('A' for Active; 'I' for Inactive)
REMARK    1  A    between atoms: C6_6  and  C10_10 
ROOT
HETATM    1  C1  UNL     1     -31.513   7.003   1.401  1.00 20.00     0.014 C 
HETATM    2  C2  UNL     1     -32.530   7.820   2.213  1.00 20.00     0.039 C 
HETATM    3  C3  UNL     1     -32.774   5.495   2.747  1.00 20.00     0.049 C 
HETATM    4  C4  UNL     1     -33.440   5.694   0.517  1.00 20.00     0.177 C 
HETATM    5  C5  UNL     1     -32.161   5.603   1.356  1.00 20.00    -0.020 C 
HETATM    6  C6  UNL     1     -33.593   6.764   2.549  1.00 20.00     0.064 C 
HETATM    7  C7  UNL     1     -31.219   4.494   0.951  1.00 20.00     0.017 C 
HETATM    8  O11 UNL     1     -34.325   6.504   1.326  1.00 20.00    -0.379 OA
ENDROOT
BRANCH   6   9
HETATM    9  C10 UNL     1     -34.531   7.137   3.671  1.00 20.00     0.012 C 
HETATM   10  C8  UNL     1     -35.248   5.901   4.228  1.00 20.00     0.012 C 
HETATM   11  C9  UNL     1     -33.787   7.861   4.799  1.00 20.00     0.012 C 
ENDBRANCH   6   9
TORSDOF 1
ENDMDL
MODEL 7
REMARK VINA RESULT:       1.7      1.232      1.568
REMARK  1 active torsions:
REMARK  status: ('A' for Active; 'I' for Inactive)
REMARK    1  A    between atoms: C6_6  and  C10_10 
ROOT
HETATM    1  C1  UNL     1     -32.245   7.076   0.675  1.00 20.00     0.014 C 
HETATM    2  C2  UNL     1     -32.692   6.294   1.919  1.00 20.00     0.039 C 
HETATM    3  C3  UNL     1     -33.528   8.538   2.049  1.00 20.00     0.049 C 
HETATM    4  C4  UNL     1     -31.206   8.729   2.223  1.00 20.00     0.177 C 
HETATM    5  C5  UNL     1     -32.292   8.541   1.159  1.00 20.00    -0.020 C 
HETATM    6  C6  UNL     1     -32.969   7.424   2.923  1.00 20.00     0.064 C 
HETATM    7  C7  UNL     1     -32.268   9.564   0.048  1.00 20.00     0.017 C 
HETATM    8  O11 UNL     1     -31.679   7.938   3.339  1.00 20.00    -0.379 OA
ENDROOT
BRANCH   6   9
HETATM    9  C10 UNL     1     -33.803   7.027   4.117  1.00 20.00     0.012 C 
HETATM   10  C8  UNL     1     -33.929   8.185   5.115  1.00 20.00     0.012 C 
HETATM   11  C9  UNL     1     -35.196   6.553   3.688  1.00 20.00     0.012 C 
ENDBRANCH   6   9
TORSDOF 1
ENDMDL
MODEL 8
REMARK VINA RESULT:       2.8      1.556      4.030
REMARK  1 active torsions:
REMARK  status: ('A' for Active; 'I' for Inactive)
REMARK    1  A    between atoms: C6_6  and  C10_10 
ROOT
HETATM    1  C1  UNL     1     -33.647   4.291   2.498  1.00 20.00     0.014 C 
HETATM    2  C2  UNL     1     -33.660   5.774   2.098  1.00 20.00     0.039 C 
HETATM    3  C3  UNL     1     -33.033   5.579   4.405  1.00 20.00     0.049 C 
HETATM    4  C4  UNL     1     -35.259   4.878   4.304  1.00 20.00     0.177 C 
HETATM    5  C5  UNL     1     -33.848   4.349   4.027  1.00 20.00    -0.020 C 
HETATM    6  C6  UNL     1     -33.827   6.470   3.458  1.00 20.00     0.064 C 
HETATM    7  C7  UNL     1     -33.503   3.068   4.748  1.00 20.00     0.017 C 
HETATM    8  O11 UNL     1     -35.200   6.257   3.869  1.00 20.00    -0.379 OA
ENDROOT
BRANCH   6   9
HETATM    9  C10 UNL     1     -33.480   7.938   3.471  1.00 20.00     0.012 C 
HETATM   10  C8  UNL     1     -33.071   8.399   4.876  1.00 20.00     0.012 C 
HETATM   11  C9  UNL     1     -32.361   8.253   2.472  1.00 20.00     0.012 C 
ENDBRANCH   6   9
TORSDOF 1
ENDMDL
MODEL 9
REMARK VINA RESULT:       3.0      1.255      3.662
REMARK  1 active torsions:
REMARK  status: ('A' for Active; 'I' for Inactive)
REMARK    1  A    between atoms: C6_6  and  C10_10 
ROOT
HETATM    1  C1  UNL     1     -34.429   7.580   4.311  1.00 20.00     0.014 C 
HETATM    2  C2  UNL     1     -32.976   7.546   3.815  1.00 20.00     0.039 C 
HETATM    3  C3  UNL     1     -34.411   6.616   2.133  1.00 20.00     0.049 C 
HETATM    4  C4  UNL     1     -34.502   5.120   3.925  1.00 20.00     0.177 C 
HETATM    5  C5  UNL     1     -35.097   6.461   3.484  1.00 20.00    -0.020 C 
HETATM    6  C6  UNL     1     -33.029   6.441   2.748  1.00 20.00     0.064 C 
HETATM    7  C7  UNL     1     -36.607   6.509   3.479  1.00 20.00     0.017 C 
HETATM    8  O11 UNL     1     -33.134   5.181   3.457  1.00 20.00    -0.379 OA
ENDROOT
BRANCH   6   9
HETATM    9  C10 UNL     1     -31.865   6.425   1.787  1.00 20.00     0.012 C 
HETATM   10  C8  UNL     1     -32.038   5.330   0.726  1.00 20.00     0.012 C 
HETATM   11  C9  UNL     1     -31.688   7.787   1.107  1.00 20.00     0.012 C 
ENDBRANCH   6   9
TORSDOF 1
ENDMDL
