MODEL 1
REMARK VINA RESULT:       1.5      0.000      0.000
REMARK  1 active torsions:
REMARK  status: ('A' for Active; 'I' for Inactive)
REMARK    1  A    between atoms: C4_4  and  C7_7 
ROOT
HETATM    1  C1  UNL     1     -33.474   3.547   4.170  1.00 20.00     0.075 C 
HETATM    2  C2  UNL     1     -34.633   5.721   4.074  1.00 20.00     0.105 C 
HETATM    3  C3  UNL     1     -33.338   4.965   3.818  1.00 20.00     0.164 C 
HETATM    4  C4  UNL     1     -33.368   6.952   1.983  1.00 20.00     0.113 C 
HETATM    5  N8  UNL     1     -33.581   2.426   4.448  1.00 20.00    -0.196 NA
HETATM    6  S9  UNL     1     -34.490   7.383   3.353  1.00 20.00    -0.151 SA
HETATM    7  S10 UNL     1     -32.971   5.179   2.053  1.00 20.00    -0.133 SA
ENDROOT
BRANCH   4   8
HETATM    8  C7  UNL     1     -32.092   7.777   2.086  1.00 20.00     0.001 C 
HETATM    9  C5  UNL     1     -32.019   8.805   0.956  1.00 20.00     0.011 C 
HETATM   10  C6  UNL     1     -32.005   8.472   3.445  1.00 20.00     0.011 C 
ENDBRANCH   4   8
TORSDOF 1
ENDMDL
MODEL 2
REMARK VINA RESULT:       1.7      1.920      2.885
REMARK  1 active torsions:
REMARK  status: ('A' for Active; 'I' for Inactive)
REMARK    1  A    between atoms: C4_4  and  C7_7 
ROOT
HETATM    1  C1  UNL     1     -34.861   6.114   3.766  1.00 20.00     0.075 C 
HETATM    2  C2  UNL     1     -33.001   5.609   2.229  1.00 20.00     0.105 C 
HETATM    3  C3  UNL     1     -34.047   6.627   2.660  1.00 20.00     0.164 C 
HETATM    4  C4  UNL     1     -31.967   8.096   1.747  1.00 20.00     0.113 C 
HETATM    5  N8  UNL     1     -35.506   5.708   4.642  1.00 20.00    -0.196 NA
HETATM    6  S9  UNL     1     -31.853   6.408   1.070  1.00 20.00    -0.151 SA
HETATM    7  S10 UNL     1     -33.129   8.116   3.146  1.00 20.00    -0.133 SA
ENDROOT
BRANCH   4   8
HETATM    8  C7  UNL     1     -32.441   9.054   0.661  1.00 20.00     0.001 C 
HETATM    9  C5  UNL     1     -32.744  10.432   1.249  1.00 20.00     0.011 C 
HETATM   10  C6  UNL     1     -31.401   9.166  -0.452  1.00 20.00     0.011 C 
ENDBRANCH   4   8
TORSDOF 1
ENDMDL
MODEL 3
REMARK VINA RESULT:       2.4      3.041      4.766
REMARK  1 active torsions:
REMARK  status: ('A' for Active; 'I' for Inactive)
REMARK    1  A    between atoms: C4_4  and  C7_7 
ROOT
HETATM    1  C1  UNL     1     -32.371   9.091   0.490  1.00 20.00     0.075 C 
HETATM    2  C2  UNL     1     -32.479   8.896   2.945  1.00 20.00     0.105 C 
HETATM    3  C3  UNL     1     -32.943   8.335   1.609  1.00 20.00     0.164 C 
HETATM    4  C4  UNL     1     -32.901   6.214   3.287  1.00 20.00     0.113 C 
HETATM    5  N8  UNL     1     -31.919   9.689  -0.396  1.00 20.00    -0.196 NA
HETATM    6  S9  UNL     1     -32.979   7.751   4.264  1.00 20.00    -0.151 SA
HETATM    7  S10 UNL     1     -32.410   6.600   1.579  1.00 20.00    -0.133 SA
ENDROOT
BRANCH   4   8
HETATM    8  C7  UNL     1     -34.262   5.530   3.297  1.00 20.00     0.001 C 
HETATM    9  C5  UNL     1     -34.188   4.190   4.031  1.00 20.00     0.011 C 
HETATM   10  C6  UNL     1     -35.316   6.431   3.938  1.00 20.00     0.011 C 
ENDBRANCH   4   8
TORSDOF 1
ENDMDL
MODEL 4
REMARK VINA RESULT:       2.6      3.002      4.901
REMARK  1 active torsions:
REMARK  status: ('A' for Active; 'I' for Inactive)
REMARK    1  A    between atoms: C4_4  and  C7_7 
ROOT
HETATM    1  C1  UNL     1     -32.336   9.217   1.002  1.00 20.00     0.075 C 
HETATM    2  C2  UNL     1     -31.457   6.917   1.126  1.00 20.00     0.105 C 
HETATM    3  C3  UNL     1     -32.388   7.952   1.741  1.00 20.00     0.164 C 
HETATM    4  C4  UNL     1     -33.553   5.563   2.247  1.00 20.00     0.113 C 
HETATM    5  N8  UNL     1     -32.295  10.219   0.418  1.00 20.00    -0.196 NA
HETATM    6  S9  UNL     1     -31.783   5.306   1.898  1.00 20.00    -0.151 SA
HETATM    7  S10 UNL     1     -34.051   7.223   1.693  1.00 20.00    -0.133 SA
ENDROOT
BRANCH   4   8
HETATM    8  C7  UNL     1     -33.809   5.413   3.741  1.00 20.00     0.001 C 
HETATM    9  C5  UNL     1     -35.072   6.171   4.153  1.00 20.00     0.011 C 
HETATM   10  C6  UNL     1     -33.923   3.939   4.125  1.00 20.00     0.011 C 
ENDBRANCH   4   8
TORSDOF 1
ENDMDL
MODEL 5
REMARK VINA RESULT:       3.9      2.554      3.497
REMARK  1 active torsions:
REMARK  status: ('A' for Active; 'I' for Inactive)
REMARK    1  A    between atoms: C4_4  and  C7_7 
ROOT
HETATM    1  C1  UNL     1     -33.347   4.585   0.052  1.00 20.00     0.075 C 
HETATM    2  C2  UNL     1     -32.156   6.627   0.752  1.00 20.00     0.105 C 
HETATM    3  C3  UNL     1     -33.373   5.738   0.958  1.00 20.00     0.164 C 
HETATM    4  C4  UNL     1     -32.893   6.847   3.378  1.00 20.00     0.113 C 
HETATM    5  N8  UNL     1     -33.327   3.673  -0.664  1.00 20.00    -0.196 NA
HETATM    6  S9  UNL     1     -32.100   7.859   2.086  1.00 20.00    -0.151 SA
HETATM    7  S10 UNL     1     -33.329   5.218   2.697  1.00 20.00    -0.133 SA
ENDROOT
BRANCH   4   8
HETATM    8  C7  UNL     1     -34.143   7.552   3.887  1.00 20.00     0.001 C 
HETATM    9  C5  UNL     1     -35.299   6.563   4.037  1.00 20.00     0.011 C 
HETATM   10  C6  UNL     1     -33.865   8.253   5.216  1.00 20.00     0.011 C 
ENDBRANCH   4   8
TORSDOF 1
ENDMDL
MODEL 6
REMARK VINA RESULT:       4.2      3.458      4.909
REMARK  1 active torsions:
REMARK  status: ('A' for Active; 'I' for Inactive)
REMARK    1  A    between atoms: C4_4  and  C7_7 
ROOT
HETATM    1  C1  UNL     1     -32.445   9.916   0.322  1.00 20.00     0.075 C 
HETATM    2  C2  UNL     1     -33.517   9.330   2.463  1.00 20.00     0.105 C 
HETATM    3  C3  UNL     1     -32.998   8.822   1.126  1.00 20.00     0.164 C 
HETATM    4  C4  UNL     1     -32.670   6.756   2.840  1.00 20.00     0.113 C 
HETATM    5  N8  UNL     1     -32.007  10.783  -0.314  1.00 20.00    -0.196 NA
HETATM    6  S9  UNL     1     -33.916   7.903   3.514  1.00 20.00    -0.151 SA
HETATM    7  S10 UNL     1     -31.734   7.579   1.516  1.00 20.00    -0.133 SA
ENDROOT
BRANCH   4   8
HETATM    8  C7  UNL     1     -33.360   5.511   2.296  1.00 20.00     0.001 C 
HETATM    9  C5  UNL     1     -32.515   4.860   1.201  1.00 20.00     0.011 C 
HETATM   10  C6  UNL     1     -33.638   4.513   3.419  1.00 20.00     0.011 C 
ENDBRANCH   4   8
TORSDOF 1
ENDMDL
