MODEL 1
REMARK VINA RESULT:      -1.2      0.000      0.000
REMARK  1 active torsions:
REMARK  status: ('A' for Active; 'I' for Inactive)
REMARK    1  A    between atoms: C7_7  and  C10_10 
ROOT
HETATM    1  C1  UNL     1     -32.854   5.900   1.806  1.00 20.00     0.011 C 
HETATM    2  C2  UNL     1     -32.074   6.780   1.163  1.00 20.00    -0.020 C 
HETATM    3  C3  UNL     1     -33.601   6.260   2.989  1.00 20.00     0.000 C 
HETATM    4  C4  UNL     1     -33.389   7.614   3.593  1.00 20.00     0.159 C 
HETATM    5  C5  UNL     1     -34.458   5.420   3.587  1.00 20.00     0.027 C 
HETATM    6  C6  UNL     1     -32.171   8.384   3.115  1.00 20.00     0.092 C 
HETATM    7  C7  UNL     1     -31.883   8.202   1.618  1.00 20.00     0.019 C 
HETATM    8  O11 UNL     1     -34.117   8.061   4.477  1.00 20.00    -0.292 OA
ENDROOT
BRANCH   7   9
HETATM    9  C10 UNL     1     -32.744   9.140   0.766  1.00 20.00    -0.015 C 
HETATM   10  C8  UNL     1     -32.674  10.565   1.307  1.00 20.00     0.010 C 
HETATM   11  C9  UNL     1     -32.301   9.093  -0.693  1.00 20.00     0.010 C 
ENDBRANCH   7   9
TORSDOF 1
ENDMDL
MODEL 2
REMARK VINA RESULT:       1.0      2.298      3.509
REMARK  1 active torsions:
REMARK  status: ('A' for Active; 'I' for Inactive)
REMARK    1  A    between atoms: C7_7  and  C10_10 
ROOT
HETATM    1  C1  UNL     1     -34.954   5.098   4.451  1.00 20.00     0.011 C 
HETATM    2  C2  UNL     1     -35.283   6.323   4.018  1.00 20.00    -0.020 C 
HETATM    3  C3  UNL     1     -33.829   4.370   3.911  1.00 20.00     0.000 C 
HETATM    4  C4  UNL     1     -33.094   4.943   2.738  1.00 20.00     0.159 C 
HETATM    5  C5  UNL     1     -33.431   3.187   4.400  1.00 20.00     0.027 C 
HETATM    6  C6  UNL     1     -33.781   6.076   1.998  1.00 20.00     0.092 C 
HETATM    7  C7  UNL     1     -34.537   7.040   2.924  1.00 20.00     0.019 C 
HETATM    8  O11 UNL     1     -32.023   4.485   2.347  1.00 20.00    -0.292 OA
ENDROOT
BRANCH   7   9
HETATM    9  C10 UNL     1     -33.595   8.081   3.534  1.00 20.00    -0.015 C 
HETATM   10  C8  UNL     1     -33.391   7.809   5.021  1.00 20.00     0.010 C 
HETATM   11  C9  UNL     1     -32.259   8.089   2.798  1.00 20.00     0.010 C 
ENDBRANCH   7   9
TORSDOF 1
ENDMDL
MODEL 3
REMARK VINA RESULT:       1.3      0.616      1.214
REMARK  1 active torsions:
REMARK  status: ('A' for Active; 'I' for Inactive)
REMARK    1  A    between atoms: C7_7  and  C10_10 
ROOT
HETATM    1  C1  UNL     1     -33.327   6.195   1.891  1.00 20.00     0.011 C 
HETATM    2  C2  UNL     1     -32.300   6.786   1.265  1.00 20.00    -0.020 C 
HETATM    3  C3  UNL     1     -33.876   6.714   3.122  1.00 20.00     0.000 C 
HETATM    4  C4  UNL     1     -33.190   7.866   3.789  1.00 20.00     0.159 C 
HETATM    5  C5  UNL     1     -34.962   6.190   3.707  1.00 20.00     0.027 C 
HETATM    6  C6  UNL     1     -31.788   8.191   3.305  1.00 20.00     0.092 C 
HETATM    7  C7  UNL     1     -31.612   8.019   1.789  1.00 20.00     0.019 C 
HETATM    8  O11 UNL     1     -33.697   8.480   4.726  1.00 20.00    -0.292 OA
ENDROOT
BRANCH   7   9
HETATM    9  C10 UNL     1     -32.104   9.252   1.026  1.00 20.00    -0.015 C 
HETATM   10  C8  UNL     1     -32.418   8.893  -0.423  1.00 20.00     0.010 C 
HETATM   11  C9  UNL     1     -33.330   9.850   1.711  1.00 20.00     0.010 C 
ENDBRANCH   7   9
TORSDOF 1
ENDMDL
MODEL 4
REMARK VINA RESULT:       1.4      2.240      3.703
REMARK  1 active torsions:
REMARK  status: ('A' for Active; 'I' for Inactive)
REMARK    1  A    between atoms: C7_7  and  C10_10 
ROOT
HETATM    1  C1  UNL     1     -34.810   4.779   4.501  1.00 20.00     0.011 C 
HETATM    2  C2  UNL     1     -34.995   6.019   4.027  1.00 20.00    -0.020 C 
HETATM    3  C3  UNL     1     -33.708   3.950   4.070  1.00 20.00     0.000 C 
HETATM    4  C4  UNL     1     -32.827   4.439   2.962  1.00 20.00     0.159 C 
HETATM    5  C5  UNL     1     -33.456   2.747   4.605  1.00 20.00     0.027 C 
HETATM    6  C6  UNL     1     -33.348   5.613   2.152  1.00 20.00     0.092 C 
HETATM    7  C7  UNL     1     -34.098   6.652   2.997  1.00 20.00     0.019 C 
HETATM    8  O11 UNL     1     -31.768   3.886   2.671  1.00 20.00    -0.292 OA
ENDROOT
BRANCH   7   9
HETATM    9  C10 UNL     1     -33.128   7.622   3.678  1.00 20.00    -0.015 C 
HETATM   10  C8  UNL     1     -32.483   8.543   2.646  1.00 20.00     0.010 C 
HETATM   11  C9  UNL     1     -33.849   8.433   4.751  1.00 20.00     0.010 C 
ENDBRANCH   7   9
TORSDOF 1
ENDMDL
MODEL 5
REMARK VINA RESULT:       1.4      1.482      4.458
REMARK  1 active torsions:
REMARK  status: ('A' for Active; 'I' for Inactive)
REMARK    1  A    between atoms: C7_7  and  C10_10 
ROOT
HETATM    1  C1  UNL     1     -32.578   6.115   1.751  1.00 20.00     0.011 C 
HETATM    2  C2  UNL     1     -33.262   4.998   2.033  1.00 20.00    -0.020 C 
HETATM    3  C3  UNL     1     -32.727   7.323   2.531  1.00 20.00     0.000 C 
HETATM    4  C4  UNL     1     -33.777   7.369   3.598  1.00 20.00     0.159 C 
HETATM    5  C5  UNL     1     -31.980   8.416   2.321  1.00 20.00     0.027 C 
HETATM    6  C6  UNL     1     -34.823   6.269   3.564  1.00 20.00     0.092 C 
HETATM    7  C7  UNL     1     -34.257   4.900   3.160  1.00 20.00     0.019 C 
HETATM    8  O11 UNL     1     -33.838   8.279   4.421  1.00 20.00    -0.292 OA
ENDROOT
BRANCH   7   9
HETATM    9  C10 UNL     1     -33.621   4.184   4.354  1.00 20.00    -0.015 C 
HETATM   10  C8  UNL     1     -34.594   4.140   5.529  1.00 20.00     0.010 C 
HETATM   11  C9  UNL     1     -33.183   2.777   3.962  1.00 20.00     0.010 C 
ENDBRANCH   7   9
TORSDOF 1
ENDMDL
