MODEL 1
REMARK VINA RESULT:      -0.4      0.000      0.000
REMARK  0 active torsions:
REMARK  status: ('A' for Active; 'I' for Inactive)
ROOT
HETATM    1  C1  UNL     1     -34.520   6.315   3.685  1.00 20.00     0.145 C 
HETATM    2  C2  UNL     1     -33.774   7.592   3.366  1.00 20.00     0.089 C 
HETATM    3  C3  UNL     1     -32.264   8.794   1.010  1.00 20.00     0.002 C 
HETATM    4  C4  UNL     1     -31.496   8.059   2.126  1.00 20.00     0.010 C 
HETATM    5  C5  UNL     1     -33.118   7.521   0.841  1.00 20.00     0.010 C 
HETATM    6  C6  UNL     1     -32.518   5.666   2.578  1.00 20.00     0.037 C 
HETATM    7  C7  UNL     1     -33.904   5.138   2.964  1.00 20.00     0.152 C 
HETATM    8  C8  UNL     1     -32.747   7.156   2.313  1.00 20.00    -0.032 C 
HETATM    9  O9  UNL     1     -35.498   6.262   4.417  1.00 20.00    -0.296 OA
HETATM   10 CL10 UNL     1     -33.814   3.739   4.029  1.00 20.00    -0.117 Cl
ENDROOT
TORSDOF 0
ENDMDL
MODEL 2
REMARK VINA RESULT:      -0.1      2.704      3.984
REMARK  0 active torsions:
REMARK  status: ('A' for Active; 'I' for Inactive)
ROOT
HETATM    1  C1  UNL     1     -32.331   8.155   3.416  1.00 20.00     0.145 C 
HETATM    2  C2  UNL     1     -33.506   7.668   4.235  1.00 20.00     0.089 C 
HETATM    3  C3  UNL     1     -35.129   5.110   4.552  1.00 20.00     0.002 C 
HETATM    4  C4  UNL     1     -35.628   6.232   3.620  1.00 20.00     0.010 C 
HETATM    5  C5  UNL     1     -33.807   5.121   3.757  1.00 20.00     0.010 C 
HETATM    6  C6  UNL     1     -33.749   6.973   1.918  1.00 20.00     0.037 C 
HETATM    7  C7  UNL     1     -32.318   7.504   2.053  1.00 20.00     0.152 C 
HETATM    8  C8  UNL     1     -34.140   6.590   3.348  1.00 20.00    -0.032 C 
HETATM    9  O9  UNL     1     -31.502   8.956   3.824  1.00 20.00    -0.296 OA
HETATM   10 CL10 UNL     1     -31.922   8.683   0.808  1.00 20.00    -0.117 Cl
ENDROOT
TORSDOF 0
ENDMDL
MODEL 3
REMARK VINA RESULT:       0.4      1.508      2.187
REMARK  0 active torsions:
REMARK  status: ('A' for Active; 'I' for Inactive)
ROOT
HETATM    1  C1  UNL     1     -33.418   5.484   2.840  1.00 20.00     0.145 C 
HETATM    2  C2  UNL     1     -32.742   6.137   1.654  1.00 20.00     0.089 C 
HETATM    3  C3  UNL     1     -31.168   8.678   1.072  1.00 20.00     0.002 C 
HETATM    4  C4  UNL     1     -32.682   8.625   0.790  1.00 20.00     0.010 C 
HETATM    5  C5  UNL     1     -31.484   8.252   2.520  1.00 20.00     0.010 C 
HETATM    6  C6  UNL     1     -34.024   7.782   2.903  1.00 20.00     0.037 C 
HETATM    7  C7  UNL     1     -33.981   6.525   3.779  1.00 20.00     0.152 C 
HETATM    8  C8  UNL     1     -32.812   7.634   1.980  1.00 20.00    -0.032 C 
HETATM    9  O9  UNL     1     -33.476   4.274   3.010  1.00 20.00    -0.296 OA
HETATM   10 CL10 UNL     1     -35.579   6.049   4.343  1.00 20.00    -0.117 Cl
ENDROOT
TORSDOF 0
ENDMDL
MODEL 4
REMARK VINA RESULT:       1.3      2.726      3.929
REMARK  0 active torsions:
REMARK  status: ('A' for Active; 'I' for Inactive)
ROOT
HETATM    1  C1  UNL     1     -32.376   6.025   1.587  1.00 20.00     0.145 C 
HETATM    2  C2  UNL     1     -33.094   5.527   2.823  1.00 20.00     0.089 C 
HETATM    3  C3  UNL     1     -35.661   6.143   4.342  1.00 20.00     0.002 C 
HETATM    4  C4  UNL     1     -34.328   6.778   4.787  1.00 20.00     0.010 C 
HETATM    5  C5  UNL     1     -35.405   6.734   2.941  1.00 20.00     0.010 C 
HETATM    6  C6  UNL     1     -33.105   7.957   2.765  1.00 20.00     0.037 C 
HETATM    7  C7  UNL     1     -32.613   7.504   1.386  1.00 20.00     0.152 C 
HETATM    8  C8  UNL     1     -33.885   6.753   3.297  1.00 20.00    -0.032 C 
HETATM    9  O9  UNL     1     -31.712   5.309   0.851  1.00 20.00    -0.296 OA
HETATM   10 CL10 UNL     1     -31.123   8.310   0.910  1.00 20.00    -0.117 Cl
ENDROOT
TORSDOF 0
ENDMDL
MODEL 5
REMARK VINA RESULT:       1.9      2.569      3.570
REMARK  0 active torsions:
REMARK  status: ('A' for Active; 'I' for Inactive)
ROOT
HETATM    1  C1  UNL     1     -31.973   7.489   1.399  1.00 20.00     0.145 C 
HETATM    2  C2  UNL     1     -32.997   8.258   2.205  1.00 20.00     0.089 C 
HETATM    3  C3  UNL     1     -34.130   8.222   5.032  1.00 20.00     0.002 C 
HETATM    4  C4  UNL     1     -34.870   7.492   3.893  1.00 20.00     0.010 C 
HETATM    5  C5  UNL     1     -32.879   7.398   4.666  1.00 20.00     0.010 C 
HETATM    6  C6  UNL     1     -33.250   5.870   2.582  1.00 20.00     0.037 C 
HETATM    7  C7  UNL     1     -31.927   6.041   1.828  1.00 20.00     0.152 C 
HETATM    8  C8  UNL     1     -33.485   7.233   3.237  1.00 20.00    -0.032 C 
HETATM    9  O9  UNL     1     -31.274   7.991   0.531  1.00 20.00    -0.296 OA
HETATM   10 CL10 UNL     1     -31.814   4.983   0.426  1.00 20.00    -0.117 Cl
ENDROOT
TORSDOF 0
ENDMDL
MODEL 6
REMARK VINA RESULT:       2.0      2.521      3.270
REMARK  0 active torsions:
REMARK  status: ('A' for Active; 'I' for Inactive)
ROOT
HETATM    1  C1  UNL     1     -32.638   8.054   2.166  1.00 20.00     0.145 C 
HETATM    2  C2  UNL     1     -31.773   7.067   1.414  1.00 20.00     0.089 C 
HETATM    3  C3  UNL     1     -32.105   4.376   0.028  1.00 20.00     0.002 C 
HETATM    4  C4  UNL     1     -31.603   4.438   1.484  1.00 20.00     0.010 C 
HETATM    5  C5  UNL     1     -33.331   5.194   0.479  1.00 20.00     0.010 C 
HETATM    6  C6  UNL     1     -33.207   5.898   2.991  1.00 20.00     0.037 C 
HETATM    7  C7  UNL     1     -33.723   7.340   2.938  1.00 20.00     0.152 C 
HETATM    8  C8  UNL     1     -32.463   5.720   1.665  1.00 20.00    -0.032 C 
HETATM    9  O9  UNL     1     -32.478   9.266   2.130  1.00 20.00    -0.296 OA
HETATM   10 CL10 UNL     1     -33.907   8.043   4.541  1.00 20.00    -0.117 Cl
ENDROOT
TORSDOF 0
ENDMDL
MODEL 7
REMARK VINA RESULT:       2.3      3.248      4.274
REMARK  0 active torsions:
REMARK  status: ('A' for Active; 'I' for Inactive)
ROOT
HETATM    1  C1  UNL     1     -32.567   9.523   1.097  1.00 20.00     0.145 C 
HETATM    2  C2  UNL     1     -33.709   9.031   1.960  1.00 20.00     0.089 C 
HETATM    3  C3  UNL     1     -34.067   7.497   4.566  1.00 20.00     0.002 C 
HETATM    4  C4  UNL     1     -34.135   6.754   3.216  1.00 20.00     0.010 C 
HETATM    5  C5  UNL     1     -32.683   8.025   4.138  1.00 20.00     0.010 C 
HETATM    6  C6  UNL     1     -32.027   7.293   1.719  1.00 20.00     0.037 C 
HETATM    7  C7  UNL     1     -31.394   8.574   1.165  1.00 20.00     0.152 C 
HETATM    8  C8  UNL     1     -33.126   7.797   2.658  1.00 20.00    -0.032 C 
HETATM    9  O9  UNL     1     -32.600  10.561   0.451  1.00 20.00    -0.296 OA
HETATM   10 CL10 UNL     1     -30.696   8.338  -0.433  1.00 20.00    -0.117 Cl
ENDROOT
TORSDOF 0
ENDMDL
