MODEL 1
REMARK VINA RESULT:       1.0      0.000      0.000
REMARK  1 active torsions:
REMARK  status: ('A' for Active; 'I' for Inactive)
REMARK    1  A    between atoms: C4_4  and  C7_7 
ROOT
HETATM    1  C1  UNL     1     -32.315   9.312   0.808  1.00 20.00     0.075 C 
HETATM    2  C2  UNL     1     -32.542   6.864   0.628  1.00 20.00     0.105 C 
HETATM    3  C3  UNL     1     -32.000   8.028   1.444  1.00 20.00     0.164 C 
HETATM    4  C4  UNL     1     -32.935   6.118   3.185  1.00 20.00     0.113 C 
HETATM    5  N8  UNL     1     -32.565  10.327   0.303  1.00 20.00    -0.196 NA
HETATM    6  S9  UNL     1     -32.347   5.374   1.635  1.00 20.00    -0.151 SA
HETATM    7  S10 UNL     1     -32.727   7.929   3.114  1.00 20.00    -0.133 SA
ENDROOT
BRANCH   4   8
HETATM    8  C7  UNL     1     -34.404   5.779   3.403  1.00 20.00     0.001 C 
HETATM    9  C5  UNL     1     -34.548   4.536   4.281  1.00 20.00     0.011 C 
HETATM   10  C6  UNL     1     -35.145   6.962   4.027  1.00 20.00     0.011 C 
ENDBRANCH   4   8
TORSDOF 1
ENDMDL
MODEL 2
REMARK VINA RESULT:       2.0      2.441      4.751
REMARK  1 active torsions:
REMARK  status: ('A' for Active; 'I' for Inactive)
REMARK    1  A    between atoms: C4_4  and  C7_7 
ROOT
HETATM    1  C1  UNL     1     -34.661   6.180   3.828  1.00 20.00     0.075 C 
HETATM    2  C2  UNL     1     -33.257   8.205   3.873  1.00 20.00     0.105 C 
HETATM    3  C3  UNL     1     -33.348   6.736   3.486  1.00 20.00     0.164 C 
HETATM    4  C4  UNL     1     -31.928   8.053   1.536  1.00 20.00     0.113 C 
HETATM    5  N8  UNL     1     -35.701   5.740   4.099  1.00 20.00    -0.196 NA
HETATM    6  S9  UNL     1     -31.725   8.847   3.158  1.00 20.00    -0.151 SA
HETATM    7  S10 UNL     1     -33.027   6.607   1.695  1.00 20.00    -0.133 SA
ENDROOT
BRANCH   4   8
HETATM    8  C7  UNL     1     -32.521   9.041   0.541  1.00 20.00     0.001 C 
HETATM    9  C5  UNL     1     -32.701  10.416   1.184  1.00 20.00     0.011 C 
HETATM   10  C6  UNL     1     -31.642   9.147  -0.706  1.00 20.00     0.011 C 
ENDBRANCH   4   8
TORSDOF 1
ENDMDL
MODEL 3
REMARK VINA RESULT:       2.2      3.378      4.579
REMARK  1 active torsions:
REMARK  status: ('A' for Active; 'I' for Inactive)
REMARK    1  A    between atoms: C4_4  and  C7_7 
ROOT
HETATM    1  C1  UNL     1     -33.439   3.390   4.490  1.00 20.00     0.075 C 
HETATM    2  C2  UNL     1     -32.661   4.790   2.616  1.00 20.00     0.105 C 
HETATM    3  C3  UNL     1     -33.857   4.309   3.426  1.00 20.00     0.164 C 
HETATM    4  C4  UNL     1     -34.251   6.955   2.797  1.00 20.00     0.113 C 
HETATM    5  N8  UNL     1     -33.107   2.663   5.332  1.00 20.00    -0.196 NA
HETATM    6  S9  UNL     1     -33.251   6.114   1.534  1.00 20.00    -0.151 SA
HETATM    7  S10 UNL     1     -34.693   5.776   4.116  1.00 20.00    -0.133 SA
ENDROOT
BRANCH   4   8
HETATM    8  C7  UNL     1     -33.470   8.120   3.392  1.00 20.00     0.001 C 
HETATM    9  C5  UNL     1     -33.295   7.941   4.900  1.00 20.00     0.011 C 
HETATM   10  C6  UNL     1     -32.109   8.262   2.711  1.00 20.00     0.011 C 
ENDBRANCH   4   8
TORSDOF 1
ENDMDL
MODEL 4
REMARK VINA RESULT:       2.7      3.141      4.620
REMARK  1 active torsions:
REMARK  status: ('A' for Active; 'I' for Inactive)
REMARK    1  A    between atoms: C4_4  and  C7_7 
ROOT
HETATM    1  C1  UNL     1     -33.489   3.771   4.247  1.00 20.00     0.075 C 
HETATM    2  C2  UNL     1     -32.619   4.449   2.043  1.00 20.00     0.105 C 
HETATM    3  C3  UNL     1     -33.746   4.589   3.057  1.00 20.00     0.164 C 
HETATM    4  C4  UNL     1     -33.310   7.048   1.910  1.00 20.00     0.113 C 
HETATM    5  N8  UNL     1     -33.286   3.124   5.190  1.00 20.00    -0.196 NA
HETATM    6  S9  UNL     1     -32.898   5.699   0.765  1.00 20.00    -0.151 SA
HETATM    7  S10 UNL     1     -33.892   6.354   3.493  1.00 20.00    -0.133 SA
ENDROOT
BRANCH   4   8
HETATM    8  C7  UNL     1     -32.086   7.921   2.152  1.00 20.00     0.001 C 
HETATM    9  C5  UNL     1     -31.971   9.004   1.081  1.00 20.00     0.011 C 
HETATM   10  C6  UNL     1     -32.138   8.551   3.544  1.00 20.00     0.011 C 
ENDBRANCH   4   8
TORSDOF 1
ENDMDL
MODEL 5
REMARK VINA RESULT:       3.2      2.083      3.103
REMARK  1 active torsions:
REMARK  status: ('A' for Active; 'I' for Inactive)
REMARK    1  A    between atoms: C4_4  and  C7_7 
ROOT
HETATM    1  C1  UNL     1     -32.449   7.590   2.177  1.00 20.00     0.075 C 
HETATM    2  C2  UNL     1     -34.045   6.904   3.926  1.00 20.00     0.105 C 
HETATM    3  C3  UNL     1     -33.556   6.683   2.502  1.00 20.00     0.164 C 
HETATM    4  C4  UNL     1     -34.183   4.237   3.585  1.00 20.00     0.113 C 
HETATM    5  N8  UNL     1     -31.574   8.308   1.920  1.00 20.00    -0.196 NA
HETATM    6  S9  UNL     1     -35.197   5.562   4.305  1.00 20.00    -0.151 SA
HETATM    7  S10 UNL     1     -33.040   4.940   2.350  1.00 20.00    -0.133 SA
ENDROOT
BRANCH   4   8
HETATM    8  C7  UNL     1     -33.386   3.536   4.678  1.00 20.00     0.001 C 
HETATM    9  C5  UNL     1     -33.535   2.018   4.569  1.00 20.00     0.011 C 
HETATM   10  C6  UNL     1     -31.912   3.933   4.613  1.00 20.00     0.011 C 
ENDBRANCH   4   8
TORSDOF 1
ENDMDL
MODEL 6
REMARK VINA RESULT:       3.4      1.804      2.839
REMARK  1 active torsions:
REMARK  status: ('A' for Active; 'I' for Inactive)
REMARK    1  A    between atoms: C4_4  and  C7_7 
ROOT
HETATM    1  C1  UNL     1     -32.192   7.884   1.840  1.00 20.00     0.075 C 
HETATM    2  C2  UNL     1     -33.841   7.346   3.591  1.00 20.00     0.105 C 
HETATM    3  C3  UNL     1     -33.356   7.057   2.178  1.00 20.00     0.164 C 
HETATM    4  C4  UNL     1     -34.145   4.684   3.318  1.00 20.00     0.113 C 
HETATM    5  N8  UNL     1     -31.271   8.538   1.573  1.00 20.00    -0.196 NA
HETATM    6  S9  UNL     1     -35.078   6.090   3.994  1.00 20.00    -0.151 SA
HETATM    7  S10 UNL     1     -32.952   5.282   2.075  1.00 20.00    -0.133 SA
ENDROOT
BRANCH   4   8
HETATM    8  C7  UNL     1     -33.403   3.963   4.435  1.00 20.00     0.001 C 
HETATM    9  C5  UNL     1     -34.199   4.022   5.740  1.00 20.00     0.011 C 
HETATM   10  C6  UNL     1     -33.121   2.512   4.048  1.00 20.00     0.011 C 
ENDBRANCH   4   8
TORSDOF 1
ENDMDL
