MODEL 1
REMARK VINA RESULT:      -0.1      0.000      0.000
REMARK  1 active torsions:
REMARK  status: ('A' for Active; 'I' for Inactive)
REMARK    1  A    between atoms: C6_6  and  C11_11 
ROOT
HETATM    1  C1  UNL     1     -33.548   6.611   2.896  1.00 20.00    -0.014 C 
HETATM    2  C2  UNL     1     -32.850   6.207   1.813  1.00 20.00    -0.074 C 
HETATM    3  C3  UNL     1     -33.123   7.863   3.610  1.00 20.00     0.155 C 
HETATM    4  C4  UNL     1     -31.700   7.000   1.230  1.00 20.00     0.039 C 
HETATM    5  C5  UNL     1     -31.895   8.605   3.133  1.00 20.00     0.088 C 
HETATM    6  C6  UNL     1     -31.691   8.477   1.630  1.00 20.00     0.000 C 
HETATM    7  C7  UNL     1     -34.741   5.917   3.486  1.00 20.00     0.052 C 
HETATM    8  C8  UNL     1     -33.114   4.922   1.071  1.00 20.00     0.044 C 
HETATM    9  O12 UNL     1     -33.731   8.250   4.610  1.00 20.00    -0.293 OA
ENDROOT
BRANCH   6  10
HETATM   10  C11 UNL     1     -32.731   9.287   0.848  1.00 20.00    -0.018 C 
HETATM   11  C9  UNL     1     -32.687  10.757   1.259  1.00 20.00     0.010 C 
HETATM   12  C10 UNL     1     -32.504   9.143  -0.656  1.00 20.00     0.010 C 
ENDBRANCH   6  10
TORSDOF 1
ENDMDL
MODEL 2
REMARK VINA RESULT:       2.7      2.298      3.673
REMARK  1 active torsions:
REMARK  status: ('A' for Active; 'I' for Inactive)
REMARK    1  A    between atoms: C6_6  and  C11_11 
ROOT
HETATM    1  C1  UNL     1     -33.705   4.693   3.403  1.00 20.00    -0.014 C 
HETATM    2  C2  UNL     1     -34.658   5.450   3.988  1.00 20.00    -0.074 C 
HETATM    3  C3  UNL     1     -32.881   5.287   2.295  1.00 20.00     0.155 C 
HETATM    4  C4  UNL     1     -34.887   6.904   3.636  1.00 20.00     0.039 C 
HETATM    5  C5  UNL     1     -33.179   6.694   1.828  1.00 20.00     0.088 C 
HETATM    6  C6  UNL     1     -33.696   7.578   2.953  1.00 20.00     0.000 C 
HETATM    7  C7  UNL     1     -33.372   3.270   3.750  1.00 20.00     0.052 C 
HETATM    8  C8  UNL     1     -35.612   4.942   5.039  1.00 20.00     0.044 C 
HETATM    9  O12 UNL     1     -32.015   4.617   1.732  1.00 20.00    -0.293 OA
ENDROOT
BRANCH   6  10
HETATM   10  C11 UNL     1     -32.587   7.929   3.953  1.00 20.00    -0.018 C 
HETATM   11  C9  UNL     1     -31.603   8.920   3.337  1.00 20.00     0.010 C 
HETATM   12  C10 UNL     1     -33.184   8.494   5.241  1.00 20.00     0.010 C 
ENDBRANCH   6  10
TORSDOF 1
ENDMDL
MODEL 3
REMARK VINA RESULT:       2.8      1.495      4.082
REMARK  1 active torsions:
REMARK  status: ('A' for Active; 'I' for Inactive)
REMARK    1  A    between atoms: C6_6  and  C11_11 
ROOT
HETATM    1  C1  UNL     1     -32.626   7.995   3.204  1.00 20.00    -0.014 C 
HETATM    2  C2  UNL     1     -32.494   7.313   2.046  1.00 20.00    -0.074 C 
HETATM    3  C3  UNL     1     -33.739   7.625   4.144  1.00 20.00     0.155 C 
HETATM    4  C4  UNL     1     -33.369   6.133   1.680  1.00 20.00     0.039 C 
HETATM    5  C5  UNL     1     -34.713   6.540   3.744  1.00 20.00     0.088 C 
HETATM    6  C6  UNL     1     -34.063   5.474   2.873  1.00 20.00     0.000 C 
HETATM    7  C7  UNL     1     -31.753   9.126   3.667  1.00 20.00     0.052 C 
HETATM    8  C8  UNL     1     -31.484   7.650   0.980  1.00 20.00     0.044 C 
HETATM    9  O12 UNL     1     -33.895   8.239   5.201  1.00 20.00    -0.293 OA
ENDROOT
BRANCH   6  10
HETATM   10  C11 UNL     1     -33.102   4.593   3.680  1.00 20.00    -0.018 C 
HETATM   11  C9  UNL     1     -33.864   3.479   4.393  1.00 20.00     0.010 C 
HETATM   12  C10 UNL     1     -32.020   4.009   2.773  1.00 20.00     0.010 C 
ENDBRANCH   6  10
TORSDOF 1
ENDMDL
