MODEL 1
REMARK VINA RESULT:      -1.8      0.000      0.000
REMARK  2 active torsions:
REMARK  status: ('A' for Active; 'I' for Inactive)
REMARK    1  A    between atoms: C2_2  and  C4_4 
REMARK    2  A    between atoms: C4_4  and  C5_5 
ROOT
HETATM    1  C1  UNL     1     -33.293   5.964   2.686  1.00 20.00     0.147 A 
HETATM    2  C2  UNL     1     -32.218   6.699   1.922  1.00 20.00     0.151 A 
HETATM    3  C3  UNL     1     -34.342   6.653   3.481  1.00 20.00     0.042 C 
HETATM    4  O6  UNL     1     -33.380   6.170   1.270  1.00 20.00    -0.376 OA
ENDROOT
BRANCH   2   5
HETATM    5  C4  UNL     1     -32.107   8.180   1.894  1.00 20.00     0.049 C 
BRANCH   5   6
HETATM    6  C5  UNL     1     -31.939   8.786   0.489  1.00 20.00     0.117 C 
HETATM    7 CL7  UNL     1     -32.610  10.430   0.402  1.00 20.00    -0.130 Cl
ENDBRANCH   5   6
ENDBRANCH   2   5
TORSDOF 2
ENDMDL
MODEL 2
REMARK VINA RESULT:      -1.8      2.705      3.749
REMARK  2 active torsions:
REMARK  status: ('A' for Active; 'I' for Inactive)
REMARK    1  A    between atoms: C2_2  and  C4_4 
REMARK    2  A    between atoms: C4_4  and  C5_5 
ROOT
HETATM    1  C1  UNL     1     -31.633   8.465   1.093  1.00 20.00     0.147 A 
HETATM    2  C2  UNL     1     -32.035   7.215   1.839  1.00 20.00     0.151 A 
HETATM    3  C3  UNL     1     -32.611   9.463   0.589  1.00 20.00     0.042 C 
HETATM    4  O6  UNL     1     -31.544   8.377   2.521  1.00 20.00    -0.376 OA
ENDROOT
BRANCH   2   5
HETATM    5  C4  UNL     1     -33.448   6.866   2.140  1.00 20.00     0.049 C 
BRANCH   5   6
HETATM    6  C5  UNL     1     -33.897   7.186   3.577  1.00 20.00     0.117 C 
HETATM    7 CL7  UNL     1     -35.351   6.266   4.026  1.00 20.00    -0.130 Cl
ENDBRANCH   5   6
ENDBRANCH   2   5
TORSDOF 2
ENDMDL
MODEL 3
REMARK VINA RESULT:      -1.8      1.627      2.101
REMARK  2 active torsions:
REMARK  status: ('A' for Active; 'I' for Inactive)
REMARK    1  A    between atoms: C2_2  and  C4_4 
REMARK    2  A    between atoms: C4_4  and  C5_5 
ROOT
HETATM    1  C1  UNL     1     -34.881   6.590   3.923  1.00 20.00     0.147 A 
HETATM    2  C2  UNL     1     -34.037   7.402   2.969  1.00 20.00     0.151 A 
HETATM    3  C3  UNL     1     -34.673   5.138   4.160  1.00 20.00     0.042 C 
HETATM    4  O6  UNL     1     -33.818   7.434   4.386  1.00 20.00    -0.376 OA
ENDROOT
BRANCH   2   5
HETATM    5  C4  UNL     1     -32.919   6.825   2.179  1.00 20.00     0.049 C 
BRANCH   5   6
HETATM    6  C5  UNL     1     -31.801   7.821   1.824  1.00 20.00     0.117 C 
HETATM    7 CL7  UNL     1     -32.402   9.135   0.788  1.00 20.00    -0.130 Cl
ENDBRANCH   5   6
ENDBRANCH   2   5
TORSDOF 2
ENDMDL
MODEL 4
REMARK VINA RESULT:      -1.6      4.210      4.856
REMARK  2 active torsions:
REMARK  status: ('A' for Active; 'I' for Inactive)
REMARK    1  A    between atoms: C2_2  and  C4_4 
REMARK    2  A    between atoms: C4_4  and  C5_5 
ROOT
HETATM    1  C1  UNL     1     -34.350   7.553   3.914  1.00 20.00     0.147 A 
HETATM    2  C2  UNL     1     -35.010   6.216   3.683  1.00 20.00     0.151 A 
HETATM    3  C3  UNL     1     -33.382   7.804   5.013  1.00 20.00     0.042 C 
HETATM    4  O6  UNL     1     -33.890   6.649   2.901  1.00 20.00    -0.376 OA
ENDROOT
BRANCH   2   5
HETATM    5  C4  UNL     1     -34.754   5.023   4.532  1.00 20.00     0.049 C 
BRANCH   5   6
HETATM    6  C5  UNL     1     -33.880   3.941   3.874  1.00 20.00     0.117 C 
HETATM    7 CL7  UNL     1     -33.065   2.932   5.091  1.00 20.00    -0.130 Cl
ENDBRANCH   5   6
ENDBRANCH   2   5
TORSDOF 2
ENDMDL
MODEL 5
REMARK VINA RESULT:      -1.5      3.089      4.172
REMARK  2 active torsions:
REMARK  status: ('A' for Active; 'I' for Inactive)
REMARK    1  A    between atoms: C2_2  and  C4_4 
REMARK    2  A    between atoms: C4_4  and  C5_5 
ROOT
HETATM    1  C1  UNL     1     -32.482   6.921   1.323  1.00 20.00     0.147 A 
HETATM    2  C2  UNL     1     -33.529   6.116   2.054  1.00 20.00     0.151 A 
HETATM    3  C3  UNL     1     -31.774   8.077   1.930  1.00 20.00     0.042 C 
HETATM    4  O6  UNL     1     -32.180   5.651   1.915  1.00 20.00    -0.376 OA
ENDROOT
BRANCH   2   5
HETATM    5  C4  UNL     1     -33.950   6.404   3.450  1.00 20.00     0.049 C 
BRANCH   5   6
HETATM    6  C5  UNL     1     -34.803   5.303   4.104  1.00 20.00     0.117 C 
HETATM    7 CL7  UNL     1     -33.892   3.784   4.270  1.00 20.00    -0.130 Cl
ENDBRANCH   5   6
ENDBRANCH   2   5
TORSDOF 2
ENDMDL
MODEL 6
REMARK VINA RESULT:      -1.5      2.827      3.514
REMARK  2 active torsions:
REMARK  status: ('A' for Active; 'I' for Inactive)
REMARK    1  A    between atoms: C2_2  and  C4_4 
REMARK    2  A    between atoms: C4_4  and  C5_5 
ROOT
HETATM    1  C1  UNL     1     -31.848   6.840   1.780  1.00 20.00     0.147 A 
HETATM    2  C2  UNL     1     -32.366   7.941   2.673  1.00 20.00     0.151 A 
HETATM    3  C3  UNL     1     -32.718   5.785   1.200  1.00 20.00     0.042 C 
HETATM    4  O6  UNL     1     -32.093   8.162   1.283  1.00 20.00    -0.376 OA
ENDROOT
BRANCH   2   5
HETATM    5  C4  UNL     1     -33.796   8.073   3.056  1.00 20.00     0.049 C 
BRANCH   5   6
HETATM    6  C5  UNL     1     -34.182   7.351   4.359  1.00 20.00     0.117 C 
HETATM    7 CL7  UNL     1     -35.371   6.062   4.063  1.00 20.00    -0.130 Cl
ENDBRANCH   5   6
ENDBRANCH   2   5
TORSDOF 2
ENDMDL
MODEL 7
REMARK VINA RESULT:      -1.4      2.627      2.948
REMARK  2 active torsions:
REMARK  status: ('A' for Active; 'I' for Inactive)
REMARK    1  A    between atoms: C2_2  and  C4_4 
REMARK    2  A    between atoms: C4_4  and  C5_5 
ROOT
HETATM    1  C1  UNL     1     -35.047   6.249   3.806  1.00 20.00     0.147 A 
HETATM    2  C2  UNL     1     -34.247   7.448   3.356  1.00 20.00     0.151 A 
HETATM    3  C3  UNL     1     -34.438   4.923   4.087  1.00 20.00     0.042 C 
HETATM    4  O6  UNL     1     -34.669   7.290   4.717  1.00 20.00    -0.376 OA
ENDROOT
BRANCH   2   5
HETATM    5  C4  UNL     1     -32.776   7.415   3.151  1.00 20.00     0.049 C 
BRANCH   5   6
HETATM    6  C5  UNL     1     -32.334   7.221   1.690  1.00 20.00     0.117 C 
HETATM    7 CL7  UNL     1     -32.414   5.512   1.205  1.00 20.00    -0.130 Cl
ENDBRANCH   5   6
ENDBRANCH   2   5
TORSDOF 2
ENDMDL
MODEL 8
REMARK VINA RESULT:      -1.3      3.168      4.066
REMARK  2 active torsions:
REMARK  status: ('A' for Active; 'I' for Inactive)
REMARK    1  A    between atoms: C2_2  and  C4_4 
REMARK    2  A    between atoms: C4_4  and  C5_5 
ROOT
HETATM    1  C1  UNL     1     -32.293   6.649   2.202  1.00 20.00     0.147 A 
HETATM    2  C2  UNL     1     -33.231   7.186   3.255  1.00 20.00     0.151 A 
HETATM    3  C3  UNL     1     -32.734   5.765   1.092  1.00 20.00     0.042 C 
HETATM    4  O6  UNL     1     -32.805   7.987   2.145  1.00 20.00    -0.376 OA
ENDROOT
BRANCH   2   5
HETATM    5  C4  UNL     1     -34.685   6.880   3.281  1.00 20.00     0.049 C 
BRANCH   5   6
HETATM    6  C5  UNL     1     -35.102   5.825   4.321  1.00 20.00     0.117 C 
HETATM    7 CL7  UNL     1     -34.207   4.304   4.101  1.00 20.00    -0.130 Cl
ENDBRANCH   5   6
ENDBRANCH   2   5
TORSDOF 2
ENDMDL
MODEL 9
REMARK VINA RESULT:      -1.3      2.563      3.768
REMARK  2 active torsions:
REMARK  status: ('A' for Active; 'I' for Inactive)
REMARK    1  A    between atoms: C2_2  and  C4_4 
REMARK    2  A    between atoms: C4_4  and  C5_5 
ROOT
HETATM    1  C1  UNL     1     -32.371   9.455   0.018  1.00 20.00     0.147 A 
HETATM    2  C2  UNL     1     -32.089   8.172   0.761  1.00 20.00     0.151 A 
HETATM    3  C3  UNL     1     -32.798  10.709   0.690  1.00 20.00     0.042 C 
HETATM    4  O6  UNL     1     -31.033   9.036   0.321  1.00 20.00    -0.376 OA
ENDROOT
BRANCH   2   5
HETATM    5  C4  UNL     1     -32.214   8.042   2.236  1.00 20.00     0.049 C 
BRANCH   5   6
HETATM    6  C5  UNL     1     -33.172   6.933   2.705  1.00 20.00     0.117 C 
HETATM    7 CL7  UNL     1     -34.210   7.489   4.038  1.00 20.00    -0.130 Cl
ENDBRANCH   5   6
ENDBRANCH   2   5
TORSDOF 2
ENDMDL
