MODEL 1
REMARK VINA RESULT:      -2.8      0.000      0.000
REMARK  2 active torsions:
REMARK  status: ('A' for Active; 'I' for Inactive)
REMARK    1  A    between atoms: C1_1  and  C3_3 
REMARK    2  A    between atoms: C3_3  and  C5_5 
ROOT
HETATM    1  C1  UNL     1     -32.640   6.637   2.095  1.00 20.00     0.212 C 
HETATM    2  C2  UNL     1     -33.562   6.391   3.029  1.00 20.00     0.228 C 
HETATM    3  F7  UNL     1     -32.185   5.658   1.285  1.00 20.00    -0.198 F 
HETATM    4  F8  UNL     1     -34.066   5.147   3.185  1.00 20.00    -0.189 F 
HETATM    5 CL9  UNL     1     -34.142   7.645   4.060  1.00 20.00    -0.048 Cl
ENDROOT
BRANCH   1   6
HETATM    6  C3  UNL     1     -32.037   7.977   1.858  1.00 20.00     0.191 C 
HETATM    7  O6  UNL     1     -31.455   8.584   2.755  1.00 20.00    -0.290 OA
BRANCH   6   8
HETATM    8  C5  UNL     1     -32.186   8.537   0.455  1.00 20.00     0.082 C 
HETATM    9  C4  UNL     1     -32.506  10.021   0.451  1.00 20.00     0.013 C 
ENDBRANCH   6   8
ENDBRANCH   1   6
TORSDOF 2
ENDMDL
MODEL 2
REMARK VINA RESULT:      -2.7      2.336      2.590
REMARK  2 active torsions:
REMARK  status: ('A' for Active; 'I' for Inactive)
REMARK    1  A    between atoms: C1_1  and  C3_3 
REMARK    2  A    between atoms: C3_3  and  C5_5 
ROOT
HETATM    1  C1  UNL     1     -34.098   6.768   3.277  1.00 20.00     0.212 C 
HETATM    2  C2  UNL     1     -34.586   5.725   3.953  1.00 20.00     0.228 C 
HETATM    3  F7  UNL     1     -34.609   8.006   3.436  1.00 20.00    -0.198 F 
HETATM    4  F8  UNL     1     -35.609   5.887   4.820  1.00 20.00    -0.189 F 
HETATM    5 CL9  UNL     1     -33.928   4.144   3.748  1.00 20.00    -0.048 Cl
ENDROOT
BRANCH   1   6
HETATM    6  C3  UNL     1     -32.974   6.674   2.306  1.00 20.00     0.191 C 
HETATM    7  O6  UNL     1     -32.843   5.699   1.570  1.00 20.00    -0.290 OA
BRANCH   6   8
HETATM    8  C5  UNL     1     -32.010   7.848   2.288  1.00 20.00     0.082 C 
HETATM    9  C4  UNL     1     -32.178   8.718   1.054  1.00 20.00     0.013 C 
ENDBRANCH   6   8
ENDBRANCH   1   6
TORSDOF 2
ENDMDL
MODEL 3
REMARK VINA RESULT:      -2.5      2.278      2.294
REMARK  2 active torsions:
REMARK  status: ('A' for Active; 'I' for Inactive)
REMARK    1  A    between atoms: C1_1  and  C3_3 
REMARK    2  A    between atoms: C3_3  and  C5_5 
ROOT
HETATM    1  C1  UNL     1     -32.645   7.895   3.288  1.00 20.00     0.212 C 
HETATM    2  C2  UNL     1     -33.704   7.653   4.064  1.00 20.00     0.228 C 
HETATM    3  F7  UNL     1     -31.643   8.699   3.701  1.00 20.00    -0.198 F 
HETATM    4  F8  UNL     1     -33.797   8.210   5.291  1.00 20.00    -0.189 F 
HETATM    5 CL9  UNL     1     -34.981   6.624   3.532  1.00 20.00    -0.048 Cl
ENDROOT
BRANCH   1   6
HETATM    6  C3  UNL     1     -32.466   7.321   1.926  1.00 20.00     0.191 C 
HETATM    7  O6  UNL     1     -32.874   6.196   1.647  1.00 20.00    -0.290 OA
BRANCH   6   8
HETATM    8  C5  UNL     1     -31.755   8.207   0.918  1.00 20.00     0.082 C 
HETATM    9  C4  UNL     1     -32.535   9.471   0.601  1.00 20.00     0.013 C 
ENDBRANCH   6   8
ENDBRANCH   1   6
TORSDOF 2
ENDMDL
MODEL 4
REMARK VINA RESULT:      -2.5      3.111      4.655
REMARK  2 active torsions:
REMARK  status: ('A' for Active; 'I' for Inactive)
REMARK    1  A    between atoms: C1_1  and  C3_3 
REMARK    2  A    between atoms: C3_3  and  C5_5 
ROOT
HETATM    1  C1  UNL     1     -33.981   6.651   3.606  1.00 20.00     0.212 C 
HETATM    2  C2  UNL     1     -33.204   6.887   2.546  1.00 20.00     0.228 C 
HETATM    3  F7  UNL     1     -34.333   7.642   4.451  1.00 20.00    -0.198 F 
HETATM    4  F8  UNL     1     -32.751   8.134   2.291  1.00 20.00    -0.189 F 
HETATM    5 CL9  UNL     1     -32.758   5.617   1.468  1.00 20.00    -0.048 Cl
ENDROOT
BRANCH   1   6
HETATM    6  C3  UNL     1     -34.520   5.308   3.956  1.00 20.00     0.191 C 
HETATM    7  O6  UNL     1     -35.623   5.179   4.485  1.00 20.00    -0.290 OA
BRANCH   6   8
HETATM    8  C5  UNL     1     -33.630   4.124   3.622  1.00 20.00     0.082 C 
HETATM    9  C4  UNL     1     -33.420   3.201   4.810  1.00 20.00     0.013 C 
ENDBRANCH   6   8
ENDBRANCH   1   6
TORSDOF 2
ENDMDL
MODEL 5
REMARK VINA RESULT:      -2.2      2.694      4.316
REMARK  2 active torsions:
REMARK  status: ('A' for Active; 'I' for Inactive)
REMARK    1  A    between atoms: C1_1  and  C3_3 
REMARK    2  A    between atoms: C3_3  and  C5_5 
ROOT
HETATM    1  C1  UNL     1     -33.495   5.917   2.897  1.00 20.00     0.212 C 
HETATM    2  C2  UNL     1     -33.324   7.206   3.197  1.00 20.00     0.228 C 
HETATM    3  F7  UNL     1     -32.988   5.388   1.764  1.00 20.00    -0.198 F 
HETATM    4  F8  UNL     1     -32.632   8.018   2.368  1.00 20.00    -0.189 F 
HETATM    5 CL9  UNL     1     -33.973   7.877   4.647  1.00 20.00    -0.048 Cl
ENDROOT
BRANCH   1   6
HETATM    6  C3  UNL     1     -34.243   4.958   3.755  1.00 20.00     0.191 C 
HETATM    7  O6  UNL     1     -35.247   5.302   4.375  1.00 20.00    -0.290 OA
BRANCH   6   8
HETATM    8  C5  UNL     1     -33.690   3.545   3.814  1.00 20.00     0.082 C 
HETATM    9  C4  UNL     1     -33.076   3.216   5.163  1.00 20.00     0.013 C 
ENDBRANCH   6   8
ENDBRANCH   1   6
TORSDOF 2
ENDMDL
MODEL 6
REMARK VINA RESULT:      -2.1      2.105      3.669
REMARK  2 active torsions:
REMARK  status: ('A' for Active; 'I' for Inactive)
REMARK    1  A    between atoms: C1_1  and  C3_3 
REMARK    2  A    between atoms: C3_3  and  C5_5 
ROOT
HETATM    1  C1  UNL     1     -33.156   6.094   2.674  1.00 20.00     0.212 C 
HETATM    2  C2  UNL     1     -32.343   6.610   1.749  1.00 20.00     0.228 C 
HETATM    3  F7  UNL     1     -33.289   4.760   2.825  1.00 20.00    -0.198 F 
HETATM    4  F8  UNL     1     -31.626   5.801   0.938  1.00 20.00    -0.189 F 
HETATM    5 CL9  UNL     1     -32.175   8.316   1.561  1.00 20.00    -0.048 Cl
ENDROOT
BRANCH   1   6
HETATM    6  C3  UNL     1     -33.977   6.915   3.606  1.00 20.00     0.191 C 
HETATM    7  O6  UNL     1     -33.515   7.911   4.158  1.00 20.00    -0.290 OA
BRANCH   6   8
HETATM    8  C5  UNL     1     -35.404   6.445   3.827  1.00 20.00     0.082 C 
HETATM    9  C4  UNL     1     -35.475   5.168   4.647  1.00 20.00     0.013 C 
ENDBRANCH   6   8
ENDBRANCH   1   6
TORSDOF 2
ENDMDL
MODEL 7
REMARK VINA RESULT:      -2.0      1.850      2.004
REMARK  2 active torsions:
REMARK  status: ('A' for Active; 'I' for Inactive)
REMARK    1  A    between atoms: C1_1  and  C3_3 
REMARK    2  A    between atoms: C3_3  and  C5_5 
ROOT
HETATM    1  C1  UNL     1     -32.997   7.390   2.802  1.00 20.00     0.212 C 
HETATM    2  C2  UNL     1     -33.365   6.121   2.614  1.00 20.00     0.228 C 
HETATM    3  F7  UNL     1     -33.369   8.071   3.906  1.00 20.00    -0.198 F 
HETATM    4  F8  UNL     1     -34.123   5.483   3.532  1.00 20.00    -0.189 F 
HETATM    5 CL9  UNL     1     -32.887   5.255   1.202  1.00 20.00    -0.048 Cl
ENDROOT
BRANCH   1   6
HETATM    6  C3  UNL     1     -32.164   8.163   1.841  1.00 20.00     0.191 C 
HETATM    7  O6  UNL     1     -31.060   7.758   1.480  1.00 20.00    -0.290 OA
BRANCH   6   8
HETATM    8  C5  UNL     1     -32.759   9.468   1.343  1.00 20.00     0.082 C 
HETATM    9  C4  UNL     1     -32.376   9.770  -0.096  1.00 20.00     0.013 C 
ENDBRANCH   6   8
ENDBRANCH   1   6
TORSDOF 2
ENDMDL
MODEL 8
REMARK VINA RESULT:      -1.9      2.390      2.887
REMARK  2 active torsions:
REMARK  status: ('A' for Active; 'I' for Inactive)
REMARK    1  A    between atoms: C1_1  and  C3_3 
REMARK    2  A    between atoms: C3_3  and  C5_5 
ROOT
HETATM    1  C1  UNL     1     -32.652   7.958   3.366  1.00 20.00     0.212 C 
HETATM    2  C2  UNL     1     -33.693   7.696   4.160  1.00 20.00     0.228 C 
HETATM    3  F7  UNL     1     -31.622   8.719   3.791  1.00 20.00    -0.198 F 
HETATM    4  F8  UNL     1     -33.740   8.189   5.416  1.00 20.00    -0.189 F 
HETATM    5 CL9  UNL     1     -35.007   6.722   3.613  1.00 20.00    -0.048 Cl
ENDROOT
BRANCH   1   6
HETATM    6  C3  UNL     1     -32.524   7.453   1.972  1.00 20.00     0.191 C 
HETATM    7  O6  UNL     1     -32.125   8.178   1.062  1.00 20.00    -0.290 OA
BRANCH   6   8
HETATM    8  C5  UNL     1     -32.915   6.003   1.750  1.00 20.00     0.082 C 
HETATM    9  C4  UNL     1     -31.834   5.211   1.034  1.00 20.00     0.013 C 
ENDBRANCH   6   8
ENDBRANCH   1   6
TORSDOF 2
ENDMDL
MODEL 9
REMARK VINA RESULT:      -1.8      3.193      4.547
REMARK  2 active torsions:
REMARK  status: ('A' for Active; 'I' for Inactive)
REMARK    1  A    between atoms: C1_1  and  C3_3 
REMARK    2  A    between atoms: C3_3  and  C5_5 
ROOT
HETATM    1  C1  UNL     1     -34.447   6.263   3.812  1.00 20.00     0.212 C 
HETATM    2  C2  UNL     1     -33.947   7.469   3.535  1.00 20.00     0.228 C 
HETATM    3  F7  UNL     1     -35.604   6.123   4.492  1.00 20.00    -0.198 F 
HETATM    4  F8  UNL     1     -34.594   8.588   3.930  1.00 20.00    -0.189 F 
HETATM    5 CL9  UNL     1     -32.468   7.642   2.665  1.00 20.00    -0.048 Cl
ENDROOT
BRANCH   1   6
HETATM    6  C3  UNL     1     -33.797   4.984   3.413  1.00 20.00     0.191 C 
HETATM    7  O6  UNL     1     -33.066   4.918   2.427  1.00 20.00    -0.290 OA
BRANCH   6   8
HETATM    8  C5  UNL     1     -34.095   3.783   4.293  1.00 20.00     0.082 C 
HETATM    9  C4  UNL     1     -32.836   3.042   4.710  1.00 20.00     0.013 C 
ENDBRANCH   6   8
ENDBRANCH   1   6
TORSDOF 2
ENDMDL
