MODEL 1
REMARK VINA RESULT:      -1.5      0.000      0.000
REMARK  0 active torsions:
REMARK  status: ('A' for Active; 'I' for Inactive)
ROOT
HETATM    1  C1  UNL     1     -33.423   7.801   3.350  1.00 20.00    -0.021 C 
HETATM    2  C2  UNL     1     -32.658   7.397   2.320  1.00 20.00    -0.087 C 
HETATM    3  C3  UNL     1     -34.368   6.886   4.079  1.00 20.00     0.068 C 
HETATM    4  C4  UNL     1     -32.717   5.983   1.783  1.00 20.00     0.036 C 
HETATM    5  C5  UNL     1     -33.977   5.222   2.213  1.00 20.00     0.045 C 
HETATM    6  C6  UNL     1     -33.916   4.393   4.729  1.00 20.00     0.153 A 
HETATM    7  C7  UNL     1     -34.233   5.442   3.675  1.00 20.00     0.090 A 
HETATM    8  C8  UNL     1     -31.687   8.319   1.643  1.00 20.00     0.043 C 
HETATM    9  C9  UNL     1     -33.322   3.068   4.413  1.00 20.00     0.042 C 
HETATM   10  O10 UNL     1     -35.245   4.587   4.231  1.00 20.00    -0.369 OA
ENDROOT
TORSDOF 0
ENDMDL
MODEL 2
REMARK VINA RESULT:      -1.1      2.557      4.462
REMARK  0 active torsions:
REMARK  status: ('A' for Active; 'I' for Inactive)
ROOT
HETATM    1  C1  UNL     1     -33.507   7.653   4.073  1.00 20.00    -0.021 C 
HETATM    2  C2  UNL     1     -34.185   6.669   3.455  1.00 20.00    -0.087 C 
HETATM    3  C3  UNL     1     -32.381   8.408   3.421  1.00 20.00     0.068 C 
HETATM    4  C4  UNL     1     -33.839   6.214   2.053  1.00 20.00     0.036 C 
HETATM    5  C5  UNL     1     -32.442   6.652   1.599  1.00 20.00     0.045 C 
HETATM    6  C6  UNL     1     -32.292   9.213   0.935  1.00 20.00     0.153 A 
HETATM    7  C7  UNL     1     -32.217   8.092   1.958  1.00 20.00     0.090 A 
HETATM    8  C8  UNL     1     -35.337   5.966   4.111  1.00 20.00     0.043 C 
HETATM    9  C9  UNL     1     -32.600   8.990  -0.502  1.00 20.00     0.042 C 
HETATM   10  O10 UNL     1     -31.040   8.669   1.369  1.00 20.00    -0.369 OA
ENDROOT
TORSDOF 0
ENDMDL
MODEL 3
REMARK VINA RESULT:       0.8      1.580      2.559
REMARK  0 active torsions:
REMARK  status: ('A' for Active; 'I' for Inactive)
ROOT
HETATM    1  C1  UNL     1     -32.215   7.131   0.833  1.00 20.00    -0.021 C 
HETATM    2  C2  UNL     1     -32.337   8.383   1.309  1.00 20.00    -0.087 C 
HETATM    3  C3  UNL     1     -32.580   5.909   1.631  1.00 20.00     0.068 C 
HETATM    4  C4  UNL     1     -32.822   8.661   2.716  1.00 20.00     0.036 C 
HETATM    5  C5  UNL     1     -32.743   7.440   3.640  1.00 20.00     0.045 C 
HETATM    6  C6  UNL     1     -34.650   5.652   3.208  1.00 20.00     0.153 A 
HETATM    7  C7  UNL     1     -33.271   6.228   2.930  1.00 20.00     0.090 A 
HETATM    8  C8  UNL     1     -32.013   9.585   0.473  1.00 20.00     0.043 C 
HETATM    9  C9  UNL     1     -35.597   6.235   4.195  1.00 20.00     0.042 C 
HETATM   10  O10 UNL     1     -33.466   5.086   3.779  1.00 20.00    -0.369 OA
ENDROOT
TORSDOF 0
ENDMDL
MODEL 4
REMARK VINA RESULT:       1.1      1.952      4.269
REMARK  0 active torsions:
REMARK  status: ('A' for Active; 'I' for Inactive)
ROOT
HETATM    1  C1  UNL     1     -33.083   4.726   2.264  1.00 20.00    -0.021 C 
HETATM    2  C2  UNL     1     -33.683   4.875   3.459  1.00 20.00    -0.087 C 
HETATM    3  C3  UNL     1     -32.654   5.887   1.410  1.00 20.00     0.068 C 
HETATM    4  C4  UNL     1     -34.011   6.240   4.026  1.00 20.00     0.036 C 
HETATM    5  C5  UNL     1     -33.996   7.356   2.975  1.00 20.00     0.045 C 
HETATM    6  C6  UNL     1     -31.560   8.108   2.254  1.00 20.00     0.153 A 
HETATM    7  C7  UNL     1     -32.783   7.218   2.102  1.00 20.00     0.090 A 
HETATM    8  C8  UNL     1     -34.056   3.699   4.312  1.00 20.00     0.043 C 
HETATM    9  C9  UNL     1     -31.450   9.181   3.276  1.00 20.00     0.042 C 
HETATM   10  O10 UNL     1     -32.546   8.345   1.242  1.00 20.00    -0.369 OA
ENDROOT
TORSDOF 0
ENDMDL
