MODEL 1
REMARK VINA RESULT:      -1.7      0.000      0.000
REMARK  1 active torsions:
REMARK  status: ('A' for Active; 'I' for Inactive)
REMARK    1  A    between atoms: C2_2  and  C4_4 
ROOT
HETATM    1  C1  UNL     1     -32.443   8.818   1.679  1.00 20.00     0.171 A 
HETATM    2  C2  UNL     1     -32.763   7.541   2.428  1.00 20.00     0.175 A 
HETATM    3  C3  UNL     1     -32.092   8.863   0.235  1.00 20.00     0.044 C 
HETATM    4  O5  UNL     1     -31.469   8.163   2.500  1.00 20.00    -0.352 OA
HETATM    5 CL6  UNL     1     -32.895   6.021   1.549  1.00 20.00    -0.084 Cl
ENDROOT
BRANCH   2   6
HETATM    6  C4  UNL     1     -33.530   7.615   3.708  1.00 20.00     0.172 C 
HETATM    7 CL7  UNL     1     -34.873   6.441   3.720  1.00 20.00    -0.126 Cl
ENDBRANCH   2   6
TORSDOF 1
ENDMDL
MODEL 2
REMARK VINA RESULT:      -1.2      2.002      2.395
REMARK  1 active torsions:
REMARK  status: ('A' for Active; 'I' for Inactive)
REMARK    1  A    between atoms: C2_2  and  C4_4 
ROOT
HETATM    1  C1  UNL     1     -32.333   6.592   1.959  1.00 20.00     0.171 A 
HETATM    2  C2  UNL     1     -33.490   6.257   2.877  1.00 20.00     0.175 A 
HETATM    3  C3  UNL     1     -31.851   7.977   1.710  1.00 20.00     0.044 C 
HETATM    4  O5  UNL     1     -33.645   6.326   1.450  1.00 20.00    -0.352 OA
HETATM    5 CL6  UNL     1     -34.235   7.524   3.846  1.00 20.00    -0.084 Cl
ENDROOT
BRANCH   2   6
HETATM    6  C4  UNL     1     -33.615   4.871   3.421  1.00 20.00     0.172 C 
HETATM    7 CL7  UNL     1     -35.020   4.734   4.511  1.00 20.00    -0.126 Cl
ENDBRANCH   2   6
TORSDOF 1
ENDMDL
MODEL 3
REMARK VINA RESULT:      -1.1      2.343      3.411
REMARK  1 active torsions:
REMARK  status: ('A' for Active; 'I' for Inactive)
REMARK    1  A    between atoms: C2_2  and  C4_4 
ROOT
HETATM    1  C1  UNL     1     -33.255   6.946   1.927  1.00 20.00     0.171 A 
HETATM    2  C2  UNL     1     -32.110   7.934   1.849  1.00 20.00     0.175 A 
HETATM    3  C3  UNL     1     -33.859   6.480   3.204  1.00 20.00     0.044 C 
HETATM    4  O5  UNL     1     -31.903   6.517   1.726  1.00 20.00    -0.352 OA
HETATM    5 CL6  UNL     1     -31.534   8.724   3.314  1.00 20.00    -0.084 Cl
ENDROOT
BRANCH   2   6
HETATM    6  C4  UNL     1     -31.874   8.682   0.578  1.00 20.00     0.172 C 
HETATM    7 CL7  UNL     1     -32.669  10.278   0.614  1.00 20.00    -0.126 Cl
ENDBRANCH   2   6
TORSDOF 1
ENDMDL
MODEL 4
REMARK VINA RESULT:      -1.0      2.485      3.713
REMARK  1 active torsions:
REMARK  status: ('A' for Active; 'I' for Inactive)
REMARK    1  A    between atoms: C2_2  and  C4_4 
ROOT
HETATM    1  C1  UNL     1     -34.098   5.588   4.168  1.00 20.00     0.171 A 
HETATM    2  C2  UNL     1     -33.642   6.418   2.986  1.00 20.00     0.175 A 
HETATM    3  C3  UNL     1     -34.216   4.106   4.140  1.00 20.00     0.044 C 
HETATM    4  O5  UNL     1     -35.031   6.268   3.320  1.00 20.00    -0.352 OA
HETATM    5 CL6  UNL     1     -33.056   5.620   1.530  1.00 20.00    -0.084 Cl
ENDROOT
BRANCH   2   6
HETATM    6  C4  UNL     1     -33.120   7.799   3.219  1.00 20.00     0.172 C 
HETATM    7 CL7  UNL     1     -32.043   8.310   1.892  1.00 20.00    -0.126 Cl
ENDBRANCH   2   6
TORSDOF 1
ENDMDL
MODEL 5
REMARK VINA RESULT:      -0.9      2.060      2.438
REMARK  1 active torsions:
REMARK  status: ('A' for Active; 'I' for Inactive)
REMARK    1  A    between atoms: C2_2  and  C4_4 
ROOT
HETATM    1  C1  UNL     1     -32.642   5.587   1.998  1.00 20.00     0.171 A 
HETATM    2  C2  UNL     1     -32.960   7.029   2.334  1.00 20.00     0.175 A 
HETATM    3  C3  UNL     1     -31.660   5.178   0.959  1.00 20.00     0.044 C 
HETATM    4  O5  UNL     1     -33.806   6.242   1.480  1.00 20.00    -0.352 OA
HETATM    5 CL6  UNL     1     -32.026   8.326   1.595  1.00 20.00    -0.084 Cl
ENDROOT
BRANCH   2   6
HETATM    6  C4  UNL     1     -33.583   7.354   3.653  1.00 20.00     0.172 C 
HETATM    7 CL7  UNL     1     -35.141   6.508   3.852  1.00 20.00    -0.126 Cl
ENDBRANCH   2   6
TORSDOF 1
ENDMDL
MODEL 6
REMARK VINA RESULT:      -0.9      1.382      1.596
REMARK  1 active torsions:
REMARK  status: ('A' for Active; 'I' for Inactive)
REMARK    1  A    between atoms: C2_2  and  C4_4 
ROOT
HETATM    1  C1  UNL     1     -33.062   8.049   2.641  1.00 20.00     0.171 A 
HETATM    2  C2  UNL     1     -33.648   6.779   3.222  1.00 20.00     0.175 A 
HETATM    3  C3  UNL     1     -31.929   8.071   1.679  1.00 20.00     0.044 C 
HETATM    4  O5  UNL     1     -32.712   7.589   3.952  1.00 20.00    -0.352 OA
HETATM    5 CL6  UNL     1     -33.097   5.213   2.636  1.00 20.00    -0.084 Cl
ENDROOT
BRANCH   2   6
HETATM    6  C4  UNL     1     -35.028   6.804   3.795  1.00 20.00     0.172 C 
HETATM    7 CL7  UNL     1     -35.455   5.227   4.511  1.00 20.00    -0.126 Cl
ENDBRANCH   2   6
TORSDOF 1
ENDMDL
MODEL 7
REMARK VINA RESULT:      -0.7      3.070      3.902
REMARK  1 active torsions:
REMARK  status: ('A' for Active; 'I' for Inactive)
REMARK    1  A    between atoms: C2_2  and  C4_4 
ROOT
HETATM    1  C1  UNL     1     -34.412   5.213   4.453  1.00 20.00     0.171 A 
HETATM    2  C2  UNL     1     -34.206   6.413   3.553  1.00 20.00     0.175 A 
HETATM    3  C3  UNL     1     -33.953   3.839   4.115  1.00 20.00     0.044 C 
HETATM    4  O5  UNL     1     -35.457   5.707   3.607  1.00 20.00    -0.352 OA
HETATM    5 CL6  UNL     1     -33.237   6.256   2.092  1.00 20.00    -0.084 Cl
ENDROOT
BRANCH   2   6
HETATM    6  C4  UNL     1     -34.273   7.787   4.138  1.00 20.00     0.172 C 
HETATM    7 CL7  UNL     1     -32.713   8.251   4.867  1.00 20.00    -0.126 Cl
ENDBRANCH   2   6
TORSDOF 1
ENDMDL
MODEL 8
REMARK VINA RESULT:      -0.6      2.068      3.674
REMARK  1 active torsions:
REMARK  status: ('A' for Active; 'I' for Inactive)
REMARK    1  A    between atoms: C2_2  and  C4_4 
ROOT
HETATM    1  C1  UNL     1     -34.605   6.505   3.172  1.00 20.00     0.171 A 
HETATM    2  C2  UNL     1     -33.416   7.413   3.412  1.00 20.00     0.175 A 
HETATM    3  C3  UNL     1     -35.487   5.996   4.256  1.00 20.00     0.044 C 
HETATM    4  O5  UNL     1     -33.266   5.997   3.217  1.00 20.00    -0.352 OA
HETATM    5 CL6  UNL     1     -33.117   8.057   5.023  1.00 20.00    -0.084 Cl
ENDROOT
BRANCH   2   6
HETATM    6  C4  UNL     1     -32.879   8.229   2.281  1.00 20.00     0.172 C 
HETATM    7 CL7  UNL     1     -31.466   7.438   1.534  1.00 20.00    -0.126 Cl
ENDBRANCH   2   6
TORSDOF 1
ENDMDL
MODEL 9
REMARK VINA RESULT:      -0.4      2.455      2.597
REMARK  1 active torsions:
REMARK  status: ('A' for Active; 'I' for Inactive)
REMARK    1  A    between atoms: C2_2  and  C4_4 
ROOT
HETATM    1  C1  UNL     1     -33.327   6.106   1.755  1.00 20.00     0.171 A 
HETATM    2  C2  UNL     1     -33.803   5.811   3.163  1.00 20.00     0.175 A 
HETATM    3  C3  UNL     1     -32.602   5.123   0.906  1.00 20.00     0.044 C 
HETATM    4  O5  UNL     1     -32.593   6.541   2.906  1.00 20.00    -0.352 OA
HETATM    5 CL6  UNL     1     -33.657   4.181   3.812  1.00 20.00    -0.084 Cl
ENDROOT
BRANCH   2   6
HETATM    6  C4  UNL     1     -34.888   6.648   3.759  1.00 20.00     0.172 C 
HETATM    7 CL7  UNL     1     -34.209   8.018   4.678  1.00 20.00    -0.126 Cl
ENDBRANCH   2   6
TORSDOF 1
ENDMDL
