MODEL 1
REMARK VINA RESULT:       2.3      0.000      0.000
REMARK  1 active torsions:
REMARK  status: ('A' for Active; 'I' for Inactive)
REMARK    1  A    between atoms: C8_8  and  C11_11 
ROOT
HETATM    1  C1  UNL     1     -32.890   7.867   4.315  1.00 20.00     0.071 C 
HETATM    2  C2  UNL     1     -34.642   4.914   4.393  1.00 20.00    -0.004 A 
HETATM    3  C3  UNL     1     -35.688   5.884   4.139  1.00 20.00    -0.004 A 
HETATM    4  C4  UNL     1     -33.484   4.966   3.713  1.00 20.00    -0.020 A 
HETATM    5  C5  UNL     1     -35.516   6.849   3.219  1.00 20.00    -0.020 A 
HETATM    6  C6  UNL     1     -33.203   5.954   2.646  1.00 20.00     0.041 A 
HETATM    7  C7  UNL     1     -34.304   6.973   2.380  1.00 20.00     0.041 A 
HETATM    8  C8  UNL     1     -32.967   7.424   2.943  1.00 20.00     0.067 A 
HETATM    9  N12 UNL     1     -32.828   8.222   5.418  1.00 20.00    -0.196 NA
ENDROOT
BRANCH   8  10
HETATM   10  C11 UNL     1     -32.047   8.174   2.013  1.00 20.00     0.001 C 
HETATM   11  C9  UNL     1     -31.353   7.221   1.031  1.00 20.00     0.011 C 
HETATM   12  C10 UNL     1     -32.805   9.260   1.237  1.00 20.00     0.011 C 
ENDBRANCH   8  10
TORSDOF 1
ENDMDL
MODEL 2
REMARK VINA RESULT:       2.6      1.925      4.308
REMARK  1 active torsions:
REMARK  status: ('A' for Active; 'I' for Inactive)
REMARK    1  A    between atoms: C8_8  and  C11_11 
ROOT
HETATM    1  C1  UNL     1     -33.123   6.316   1.598  1.00 20.00     0.071 C 
HETATM    2  C2  UNL     1     -30.895   8.654   0.429  1.00 20.00    -0.004 A 
HETATM    3  C3  UNL     1     -32.161   9.172  -0.049  1.00 20.00    -0.004 A 
HETATM    4  C4  UNL     1     -30.773   8.212   1.694  1.00 20.00    -0.020 A 
HETATM    5  C5  UNL     1     -33.231   9.218   0.764  1.00 20.00    -0.020 A 
HETATM    6  C6  UNL     1     -31.868   8.260   2.688  1.00 20.00     0.041 A 
HETATM    7  C7  UNL     1     -33.199   8.804   2.184  1.00 20.00     0.041 A 
HETATM    8  C8  UNL     1     -33.081   7.349   2.605  1.00 20.00     0.067 A 
HETATM    9  N12 UNL     1     -33.156   5.485   0.789  1.00 20.00    -0.196 NA
ENDROOT
BRANCH   8  10
HETATM   10  C11 UNL     1     -33.734   6.954   3.905  1.00 20.00     0.001 C 
HETATM   11  C9  UNL     1     -33.708   8.109   4.914  1.00 20.00     0.011 C 
HETATM   12  C10 UNL     1     -35.180   6.490   3.682  1.00 20.00     0.011 C 
ENDBRANCH   8  10
TORSDOF 1
ENDMDL
MODEL 3
REMARK VINA RESULT:       2.6      2.118      3.763
REMARK  1 active torsions:
REMARK  status: ('A' for Active; 'I' for Inactive)
REMARK    1  A    between atoms: C8_8  and  C11_11 
ROOT
HETATM    1  C1  UNL     1     -33.630   4.749   3.381  1.00 20.00     0.071 C 
HETATM    2  C2  UNL     1     -31.342   4.728   0.819  1.00 20.00    -0.004 A 
HETATM    3  C3  UNL     1     -32.561   4.331   0.144  1.00 20.00    -0.004 A 
HETATM    4  C4  UNL     1     -31.344   5.759   1.682  1.00 20.00    -0.020 A 
HETATM    5  C5  UNL     1     -33.712   4.990   0.370  1.00 20.00    -0.020 A 
HETATM    6  C6  UNL     1     -32.540   6.583   1.971  1.00 20.00     0.041 A 
HETATM    7  C7  UNL     1     -33.821   6.166   1.260  1.00 20.00     0.041 A 
HETATM    8  C8  UNL     1     -33.717   6.054   2.772  1.00 20.00     0.067 A 
HETATM    9  N12 UNL     1     -33.560   3.699   3.870  1.00 20.00    -0.196 NA
ENDROOT
BRANCH   8  10
HETATM   10  C11 UNL     1     -34.496   7.053   3.590  1.00 20.00     0.001 C 
HETATM   11  C9  UNL     1     -35.613   6.368   4.387  1.00 20.00     0.011 C 
HETATM   12  C10 UNL     1     -33.576   7.829   4.543  1.00 20.00     0.011 C 
ENDBRANCH   8  10
TORSDOF 1
ENDMDL
MODEL 4
REMARK VINA RESULT:       2.8      1.885      2.679
REMARK  1 active torsions:
REMARK  status: ('A' for Active; 'I' for Inactive)
REMARK    1  A    between atoms: C8_8  and  C11_11 
ROOT
HETATM    1  C1  UNL     1     -33.521   6.111   1.223  1.00 20.00     0.071 C 
HETATM    2  C2  UNL     1     -35.574   5.620   3.933  1.00 20.00    -0.004 A 
HETATM    3  C3  UNL     1     -34.556   4.607   4.132  1.00 20.00    -0.004 A 
HETATM    4  C4  UNL     1     -35.229   6.875   3.595  1.00 20.00    -0.020 A 
HETATM    5  C5  UNL     1     -33.254   4.908   3.982  1.00 20.00    -0.020 A 
HETATM    6  C6  UNL     1     -33.828   7.330   3.451  1.00 20.00     0.041 A 
HETATM    7  C7  UNL     1     -32.760   6.265   3.660  1.00 20.00     0.041 A 
HETATM    8  C8  UNL     1     -32.949   6.895   2.291  1.00 20.00     0.067 A 
HETATM    9  N12 UNL     1     -33.981   5.480   0.365  1.00 20.00    -0.196 NA
ENDROOT
BRANCH   8  10
HETATM   10  C11 UNL     1     -31.891   7.866   1.829  1.00 20.00     0.001 C 
HETATM   11  C9  UNL     1     -32.454   8.851   0.797  1.00 20.00     0.011 C 
HETATM   12  C10 UNL     1     -31.290   8.638   3.012  1.00 20.00     0.011 C 
ENDBRANCH   8  10
TORSDOF 1
ENDMDL
MODEL 5
REMARK VINA RESULT:       3.1      1.989      3.703
REMARK  1 active torsions:
REMARK  status: ('A' for Active; 'I' for Inactive)
REMARK    1  A    between atoms: C8_8  and  C11_11 
ROOT
HETATM    1  C1  UNL     1     -32.427   7.648   1.960  1.00 20.00     0.071 C 
HETATM    2  C2  UNL     1     -32.304   4.777   0.077  1.00 20.00    -0.004 A 
HETATM    3  C3  UNL     1     -31.313   4.514   1.102  1.00 20.00    -0.004 A 
HETATM    4  C4  UNL     1     -33.503   5.292   0.403  1.00 20.00    -0.020 A 
HETATM    5  C5  UNL     1     -31.580   4.780   2.393  1.00 20.00    -0.020 A 
HETATM    6  C6  UNL     1     -33.921   5.578   1.794  1.00 20.00     0.041 A 
HETATM    7  C7  UNL     1     -32.879   5.301   2.871  1.00 20.00     0.041 A 
HETATM    8  C8  UNL     1     -33.334   6.725   2.599  1.00 20.00     0.067 A 
HETATM    9  N12 UNL     1     -31.698   8.389   1.445  1.00 20.00    -0.196 NA
ENDROOT
BRANCH   8  10
HETATM   10  C11 UNL     1     -34.227   7.369   3.629  1.00 20.00     0.001 C 
HETATM   11  C9  UNL     1     -35.263   6.374   4.166  1.00 20.00     0.011 C 
HETATM   12  C10 UNL     1     -33.408   7.948   4.791  1.00 20.00     0.011 C 
ENDBRANCH   8  10
TORSDOF 1
ENDMDL
MODEL 6
REMARK VINA RESULT:       3.2      0.929      3.898
REMARK  1 active torsions:
REMARK  status: ('A' for Active; 'I' for Inactive)
REMARK    1  A    between atoms: C8_8  and  C11_11 
ROOT
HETATM    1  C1  UNL     1     -33.241   7.499   3.961  1.00 20.00     0.071 C 
HETATM    2  C2  UNL     1     -32.107   8.916   1.045  1.00 20.00    -0.004 A 
HETATM    3  C3  UNL     1     -30.991   8.077   1.432  1.00 20.00    -0.004 A 
HETATM    4  C4  UNL     1     -33.365   8.442   1.093  1.00 20.00    -0.020 A 
HETATM    5  C5  UNL     1     -31.196   6.814   1.845  1.00 20.00    -0.020 A 
HETATM    6  C6  UNL     1     -33.704   7.056   1.485  1.00 20.00     0.041 A 
HETATM    7  C7  UNL     1     -32.530   6.175   1.892  1.00 20.00     0.041 A 
HETATM    8  C8  UNL     1     -33.582   6.563   2.917  1.00 20.00     0.067 A 
HETATM    9  N12 UNL     1     -32.968   8.252   4.801  1.00 20.00    -0.196 NA
ENDROOT
BRANCH   8  10
HETATM   10  C11 UNL     1     -34.542   5.488   3.358  1.00 20.00     0.001 C 
HETATM   11  C9  UNL     1     -33.797   4.297   3.974  1.00 20.00     0.011 C 
HETATM   12  C10 UNL     1     -35.569   6.035   4.359  1.00 20.00     0.011 C 
ENDBRANCH   8  10
TORSDOF 1
ENDMDL
MODEL 7
REMARK VINA RESULT:       3.6      0.798      3.901
REMARK  1 active torsions:
REMARK  status: ('A' for Active; 'I' for Inactive)
REMARK    1  A    between atoms: C8_8  and  C11_11 
ROOT
HETATM    1  C1  UNL     1     -33.044   7.853   4.323  1.00 20.00     0.071 C 
HETATM    2  C2  UNL     1     -31.939   8.719   1.188  1.00 20.00    -0.004 A 
HETATM    3  C3  UNL     1     -31.131   7.554   1.487  1.00 20.00    -0.004 A 
HETATM    4  C4  UNL     1     -33.261   8.713   1.435  1.00 20.00    -0.020 A 
HETATM    5  C5  UNL     1     -31.691   6.451   2.014  1.00 20.00    -0.020 A 
HETATM    6  C6  UNL     1     -33.991   7.540   1.968  1.00 20.00     0.041 A 
HETATM    7  C7  UNL     1     -33.140   6.316   2.281  1.00 20.00     0.041 A 
HETATM    8  C8  UNL     1     -33.833   7.070   3.403  1.00 20.00     0.067 A 
HETATM    9  N12 UNL     1     -32.409   8.483   5.062  1.00 20.00    -0.196 NA
ENDROOT
BRANCH   8  10
HETATM   10  C11 UNL     1     -35.026   6.406   4.043  1.00 20.00     0.001 C 
HETATM   11  C9  UNL     1     -36.289   6.592   3.193  1.00 20.00     0.011 C 
HETATM   12  C10 UNL     1     -34.771   4.910   4.277  1.00 20.00     0.011 C 
ENDBRANCH   8  10
TORSDOF 1
ENDMDL
MODEL 8
REMARK VINA RESULT:       3.9      1.285      1.844
REMARK  1 active torsions:
REMARK  status: ('A' for Active; 'I' for Inactive)
REMARK    1  A    between atoms: C8_8  and  C11_11 
ROOT
HETATM    1  C1  UNL     1     -31.963   8.298   2.854  1.00 20.00     0.071 C 
HETATM    2  C2  UNL     1     -33.181   5.145   3.466  1.00 20.00    -0.004 A 
HETATM    3  C3  UNL     1     -34.291   5.985   3.868  1.00 20.00    -0.004 A 
HETATM    4  C4  UNL     1     -32.530   5.380   2.312  1.00 20.00    -0.020 A 
HETATM    5  C5  UNL     1     -34.686   7.011   3.093  1.00 20.00    -0.020 A 
HETATM    6  C6  UNL     1     -32.908   6.449   1.361  1.00 20.00     0.041 A 
HETATM    7  C7  UNL     1     -34.075   7.331   1.784  1.00 20.00     0.041 A 
HETATM    8  C8  UNL     1     -32.680   7.920   1.660  1.00 20.00     0.067 A 
HETATM    9  N12 UNL     1     -31.386   8.601   3.813  1.00 20.00    -0.196 NA
ENDROOT
BRANCH   8  10
HETATM   10  C11 UNL     1     -32.419   8.828   0.484  1.00 20.00     0.001 C 
HETATM   11  C9  UNL     1     -32.768  10.284   0.818  1.00 20.00     0.011 C 
HETATM   12  C10 UNL     1     -30.958   8.735   0.023  1.00 20.00     0.011 C 
ENDBRANCH   8  10
TORSDOF 1
ENDMDL
MODEL 9
REMARK VINA RESULT:       4.4      1.793      2.441
REMARK  1 active torsions:
REMARK  status: ('A' for Active; 'I' for Inactive)
REMARK    1  A    between atoms: C8_8  and  C11_11 
ROOT
HETATM    1  C1  UNL     1     -32.369   6.560   1.784  1.00 20.00     0.071 C 
HETATM    2  C2  UNL     1     -35.180   6.443   3.756  1.00 20.00    -0.004 A 
HETATM    3  C3  UNL     1     -34.116   6.453   4.739  1.00 20.00    -0.004 A 
HETATM    4  C4  UNL     1     -35.151   7.290   2.711  1.00 20.00    -0.020 A 
HETATM    5  C5  UNL     1     -33.086   7.310   4.622  1.00 20.00    -0.020 A 
HETATM    6  C6  UNL     1     -34.093   8.305   2.508  1.00 20.00     0.041 A 
HETATM    7  C7  UNL     1     -32.976   8.316   3.543  1.00 20.00     0.041 A 
HETATM    8  C8  UNL     1     -32.677   7.933   2.103  1.00 20.00     0.067 A 
HETATM    9  N12 UNL     1     -32.122   5.456   1.528  1.00 20.00    -0.196 NA
ENDROOT
BRANCH   8  10
HETATM   10  C11 UNL     1     -31.916   8.934   1.270  1.00 20.00     0.001 C 
HETATM   11  C9  UNL     1     -31.284   8.267   0.042  1.00 20.00     0.011 C 
HETATM   12  C10 UNL     1     -32.821  10.091   0.826  1.00 20.00     0.011 C 
ENDBRANCH   8  10
TORSDOF 1
ENDMDL
