MODEL 1
REMARK VINA RESULT:      -2.3      0.000      0.000
REMARK  3 active torsions:
REMARK  status: ('A' for Active; 'I' for Inactive)
REMARK    1  A    between atoms: C2_2  and  C6_6 
REMARK    2  A    between atoms: C3_3  and  C7_7 
REMARK    3  A    between atoms: C7_7  and  C8_8 
ROOT
HETATM    1  C1  UNL     1     -32.747   6.252   1.803  1.00 20.00     0.100 C 
HETATM    2  C2  UNL     1     -32.487   8.795   1.911  1.00 20.00     0.172 A 
HETATM    3  C3  UNL     1     -32.847   7.470   2.550  1.00 20.00     0.175 A 
HETATM    4  N9  UNL     1     -32.666   5.265   1.198  1.00 20.00    -0.194 NA
HETATM    5  O10 UNL     1     -31.574   8.102   2.769  1.00 20.00    -0.353 OA
ENDROOT
BRANCH   3   6
HETATM    6  C7  UNL     1     -33.722   7.460   3.763  1.00 20.00     0.056 C 
BRANCH   6   7
HETATM    7  C8  UNL     1     -35.047   6.722   3.521  1.00 20.00    -0.000 C 
HETATM    8  C5  UNL     1     -35.179   5.473   4.380  1.00 20.00     0.005 C 
ENDBRANCH   6   7
ENDBRANCH   3   6
BRANCH   2   9
HETATM    9  C6  UNL     1     -32.027   8.927   0.501  1.00 20.00     0.032 C 
HETATM   10  C4  UNL     1     -32.665  10.088  -0.223  1.00 20.00     0.007 C 
ENDBRANCH   2   9
TORSDOF 3
ENDMDL
MODEL 2
REMARK VINA RESULT:      -1.4      2.201      2.698
REMARK  3 active torsions:
REMARK  status: ('A' for Active; 'I' for Inactive)
REMARK    1  A    between atoms: C2_2  and  C6_6 
REMARK    2  A    between atoms: C3_3  and  C7_7 
REMARK    3  A    between atoms: C7_7  and  C8_8 
ROOT
HETATM    1  C1  UNL     1     -34.086   6.738   3.522  1.00 20.00     0.100 C 
HETATM    2  C2  UNL     1     -32.193   6.707   1.801  1.00 20.00     0.172 A 
HETATM    3  C3  UNL     1     -33.262   6.002   2.609  1.00 20.00     0.175 A 
HETATM    4  N9  UNL     1     -34.753   7.333   4.261  1.00 20.00    -0.194 NA
HETATM    5  O10 UNL     1     -33.468   6.381   1.237  1.00 20.00    -0.353 OA
ENDROOT
BRANCH   3   6
HETATM    6  C7  UNL     1     -33.168   4.524   2.810  1.00 20.00     0.056 C 
BRANCH   6   7
HETATM    7  C8  UNL     1     -33.907   4.057   4.074  1.00 20.00    -0.000 C 
HETATM    8  C5  UNL     1     -33.194   2.907   4.769  1.00 20.00     0.005 C 
ENDBRANCH   6   7
ENDBRANCH   3   6
BRANCH   2   9
HETATM    9  C6  UNL     1     -31.919   8.167   1.900  1.00 20.00     0.032 C 
HETATM   10  C4  UNL     1     -32.136   8.900   0.599  1.00 20.00     0.007 C 
ENDBRANCH   2   9
TORSDOF 3
ENDMDL
MODEL 3
REMARK VINA RESULT:      -1.0      1.754      4.397
REMARK  3 active torsions:
REMARK  status: ('A' for Active; 'I' for Inactive)
REMARK    1  A    between atoms: C2_2  and  C6_6 
REMARK    2  A    between atoms: C3_3  and  C7_7 
REMARK    3  A    between atoms: C7_7  and  C8_8 
ROOT
HETATM    1  C1  UNL     1     -33.134   5.667   1.566  1.00 20.00     0.100 C 
HETATM    2  C2  UNL     1     -33.955   5.613   3.988  1.00 20.00     0.172 A 
HETATM    3  C3  UNL     1     -33.416   6.361   2.787  1.00 20.00     0.175 A 
HETATM    4  N9  UNL     1     -32.904   5.105   0.577  1.00 20.00    -0.194 NA
HETATM    5  O10 UNL     1     -34.815   6.361   3.122  1.00 20.00    -0.353 OA
ENDROOT
BRANCH   3   6
HETATM    6  C7  UNL     1     -32.756   7.687   2.990  1.00 20.00     0.056 C 
BRANCH   6   7
HETATM    7  C8  UNL     1     -31.798   8.044   1.843  1.00 20.00    -0.000 C 
HETATM    8  C5  UNL     1     -32.348   9.150   0.954  1.00 20.00     0.005 C 
ENDBRANCH   6   7
ENDBRANCH   3   6
BRANCH   2   9
HETATM    9  C6  UNL     1     -34.212   4.146   3.993  1.00 20.00     0.032 C 
HETATM   10  C4  UNL     1     -33.201   3.371   4.802  1.00 20.00     0.007 C 
ENDBRANCH   2   9
TORSDOF 3
ENDMDL
MODEL 4
REMARK VINA RESULT:      -0.8      1.027      3.963
REMARK  3 active torsions:
REMARK  status: ('A' for Active; 'I' for Inactive)
REMARK    1  A    between atoms: C2_2  and  C6_6 
REMARK    2  A    between atoms: C3_3  and  C7_7 
REMARK    3  A    between atoms: C7_7  and  C8_8 
ROOT
HETATM    1  C1  UNL     1     -32.593   6.059   1.500  1.00 20.00     0.100 C 
HETATM    2  C2  UNL     1     -33.425   7.369   3.535  1.00 20.00     0.172 A 
HETATM    3  C3  UNL     1     -32.676   7.295   2.220  1.00 20.00     0.175 A 
HETATM    4  N9  UNL     1     -32.526   5.059   0.916  1.00 20.00    -0.194 NA
HETATM    5  O10 UNL     1     -34.017   7.807   2.307  1.00 20.00    -0.353 OA
ENDROOT
BRANCH   3   6
HETATM    6  C7  UNL     1     -31.659   8.343   1.901  1.00 20.00     0.056 C 
BRANCH   6   7
HETATM    7  C8  UNL     1     -31.769   8.844   0.453  1.00 20.00    -0.000 C 
HETATM    8  C5  UNL     1     -32.526  10.159   0.353  1.00 20.00     0.005 C 
ENDBRANCH   6   7
ENDBRANCH   3   6
BRANCH   2   9
HETATM    9  C6  UNL     1     -34.100   6.199   4.160  1.00 20.00     0.032 C 
HETATM   10  C4  UNL     1     -35.597   6.210   3.972  1.00 20.00     0.007 C 
ENDBRANCH   2   9
TORSDOF 3
ENDMDL
MODEL 5
REMARK VINA RESULT:      -0.3      1.838      4.313
REMARK  3 active torsions:
REMARK  status: ('A' for Active; 'I' for Inactive)
REMARK    1  A    between atoms: C2_2  and  C6_6 
REMARK    2  A    between atoms: C3_3  and  C7_7 
REMARK    3  A    between atoms: C7_7  and  C8_8 
ROOT
HETATM    1  C1  UNL     1     -31.897   8.340   3.007  1.00 20.00     0.100 C 
HETATM    2  C2  UNL     1     -33.183   6.418   1.912  1.00 20.00     0.172 A 
HETATM    3  C3  UNL     1     -32.289   7.637   1.821  1.00 20.00     0.175 A 
HETATM    4  N9  UNL     1     -31.579   8.910   3.966  1.00 20.00    -0.194 NA
HETATM    5  O10 UNL     1     -31.764   6.300   1.761  1.00 20.00    -0.353 OA
ENDROOT
BRANCH   3   6
HETATM    6  C7  UNL     1     -32.192   8.374   0.524  1.00 20.00     0.056 C 
BRANCH   6   7
HETATM    7  C8  UNL     1     -32.409   9.886   0.693  1.00 20.00    -0.000 C 
HETATM    8  C5  UNL     1     -32.908  10.544  -0.585  1.00 20.00     0.005 C 
ENDBRANCH   6   7
ENDBRANCH   3   6
BRANCH   2   9
HETATM    9  C6  UNL     1     -33.711   5.882   3.197  1.00 20.00     0.032 C 
HETATM   10  C4  UNL     1     -34.954   6.595   3.669  1.00 20.00     0.007 C 
ENDBRANCH   2   9
TORSDOF 3
ENDMDL
MODEL 6
REMARK VINA RESULT:       0.1      1.933      2.972
REMARK  3 active torsions:
REMARK  status: ('A' for Active; 'I' for Inactive)
REMARK    1  A    between atoms: C2_2  and  C6_6 
REMARK    2  A    between atoms: C3_3  and  C7_7 
REMARK    3  A    between atoms: C7_7  and  C8_8 
ROOT
HETATM    1  C1  UNL     1     -32.422   8.121   1.641  1.00 20.00     0.100 C 
HETATM    2  C2  UNL     1     -32.476   5.599   2.071  1.00 20.00     0.172 A 
HETATM    3  C3  UNL     1     -32.968   7.004   2.353  1.00 20.00     0.175 A 
HETATM    4  N9  UNL     1     -31.981   9.026   1.065  1.00 20.00    -0.194 NA
HETATM    5  O10 UNL     1     -33.692   6.097   1.504  1.00 20.00    -0.353 OA
ENDROOT
BRANCH   3   6
HETATM    6  C7  UNL     1     -33.660   7.288   3.647  1.00 20.00     0.056 C 
BRANCH   6   7
HETATM    7  C8  UNL     1     -35.107   6.772   3.663  1.00 20.00    -0.000 C 
HETATM    8  C5  UNL     1     -35.243   5.456   4.415  1.00 20.00     0.005 C 
ENDBRANCH   6   7
ENDBRANCH   3   6
BRANCH   2   9
HETATM    9  C6  UNL     1     -31.415   5.287   1.075  1.00 20.00     0.032 C 
HETATM   10  C4  UNL     1     -31.817   4.205   0.102  1.00 20.00     0.007 C 
ENDBRANCH   2   9
TORSDOF 3
ENDMDL
MODEL 7
REMARK VINA RESULT:       0.2      2.140      4.701
REMARK  3 active torsions:
REMARK  status: ('A' for Active; 'I' for Inactive)
REMARK    1  A    between atoms: C2_2  and  C6_6 
REMARK    2  A    between atoms: C3_3  and  C7_7 
REMARK    3  A    between atoms: C7_7  and  C8_8 
ROOT
HETATM    1  C1  UNL     1     -33.622   7.341   3.814  1.00 20.00     0.100 C 
HETATM    2  C2  UNL     1     -33.698   5.005   2.774  1.00 20.00     0.172 A 
HETATM    3  C3  UNL     1     -33.345   6.476   2.706  1.00 20.00     0.175 A 
HETATM    4  N9  UNL     1     -33.847   8.043   4.710  1.00 20.00    -0.194 NA
HETATM    5  O10 UNL     1     -32.365   5.469   3.012  1.00 20.00    -0.353 OA
ENDROOT
BRANCH   3   6
HETATM    6  C7  UNL     1     -33.143   7.116   1.370  1.00 20.00     0.056 C 
BRANCH   6   7
HETATM    7  C8  UNL     1     -32.013   8.157   1.386  1.00 20.00    -0.000 C 
HETATM    8  C5  UNL     1     -32.358   9.397   0.575  1.00 20.00     0.005 C 
ENDBRANCH   6   7
ENDBRANCH   3   6
BRANCH   2   9
HETATM    9  C6  UNL     1     -34.349   4.372   3.953  1.00 20.00     0.032 C 
HETATM   10  C4  UNL     1     -33.529   3.256   4.554  1.00 20.00     0.007 C 
ENDBRANCH   2   9
TORSDOF 3
ENDMDL
MODEL 8
REMARK VINA RESULT:       0.4      2.287      3.984
REMARK  3 active torsions:
REMARK  status: ('A' for Active; 'I' for Inactive)
REMARK    1  A    between atoms: C2_2  and  C6_6 
REMARK    2  A    between atoms: C3_3  and  C7_7 
REMARK    3  A    between atoms: C7_7  and  C8_8 
ROOT
HETATM    1  C1  UNL     1     -33.953   4.709   3.791  1.00 20.00     0.100 C 
HETATM    2  C2  UNL     1     -34.060   7.252   3.528  1.00 20.00     0.172 A 
HETATM    3  C3  UNL     1     -33.964   5.860   2.938  1.00 20.00     0.175 A 
HETATM    4  N9  UNL     1     -33.944   3.777   4.481  1.00 20.00    -0.194 NA
HETATM    5  O10 UNL     1     -35.206   6.584   2.988  1.00 20.00    -0.353 OA
ENDROOT
BRANCH   3   6
HETATM    6  C7  UNL     1     -33.430   5.690   1.552  1.00 20.00     0.056 C 
BRANCH   6   7
HETATM    7  C8  UNL     1     -31.948   6.078   1.445  1.00 20.00    -0.000 C 
HETATM    8  C5  UNL     1     -31.741   7.585   1.469  1.00 20.00     0.005 C 
ENDBRANCH   6   7
ENDBRANCH   3   6
BRANCH   2   9
HETATM    9  C6  UNL     1     -34.135   7.519   4.990  1.00 20.00     0.032 C 
HETATM   10  C4  UNL     1     -33.022   8.409   5.487  1.00 20.00     0.007 C 
ENDBRANCH   2   9
TORSDOF 3
ENDMDL
MODEL 9
REMARK VINA RESULT:       0.5      1.891      4.038
REMARK  3 active torsions:
REMARK  status: ('A' for Active; 'I' for Inactive)
REMARK    1  A    between atoms: C2_2  and  C6_6 
REMARK    2  A    between atoms: C3_3  and  C7_7 
REMARK    3  A    between atoms: C7_7  and  C8_8 
ROOT
HETATM    1  C1  UNL     1     -33.343   7.300   2.959  1.00 20.00     0.100 C 
HETATM    2  C2  UNL     1     -32.587   6.089   0.836  1.00 20.00     0.172 A 
HETATM    3  C3  UNL     1     -32.445   7.208   1.846  1.00 20.00     0.175 A 
HETATM    4  N9  UNL     1     -34.069   7.376   3.860  1.00 20.00    -0.194 NA
HETATM    5  O10 UNL     1     -31.618   6.033   1.887  1.00 20.00    -0.353 OA
ENDROOT
BRANCH   3   6
HETATM    6  C7  UNL     1     -31.701   8.447   1.462  1.00 20.00     0.056 C 
BRANCH   6   7
HETATM    7  C8  UNL     1     -32.642   9.605   1.096  1.00 20.00    -0.000 C 
HETATM    8  C5  UNL     1     -32.590   9.946  -0.385  1.00 20.00     0.005 C 
ENDBRANCH   6   7
ENDBRANCH   3   6
BRANCH   2   9
HETATM    9  C6  UNL     1     -33.643   5.042   0.915  1.00 20.00     0.032 C 
HETATM   10  C4  UNL     1     -33.849   4.310  -0.388  1.00 20.00     0.007 C 
ENDBRANCH   2   9
TORSDOF 3
ENDMDL
