MODEL 1
REMARK VINA RESULT:      -1.5      0.000      0.000
REMARK  2 active torsions:
REMARK  status: ('A' for Active; 'I' for Inactive)
REMARK    1  A    between atoms: C2_2  and  C3_3 
REMARK    2  A    between atoms: C3_3  and  O11_11 
ROOT
HETATM    1  C1  UNL     1     -32.255   7.329   1.425  1.00 20.00    -0.069 C 
HETATM    2  C2  UNL     1     -32.001   8.214   0.463  1.00 20.00     0.084 C 
HETATM    3  C4  UNL     1     -31.892   5.844   1.653  1.00 20.00     0.040 C 
HETATM    4  C5  UNL     1     -34.881   6.577   3.942  1.00 20.00     0.001 C 
HETATM    5  C6  UNL     1     -34.403   7.763   3.067  1.00 20.00     0.009 C 
HETATM    6  C7  UNL     1     -33.915   5.410   3.626  1.00 20.00     0.005 C 
HETATM    7  C8  UNL     1     -32.989   7.353   2.737  1.00 20.00     0.019 C 
HETATM    8  C9  UNL     1     -33.294   5.876   2.327  1.00 20.00    -0.002 C 
ENDROOT
BRANCH   2   9
HETATM    9  C3  UNL     1     -32.475   9.615   0.477  1.00 20.00     0.165 C 
HETATM   10  O10 UNL     1     -32.408  10.331   1.465  1.00 20.00    -0.647 OA
BRANCH   9  11
HETATM   11  O11 UNL     1     -32.982  10.004  -0.713  1.00 20.00    -0.773 OA
HETATM   12  H23 UNL     1     -33.825   9.546  -0.921  1.00 20.00     0.167 HD
ENDBRANCH   9  11
ENDBRANCH   2   9
TORSDOF 2
ENDMDL
MODEL 2
REMARK VINA RESULT:      -0.5      3.405      4.729
REMARK  2 active torsions:
REMARK  status: ('A' for Active; 'I' for Inactive)
REMARK    1  A    between atoms: C2_2  and  C3_3 
REMARK    2  A    between atoms: C3_3  and  O11_11 
ROOT
HETATM    1  C1  UNL     1     -33.143   5.143   2.302  1.00 20.00    -0.069 C 
HETATM    2  C2  UNL     1     -33.367   4.022   2.984  1.00 20.00     0.084 C 
HETATM    3  C4  UNL     1     -32.497   5.471   0.937  1.00 20.00     0.040 C 
HETATM    4  C5  UNL     1     -32.484   8.744   2.937  1.00 20.00     0.001 C 
HETATM    5  C6  UNL     1     -33.072   7.513   3.673  1.00 20.00     0.009 C 
HETATM    6  C7  UNL     1     -32.101   8.241   1.524  1.00 20.00     0.005 C 
HETATM    7  C8  UNL     1     -33.425   6.604   2.521  1.00 20.00     0.019 C 
HETATM    8  C9  UNL     1     -32.082   6.742   1.733  1.00 20.00    -0.002 C 
ENDROOT
BRANCH   2   9
HETATM    9  C3  UNL     1     -34.021   3.971   4.309  1.00 20.00     0.165 C 
HETATM   10  O10 UNL     1     -35.064   4.556   4.560  1.00 20.00    -0.647 OA
BRANCH   9  11
HETATM   11  O11 UNL     1     -33.341   3.211   5.196  1.00 20.00    -0.773 OA
HETATM   12  H23 UNL     1     -33.901   2.942   5.955  1.00 20.00     0.167 HD
ENDBRANCH   9  11
ENDBRANCH   2   9
TORSDOF 2
ENDMDL
MODEL 3
REMARK VINA RESULT:      -0.2      2.711      4.240
REMARK  2 active torsions:
REMARK  status: ('A' for Active; 'I' for Inactive)
REMARK    1  A    between atoms: C2_2  and  C3_3 
REMARK    2  A    between atoms: C3_3  and  O11_11 
ROOT
HETATM    1  C1  UNL     1     -33.175   5.804   2.284  1.00 20.00    -0.069 C 
HETATM    2  C2  UNL     1     -33.807   5.199   3.287  1.00 20.00     0.084 C 
HETATM    3  C4  UNL     1     -32.081   5.378   1.278  1.00 20.00     0.040 C 
HETATM    4  C5  UNL     1     -32.088   9.213   1.285  1.00 20.00     0.001 C 
HETATM    5  C6  UNL     1     -33.097   8.541   2.251  1.00 20.00     0.009 C 
HETATM    6  C7  UNL     1     -31.380   8.051   0.548  1.00 20.00     0.005 C 
HETATM    7  C8  UNL     1     -33.232   7.165   1.647  1.00 20.00     0.019 C 
HETATM    8  C9  UNL     1     -31.708   6.879   1.446  1.00 20.00    -0.002 C 
ENDROOT
BRANCH   2   9
HETATM    9  C3  UNL     1     -34.843   5.841   4.124  1.00 20.00     0.165 C 
HETATM   10  O10 UNL     1     -34.881   7.044   4.331  1.00 20.00    -0.647 OA
BRANCH   9  11
HETATM   11  O11 UNL     1     -35.731   4.953   4.625  1.00 20.00    -0.773 OA
HETATM   12  H23 UNL     1     -35.287   4.178   5.030  1.00 20.00     0.167 HD
ENDBRANCH   9  11
ENDBRANCH   2   9
TORSDOF 2
ENDMDL
MODEL 4
REMARK VINA RESULT:       0.0      1.513      2.623
REMARK  2 active torsions:
REMARK  status: ('A' for Active; 'I' for Inactive)
REMARK    1  A    between atoms: C2_2  and  C3_3 
REMARK    2  A    between atoms: C3_3  and  O11_11 
ROOT
HETATM    1  C1  UNL     1     -33.718   7.507   3.116  1.00 20.00    -0.069 C 
HETATM    2  C2  UNL     1     -32.893   8.423   2.613  1.00 20.00     0.084 C 
HETATM    3  C4  UNL     1     -34.810   7.517   4.210  1.00 20.00     0.040 C 
HETATM    4  C5  UNL     1     -33.840   3.841   3.704  1.00 20.00     0.001 C 
HETATM    5  C6  UNL     1     -33.064   4.862   2.835  1.00 20.00     0.009 C 
HETATM    6  C7  UNL     1     -34.853   4.676   4.524  1.00 20.00     0.005 C 
HETATM    7  C8  UNL     1     -33.992   6.052   2.854  1.00 20.00     0.019 C 
HETATM    8  C9  UNL     1     -34.274   6.068   4.391  1.00 20.00    -0.002 C 
ENDROOT
BRANCH   2   9
HETATM    9  C3  UNL     1     -31.910   8.156   1.541  1.00 20.00     0.165 C 
HETATM   10  O10 UNL     1     -31.104   7.239   1.588  1.00 20.00    -0.647 OA
BRANCH   9  11
HETATM   11  O11 UNL     1     -32.007   9.033   0.517  1.00 20.00    -0.773 OA
HETATM   12  H23 UNL     1     -32.524   8.666  -0.233  1.00 20.00     0.167 HD
ENDBRANCH   9  11
ENDBRANCH   2   9
TORSDOF 2
ENDMDL
MODEL 5
REMARK VINA RESULT:       0.5      3.002      4.508
REMARK  2 active torsions:
REMARK  status: ('A' for Active; 'I' for Inactive)
REMARK    1  A    between atoms: C2_2  and  C3_3 
REMARK    2  A    between atoms: C3_3  and  O11_11 
ROOT
HETATM    1  C1  UNL     1     -33.565   7.359   3.746  1.00 20.00    -0.069 C 
HETATM    2  C2  UNL     1     -34.740   7.151   4.337  1.00 20.00     0.084 C 
HETATM    3  C4  UNL     1     -32.511   8.487   3.799  1.00 20.00     0.040 C 
HETATM    4  C5  UNL     1     -31.820   6.530   0.574  1.00 20.00     0.001 C 
HETATM    5  C6  UNL     1     -33.023   6.031   1.414  1.00 20.00     0.009 C 
HETATM    6  C7  UNL     1     -31.214   7.709   1.373  1.00 20.00     0.005 C 
HETATM    7  C8  UNL     1     -32.705   6.598   2.775  1.00 20.00     0.019 C 
HETATM    8  C9  UNL     1     -32.348   8.049   2.315  1.00 20.00    -0.002 C 
ENDROOT
BRANCH   2   9
HETATM    9  C3  UNL     1     -35.583   5.957   4.114  1.00 20.00     0.165 C 
HETATM   10  O10 UNL     1     -35.340   4.867   4.610  1.00 20.00    -0.647 OA
BRANCH   9  11
HETATM   11  O11 UNL     1     -36.639   6.209   3.309  1.00 20.00    -0.773 OA
HETATM   12  H23 UNL     1     -36.540   5.784   2.430  1.00 20.00     0.167 HD
ENDBRANCH   9  11
ENDBRANCH   2   9
TORSDOF 2
ENDMDL
MODEL 6
REMARK VINA RESULT:       0.6      3.524      5.118
REMARK  2 active torsions:
REMARK  status: ('A' for Active; 'I' for Inactive)
REMARK    1  A    between atoms: C2_2  and  C3_3 
REMARK    2  A    between atoms: C3_3  and  O11_11 
ROOT
HETATM    1  C1  UNL     1     -34.048   6.015   3.946  1.00 20.00    -0.069 C 
HETATM    2  C2  UNL     1     -34.521   4.869   4.431  1.00 20.00     0.084 C 
HETATM    3  C4  UNL     1     -34.553   7.476   3.933  1.00 20.00     0.040 C 
HETATM    4  C5  UNL     1     -31.919   7.231   1.157  1.00 20.00     0.001 C 
HETATM    5  C6  UNL     1     -32.200   5.917   1.928  1.00 20.00     0.009 C 
HETATM    6  C7  UNL     1     -32.817   8.304   1.818  1.00 20.00     0.005 C 
HETATM    7  C8  UNL     1     -32.807   6.436   3.209  1.00 20.00     0.019 C 
HETATM    8  C9  UNL     1     -33.813   7.444   2.565  1.00 20.00    -0.002 C 
ENDROOT
BRANCH   2   9
HETATM    9  C3  UNL     1     -33.830   3.567   4.310  1.00 20.00     0.165 C 
HETATM   10  O10 UNL     1     -33.119   3.106   5.190  1.00 20.00    -0.647 OA
BRANCH   9  11
HETATM   11  O11 UNL     1     -34.074   2.956   3.130  1.00 20.00    -0.773 OA
HETATM   12  H23 UNL     1     -33.591   2.106   3.049  1.00 20.00     0.167 HD
ENDBRANCH   9  11
ENDBRANCH   2   9
TORSDOF 2
ENDMDL
MODEL 7
REMARK VINA RESULT:       0.8      2.763      3.457
REMARK  2 active torsions:
REMARK  status: ('A' for Active; 'I' for Inactive)
REMARK    1  A    between atoms: C2_2  and  C3_3 
REMARK    2  A    between atoms: C3_3  and  O11_11 
ROOT
HETATM    1  C1  UNL     1     -32.406   6.795   1.709  1.00 20.00    -0.069 C 
HETATM    2  C2  UNL     1     -31.661   6.037   0.907  1.00 20.00     0.084 C 
HETATM    3  C4  UNL     1     -32.223   8.182   2.367  1.00 20.00     0.040 C 
HETATM    4  C5  UNL     1     -34.984   6.413   4.356  1.00 20.00     0.001 C 
HETATM    5  C6  UNL     1     -34.366   5.592   3.197  1.00 20.00     0.009 C 
HETATM    6  C7  UNL     1     -34.277   7.789   4.317  1.00 20.00     0.005 C 
HETATM    7  C8  UNL     1     -33.769   6.677   2.334  1.00 20.00     0.019 C 
HETATM    8  C9  UNL     1     -33.059   7.477   3.474  1.00 20.00    -0.002 C 
ENDROOT
BRANCH   2   9
HETATM    9  C3  UNL     1     -32.071   4.710   0.402  1.00 20.00     0.165 C 
HETATM   10  O10 UNL     1     -33.239   4.393   0.232  1.00 20.00    -0.647 OA
BRANCH   9  11
HETATM   11  O11 UNL     1     -31.018   3.900   0.152  1.00 20.00    -0.773 OA
HETATM   12  H23 UNL     1     -30.339   4.341  -0.402  1.00 20.00     0.167 HD
ENDBRANCH   9  11
ENDBRANCH   2   9
TORSDOF 2
ENDMDL
MODEL 8
REMARK VINA RESULT:       1.2      2.755      4.387
REMARK  2 active torsions:
REMARK  status: ('A' for Active; 'I' for Inactive)
REMARK    1  A    between atoms: C2_2  and  C3_3 
REMARK    2  A    between atoms: C3_3  and  O11_11 
ROOT
HETATM    1  C1  UNL     1     -32.298   7.395   1.854  1.00 20.00    -0.069 C 
HETATM    2  C2  UNL     1     -32.552   6.090   1.924  1.00 20.00     0.084 C 
HETATM    3  C4  UNL     1     -32.243   8.544   2.886  1.00 20.00     0.040 C 
HETATM    4  C5  UNL     1     -32.643  10.209  -0.546  1.00 20.00     0.001 C 
HETATM    5  C6  UNL     1     -32.610   8.660  -0.555  1.00 20.00     0.009 C 
HETATM    6  C7  UNL     1     -32.451  10.622   0.933  1.00 20.00     0.005 C 
HETATM    7  C8  UNL     1     -31.932   8.358   0.759  1.00 20.00     0.019 C 
HETATM    8  C9  UNL     1     -32.772   9.329   1.651  1.00 20.00    -0.002 C 
ENDROOT
BRANCH   2   9
HETATM    9  C3  UNL     1     -32.543   5.178   0.760  1.00 20.00     0.165 C 
HETATM   10  O10 UNL     1     -33.542   4.928   0.102  1.00 20.00    -0.647 OA
BRANCH   9  11
HETATM   11  O11 UNL     1     -31.319   4.662   0.512  1.00 20.00    -0.773 OA
HETATM   12  H23 UNL     1     -30.602   5.302   0.716  1.00 20.00     0.167 HD
ENDBRANCH   9  11
ENDBRANCH   2   9
TORSDOF 2
ENDMDL
