MODEL 1
REMARK VINA RESULT:       0.1      0.000      0.000
REMARK  1 active torsions:
REMARK  status: ('A' for Active; 'I' for Inactive)
REMARK    1  A    between atoms: C4_4  and  C8_8 
ROOT
HETATM    1  C1  UNL     1     -34.929   5.159   4.508  1.00 20.00     0.302 C 
HETATM    2  C2  UNL     1     -35.375   6.461   3.834  1.00 20.00     0.302 C 
HETATM    3  C3  UNL     1     -32.867   5.224   3.245  1.00 20.00     0.307 C 
HETATM    4  C4  UNL     1     -33.320   6.536   2.570  1.00 20.00     0.250 C 
HETATM    5  C6  UNL     1     -33.588   3.167   4.281  1.00 20.00     0.310 C 
HETATM    6  C7  UNL     1     -33.635   7.988   4.546  1.00 20.00     0.310 C 
HETATM    7  N9  UNL     1     -34.021   4.405   3.636  1.00 20.00     0.088 N 
HETATM    8  N10 UNL     1     -34.256   7.316   3.406  1.00 20.00     0.092 N 
ENDROOT
BRANCH   4   9
HETATM    9  C8  UNL     1     -32.108   7.345   2.097  1.00 20.00     0.033 C 
HETATM   10  C5  UNL     1     -32.521   8.482   1.225  1.00 20.00     0.007 C 
ENDBRANCH   4   9
TORSDOF 1
ENDMDL
MODEL 2
REMARK VINA RESULT:       0.7      1.144      3.685
REMARK  1 active torsions:
REMARK  status: ('A' for Active; 'I' for Inactive)
REMARK    1  A    between atoms: C4_4  and  C8_8 
ROOT
HETATM    1  C1  UNL     1     -33.398   8.241   2.892  1.00 20.00     0.302 C 
HETATM    2  C2  UNL     1     -33.919   7.773   4.254  1.00 20.00     0.302 C 
HETATM    3  C3  UNL     1     -32.960   5.941   2.281  1.00 20.00     0.307 C 
HETATM    4  C4  UNL     1     -33.488   5.476   3.655  1.00 20.00     0.250 C 
HETATM    5  C6  UNL     1     -31.915   7.739   1.058  1.00 20.00     0.310 C 
HETATM    6  C7  UNL     1     -35.789   6.379   3.598  1.00 20.00     0.310 C 
HETATM    7  N9  UNL     1     -32.406   7.299   2.361  1.00 20.00     0.088 N 
HETATM    8  N10 UNL     1     -34.473   6.410   4.237  1.00 20.00     0.092 N 
ENDROOT
BRANCH   4   9
HETATM    9  C8  UNL     1     -33.992   4.031   3.576  1.00 20.00     0.033 C 
HETATM   10  C5  UNL     1     -33.364   3.178   4.626  1.00 20.00     0.007 C 
ENDBRANCH   4   9
TORSDOF 1
ENDMDL
MODEL 3
REMARK VINA RESULT:       1.5      1.590      2.217
REMARK  1 active torsions:
REMARK  status: ('A' for Active; 'I' for Inactive)
REMARK    1  A    between atoms: C4_4  and  C8_8 
ROOT
HETATM    1  C1  UNL     1     -33.252   5.437   2.908  1.00 20.00     0.302 C 
HETATM    2  C2  UNL     1     -34.190   6.574   3.327  1.00 20.00     0.302 C 
HETATM    3  C3  UNL     1     -32.075   6.963   1.445  1.00 20.00     0.307 C 
HETATM    4  C4  UNL     1     -33.022   8.104   1.872  1.00 20.00     0.250 C 
HETATM    5  C6  UNL     1     -31.838   4.579   1.154  1.00 20.00     0.310 C 
HETATM    6  C7  UNL     1     -32.630   8.144   4.312  1.00 20.00     0.310 C 
HETATM    7  N9  UNL     1     -32.740   5.658   1.551  1.00 20.00     0.088 N 
HETATM    8  N10 UNL     1     -33.581   7.909   3.226  1.00 20.00     0.092 N 
ENDROOT
BRANCH   4   9
HETATM    9  C8  UNL     1     -32.345   9.465   1.683  1.00 20.00     0.033 C 
HETATM   10  C5  UNL     1     -32.471   9.945   0.277  1.00 20.00     0.007 C 
ENDBRANCH   4   9
TORSDOF 1
ENDMDL
MODEL 4
REMARK VINA RESULT:       1.7      1.668      3.058
REMARK  1 active torsions:
REMARK  status: ('A' for Active; 'I' for Inactive)
REMARK    1  A    between atoms: C4_4  and  C8_8 
ROOT
HETATM    1  C1  UNL     1     -33.898   6.007   3.354  1.00 20.00     0.302 C 
HETATM    2  C2  UNL     1     -32.924   5.289   2.414  1.00 20.00     0.302 C 
HETATM    3  C3  UNL     1     -33.003   8.137   2.637  1.00 20.00     0.307 C 
HETATM    4  C4  UNL     1     -32.025   7.408   1.691  1.00 20.00     0.250 C 
HETATM    5  C6  UNL     1     -34.280   7.985   4.678  1.00 20.00     0.310 C 
HETATM    6  C7  UNL     1     -33.607   6.159   0.260  1.00 20.00     0.310 C 
HETATM    7  N9  UNL     1     -33.348   7.295   3.789  1.00 20.00     0.088 N 
HETATM    8  N10 UNL     1     -32.530   6.093   1.247  1.00 20.00     0.092 N 
ENDROOT
BRANCH   4   9
HETATM    9  C8  UNL     1     -31.612   8.324   0.534  1.00 20.00     0.033 C 
HETATM   10  C5  UNL     1     -32.388   9.596   0.543  1.00 20.00     0.007 C 
ENDBRANCH   4   9
TORSDOF 1
ENDMDL
MODEL 5
REMARK VINA RESULT:       2.2      1.478      3.807
REMARK  1 active torsions:
REMARK  status: ('A' for Active; 'I' for Inactive)
REMARK    1  A    between atoms: C4_4  and  C8_8 
ROOT
HETATM    1  C1  UNL     1     -31.963   6.116   1.213  1.00 20.00     0.302 C 
HETATM    2  C2  UNL     1     -33.255   5.303   1.344  1.00 20.00     0.302 C 
HETATM    3  C3  UNL     1     -32.793   7.681   2.861  1.00 20.00     0.307 C 
HETATM    4  C4  UNL     1     -34.092   6.857   2.990  1.00 20.00     0.250 C 
HETATM    5  C6  UNL     1     -30.970   8.305   1.409  1.00 20.00     0.310 C 
HETATM    6  C7  UNL     1     -33.183   4.664   3.680  1.00 20.00     0.310 C 
HETATM    7  N9  UNL     1     -32.203   7.529   1.525  1.00 20.00     0.088 N 
HETATM    8  N10 UNL     1     -33.900   5.429   2.661  1.00 20.00     0.092 N 
ENDROOT
BRANCH   4   9
HETATM    9  C8  UNL     1     -34.739   7.084   4.360  1.00 20.00     0.033 C 
HETATM   10  C5  UNL     1     -33.942   8.033   5.188  1.00 20.00     0.007 C 
ENDBRANCH   4   9
TORSDOF 1
ENDMDL
MODEL 6
REMARK VINA RESULT:       2.3      1.388      4.040
REMARK  1 active torsions:
REMARK  status: ('A' for Active; 'I' for Inactive)
REMARK    1  A    between atoms: C4_4  and  C8_8 
ROOT
HETATM    1  C1  UNL     1     -31.833   6.401   1.361  1.00 20.00     0.302 C 
HETATM    2  C2  UNL     1     -32.987   5.396   1.303  1.00 20.00     0.302 C 
HETATM    3  C3  UNL     1     -33.013   7.643   3.069  1.00 20.00     0.307 C 
HETATM    4  C4  UNL     1     -34.172   6.627   3.007  1.00 20.00     0.250 C 
HETATM    5  C6  UNL     1     -31.210   8.680   1.845  1.00 20.00     0.310 C 
HETATM    6  C7  UNL     1     -32.983   4.533   3.567  1.00 20.00     0.310 C 
HETATM    7  N9  UNL     1     -32.312   7.723   1.781  1.00 20.00     0.088 N 
HETATM    8  N10 UNL     1     -33.737   5.286   2.565  1.00 20.00     0.092 N 
ENDROOT
BRANCH   4   9
HETATM    9  C8  UNL     1     -34.944   6.609   4.331  1.00 20.00     0.033 C 
HETATM   10  C5  UNL     1     -35.601   5.291   4.560  1.00 20.00     0.007 C 
ENDBRANCH   4   9
TORSDOF 1
ENDMDL
MODEL 7
REMARK VINA RESULT:       2.3      1.865      3.506
REMARK  1 active torsions:
REMARK  status: ('A' for Active; 'I' for Inactive)
REMARK    1  A    between atoms: C4_4  and  C8_8 
ROOT
HETATM    1  C1  UNL     1     -31.598   6.784   0.822  1.00 20.00     0.302 C 
HETATM    2  C2  UNL     1     -31.267   7.860   1.862  1.00 20.00     0.302 C 
HETATM    3  C3  UNL     1     -33.441   6.035   2.199  1.00 20.00     0.307 C 
HETATM    4  C4  UNL     1     -33.103   7.121   3.242  1.00 20.00     0.250 C 
HETATM    5  C6  UNL     1     -32.567   4.605   0.462  1.00 20.00     0.310 C 
HETATM    6  C7  UNL     1     -33.308   9.165   1.867  1.00 20.00     0.310 C 
HETATM    7  N9  UNL     1     -32.242   5.628   1.454  1.00 20.00     0.088 N 
HETATM    8  N10 UNL     1     -32.430   8.296   2.650  1.00 20.00     0.092 N 
ENDROOT
BRANCH   4   9
HETATM    9  C8  UNL     1     -34.344   7.482   4.065  1.00 20.00     0.033 C 
HETATM   10  C5  UNL     1     -35.347   6.378   4.049  1.00 20.00     0.007 C 
ENDBRANCH   4   9
TORSDOF 1
ENDMDL
MODEL 8
REMARK VINA RESULT:       2.4      1.492      2.065
REMARK  1 active torsions:
REMARK  status: ('A' for Active; 'I' for Inactive)
REMARK    1  A    between atoms: C4_4  and  C8_8 
ROOT
HETATM    1  C1  UNL     1     -34.495   7.071   4.261  1.00 20.00     0.302 C 
HETATM    2  C2  UNL     1     -34.171   8.150   3.223  1.00 20.00     0.302 C 
HETATM    3  C3  UNL     1     -33.404   5.419   2.870  1.00 20.00     0.307 C 
HETATM    4  C4  UNL     1     -33.079   6.511   1.828  1.00 20.00     0.250 C 
HETATM    5  C6  UNL     1     -34.919   4.724   4.615  1.00 20.00     0.310 C 
HETATM    6  C7  UNL     1     -31.749   8.080   3.200  1.00 20.00     0.310 C 
HETATM    7  N9  UNL     1     -34.619   5.755   3.624  1.00 20.00     0.088 N 
HETATM    8  N10 UNL     1     -32.970   7.858   2.424  1.00 20.00     0.092 N 
ENDROOT
BRANCH   4   9
HETATM    9  C8  UNL     1     -31.856   6.113   0.995  1.00 20.00     0.033 C 
HETATM   10  C5  UNL     1     -31.847   4.650   0.708  1.00 20.00     0.007 C 
ENDBRANCH   4   9
TORSDOF 1
ENDMDL
MODEL 9
REMARK VINA RESULT:       2.8      2.142      4.404
REMARK  1 active torsions:
REMARK  status: ('A' for Active; 'I' for Inactive)
REMARK    1  A    between atoms: C4_4  and  C8_8 
ROOT
HETATM    1  C1  UNL     1     -32.481   9.712   2.069  1.00 20.00     0.302 C 
HETATM    2  C2  UNL     1     -32.034   8.764   3.187  1.00 20.00     0.302 C 
HETATM    3  C3  UNL     1     -32.731   7.822   0.580  1.00 20.00     0.307 C 
HETATM    4  C4  UNL     1     -32.281   6.872   1.710  1.00 20.00     0.250 C 
HETATM    5  C6  UNL     1     -32.583  10.057  -0.315  1.00 20.00     0.310 C 
HETATM    6  C7  UNL     1     -33.989   7.355   3.431  1.00 20.00     0.310 C 
HETATM    7  N9  UNL     1     -32.149   9.159   0.752  1.00 20.00     0.088 N 
HETATM    8  N10 UNL     1     -32.576   7.402   3.057  1.00 20.00     0.092 N 
ENDROOT
BRANCH   4   9
HETATM    9  C8  UNL     1     -32.832   5.460   1.478  1.00 20.00     0.033 C 
HETATM   10  C5  UNL     1     -31.906   4.647   0.639  1.00 20.00     0.007 C 
ENDBRANCH   4   9
TORSDOF 1
ENDMDL
