MODEL 1
REMARK VINA RESULT:       0.2      0.000      0.000
REMARK  1 active torsions:
REMARK  status: ('A' for Active; 'I' for Inactive)
REMARK    1  A    between atoms: C5_5  and  C10_10 
ROOT
HETATM    1  C1  UNL     1     -32.264   6.646   1.490  1.00 20.00     0.166 C 
HETATM    2  C2  UNL     1     -33.170   5.514   1.933  1.00 20.00     0.086 C 
HETATM    3  C3  UNL     1     -34.290   7.006   3.645  1.00 20.00     0.009 C 
HETATM    4  C4  UNL     1     -33.891   8.125   2.676  1.00 20.00     0.052 C 
HETATM    5  C5  UNL     1     -33.539   5.686   3.406  1.00 20.00    -0.004 C 
HETATM    6  C6  UNL     1     -32.449   7.993   2.182  1.00 20.00     0.159 C 
HETATM    7  C7  UNL     1     -32.092   9.141   1.245  1.00 20.00     0.060 C 
HETATM    8  O11 UNL     1     -31.418   6.468   0.615  1.00 20.00    -0.294 OA
HETATM    9  F12 UNL     1     -31.619   8.073   3.263  1.00 20.00    -0.235 F 
ENDROOT
BRANCH   5  10
HETATM   10  C10 UNL     1     -34.349   4.497   3.916  1.00 20.00    -0.018 C 
HETATM   11  C8  UNL     1     -33.443   3.493   4.624  1.00 20.00     0.010 C 
HETATM   12  C9  UNL     1     -35.462   4.967   4.849  1.00 20.00     0.010 C 
ENDBRANCH   5  10
TORSDOF 1
ENDMDL
MODEL 2
REMARK VINA RESULT:       0.8      0.495      1.136
REMARK  1 active torsions:
REMARK  status: ('A' for Active; 'I' for Inactive)
REMARK    1  A    between atoms: C5_5  and  C10_10 
ROOT
HETATM    1  C1  UNL     1     -32.329   6.610   1.550  1.00 20.00     0.166 C 
HETATM    2  C2  UNL     1     -33.245   5.644   2.276  1.00 20.00     0.086 C 
HETATM    3  C3  UNL     1     -34.057   7.485   3.813  1.00 20.00     0.009 C 
HETATM    4  C4  UNL     1     -33.708   8.392   2.627  1.00 20.00     0.052 C 
HETATM    5  C5  UNL     1     -33.424   6.087   3.728  1.00 20.00    -0.004 C 
HETATM    6  C6  UNL     1     -32.345   8.063   2.014  1.00 20.00     0.159 C 
HETATM    7  C7  UNL     1     -32.032   9.008   0.859  1.00 20.00     0.060 C 
HETATM    8  O11 UNL     1     -31.605   6.221   0.634  1.00 20.00    -0.294 OA
HETATM    9  F12 UNL     1     -31.389   8.253   2.969  1.00 20.00    -0.235 F 
ENDROOT
BRANCH   5  10
HETATM   10  C10 UNL     1     -34.241   5.069   4.519  1.00 20.00    -0.018 C 
HETATM   11  C8  UNL     1     -35.735   5.294   4.303  1.00 20.00     0.010 C 
HETATM   12  C9  UNL     1     -33.850   3.646   4.127  1.00 20.00     0.010 C 
ENDBRANCH   5  10
TORSDOF 1
ENDMDL
MODEL 3
REMARK VINA RESULT:       0.8      1.625      4.381
REMARK  1 active torsions:
REMARK  status: ('A' for Active; 'I' for Inactive)
REMARK    1  A    between atoms: C5_5  and  C10_10 
ROOT
HETATM    1  C1  UNL     1     -33.044   5.789   2.055  1.00 20.00     0.166 C 
HETATM    2  C2  UNL     1     -32.116   6.851   1.498  1.00 20.00     0.086 C 
HETATM    3  C3  UNL     1     -33.043   8.579   3.099  1.00 20.00     0.009 C 
HETATM    4  C4  UNL     1     -33.335   7.357   3.978  1.00 20.00     0.052 C 
HETATM    5  C5  UNL     1     -32.762   8.230   1.629  1.00 20.00    -0.004 C 
HETATM    6  C6  UNL     1     -33.968   6.205   3.195  1.00 20.00     0.159 C 
HETATM    7  C7  UNL     1     -34.264   5.026   4.116  1.00 20.00     0.060 C 
HETATM    8  O11 UNL     1     -33.045   4.649   1.591  1.00 20.00    -0.294 OA
HETATM    9  F12 UNL     1     -35.160   6.637   2.689  1.00 20.00    -0.235 F 
ENDROOT
BRANCH   5  10
HETATM   10  C10 UNL     1     -31.907   9.306   0.966  1.00 20.00    -0.018 C 
HETATM   11  C8  UNL     1     -31.101   8.716  -0.189  1.00 20.00     0.010 C 
HETATM   12  C9  UNL     1     -32.780  10.460   0.478  1.00 20.00     0.010 C 
ENDBRANCH   5  10
TORSDOF 1
ENDMDL
MODEL 4
REMARK VINA RESULT:       1.0      2.067      4.351
REMARK  1 active torsions:
REMARK  status: ('A' for Active; 'I' for Inactive)
REMARK    1  A    between atoms: C5_5  and  C10_10 
ROOT
HETATM    1  C1  UNL     1     -33.849   5.265   3.108  1.00 20.00     0.166 C 
HETATM    2  C2  UNL     1     -32.683   6.005   2.482  1.00 20.00     0.086 C 
HETATM    3  C3  UNL     1     -33.566   8.223   3.326  1.00 20.00     0.009 C 
HETATM    4  C4  UNL     1     -34.191   7.358   4.427  1.00 20.00     0.052 C 
HETATM    5  C5  UNL     1     -33.110   7.421   2.097  1.00 20.00    -0.004 C 
HETATM    6  C6  UNL     1     -34.867   6.100   3.879  1.00 20.00     0.159 C 
HETATM    7  C7  UNL     1     -35.495   5.290   5.007  1.00 20.00     0.060 C 
HETATM    8  O11 UNL     1     -33.959   4.046   2.984  1.00 20.00    -0.294 OA
HETATM    9  F12 UNL     1     -35.874   6.487   3.042  1.00 20.00    -0.235 F 
ENDROOT
BRANCH   5  10
HETATM   10  C10 UNL     1     -31.995   8.151   1.352  1.00 20.00    -0.018 C 
HETATM   11  C8  UNL     1     -32.548   9.368   0.616  1.00 20.00     0.010 C 
HETATM   12  C9  UNL     1     -30.887   8.565   2.318  1.00 20.00     0.010 C 
ENDBRANCH   5  10
TORSDOF 1
ENDMDL
MODEL 5
REMARK VINA RESULT:       1.8      2.258      3.554
REMARK  1 active torsions:
REMARK  status: ('A' for Active; 'I' for Inactive)
REMARK    1  A    between atoms: C5_5  and  C10_10 
ROOT
HETATM    1  C1  UNL     1     -34.314   6.268   3.719  1.00 20.00     0.166 C 
HETATM    2  C2  UNL     1     -33.609   5.378   2.713  1.00 20.00     0.086 C 
HETATM    3  C3  UNL     1     -32.158   7.304   1.945  1.00 20.00     0.009 C 
HETATM    4  C4  UNL     1     -32.392   7.823   3.368  1.00 20.00     0.052 C 
HETATM    5  C5  UNL     1     -33.146   6.208   1.517  1.00 20.00    -0.004 C 
HETATM    6  C6  UNL     1     -33.855   7.720   3.801  1.00 20.00     0.159 C 
HETATM    7  C7  UNL     1     -34.041   8.272   5.210  1.00 20.00     0.060 C 
HETATM    8  O11 UNL     1     -35.220   5.824   4.424  1.00 20.00    -0.294 OA
HETATM    9  F12 UNL     1     -34.605   8.488   2.958  1.00 20.00    -0.235 F 
ENDROOT
BRANCH   5  10
HETATM   10  C10 UNL     1     -32.542   5.322   0.430  1.00 20.00    -0.018 C 
HETATM   11  C8  UNL     1     -31.348   4.542   0.975  1.00 20.00     0.010 C 
HETATM   12  C9  UNL     1     -33.595   4.370  -0.132  1.00 20.00     0.010 C 
ENDBRANCH   5  10
TORSDOF 1
ENDMDL
MODEL 6
REMARK VINA RESULT:       2.1      1.977      4.582
REMARK  1 active torsions:
REMARK  status: ('A' for Active; 'I' for Inactive)
REMARK    1  A    between atoms: C5_5  and  C10_10 
ROOT
HETATM    1  C1  UNL     1     -33.941   7.373   3.829  1.00 20.00     0.166 C 
HETATM    2  C2  UNL     1     -33.401   8.389   2.841  1.00 20.00     0.086 C 
HETATM    3  C3  UNL     1     -32.713   6.550   1.243  1.00 20.00     0.009 C 
HETATM    4  C4  UNL     1     -33.861   5.781   1.907  1.00 20.00     0.052 C 
HETATM    5  C5  UNL     1     -32.250   7.779   2.042  1.00 20.00    -0.004 C 
HETATM    6  C6  UNL     1     -33.850   5.903   3.432  1.00 20.00     0.159 C 
HETATM    7  C7  UNL     1     -34.991   5.100   4.046  1.00 20.00     0.060 C 
HETATM    8  O11 UNL     1     -34.421   7.735   4.903  1.00 20.00    -0.294 OA
HETATM    9  F12 UNL     1     -32.681   5.373   3.895  1.00 20.00    -0.235 F 
ENDROOT
BRANCH   5  10
HETATM   10  C10 UNL     1     -31.604   8.814   1.125  1.00 20.00    -0.018 C 
HETATM   11  C8  UNL     1     -31.025   8.144  -0.118  1.00 20.00     0.010 C 
HETATM   12  C9  UNL     1     -32.614   9.890   0.735  1.00 20.00     0.010 C 
ENDBRANCH   5  10
TORSDOF 1
ENDMDL
MODEL 7
REMARK VINA RESULT:       2.4      1.684      2.164
REMARK  1 active torsions:
REMARK  status: ('A' for Active; 'I' for Inactive)
REMARK    1  A    between atoms: C5_5  and  C10_10 
ROOT
HETATM    1  C1  UNL     1     -32.337   8.078   2.930  1.00 20.00     0.166 C 
HETATM    2  C2  UNL     1     -33.004   6.961   3.708  1.00 20.00     0.086 C 
HETATM    3  C3  UNL     1     -33.148   5.524   1.628  1.00 20.00     0.009 C 
HETATM    4  C4  UNL     1     -31.917   6.330   1.196  1.00 20.00     0.052 C 
HETATM    5  C5  UNL     1     -33.928   6.163   2.788  1.00 20.00    -0.004 C 
HETATM    6  C6  UNL     1     -32.075   7.831   1.448  1.00 20.00     0.159 C 
HETATM    7  C7  UNL     1     -30.840   8.590   0.978  1.00 20.00     0.060 C 
HETATM    8  O11 UNL     1     -32.033   9.134   3.484  1.00 20.00    -0.294 OA
HETATM    9  F12 UNL     1     -33.135   8.278   0.713  1.00 20.00    -0.235 F 
ENDROOT
BRANCH   5  10
HETATM   10  C10 UNL     1     -34.709   5.108   3.568  1.00 20.00    -0.018 C 
HETATM   11  C8  UNL     1     -33.766   4.044   4.124  1.00 20.00     0.010 C 
HETATM   12  C9  UNL     1     -35.510   5.757   4.694  1.00 20.00     0.010 C 
ENDBRANCH   5  10
TORSDOF 1
ENDMDL
MODEL 8
REMARK VINA RESULT:       2.6      1.816      2.595
REMARK  1 active torsions:
REMARK  status: ('A' for Active; 'I' for Inactive)
REMARK    1  A    between atoms: C5_5  and  C10_10 
ROOT
HETATM    1  C1  UNL     1     -32.453   8.624   2.026  1.00 20.00     0.166 C 
HETATM    2  C2  UNL     1     -32.897   7.819   3.231  1.00 20.00     0.086 C 
HETATM    3  C3  UNL     1     -32.744   5.662   1.915  1.00 20.00     0.009 C 
HETATM    4  C4  UNL     1     -31.689   6.430   1.110  1.00 20.00     0.052 C 
HETATM    5  C5  UNL     1     -33.642   6.565   2.776  1.00 20.00    -0.004 C 
HETATM    6  C6  UNL     1     -32.137   7.848   0.751  1.00 20.00     0.159 C 
HETATM    7  C7  UNL     1     -31.068   8.559  -0.071  1.00 20.00     0.060 C 
HETATM    8  O11 UNL     1     -32.363   9.850   2.088  1.00 20.00    -0.294 OA
HETATM    9  F12 UNL     1     -33.257   7.759  -0.023  1.00 20.00    -0.235 F 
ENDROOT
BRANCH   5  10
HETATM   10  C10 UNL     1     -34.210   5.796   3.966  1.00 20.00    -0.018 C 
HETATM   11  C8  UNL     1     -35.693   6.107   4.148  1.00 20.00     0.010 C 
HETATM   12  C9  UNL     1     -33.994   4.295   3.787  1.00 20.00     0.010 C 
ENDBRANCH   5  10
TORSDOF 1
ENDMDL
MODEL 9
REMARK VINA RESULT:       2.6      1.809      2.958
REMARK  1 active torsions:
REMARK  status: ('A' for Active; 'I' for Inactive)
REMARK    1  A    between atoms: C5_5  and  C10_10 
ROOT
HETATM    1  C1  UNL     1     -32.038   6.867   1.453  1.00 20.00     0.166 C 
HETATM    2  C2  UNL     1     -32.696   7.396   2.712  1.00 20.00     0.086 C 
HETATM    3  C3  UNL     1     -33.837   5.172   3.116  1.00 20.00     0.009 C 
HETATM    4  C4  UNL     1     -32.636   4.612   2.344  1.00 20.00     0.052 C 
HETATM    5  C5  UNL     1     -34.030   6.687   2.942  1.00 20.00    -0.004 C 
HETATM    6  C6  UNL     1     -32.319   5.414   1.081  1.00 20.00     0.159 C 
HETATM    7  C7  UNL     1     -31.138   4.803   0.336  1.00 20.00     0.060 C 
HETATM    8  O11 UNL     1     -31.319   7.593   0.767  1.00 20.00    -0.294 OA
HETATM    9  F12 UNL     1     -33.402   5.352   0.253  1.00 20.00    -0.235 F 
ENDROOT
BRANCH   5  10
HETATM   10  C10 UNL     1     -34.775   7.283   4.133  1.00 20.00    -0.018 C 
HETATM   11  C8  UNL     1     -35.500   6.190   4.915  1.00 20.00     0.010 C 
HETATM   12  C9  UNL     1     -33.813   8.044   5.042  1.00 20.00     0.010 C 
ENDBRANCH   5  10
TORSDOF 1
ENDMDL
