MODEL 1
REMARK VINA RESULT:      -0.1      0.000      0.000
REMARK  0 active torsions:
REMARK  status: ('A' for Active; 'I' for Inactive)
ROOT
HETATM    1  C1  UNL     1     -34.124   4.736   3.838  1.00 20.00     0.146 C 
HETATM    2  C2  UNL     1     -35.259   5.292   4.691  1.00 20.00     0.084 C 
HETATM    3  C3  UNL     1     -33.806   7.230   4.019  1.00 20.00     0.034 C 
HETATM    4  C4  UNL     1     -35.185   6.638   2.569  1.00 20.00     0.034 C 
HETATM    5  C5  UNL     1     -35.303   6.745   4.139  1.00 20.00    -0.004 C 
HETATM    6  C6  UNL     1     -33.792   6.036   2.992  1.00 20.00     0.079 C 
HETATM    7  O7  UNL     1     -33.678   3.607   3.875  1.00 20.00    -0.296 OA
HETATM    8 BR8  UNL     1     -32.403   5.890   1.729  1.00 20.00    -0.077 Br
ENDROOT
TORSDOF 0
ENDMDL
MODEL 2
REMARK VINA RESULT:      -0.0      1.771      2.008
REMARK  0 active torsions:
REMARK  status: ('A' for Active; 'I' for Inactive)
ROOT
HETATM    1  C1  UNL     1     -33.213   6.061   2.376  1.00 20.00     0.146 C 
HETATM    2  C2  UNL     1     -34.190   5.700   3.490  1.00 20.00     0.084 C 
HETATM    3  C3  UNL     1     -32.910   7.728   4.242  1.00 20.00     0.034 C 
HETATM    4  C4  UNL     1     -34.513   8.138   2.969  1.00 20.00     0.034 C 
HETATM    5  C5  UNL     1     -34.354   7.099   4.147  1.00 20.00    -0.004 C 
HETATM    6  C6  UNL     1     -33.057   7.610   2.679  1.00 20.00     0.079 C 
HETATM    7  O7  UNL     1     -32.748   5.304   1.547  1.00 20.00    -0.296 OA
HETATM    8 BR8  UNL     1     -31.909   8.581   1.545  1.00 20.00    -0.077 Br
ENDROOT
TORSDOF 0
ENDMDL
MODEL 3
REMARK VINA RESULT:       0.0      1.923      2.677
REMARK  0 active torsions:
REMARK  status: ('A' for Active; 'I' for Inactive)
ROOT
HETATM    1  C1  UNL     1     -33.077   6.152   2.266  1.00 20.00     0.146 C 
HETATM    2  C2  UNL     1     -33.241   7.667   2.206  1.00 20.00     0.084 C 
HETATM    3  C3  UNL     1     -35.164   6.756   3.544  1.00 20.00     0.034 C 
HETATM    4  C4  UNL     1     -33.392   6.991   4.622  1.00 20.00     0.034 C 
HETATM    5  C5  UNL     1     -34.062   7.886   3.508  1.00 20.00    -0.004 C 
HETATM    6  C6  UNL     1     -33.862   5.874   3.616  1.00 20.00     0.079 C 
HETATM    7  O7  UNL     1     -32.494   5.455   1.460  1.00 20.00    -0.296 OA
HETATM    8 BR8  UNL     1     -33.965   4.079   4.178  1.00 20.00    -0.077 Br
ENDROOT
TORSDOF 0
ENDMDL
MODEL 4
REMARK VINA RESULT:       0.1      1.946      2.613
REMARK  0 active torsions:
REMARK  status: ('A' for Active; 'I' for Inactive)
ROOT
HETATM    1  C1  UNL     1     -32.921   7.620   3.213  1.00 20.00     0.146 C 
HETATM    2  C2  UNL     1     -33.844   7.895   4.395  1.00 20.00     0.084 C 
HETATM    3  C3  UNL     1     -35.174   6.624   2.682  1.00 20.00     0.034 C 
HETATM    4  C4  UNL     1     -33.969   5.433   3.902  1.00 20.00     0.034 C 
HETATM    5  C5  UNL     1     -34.838   6.712   4.222  1.00 20.00    -0.004 C 
HETATM    6  C6  UNL     1     -33.630   6.320   2.645  1.00 20.00     0.079 C 
HETATM    7  O7  UNL     1     -31.948   8.271   2.887  1.00 20.00    -0.296 OA
HETATM    8 BR8  UNL     1     -32.857   5.535   1.117  1.00 20.00    -0.077 Br
ENDROOT
TORSDOF 0
ENDMDL
MODEL 5
REMARK VINA RESULT:       0.4      2.353      3.117
REMARK  0 active torsions:
REMARK  status: ('A' for Active; 'I' for Inactive)
ROOT
HETATM    1  C1  UNL     1     -33.508   6.951   3.152  1.00 20.00     0.146 C 
HETATM    2  C2  UNL     1     -33.816   5.458   3.139  1.00 20.00     0.084 C 
HETATM    3  C3  UNL     1     -33.518   6.185   0.751  1.00 20.00     0.034 C 
HETATM    4  C4  UNL     1     -31.736   5.809   1.771  1.00 20.00     0.034 C 
HETATM    5  C5  UNL     1     -33.130   5.070   1.799  1.00 20.00    -0.004 C 
HETATM    6  C6  UNL     1     -32.706   7.050   1.787  1.00 20.00     0.079 C 
HETATM    7  O7  UNL     1     -33.831   7.749   4.010  1.00 20.00    -0.296 OA
HETATM    8 BR8  UNL     1     -32.068   8.754   1.303  1.00 20.00    -0.077 Br
ENDROOT
TORSDOF 0
ENDMDL
MODEL 6
REMARK VINA RESULT:       0.5      2.510      3.388
REMARK  0 active torsions:
REMARK  status: ('A' for Active; 'I' for Inactive)
ROOT
HETATM    1  C1  UNL     1     -33.193   7.270   3.164  1.00 20.00     0.146 C 
HETATM    2  C2  UNL     1     -32.421   7.922   2.023  1.00 20.00     0.084 C 
HETATM    3  C3  UNL     1     -31.784   5.491   2.068  1.00 20.00     0.034 C 
HETATM    4  C4  UNL     1     -33.580   5.898   1.085  1.00 20.00     0.034 C 
HETATM    5  C5  UNL     1     -32.207   6.677   1.117  1.00 20.00    -0.004 C 
HETATM    6  C6  UNL     1     -33.231   5.782   2.617  1.00 20.00     0.079 C 
HETATM    7  O7  UNL     1     -33.613   7.822   4.162  1.00 20.00    -0.296 OA
HETATM    8 BR8  UNL     1     -34.109   4.509   3.692  1.00 20.00    -0.077 Br
ENDROOT
TORSDOF 0
ENDMDL
MODEL 7
REMARK VINA RESULT:       0.5      2.309      3.176
REMARK  0 active torsions:
REMARK  status: ('A' for Active; 'I' for Inactive)
ROOT
HETATM    1  C1  UNL     1     -32.912   6.404   2.107  1.00 20.00     0.146 C 
HETATM    2  C2  UNL     1     -31.958   7.558   1.822  1.00 20.00     0.084 C 
HETATM    3  C3  UNL     1     -34.049   8.540   2.812  1.00 20.00     0.034 C 
HETATM    4  C4  UNL     1     -32.703   7.775   4.213  1.00 20.00     0.034 C 
HETATM    5  C5  UNL     1     -32.472   8.579   2.875  1.00 20.00    -0.004 C 
HETATM    6  C6  UNL     1     -33.754   7.065   3.278  1.00 20.00     0.079 C 
HETATM    7  O7  UNL     1     -32.937   5.328   1.543  1.00 20.00    -0.296 OA
HETATM    8 BR8  UNL     1     -35.128   6.017   4.026  1.00 20.00    -0.077 Br
ENDROOT
TORSDOF 0
ENDMDL
MODEL 8
REMARK VINA RESULT:       0.8      2.729      3.638
REMARK  0 active torsions:
REMARK  status: ('A' for Active; 'I' for Inactive)
ROOT
HETATM    1  C1  UNL     1     -32.670   6.312   1.850  1.00 20.00     0.146 C 
HETATM    2  C2  UNL     1     -31.591   6.955   0.986  1.00 20.00     0.084 C 
HETATM    3  C3  UNL     1     -33.150   8.783   1.726  1.00 20.00     0.034 C 
HETATM    4  C4  UNL     1     -31.704   8.253   3.135  1.00 20.00     0.034 C 
HETATM    5  C5  UNL     1     -31.628   8.397   1.566  1.00 20.00    -0.004 C 
HETATM    6  C6  UNL     1     -33.065   7.571   2.729  1.00 20.00     0.079 C 
HETATM    7  O7  UNL     1     -33.043   5.157   1.799  1.00 20.00    -0.296 OA
HETATM    8 BR8  UNL     1     -34.414   7.313   4.017  1.00 20.00    -0.077 Br
ENDROOT
TORSDOF 0
ENDMDL
MODEL 9
REMARK VINA RESULT:       1.0      2.020      2.666
REMARK  0 active torsions:
REMARK  status: ('A' for Active; 'I' for Inactive)
ROOT
HETATM    1  C1  UNL     1     -33.567   6.542   3.086  1.00 20.00     0.146 C 
HETATM    2  C2  UNL     1     -33.432   7.968   3.610  1.00 20.00     0.084 C 
HETATM    3  C3  UNL     1     -31.340   7.438   2.319  1.00 20.00     0.034 C 
HETATM    4  C4  UNL     1     -32.960   8.026   1.141  1.00 20.00     0.034 C 
HETATM    5  C5  UNL     1     -32.451   8.536   2.545  1.00 20.00    -0.004 C 
HETATM    6  C6  UNL     1     -32.612   6.651   1.826  1.00 20.00     0.079 C 
HETATM    7  O7  UNL     1     -34.242   5.655   3.570  1.00 20.00    -0.296 OA
HETATM    8 BR8  UNL     1     -32.415   5.098   0.779  1.00 20.00    -0.077 Br
ENDROOT
TORSDOF 0
ENDMDL
