MODEL 1
REMARK VINA RESULT:       1.1      0.000      0.000
REMARK  3 active torsions:
REMARK  status: ('A' for Active; 'I' for Inactive)
REMARK    1  A    between atoms: C1_1  and  C9_9 
REMARK    2  A    between atoms: C1_1  and  O11_11 
REMARK    3  A    between atoms: C8_8  and  C9_9 
ROOT
HETATM    1  C2  UNL     1     -32.850   7.571   3.119  1.00 20.00     0.005 C 
HETATM    2  C3  UNL     1     -33.736   7.862   4.342  1.00 20.00     0.005 C 
HETATM    3  C4  UNL     1     -34.745   6.376   2.030  1.00 20.00     0.005 C 
HETATM    4  C5  UNL     1     -35.631   6.666   3.251  1.00 20.00     0.005 C 
HETATM    5  C6  UNL     1     -33.349   6.188   2.653  1.00 20.00    -0.010 C 
HETATM    6  C7  UNL     1     -34.632   6.610   4.422  1.00 20.00    -0.010 C 
HETATM    7  C8  UNL     1     -33.644   5.511   4.001  1.00 20.00     0.003 C 
ENDROOT
BRANCH   7   8
HETATM    8  C9  UNL     1     -34.194   4.095   3.939  1.00 20.00     0.115 C 
BRANCH   8   9
HETATM    9  C1  UNL     1     -33.328   3.121   4.694  1.00 20.00     0.139 C 
HETATM   10  O10 UNL     1     -32.471   3.404   5.518  1.00 20.00    -0.650 OA
BRANCH   9  11
HETATM   11  O11 UNL     1     -33.631   1.849   4.327  1.00 20.00    -0.776 OA
HETATM   12  H25 UNL     1     -33.127   1.189   4.848  1.00 20.00     0.167 HD
ENDBRANCH   9  11
ENDBRANCH   8   9
ENDBRANCH   7   8
TORSDOF 3
ENDMDL
MODEL 2
REMARK VINA RESULT:       1.2      4.452      5.699
REMARK  3 active torsions:
REMARK  status: ('A' for Active; 'I' for Inactive)
REMARK    1  A    between atoms: C1_1  and  C9_9 
REMARK    2  A    between atoms: C1_1  and  O11_11 
REMARK    3  A    between atoms: C8_8  and  C9_9 
ROOT
HETATM    1  C2  UNL     1     -33.950   6.585   2.933  1.00 20.00     0.005 C 
HETATM    2  C3  UNL     1     -33.149   7.587   3.783  1.00 20.00     0.005 C 
HETATM    3  C4  UNL     1     -31.913   6.103   1.582  1.00 20.00     0.005 C 
HETATM    4  C5  UNL     1     -31.112   7.103   2.430  1.00 20.00     0.005 C 
HETATM    5  C6  UNL     1     -33.316   6.737   1.535  1.00 20.00    -0.010 C 
HETATM    6  C7  UNL     1     -32.157   8.185   2.765  1.00 20.00    -0.010 C 
HETATM    7  C8  UNL     1     -33.030   8.246   1.502  1.00 20.00     0.003 C 
ENDROOT
BRANCH   7   8
HETATM    8  C9  UNL     1     -32.361   8.779   0.244  1.00 20.00     0.115 C 
BRANCH   8   9
HETATM    9  C1  UNL     1     -32.652  10.241   0.029  1.00 20.00     0.139 C 
HETATM   10  O10 UNL     1     -32.322  11.160   0.764  1.00 20.00    -0.650 OA
BRANCH   9  11
HETATM   11  O11 UNL     1     -33.351  10.410  -1.123  1.00 20.00    -0.776 OA
HETATM   12  H25 UNL     1     -32.836  10.127  -1.908  1.00 20.00     0.167 HD
ENDBRANCH   9  11
ENDBRANCH   8   9
ENDBRANCH   7   8
TORSDOF 3
ENDMDL
MODEL 3
REMARK VINA RESULT:       1.3      2.351      3.029
REMARK  3 active torsions:
REMARK  status: ('A' for Active; 'I' for Inactive)
REMARK    1  A    between atoms: C1_1  and  C9_9 
REMARK    2  A    between atoms: C1_1  and  O11_11 
REMARK    3  A    between atoms: C8_8  and  C9_9 
ROOT
HETATM    1  C2  UNL     1     -31.219   7.315   1.536  1.00 20.00     0.005 C 
HETATM    2  C3  UNL     1     -32.509   8.075   1.181  1.00 20.00     0.005 C 
HETATM    3  C4  UNL     1     -32.261   5.187   0.763  1.00 20.00     0.005 C 
HETATM    4  C5  UNL     1     -33.549   5.946   0.408  1.00 20.00     0.005 C 
HETATM    5  C6  UNL     1     -31.746   5.943   2.003  1.00 20.00    -0.010 C 
HETATM    6  C7  UNL     1     -33.612   7.042   1.489  1.00 20.00    -0.010 C 
HETATM    7  C8  UNL     1     -33.033   6.354   2.735  1.00 20.00     0.003 C 
ENDROOT
BRANCH   7   8
HETATM    8  C9  UNL     1     -33.862   5.226   3.329  1.00 20.00     0.115 C 
BRANCH   8   9
HETATM    9  C1  UNL     1     -35.019   5.745   4.141  1.00 20.00     0.139 C 
HETATM   10  O10 UNL     1     -35.342   6.916   4.273  1.00 20.00    -0.650 OA
BRANCH   9  11
HETATM   11  O11 UNL     1     -35.677   4.711   4.725  1.00 20.00    -0.776 OA
HETATM   12  H25 UNL     1     -35.891   4.003   4.081  1.00 20.00     0.167 HD
ENDBRANCH   9  11
ENDBRANCH   8   9
ENDBRANCH   7   8
TORSDOF 3
ENDMDL
MODEL 4
REMARK VINA RESULT:       1.3      0.696      1.065
REMARK  3 active torsions:
REMARK  status: ('A' for Active; 'I' for Inactive)
REMARK    1  A    between atoms: C1_1  and  C9_9 
REMARK    2  A    between atoms: C1_1  and  O11_11 
REMARK    3  A    between atoms: C8_8  and  C9_9 
ROOT
HETATM    1  C2  UNL     1     -33.077   6.857   1.711  1.00 20.00     0.005 C 
HETATM    2  C3  UNL     1     -32.503   7.499   2.986  1.00 20.00     0.005 C 
HETATM    3  C4  UNL     1     -35.309   6.680   2.806  1.00 20.00     0.005 C 
HETATM    4  C5  UNL     1     -34.736   7.321   4.079  1.00 20.00     0.005 C 
HETATM    5  C6  UNL     1     -34.119   5.864   2.265  1.00 20.00    -0.010 C 
HETATM    6  C7  UNL     1     -33.289   6.793   4.109  1.00 20.00    -0.010 C 
HETATM    7  C8  UNL     1     -33.411   5.372   3.538  1.00 20.00     0.003 C 
ENDROOT
BRANCH   7   8
HETATM    8  C9  UNL     1     -34.171   4.366   4.387  1.00 20.00     0.115 C 
BRANCH   8   9
HETATM    9  C1  UNL     1     -33.310   3.193   4.775  1.00 20.00     0.139 C 
HETATM   10  O10 UNL     1     -32.374   3.211   5.560  1.00 20.00    -0.650 OA
BRANCH   9  11
HETATM   11  O11 UNL     1     -33.721   2.078   4.118  1.00 20.00    -0.776 OA
HETATM   12  H25 UNL     1     -33.384   1.259   4.539  1.00 20.00     0.167 HD
ENDBRANCH   9  11
ENDBRANCH   8   9
ENDBRANCH   7   8
TORSDOF 3
ENDMDL
MODEL 5
REMARK VINA RESULT:       1.5      4.427      5.812
REMARK  3 active torsions:
REMARK  status: ('A' for Active; 'I' for Inactive)
REMARK    1  A    between atoms: C1_1  and  C9_9 
REMARK    2  A    between atoms: C1_1  and  O11_11 
REMARK    3  A    between atoms: C8_8  and  C9_9 
ROOT
HETATM    1  C2  UNL     1     -31.976   6.060   1.625  1.00 20.00     0.005 C 
HETATM    2  C3  UNL     1     -33.316   6.028   2.380  1.00 20.00     0.005 C 
HETATM    3  C4  UNL     1     -31.246   8.004   3.003  1.00 20.00     0.005 C 
HETATM    4  C5  UNL     1     -32.584   7.972   3.757  1.00 20.00     0.005 C 
HETATM    5  C6  UNL     1     -31.642   7.565   1.580  1.00 20.00    -0.010 C 
HETATM    6  C7  UNL     1     -33.580   7.519   2.674  1.00 20.00    -0.010 C 
HETATM    7  C8  UNL     1     -33.041   8.173   1.392  1.00 20.00     0.003 C 
ENDROOT
BRANCH   7   8
HETATM    8  C9  UNL     1     -33.115   9.690   1.325  1.00 20.00     0.115 C 
BRANCH   8   9
HETATM    9  C1  UNL     1     -32.665  10.217  -0.012  1.00 20.00     0.139 C 
HETATM   10  O10 UNL     1     -32.953   9.755  -1.105  1.00 20.00    -0.650 OA
BRANCH   9  11
HETATM   11  O11 UNL     1     -31.872  11.306   0.162  1.00 20.00    -0.776 OA
HETATM   12  H25 UNL     1     -31.567  11.676  -0.693  1.00 20.00     0.167 HD
ENDBRANCH   9  11
ENDBRANCH   8   9
ENDBRANCH   7   8
TORSDOF 3
ENDMDL
MODEL 6
REMARK VINA RESULT:       1.6      2.388      3.561
REMARK  3 active torsions:
REMARK  status: ('A' for Active; 'I' for Inactive)
REMARK    1  A    between atoms: C1_1  and  C9_9 
REMARK    2  A    between atoms: C1_1  and  O11_11 
REMARK    3  A    between atoms: C8_8  and  C9_9 
ROOT
HETATM    1  C2  UNL     1     -32.184   8.961   0.783  1.00 20.00     0.005 C 
HETATM    2  C3  UNL     1     -33.060   7.879   0.129  1.00 20.00     0.005 C 
HETATM    3  C4  UNL     1     -31.061   7.217   2.164  1.00 20.00     0.005 C 
HETATM    4  C5  UNL     1     -31.936   6.136   1.510  1.00 20.00     0.005 C 
HETATM    5  C6  UNL     1     -32.004   8.434   2.221  1.00 20.00    -0.010 C 
HETATM    6  C7  UNL     1     -33.271   6.868   1.274  1.00 20.00    -0.010 C 
HETATM    7  C8  UNL     1     -33.383   7.811   2.483  1.00 20.00     0.003 C 
ENDROOT
BRANCH   7   8
HETATM    8  C9  UNL     1     -33.579   7.150   3.839  1.00 20.00     0.115 C 
BRANCH   8   9
HETATM    9  C1  UNL     1     -34.715   6.160   3.823  1.00 20.00     0.139 C 
HETATM   10  O10 UNL     1     -35.900   6.421   3.678  1.00 20.00    -0.650 OA
BRANCH   9  11
HETATM   11  O11 UNL     1     -34.235   4.901   3.996  1.00 20.00    -0.776 OA
HETATM   12  H25 UNL     1     -33.282   4.902   4.225  1.00 20.00     0.167 HD
ENDBRANCH   9  11
ENDBRANCH   8   9
ENDBRANCH   7   8
TORSDOF 3
ENDMDL
MODEL 7
REMARK VINA RESULT:       1.6      1.925      2.646
REMARK  3 active torsions:
REMARK  status: ('A' for Active; 'I' for Inactive)
REMARK    1  A    between atoms: C1_1  and  C9_9 
REMARK    2  A    between atoms: C1_1  and  O11_11 
REMARK    3  A    between atoms: C8_8  and  C9_9 
ROOT
HETATM    1  C2  UNL     1     -31.176   5.888   1.509  1.00 20.00     0.005 C 
HETATM    2  C3  UNL     1     -31.431   7.405   1.514  1.00 20.00     0.005 C 
HETATM    3  C4  UNL     1     -33.477   5.504   0.633  1.00 20.00     0.005 C 
HETATM    4  C5  UNL     1     -33.731   7.019   0.637  1.00 20.00     0.005 C 
HETATM    5  C6  UNL     1     -32.561   5.306   1.856  1.00 20.00    -0.010 C 
HETATM    6  C7  UNL     1     -32.930   7.501   1.861  1.00 20.00    -0.010 C 
HETATM    7  C8  UNL     1     -33.075   6.345   2.864  1.00 20.00     0.003 C 
ENDROOT
BRANCH   7   8
HETATM    8  C9  UNL     1     -34.469   6.110   3.426  1.00 20.00     0.115 C 
BRANCH   8   9
HETATM    9  C1  UNL     1     -34.567   4.795   4.154  1.00 20.00     0.139 C 
HETATM   10  O10 UNL     1     -33.737   3.898   4.142  1.00 20.00    -0.650 OA
BRANCH   9  11
HETATM   11  O11 UNL     1     -35.734   4.734   4.846  1.00 20.00    -0.776 OA
HETATM   12  H25 UNL     1     -35.583   4.609   5.806  1.00 20.00     0.167 HD
ENDBRANCH   9  11
ENDBRANCH   8   9
ENDBRANCH   7   8
TORSDOF 3
ENDMDL
MODEL 8
REMARK VINA RESULT:       1.7      2.377      3.302
REMARK  3 active torsions:
REMARK  status: ('A' for Active; 'I' for Inactive)
REMARK    1  A    between atoms: C1_1  and  C9_9 
REMARK    2  A    between atoms: C1_1  and  O11_11 
REMARK    3  A    between atoms: C8_8  and  C9_9 
ROOT
HETATM    1  C2  UNL     1     -31.636   5.744   1.392  1.00 20.00     0.005 C 
HETATM    2  C3  UNL     1     -30.972   7.087   1.744  1.00 20.00     0.005 C 
HETATM    3  C4  UNL     1     -33.727   6.943   0.760  1.00 20.00     0.005 C 
HETATM    4  C5  UNL     1     -33.064   8.284   1.112  1.00 20.00     0.005 C 
HETATM    5  C6  UNL     1     -33.109   5.975   1.787  1.00 20.00    -0.010 C 
HETATM    6  C7  UNL     1     -32.149   7.917   2.295  1.00 20.00    -0.010 C 
HETATM    7  C8  UNL     1     -32.946   6.839   3.046  1.00 20.00     0.003 C 
ENDROOT
BRANCH   7   8
HETATM    8  C9  UNL     1     -34.229   7.296   3.722  1.00 20.00     0.115 C 
BRANCH   8   9
HETATM    9  C1  UNL     1     -35.201   6.161   3.909  1.00 20.00     0.139 C 
HETATM   10  O10 UNL     1     -34.975   5.101   4.473  1.00 20.00    -0.650 OA
BRANCH   9  11
HETATM   11  O11 UNL     1     -36.398   6.480   3.352  1.00 20.00    -0.776 OA
HETATM   12  H25 UNL     1     -36.415   6.291   2.390  1.00 20.00     0.167 HD
ENDBRANCH   9  11
ENDBRANCH   8   9
ENDBRANCH   7   8
TORSDOF 3
ENDMDL
MODEL 9
REMARK VINA RESULT:       1.7      2.566      3.613
REMARK  3 active torsions:
REMARK  status: ('A' for Active; 'I' for Inactive)
REMARK    1  A    between atoms: C1_1  and  C9_9 
REMARK    2  A    between atoms: C1_1  and  O11_11 
REMARK    3  A    between atoms: C8_8  and  C9_9 
ROOT
HETATM    1  C2  UNL     1     -32.872   5.135   0.252  1.00 20.00     0.005 C 
HETATM    2  C3  UNL     1     -31.569   5.025   1.062  1.00 20.00     0.005 C 
HETATM    3  C4  UNL     1     -33.097   7.520   0.938  1.00 20.00     0.005 C 
HETATM    4  C5  UNL     1     -31.795   7.411   1.746  1.00 20.00     0.005 C 
HETATM    5  C6  UNL     1     -33.716   6.117   1.090  1.00 20.00    -0.010 C 
HETATM    6  C7  UNL     1     -31.830   5.959   2.261  1.00 20.00    -0.010 C 
HETATM    7  C8  UNL     1     -33.323   5.702   2.516  1.00 20.00     0.003 C 
ENDROOT
BRANCH   7   8
HETATM    8  C9  UNL     1     -33.960   6.492   3.649  1.00 20.00     0.115 C 
BRANCH   8   9
HETATM    9  C1  UNL     1     -35.415   6.148   3.827  1.00 20.00     0.139 C 
HETATM   10  O10 UNL     1     -36.363   6.738   3.331  1.00 20.00    -0.650 OA
BRANCH   9  11
HETATM   11  O11 UNL     1     -35.540   5.063   4.633  1.00 20.00    -0.776 OA
HETATM   12  H25 UNL     1     -35.027   5.164   5.463  1.00 20.00     0.167 HD
ENDBRANCH   9  11
ENDBRANCH   8   9
ENDBRANCH   7   8
TORSDOF 3
ENDMDL
