MODEL 1
REMARK VINA RESULT:       0.0      0.000      0.000
REMARK  0 active torsions:
REMARK  status: ('A' for Active; 'I' for Inactive)
ROOT
HETATM    1  C1  UNL     1     -32.093   6.527   1.512  1.00 20.00     0.013 C 
HETATM    2  C2  UNL     1     -33.275   5.592   1.853  1.00 20.00     0.035 C 
HETATM    3  C3  UNL     1     -32.280   8.025   1.854  1.00 20.00     0.074 C 
HETATM    4  C4  UNL     1     -33.730   7.980   4.387  1.00 20.00     0.108 C 
HETATM    5  C5  UNL     1     -33.613   5.769   3.280  1.00 20.00     0.152 A 
HETATM    6  C6  UNL     1     -34.398   7.039   3.477  1.00 20.00     0.160 A 
HETATM    7  O7  UNL     1     -34.921   5.765   3.838  1.00 20.00    -0.375 OA
HETATM    8  S8  UNL     1     -32.115   8.498   3.643  1.00 20.00    -0.166 SA
ENDROOT
TORSDOF 0
ENDMDL
MODEL 2
REMARK VINA RESULT:       0.1      2.251      3.491
REMARK  0 active torsions:
REMARK  status: ('A' for Active; 'I' for Inactive)
ROOT
HETATM    1  C1  UNL     1     -34.269   7.431   4.436  1.00 20.00     0.013 C 
HETATM    2  C2  UNL     1     -33.459   8.420   3.567  1.00 20.00     0.035 C 
HETATM    3  C3  UNL     1     -34.866   6.205   3.706  1.00 20.00     0.074 C 
HETATM    4  C4  UNL     1     -32.797   5.470   1.782  1.00 20.00     0.108 C 
HETATM    5  C5  UNL     1     -32.406   7.665   2.858  1.00 20.00     0.152 A 
HETATM    6  C6  UNL     1     -32.994   6.923   1.687  1.00 20.00     0.160 A 
HETATM    7  O7  UNL     1     -31.963   7.892   1.527  1.00 20.00    -0.375 OA
HETATM    8  S8  UNL     1     -33.687   4.834   3.277  1.00 20.00    -0.166 SA
ENDROOT
TORSDOF 0
ENDMDL
MODEL 3
REMARK VINA RESULT:       0.1      2.097      2.706
REMARK  0 active torsions:
REMARK  status: ('A' for Active; 'I' for Inactive)
ROOT
HETATM    1  C1  UNL     1     -33.258   5.007   1.886  1.00 20.00     0.013 C 
HETATM    2  C2  UNL     1     -32.240   6.099   1.482  1.00 20.00     0.035 C 
HETATM    3  C3  UNL     1     -33.725   5.016   3.361  1.00 20.00     0.074 C 
HETATM    4  C4  UNL     1     -33.941   7.856   4.001  1.00 20.00     0.108 C 
HETATM    5  C5  UNL     1     -32.798   7.416   1.850  1.00 20.00     0.152 A 
HETATM    6  C6  UNL     1     -32.650   7.650   3.330  1.00 20.00     0.160 A 
HETATM    7  O7  UNL     1     -32.068   8.521   2.367  1.00 20.00    -0.375 OA
HETATM    8  S8  UNL     1     -34.962   6.319   3.835  1.00 20.00    -0.166 SA
ENDROOT
TORSDOF 0
ENDMDL
MODEL 4
REMARK VINA RESULT:       0.7      1.538      2.710
REMARK  0 active torsions:
REMARK  status: ('A' for Active; 'I' for Inactive)
ROOT
HETATM    1  C1  UNL     1     -34.322   6.889   3.726  1.00 20.00     0.013 C 
HETATM    2  C2  UNL     1     -33.955   5.547   3.053  1.00 20.00     0.035 C 
HETATM    3  C3  UNL     1     -33.182   7.927   3.856  1.00 20.00     0.074 C 
HETATM    4  C4  UNL     1     -31.692   7.633   1.362  1.00 20.00     0.108 C 
HETATM    5  C5  UNL     1     -33.353   5.836   1.735  1.00 20.00     0.152 A 
HETATM    6  C6  UNL     1     -31.926   6.286   1.901  1.00 20.00     0.160 A 
HETATM    7  O7  UNL     1     -32.271   5.135   1.137  1.00 20.00    -0.375 OA
HETATM    8  S8  UNL     1     -32.716   8.850   2.312  1.00 20.00    -0.166 SA
ENDROOT
TORSDOF 0
ENDMDL
MODEL 5
REMARK VINA RESULT:       0.8      1.590      2.621
REMARK  0 active torsions:
REMARK  status: ('A' for Active; 'I' for Inactive)
ROOT
HETATM    1  C1  UNL     1     -33.771   8.109   3.360  1.00 20.00     0.013 C 
HETATM    2  C2  UNL     1     -34.623   7.307   4.370  1.00 20.00     0.035 C 
HETATM    3  C3  UNL     1     -32.523   7.393   2.793  1.00 20.00     0.074 C 
HETATM    4  C4  UNL     1     -33.407   4.632   2.449  1.00 20.00     0.108 C 
HETATM    5  C5  UNL     1     -34.992   6.019   3.750  1.00 20.00     0.152 A 
HETATM    6  C6  UNL     1     -33.825   5.068   3.789  1.00 20.00     0.160 A 
HETATM    7  O7  UNL     1     -35.069   4.762   4.410  1.00 20.00    -0.375 OA
HETATM    8  S8  UNL     1     -32.823   6.104   1.488  1.00 20.00    -0.166 SA
ENDROOT
TORSDOF 0
ENDMDL
MODEL 6
REMARK VINA RESULT:       1.4      1.840      2.507
REMARK  0 active torsions:
REMARK  status: ('A' for Active; 'I' for Inactive)
ROOT
HETATM    1  C1  UNL     1     -31.852   7.803   1.526  1.00 20.00     0.013 C 
HETATM    2  C2  UNL     1     -32.399   8.537   2.772  1.00 20.00     0.035 C 
HETATM    3  C3  UNL     1     -31.765   6.262   1.618  1.00 20.00     0.074 C 
HETATM    4  C4  UNL     1     -34.167   5.522   3.103  1.00 20.00     0.108 C 
HETATM    5  C5  UNL     1     -33.711   7.955   3.117  1.00 20.00     0.152 A 
HETATM    6  C6  UNL     1     -33.529   6.635   3.819  1.00 20.00     0.160 A 
HETATM    7  O7  UNL     1     -34.209   7.727   4.429  1.00 20.00    -0.375 OA
HETATM    8  S8  UNL     1     -33.360   5.325   1.447  1.00 20.00    -0.166 SA
ENDROOT
TORSDOF 0
ENDMDL
MODEL 7
REMARK VINA RESULT:       1.4      1.787      2.524
REMARK  0 active torsions:
REMARK  status: ('A' for Active; 'I' for Inactive)
ROOT
HETATM    1  C1  UNL     1     -32.097   8.559   2.281  1.00 20.00     0.013 C 
HETATM    2  C2  UNL     1     -31.661   7.474   1.269  1.00 20.00     0.035 C 
HETATM    3  C3  UNL     1     -33.557   8.479   2.787  1.00 20.00     0.074 C 
HETATM    4  C4  UNL     1     -34.039   5.613   3.061  1.00 20.00     0.108 C 
HETATM    5  C5  UNL     1     -31.944   6.148   1.856  1.00 20.00     0.152 A 
HETATM    6  C6  UNL     1     -33.413   5.834   1.750  1.00 20.00     0.160 A 
HETATM    7  O7  UNL     1     -32.419   5.006   1.156  1.00 20.00    -0.375 OA
HETATM    8  S8  UNL     1     -33.930   7.174   4.054  1.00 20.00    -0.166 SA
ENDROOT
TORSDOF 0
ENDMDL
MODEL 8
REMARK VINA RESULT:       1.6      1.516      2.169
REMARK  0 active torsions:
REMARK  status: ('A' for Active; 'I' for Inactive)
ROOT
HETATM    1  C1  UNL     1     -33.534   4.927   2.626  1.00 20.00     0.013 C 
HETATM    2  C2  UNL     1     -34.389   5.661   3.684  1.00 20.00     0.035 C 
HETATM    3  C3  UNL     1     -33.087   5.764   1.404  1.00 20.00     0.074 C 
HETATM    4  C4  UNL     1     -32.496   8.387   2.541  1.00 20.00     0.108 C 
HETATM    5  C5  UNL     1     -33.663   6.873   4.113  1.00 20.00     0.152 A 
HETATM    6  C6  UNL     1     -33.795   7.955   3.075  1.00 20.00     0.160 A 
HETATM    7  O7  UNL     1     -34.243   8.135   4.413  1.00 20.00    -0.375 OA
HETATM    8  S8  UNL     1     -31.690   6.959   1.678  1.00 20.00    -0.166 SA
ENDROOT
TORSDOF 0
ENDMDL
