MODEL 1
REMARK VINA RESULT:       2.5      0.000      0.000
REMARK  1 active torsions:
REMARK  status: ('A' for Active; 'I' for Inactive)
REMARK    1  A    between atoms: C7_7  and  N8_8 
ROOT
HETATM    1  C1  UNL     1     -32.586   5.680   1.757  1.00 20.00     0.137 C 
HETATM    2  C2  UNL     1     -33.686   7.419   2.996  1.00 20.00     0.140 C 
HETATM    3  C3  UNL     1     -34.140   6.203   3.786  1.00 20.00     0.068 C 
HETATM    4  C4  UNL     1     -35.586   6.289   4.237  1.00 20.00     0.023 C 
HETATM    5  N8  UNL     1     -32.593   7.019   2.124  1.00 20.00    -0.361 N 
HETATM    6  S9  UNL     1     -31.576   4.897   0.681  1.00 20.00    -0.053 SA
HETATM    7  S10 UNL     1     -33.873   4.835   2.625  1.00 20.00    -0.095 SA
ENDROOT
BRANCH   5   8
HETATM    8  C7  UNL     1     -31.738   8.068   1.580  1.00 20.00     0.077 C 
HETATM    9  C5  UNL     1     -31.031   8.778   2.725  1.00 20.00     0.032 C 
HETATM   10  C6  UNL     1     -32.593   9.027   0.764  1.00 20.00     0.032 C 
ENDBRANCH   5   8
TORSDOF 1
ENDMDL
MODEL 2
REMARK VINA RESULT:       2.5      2.050      3.073
REMARK  1 active torsions:
REMARK  status: ('A' for Active; 'I' for Inactive)
REMARK    1  A    between atoms: C7_7  and  N8_8 
ROOT
HETATM    1  C1  UNL     1     -32.848   7.362   2.413  1.00 20.00     0.137 C 
HETATM    2  C2  UNL     1     -33.933   5.245   2.752  1.00 20.00     0.140 C 
HETATM    3  C3  UNL     1     -34.864   6.150   3.541  1.00 20.00     0.068 C 
HETATM    4  C4  UNL     1     -35.354   5.522   4.833  1.00 20.00     0.023 C 
HETATM    5  N8  UNL     1     -33.069   6.079   1.930  1.00 20.00    -0.361 N 
HETATM    6  S9  UNL     1     -31.826   8.540   1.815  1.00 20.00    -0.053 SA
HETATM    7  S10 UNL     1     -33.847   7.621   3.847  1.00 20.00    -0.095 SA
ENDROOT
BRANCH   5   8
HETATM    8  C7  UNL     1     -32.387   5.449   0.806  1.00 20.00     0.077 C 
HETATM    9  C5  UNL     1     -33.375   4.573   0.050  1.00 20.00     0.032 C 
HETATM   10  C6  UNL     1     -31.208   4.644   1.333  1.00 20.00     0.032 C 
ENDBRANCH   5   8
TORSDOF 1
ENDMDL
MODEL 3
REMARK VINA RESULT:       2.5      1.445      3.711
REMARK  1 active torsions:
REMARK  status: ('A' for Active; 'I' for Inactive)
REMARK    1  A    between atoms: C7_7  and  N8_8 
ROOT
HETATM    1  C1  UNL     1     -32.852   5.956   1.674  1.00 20.00     0.137 C 
HETATM    2  C2  UNL     1     -33.156   7.247   3.678  1.00 20.00     0.140 C 
HETATM    3  C3  UNL     1     -32.517   8.295   2.781  1.00 20.00     0.068 C 
HETATM    4  C4  UNL     1     -31.522   9.179   3.510  1.00 20.00     0.023 C 
HETATM    5  N8  UNL     1     -33.571   6.125   2.850  1.00 20.00    -0.361 N 
HETATM    6  S9  UNL     1     -32.957   4.721   0.554  1.00 20.00    -0.053 SA
HETATM    7  S10 UNL     1     -31.720   7.301   1.489  1.00 20.00    -0.095 SA
ENDROOT
BRANCH   5   8
HETATM    8  C7  UNL     1     -34.552   5.199   3.403  1.00 20.00     0.077 C 
HETATM    9  C5  UNL     1     -35.492   5.961   4.326  1.00 20.00     0.032 C 
HETATM   10  C6  UNL     1     -33.819   4.087   4.140  1.00 20.00     0.032 C 
ENDBRANCH   5   8
TORSDOF 1
ENDMDL
MODEL 4
REMARK VINA RESULT:       2.5      1.571      3.739
REMARK  1 active torsions:
REMARK  status: ('A' for Active; 'I' for Inactive)
REMARK    1  A    between atoms: C7_7  and  N8_8 
ROOT
HETATM    1  C1  UNL     1     -32.235   6.948   1.541  1.00 20.00     0.137 C 
HETATM    2  C2  UNL     1     -32.941   9.119   2.291  1.00 20.00     0.140 C 
HETATM    3  C3  UNL     1     -32.802   9.385   0.801  1.00 20.00     0.068 C 
HETATM    4  C4  UNL     1     -32.206  10.745   0.489  1.00 20.00     0.023 C 
HETATM    5  N8  UNL     1     -32.915   7.681   2.505  1.00 20.00    -0.361 N 
HETATM    6  S9  UNL     1     -31.891   5.314   1.522  1.00 20.00    -0.053 SA
HETATM    7  S10 UNL     1     -31.731   8.032   0.240  1.00 20.00    -0.095 SA
ENDROOT
BRANCH   5   8
HETATM    8  C7  UNL     1     -33.430   7.173   3.772  1.00 20.00     0.077 C 
HETATM    9  C5  UNL     1     -34.853   6.675   3.568  1.00 20.00     0.032 C 
HETATM   10  C6  UNL     1     -33.364   8.283   4.811  1.00 20.00     0.032 C 
ENDBRANCH   5   8
TORSDOF 1
ENDMDL
MODEL 5
REMARK VINA RESULT:       2.6      2.179      3.183
REMARK  1 active torsions:
REMARK  status: ('A' for Active; 'I' for Inactive)
REMARK    1  A    between atoms: C7_7  and  N8_8 
ROOT
HETATM    1  C1  UNL     1     -34.459   6.162   3.498  1.00 20.00     0.137 C 
HETATM    2  C2  UNL     1     -32.792   4.472   3.129  1.00 20.00     0.140 C 
HETATM    3  C3  UNL     1     -33.803   3.674   3.935  1.00 20.00     0.068 C 
HETATM    4  C4  UNL     1     -33.161   2.730   4.934  1.00 20.00     0.023 C 
HETATM    5  N8  UNL     1     -33.423   5.708   2.693  1.00 20.00    -0.361 N 
HETATM    6  S9  UNL     1     -35.320   7.589   3.387  1.00 20.00    -0.053 SA
HETATM    7  S10 UNL     1     -34.783   4.963   4.755  1.00 20.00    -0.095 SA
ENDROOT
BRANCH   5   8
HETATM    8  C7  UNL     1     -32.805   6.433   1.589  1.00 20.00     0.077 C 
HETATM    9  C5  UNL     1     -31.854   5.503   0.851  1.00 20.00     0.032 C 
HETATM   10  C6  UNL     1     -32.083   7.653   2.143  1.00 20.00     0.032 C 
ENDBRANCH   5   8
TORSDOF 1
ENDMDL
MODEL 6
REMARK VINA RESULT:       2.7      2.094      3.714
REMARK  1 active torsions:
REMARK  status: ('A' for Active; 'I' for Inactive)
REMARK    1  A    between atoms: C7_7  and  N8_8 
ROOT
HETATM    1  C1  UNL     1     -32.607   8.164   1.796  1.00 20.00     0.137 C 
HETATM    2  C2  UNL     1     -33.134   5.873   2.288  1.00 20.00     0.140 C 
HETATM    3  C3  UNL     1     -31.840   5.687   1.513  1.00 20.00     0.068 C 
HETATM    4  C4  UNL     1     -31.869   4.490   0.580  1.00 20.00     0.023 C 
HETATM    5  N8  UNL     1     -33.260   7.278   2.642  1.00 20.00    -0.361 N 
HETATM    6  S9  UNL     1     -32.633   9.834   1.812  1.00 20.00    -0.053 SA
HETATM    7  S10 UNL     1     -31.677   7.249   0.605  1.00 20.00    -0.095 SA
ENDROOT
BRANCH   5   8
HETATM    8  C7  UNL     1     -34.186   7.628   3.712  1.00 20.00     0.077 C 
HETATM    9  C5  UNL     1     -33.392   8.018   4.951  1.00 20.00     0.032 C 
HETATM   10  C6  UNL     1     -35.102   6.443   3.980  1.00 20.00     0.032 C 
ENDBRANCH   5   8
TORSDOF 1
ENDMDL
MODEL 7
REMARK VINA RESULT:       3.2      2.179      4.422
REMARK  1 active torsions:
REMARK  status: ('A' for Active; 'I' for Inactive)
REMARK    1  A    between atoms: C7_7  and  N8_8 
ROOT
HETATM    1  C1  UNL     1     -33.214   7.646   3.733  1.00 20.00     0.137 C 
HETATM    2  C2  UNL     1     -32.983   6.578   1.593  1.00 20.00     0.140 C 
HETATM    3  C3  UNL     1     -31.761   7.482   1.571  1.00 20.00     0.068 C 
HETATM    4  C4  UNL     1     -31.504   8.108   0.213  1.00 20.00     0.023 C 
HETATM    5  N8  UNL     1     -33.497   6.532   2.952  1.00 20.00    -0.361 N 
HETATM    6  S9  UNL     1     -33.742   8.000   5.277  1.00 20.00    -0.053 SA
HETATM    7  S10 UNL     1     -32.152   8.731   2.829  1.00 20.00    -0.095 SA
ENDROOT
BRANCH   5   8
HETATM    8  C7  UNL     1     -34.395   5.438   3.302  1.00 20.00     0.077 C 
HETATM    9  C5  UNL     1     -35.529   5.979   4.161  1.00 20.00     0.032 C 
HETATM   10  C6  UNL     1     -33.601   4.362   4.029  1.00 20.00     0.032 C 
ENDBRANCH   5   8
TORSDOF 1
ENDMDL
MODEL 8
REMARK VINA RESULT:       3.3      1.249      3.634
REMARK  1 active torsions:
REMARK  status: ('A' for Active; 'I' for Inactive)
REMARK    1  A    between atoms: C7_7  and  N8_8 
ROOT
HETATM    1  C1  UNL     1     -33.055   5.392   2.691  1.00 20.00     0.137 C 
HETATM    2  C2  UNL     1     -32.849   7.782   2.564  1.00 20.00     0.140 C 
HETATM    3  C3  UNL     1     -32.434   7.405   1.152  1.00 20.00     0.068 C 
HETATM    4  C4  UNL     1     -31.281   8.239   0.624  1.00 20.00     0.023 C 
HETATM    5  N8  UNL     1     -33.466   6.622   3.188  1.00 20.00    -0.361 N 
HETATM    6  S9  UNL     1     -33.443   3.863   3.239  1.00 20.00    -0.053 SA
HETATM    7  S10 UNL     1     -31.986   5.654   1.309  1.00 20.00    -0.095 SA
ENDROOT
BRANCH   5   8
HETATM    8  C7  UNL     1     -34.294   6.844   4.367  1.00 20.00     0.077 C 
HETATM    9  C5  UNL     1     -35.749   6.577   4.012  1.00 20.00     0.032 C 
HETATM   10  C6  UNL     1     -34.085   8.271   4.854  1.00 20.00     0.032 C 
ENDBRANCH   5   8
TORSDOF 1
ENDMDL
MODEL 9
REMARK VINA RESULT:       3.4      1.366      3.120
REMARK  1 active torsions:
REMARK  status: ('A' for Active; 'I' for Inactive)
REMARK    1  A    between atoms: C7_7  and  N8_8 
ROOT
HETATM    1  C1  UNL     1     -33.557   6.553   2.891  1.00 20.00     0.137 C 
HETATM    2  C2  UNL     1     -31.869   6.614   1.182  1.00 20.00     0.140 C 
HETATM    3  C3  UNL     1     -32.520   5.277   0.865  1.00 20.00     0.068 C 
HETATM    4  C4  UNL     1     -31.522   4.205   0.468  1.00 20.00     0.023 C 
HETATM    5  N8  UNL     1     -32.736   7.341   2.096  1.00 20.00    -0.361 N 
HETATM    6  S9  UNL     1     -34.576   7.023   4.128  1.00 20.00    -0.053 SA
HETATM    7  S10 UNL     1     -33.380   4.863   2.407  1.00 20.00    -0.095 SA
ENDROOT
BRANCH   5   8
HETATM    8  C7  UNL     1     -32.534   8.780   2.221  1.00 20.00     0.077 C 
HETATM    9  C5  UNL     1     -32.216   9.361   0.851  1.00 20.00     0.032 C 
HETATM   10  C6  UNL     1     -31.412   9.036   3.217  1.00 20.00     0.032 C 
ENDBRANCH   5   8
TORSDOF 1
ENDMDL
