MODEL 1
REMARK VINA RESULT:      -1.0      0.000      0.000
REMARK  2 active torsions:
REMARK  status: ('A' for Active; 'I' for Inactive)
REMARK    1  A    between atoms: C1_1  and  C4_4 
REMARK    2  A    between atoms: C1_1  and  C5_5 
ROOT
HETATM    1  C1  UNL     1     -33.119   6.741   2.365  1.00 20.00     0.163 C 
HETATM    2  O6  UNL     1     -33.079   5.882   1.481  1.00 20.00    -0.295 OA
ENDROOT
BRANCH   1   3
HETATM    3  C4  UNL     1     -32.169   7.925   2.367  1.00 20.00     0.194 C 
HETATM    4 CL7  UNL     1     -32.341   8.864   0.873  1.00 20.00    -0.122 Cl
ENDBRANCH   1   3
BRANCH   1   5
HETATM    5  C5  UNL     1     -34.129   6.637   3.519  1.00 20.00     0.091 C 
HETATM    6  C2  UNL     1     -35.553   6.899   3.022  1.00 20.00     0.041 C 
HETATM    7  C3  UNL     1     -33.803   7.588   4.670  1.00 20.00     0.041 C 
HETATM    8 CL8  UNL     1     -34.037   4.942   4.101  1.00 20.00    -0.112 Cl
ENDBRANCH   1   5
TORSDOF 2
ENDMDL
MODEL 2
REMARK VINA RESULT:      -1.0      1.170      1.615
REMARK  2 active torsions:
REMARK  status: ('A' for Active; 'I' for Inactive)
REMARK    1  A    between atoms: C1_1  and  C4_4 
REMARK    2  A    between atoms: C1_1  and  C5_5 
ROOT
HETATM    1  C1  UNL     1     -33.160   6.723   2.415  1.00 20.00     0.163 C 
HETATM    2  O6  UNL     1     -33.072   5.883   1.517  1.00 20.00    -0.295 OA
ENDROOT
BRANCH   1   3
HETATM    3  C4  UNL     1     -32.251   7.938   2.460  1.00 20.00     0.194 C 
HETATM    4 CL7  UNL     1     -32.291   8.802   0.913  1.00 20.00    -0.122 Cl
ENDBRANCH   1   3
BRANCH   1   5
HETATM    5  C5  UNL     1     -34.190   6.563   3.546  1.00 20.00     0.091 C 
HETATM    6  C2  UNL     1     -34.149   5.145   4.123  1.00 20.00     0.041 C 
HETATM    7  C3  UNL     1     -35.611   6.893   3.093  1.00 20.00     0.041 C 
HETATM    8 CL8  UNL     1     -33.691   7.711   4.832  1.00 20.00    -0.112 Cl
ENDBRANCH   1   5
TORSDOF 2
ENDMDL
MODEL 3
REMARK VINA RESULT:      -1.0      2.553      3.748
REMARK  2 active torsions:
REMARK  status: ('A' for Active; 'I' for Inactive)
REMARK    1  A    between atoms: C1_1  and  C4_4 
REMARK    2  A    between atoms: C1_1  and  C5_5 
ROOT
HETATM    1  C1  UNL     1     -34.552   5.031   4.087  1.00 20.00     0.163 C 
HETATM    2  O6  UNL     1     -35.486   4.713   4.827  1.00 20.00    -0.295 OA
ENDROOT
BRANCH   1   3
HETATM    3  C4  UNL     1     -33.474   4.038   3.693  1.00 20.00     0.194 C 
HETATM    4 CL7  UNL     1     -33.134   2.925   5.030  1.00 20.00    -0.122 Cl
ENDBRANCH   1   3
BRANCH   1   5
HETATM    5  C5  UNL     1     -34.433   6.464   3.543  1.00 20.00     0.091 C 
HETATM    6  C2  UNL     1     -33.490   6.513   2.337  1.00 20.00     0.041 C 
HETATM    7  C3  UNL     1     -33.959   7.456   4.605  1.00 20.00     0.041 C 
HETATM    8 CL8  UNL     1     -36.078   6.921   2.992  1.00 20.00    -0.112 Cl
ENDBRANCH   1   5
TORSDOF 2
ENDMDL
MODEL 4
REMARK VINA RESULT:      -0.9      2.354      3.819
REMARK  2 active torsions:
REMARK  status: ('A' for Active; 'I' for Inactive)
REMARK    1  A    between atoms: C1_1  and  C4_4 
REMARK    2  A    between atoms: C1_1  and  C5_5 
ROOT
HETATM    1  C1  UNL     1     -34.524   5.030   4.088  1.00 20.00     0.163 C 
HETATM    2  O6  UNL     1     -35.453   4.676   4.818  1.00 20.00    -0.295 OA
ENDROOT
BRANCH   1   3
HETATM    3  C4  UNL     1     -33.401   4.081   3.713  1.00 20.00     0.194 C 
HETATM    4 CL7  UNL     1     -33.135   2.892   5.000  1.00 20.00    -0.122 Cl
ENDBRANCH   1   3
BRANCH   1   5
HETATM    5  C5  UNL     1     -34.457   6.464   3.538  1.00 20.00     0.091 C 
HETATM    6  C2  UNL     1     -33.893   7.425   4.588  1.00 20.00     0.041 C 
HETATM    7  C3  UNL     1     -35.816   6.970   3.056  1.00 20.00     0.041 C 
HETATM    8 CL8  UNL     1     -33.317   6.407   2.153  1.00 20.00    -0.112 Cl
ENDBRANCH   1   5
TORSDOF 2
ENDMDL
MODEL 5
REMARK VINA RESULT:      -0.7      1.192      1.620
REMARK  2 active torsions:
REMARK  status: ('A' for Active; 'I' for Inactive)
REMARK    1  A    between atoms: C1_1  and  C4_4 
REMARK    2  A    between atoms: C1_1  and  C5_5 
ROOT
HETATM    1  C1  UNL     1     -33.192   6.716   2.389  1.00 20.00     0.163 C 
HETATM    2  O6  UNL     1     -33.132   5.886   1.479  1.00 20.00    -0.295 OA
ENDROOT
BRANCH   1   3
HETATM    3  C4  UNL     1     -32.266   7.918   2.433  1.00 20.00     0.194 C 
HETATM    4 CL7  UNL     1     -32.279   8.770   0.879  1.00 20.00    -0.122 Cl
ENDBRANCH   1   3
BRANCH   1   5
HETATM    5  C5  UNL     1     -34.204   6.555   3.536  1.00 20.00     0.091 C 
HETATM    6  C2  UNL     1     -33.923   7.561   4.655  1.00 20.00     0.041 C 
HETATM    7  C3  UNL     1     -34.218   5.138   4.109  1.00 20.00     0.041 C 
HETATM    8 CL8  UNL     1     -35.811   6.928   2.830  1.00 20.00    -0.112 Cl
ENDBRANCH   1   5
TORSDOF 2
ENDMDL
MODEL 6
REMARK VINA RESULT:      -0.5      1.656      1.824
REMARK  2 active torsions:
REMARK  status: ('A' for Active; 'I' for Inactive)
REMARK    1  A    between atoms: C1_1  and  C4_4 
REMARK    2  A    between atoms: C1_1  and  C5_5 
ROOT
HETATM    1  C1  UNL     1     -33.257   6.788   2.411  1.00 20.00     0.163 C 
HETATM    2  O6  UNL     1     -32.565   7.801   2.283  1.00 20.00    -0.295 OA
ENDROOT
BRANCH   1   3
HETATM    3  C4  UNL     1     -33.210   5.659   1.397  1.00 20.00     0.194 C 
HETATM    4 CL7  UNL     1     -31.542   5.113   1.151  1.00 20.00    -0.122 Cl
ENDBRANCH   1   3
BRANCH   1   5
HETATM    5  C5  UNL     1     -34.217   6.635   3.602  1.00 20.00     0.091 C 
HETATM    6  C2  UNL     1     -35.667   6.860   3.166  1.00 20.00     0.041 C 
HETATM    7  C3  UNL     1     -33.875   7.579   4.754  1.00 20.00     0.041 C 
HETATM    8 CL8  UNL     1     -34.050   4.936   4.153  1.00 20.00    -0.112 Cl
ENDBRANCH   1   5
TORSDOF 2
ENDMDL
MODEL 7
REMARK VINA RESULT:      -0.5      2.029      2.438
REMARK  2 active torsions:
REMARK  status: ('A' for Active; 'I' for Inactive)
REMARK    1  A    between atoms: C1_1  and  C4_4 
REMARK    2  A    between atoms: C1_1  and  C5_5 
ROOT
HETATM    1  C1  UNL     1     -33.278   6.783   2.450  1.00 20.00     0.163 C 
HETATM    2  O6  UNL     1     -32.595   7.807   2.376  1.00 20.00    -0.295 OA
ENDROOT
BRANCH   1   3
HETATM    3  C4  UNL     1     -33.196   5.694   1.396  1.00 20.00     0.194 C 
HETATM    4 CL7  UNL     1     -31.526   5.129   1.213  1.00 20.00    -0.122 Cl
ENDBRANCH   1   3
BRANCH   1   5
HETATM    5  C5  UNL     1     -34.261   6.574   3.614  1.00 20.00     0.091 C 
HETATM    6  C2  UNL     1     -34.154   5.151   4.169  1.00 20.00     0.041 C 
HETATM    7  C3  UNL     1     -35.708   6.864   3.216  1.00 20.00     0.041 C 
HETATM    8 CL8  UNL     1     -33.754   7.721   4.898  1.00 20.00    -0.112 Cl
ENDBRANCH   1   5
TORSDOF 2
ENDMDL
MODEL 8
REMARK VINA RESULT:      -0.4      2.058      3.255
REMARK  2 active torsions:
REMARK  status: ('A' for Active; 'I' for Inactive)
REMARK    1  A    between atoms: C1_1  and  C4_4 
REMARK    2  A    between atoms: C1_1  and  C5_5 
ROOT
HETATM    1  C1  UNL     1     -33.661   5.849   2.993  1.00 20.00     0.163 C 
HETATM    2  O6  UNL     1     -33.600   4.739   3.527  1.00 20.00    -0.295 OA
ENDROOT
BRANCH   1   3
HETATM    3  C4  UNL     1     -34.565   6.943   3.533  1.00 20.00     0.194 C 
HETATM    4 CL7  UNL     1     -33.732   7.874   4.790  1.00 20.00    -0.122 Cl
ENDBRANCH   1   3
BRANCH   1   5
HETATM    5  C5  UNL     1     -32.832   6.166   1.738  1.00 20.00     0.091 C 
HETATM    6  C2  UNL     1     -31.700   5.151   1.562  1.00 20.00     0.041 C 
HETATM    7  C3  UNL     1     -32.254   7.581   1.760  1.00 20.00     0.041 C 
HETATM    8 CL8  UNL     1     -33.958   6.003   0.350  1.00 20.00    -0.112 Cl
ENDBRANCH   1   5
TORSDOF 2
ENDMDL
MODEL 9
REMARK VINA RESULT:      -0.4      2.258      2.820
REMARK  2 active torsions:
REMARK  status: ('A' for Active; 'I' for Inactive)
REMARK    1  A    between atoms: C1_1  and  C4_4 
REMARK    2  A    between atoms: C1_1  and  C5_5 
ROOT
HETATM    1  C1  UNL     1     -32.148   7.837   1.775  1.00 20.00     0.163 C 
HETATM    2  O6  UNL     1     -31.884   8.336   2.871  1.00 20.00    -0.295 OA
ENDROOT
BRANCH   1   3
HETATM    3  C4  UNL     1     -31.837   8.557   0.475  1.00 20.00     0.194 C 
HETATM    4 CL7  UNL     1     -32.601  10.156   0.452  1.00 20.00    -0.122 Cl
ENDBRANCH   1   3
BRANCH   1   5
HETATM    5  C5  UNL     1     -32.827   6.460   1.680  1.00 20.00     0.091 C 
HETATM    6  C2  UNL     1     -31.785   5.338   1.681  1.00 20.00     0.041 C 
HETATM    7  C3  UNL     1     -33.720   6.331   0.447  1.00 20.00     0.041 C 
HETATM    8 CL8  UNL     1     -33.828   6.302   3.161  1.00 20.00    -0.112 Cl
ENDBRANCH   1   5
TORSDOF 2
ENDMDL
