MODEL 1
REMARK VINA RESULT:      -0.2      0.000      0.000
REMARK  0 active torsions:
REMARK  status: ('A' for Active; 'I' for Inactive)
ROOT
HETATM    1  C1  UNL     1     -34.416   5.614   3.342  1.00 20.00     0.147 A 
HETATM    2  C2  UNL     1     -31.662   7.363   1.373  1.00 20.00     0.168 A 
HETATM    3  C3  UNL     1     -33.376   6.166   2.542  1.00 20.00     0.061 A 
HETATM    4  C4  UNL     1     -33.141   7.447   2.957  1.00 20.00     0.134 A 
HETATM    5  N5  UNL     1     -34.973   6.355   4.303  1.00 20.00    -0.220 NA
HETATM    6  N6  UNL     1     -32.171   8.144   2.305  1.00 20.00    -0.244 NA
HETATM    7  S7  UNL     1     -32.315   5.766   1.231  1.00 20.00    -0.078 SA
HETATM    8  S8  UNL     1     -34.207   7.854   4.275  1.00 20.00     0.032 SA
ENDROOT
TORSDOF 0
ENDMDL
MODEL 2
REMARK VINA RESULT:      -0.1      1.689      1.934
REMARK  0 active torsions:
REMARK  status: ('A' for Active; 'I' for Inactive)
ROOT
HETATM    1  C1  UNL     1     -33.990   7.784   4.025  1.00 20.00     0.147 A 
HETATM    2  C2  UNL     1     -31.933   6.444   1.112  1.00 20.00     0.168 A 
HETATM    3  C3  UNL     1     -33.171   7.392   2.929  1.00 20.00     0.061 A 
HETATM    4  C4  UNL     1     -33.433   6.083   2.636  1.00 20.00     0.134 A 
HETATM    5  N5  UNL     1     -34.829   6.899   4.572  1.00 20.00    -0.220 NA
HETATM    6  N6  UNL     1     -32.739   5.526   1.607  1.00 20.00    -0.244 NA
HETATM    7  S7  UNL     1     -31.964   8.009   1.849  1.00 20.00    -0.078 SA
HETATM    8  S8  UNL     1     -34.646   5.457   3.721  1.00 20.00     0.032 SA
ENDROOT
TORSDOF 0
ENDMDL
MODEL 3
REMARK VINA RESULT:      -0.1      0.945      3.613
REMARK  0 active torsions:
REMARK  status: ('A' for Active; 'I' for Inactive)
ROOT
HETATM    1  C1  UNL     1     -32.122   8.030   2.207  1.00 20.00     0.147 A 
HETATM    2  C2  UNL     1     -34.860   6.300   4.213  1.00 20.00     0.168 A 
HETATM    3  C3  UNL     1     -33.156   7.486   3.020  1.00 20.00     0.061 A 
HETATM    4  C4  UNL     1     -33.395   6.201   2.618  1.00 20.00     0.134 A 
HETATM    5  N5  UNL     1     -31.574   7.281   1.247  1.00 20.00    -0.220 NA
HETATM    6  N6  UNL     1     -34.360   5.511   3.283  1.00 20.00    -0.244 NA
HETATM    7  S7  UNL     1     -34.205   7.897   4.337  1.00 20.00    -0.078 SA
HETATM    8  S8  UNL     1     -32.342   5.783   1.291  1.00 20.00     0.032 SA
ENDROOT
TORSDOF 0
ENDMDL
MODEL 4
REMARK VINA RESULT:       0.1      1.774      3.066
REMARK  0 active torsions:
REMARK  status: ('A' for Active; 'I' for Inactive)
ROOT
HETATM    1  C1  UNL     1     -32.548   5.648   1.642  1.00 20.00     0.147 A 
HETATM    2  C2  UNL     1     -34.826   6.804   4.468  1.00 20.00     0.168 A 
HETATM    3  C3  UNL     1     -33.438   5.966   2.706  1.00 20.00     0.061 A 
HETATM    4  C4  UNL     1     -33.324   7.299   2.986  1.00 20.00     0.134 A 
HETATM    5  N5  UNL     1     -31.788   6.609   1.108  1.00 20.00    -0.220 NA
HETATM    6  N6  UNL     1     -34.104   7.794   3.985  1.00 20.00    -0.244 NA
HETATM    7  S7  UNL     1     -34.609   5.240   3.758  1.00 20.00    -0.078 SA
HETATM    8  S8  UNL     1     -32.145   8.034   1.931  1.00 20.00     0.032 SA
ENDROOT
TORSDOF 0
ENDMDL
MODEL 5
REMARK VINA RESULT:       0.4      1.136      1.138
REMARK  0 active torsions:
REMARK  status: ('A' for Active; 'I' for Inactive)
ROOT
HETATM    1  C1  UNL     1     -34.008   4.434   3.495  1.00 20.00     0.147 A 
HETATM    2  C2  UNL     1     -32.251   7.322   1.738  1.00 20.00     0.168 A 
HETATM    3  C3  UNL     1     -33.282   5.431   2.784  1.00 20.00     0.061 A 
HETATM    4  C4  UNL     1     -33.776   6.658   3.129  1.00 20.00     0.134 A 
HETATM    5  N5  UNL     1     -34.986   4.799   4.329  1.00 20.00    -0.220 NA
HETATM    6  N6  UNL     1     -33.203   7.745   2.545  1.00 20.00    -0.244 NA
HETATM    7  S7  UNL     1     -31.996   5.613   1.637  1.00 20.00    -0.078 SA
HETATM    8  S8  UNL     1     -35.072   6.480   4.282  1.00 20.00     0.032 SA
ENDROOT
TORSDOF 0
ENDMDL
MODEL 6
REMARK VINA RESULT:       2.5      1.623      3.556
REMARK  0 active torsions:
REMARK  status: ('A' for Active; 'I' for Inactive)
ROOT
HETATM    1  C1  UNL     1     -32.746   9.196   2.030  1.00 20.00     0.147 A 
HETATM    2  C2  UNL     1     -33.762   5.706   3.170  1.00 20.00     0.168 A 
HETATM    3  C3  UNL     1     -33.190   7.945   2.543  1.00 20.00     0.061 A 
HETATM    4  C4  UNL     1     -32.654   6.946   1.779  1.00 20.00     0.134 A 
HETATM    5  N5  UNL     1     -31.940   9.223   0.965  1.00 20.00    -0.220 NA
HETATM    6  N6  UNL     1     -32.969   5.667   2.119  1.00 20.00    -0.244 NA
HETATM    7  S7  UNL     1     -34.170   7.265   3.800  1.00 20.00    -0.078 SA
HETATM    8  S8  UNL     1     -31.667   7.625   0.511  1.00 20.00     0.032 SA
ENDROOT
TORSDOF 0
ENDMDL
MODEL 7
REMARK VINA RESULT:       2.8      1.080      2.693
REMARK  0 active torsions:
REMARK  status: ('A' for Active; 'I' for Inactive)
ROOT
HETATM    1  C1  UNL     1     -32.100   7.870   1.767  1.00 20.00     0.147 A 
HETATM    2  C2  UNL     1     -33.655   4.499   2.623  1.00 20.00     0.168 A 
HETATM    3  C3  UNL     1     -32.625   6.566   1.990  1.00 20.00     0.061 A 
HETATM    4  C4  UNL     1     -33.403   6.596   3.114  1.00 20.00     0.134 A 
HETATM    5  N5  UNL     1     -32.409   8.858   2.611  1.00 20.00    -0.220 NA
HETATM    6  N6  UNL     1     -33.996   5.431   3.490  1.00 20.00    -0.244 NA
HETATM    7  S7  UNL     1     -32.613   4.966   1.323  1.00 20.00    -0.078 SA
HETATM    8  S8  UNL     1     -33.417   8.204   3.790  1.00 20.00     0.032 SA
ENDROOT
TORSDOF 0
ENDMDL
MODEL 8
REMARK VINA RESULT:       2.8      1.760      3.274
REMARK  0 active torsions:
REMARK  status: ('A' for Active; 'I' for Inactive)
ROOT
HETATM    1  C1  UNL     1     -31.673   8.140   0.405  1.00 20.00     0.147 A 
HETATM    2  C2  UNL     1     -33.498   6.249   3.162  1.00 20.00     0.168 A 
HETATM    3  C3  UNL     1     -32.311   7.332   1.387  1.00 20.00     0.061 A 
HETATM    4  C4  UNL     1     -32.998   8.147   2.243  1.00 20.00     0.134 A 
HETATM    5  N5  UNL     1     -31.817   9.468   0.448  1.00 20.00    -0.220 NA
HETATM    6  N6  UNL     1     -33.678   7.550   3.259  1.00 20.00    -0.244 NA
HETATM    7  S7  UNL     1     -32.511   5.677   1.861  1.00 20.00    -0.078 SA
HETATM    8  S8  UNL     1     -32.799   9.814   1.771  1.00 20.00     0.032 SA
ENDROOT
TORSDOF 0
ENDMDL
MODEL 9
REMARK VINA RESULT:       2.8      1.628      1.830
REMARK  0 active torsions:
REMARK  status: ('A' for Active; 'I' for Inactive)
ROOT
HETATM    1  C1  UNL     1     -32.723   5.739   1.873  1.00 20.00     0.147 A 
HETATM    2  C2  UNL     1     -31.976   9.375   1.013  1.00 20.00     0.168 A 
HETATM    3  C3  UNL     1     -32.376   7.057   1.460  1.00 20.00     0.061 A 
HETATM    4  C4  UNL     1     -32.982   7.949   2.300  1.00 20.00     0.134 A 
HETATM    5  N5  UNL     1     -33.522   5.567   2.929  1.00 20.00    -0.220 NA
HETATM    6  N6  UNL     1     -32.767   9.271   2.062  1.00 20.00    -0.244 NA
HETATM    7  S7  UNL     1     -31.453   7.905   0.263  1.00 20.00    -0.078 SA
HETATM    8  S8  UNL     1     -33.913   7.100   3.506  1.00 20.00     0.032 SA
ENDROOT
TORSDOF 0
ENDMDL
