MODEL 1
REMARK VINA RESULT:      -1.2      0.000      0.000
REMARK  1 active torsions:
REMARK  status: ('A' for Active; 'I' for Inactive)
REMARK    1  A    between atoms: C6_6  and  C10_10 
ROOT
HETATM    1  C1  UNL     1     -33.908   7.906   3.954  1.00 20.00     0.054 A 
HETATM    2  C2  UNL     1     -33.739   5.797   2.561  1.00 20.00     0.060 A 
HETATM    3  C3  UNL     1     -32.913   8.435   3.236  1.00 20.00     0.025 A 
HETATM    4  C4  UNL     1     -32.740   6.337   1.845  1.00 20.00    -0.037 A 
HETATM    5  C5  UNL     1     -34.415   6.556   3.638  1.00 20.00     0.172 A 
HETATM    6  C6  UNL     1     -32.241   7.755   2.070  1.00 20.00     0.147 A 
HETATM    7  C7  UNL     1     -32.037   5.524   0.794  1.00 20.00     0.047 C 
HETATM    8  O11 UNL     1     -35.356   6.073   4.257  1.00 20.00    -0.289 OA
HETATM    9  F12 UNL     1     -30.896   7.714   2.320  1.00 20.00    -0.233 F 
ENDROOT
BRANCH   6  10
HETATM   10  C10 UNL     1     -32.434   8.620   0.821  1.00 20.00     0.026 C 
HETATM   11  C8  UNL     1     -32.898  10.020   1.210  1.00 20.00     0.014 C 
HETATM   12  C9  UNL     1     -31.142   8.684   0.013  1.00 20.00     0.014 C 
ENDBRANCH   6  10
TORSDOF 1
ENDMDL
MODEL 2
REMARK VINA RESULT:       1.5      1.576      3.191
REMARK  1 active torsions:
REMARK  status: ('A' for Active; 'I' for Inactive)
REMARK    1  A    between atoms: C6_6  and  C10_10 
ROOT
HETATM    1  C1  UNL     1     -34.436   6.464   3.889  1.00 20.00     0.054 A 
HETATM    2  C2  UNL     1     -32.835   8.304   3.204  1.00 20.00     0.060 A 
HETATM    3  C3  UNL     1     -34.108   5.794   2.780  1.00 20.00     0.025 A 
HETATM    4  C4  UNL     1     -32.511   7.623   2.093  1.00 20.00    -0.037 A 
HETATM    5  C5  UNL     1     -33.789   7.757   4.195  1.00 20.00     0.172 A 
HETATM    6  C6  UNL     1     -33.080   6.250   1.776  1.00 20.00     0.147 A 
HETATM    7  C7  UNL     1     -31.581   8.228   1.079  1.00 20.00     0.047 C 
HETATM    8  O11 UNL     1     -34.046   8.363   5.229  1.00 20.00    -0.289 OA
HETATM    9  F12 UNL     1     -33.679   6.294   0.546  1.00 20.00    -0.233 F 
ENDROOT
BRANCH   6  10
HETATM   10  C10 UNL     1     -31.974   5.193   1.693  1.00 20.00     0.026 C 
HETATM   11  C8  UNL     1     -32.141   4.161   2.804  1.00 20.00     0.014 C 
HETATM   12  C9  UNL     1     -31.983   4.520   0.325  1.00 20.00     0.014 C 
ENDBRANCH   6  10
TORSDOF 1
ENDMDL
MODEL 3
REMARK VINA RESULT:       1.7      2.284      4.315
REMARK  1 active torsions:
REMARK  status: ('A' for Active; 'I' for Inactive)
REMARK    1  A    between atoms: C6_6  and  C10_10 
ROOT
HETATM    1  C1  UNL     1     -32.406   6.497   1.104  1.00 20.00     0.054 A 
HETATM    2  C2  UNL     1     -32.545   8.324   2.852  1.00 20.00     0.060 A 
HETATM    3  C3  UNL     1     -33.040   5.673   1.945  1.00 20.00     0.025 A 
HETATM    4  C4  UNL     1     -33.182   7.490   3.690  1.00 20.00    -0.037 A 
HETATM    5  C5  UNL     1     -32.147   7.898   1.491  1.00 20.00     0.172 A 
HETATM    6  C6  UNL     1     -33.551   6.067   3.307  1.00 20.00     0.147 A 
HETATM    7  C7  UNL     1     -33.525   7.935   5.084  1.00 20.00     0.047 C 
HETATM    8  O11 UNL     1     -31.606   8.679   0.716  1.00 20.00    -0.289 OA
HETATM    9  F12 UNL     1     -33.012   5.209   4.227  1.00 20.00    -0.233 F 
ENDROOT
BRANCH   6  10
HETATM   10  C10 UNL     1     -35.068   5.856   3.340  1.00 20.00     0.026 C 
HETATM   11  C8  UNL     1     -35.478   5.147   4.627  1.00 20.00     0.014 C 
HETATM   12  C9  UNL     1     -35.794   7.190   3.203  1.00 20.00     0.014 C 
ENDBRANCH   6  10
TORSDOF 1
ENDMDL
MODEL 4
REMARK VINA RESULT:       1.8      2.188      3.651
REMARK  1 active torsions:
REMARK  status: ('A' for Active; 'I' for Inactive)
REMARK    1  A    between atoms: C6_6  and  C10_10 
ROOT
HETATM    1  C1  UNL     1     -32.022   7.125   1.403  1.00 20.00     0.054 A 
HETATM    2  C2  UNL     1     -33.523   5.345   2.398  1.00 20.00     0.060 A 
HETATM    3  C3  UNL     1     -32.523   8.005   2.275  1.00 20.00     0.025 A 
HETATM    4  C4  UNL     1     -34.020   6.236   3.271  1.00 20.00    -0.037 A 
HETATM    5  C5  UNL     1     -32.465   5.717   1.431  1.00 20.00     0.172 A 
HETATM    6  C6  UNL     1     -33.533   7.673   3.343  1.00 20.00     0.147 A 
HETATM    7  C7  UNL     1     -35.131   5.842   4.204  1.00 20.00     0.047 C 
HETATM    8  O11 UNL     1     -31.984   4.887   0.668  1.00 20.00    -0.289 OA
HETATM    9  F12 UNL     1     -34.606   8.510   3.187  1.00 20.00    -0.233 F 
ENDROOT
BRANCH   6  10
HETATM   10  C10 UNL     1     -32.921   7.988   4.711  1.00 20.00     0.026 C 
HETATM   11  C8  UNL     1     -31.756   8.961   4.562  1.00 20.00     0.014 C 
HETATM   12  C9  UNL     1     -33.981   8.554   5.651  1.00 20.00     0.014 C 
ENDBRANCH   6  10
TORSDOF 1
ENDMDL
