MODEL 1
REMARK VINA RESULT:       2.9      0.000      0.000
REMARK  0 active torsions:
REMARK  status: ('A' for Active; 'I' for Inactive)
ROOT
HETATM    1  C1  UNL     1     -32.860   4.268  -0.146  1.00 20.00    -0.004 C 
HETATM    2  C2  UNL     1     -33.883   5.279  -0.110  1.00 20.00    -0.003 C 
HETATM    3  C3  UNL     1     -31.812   4.312   0.686  1.00 20.00    -0.025 C 
HETATM    4  C4  UNL     1     -33.945   6.181   0.880  1.00 20.00    -0.009 C 
HETATM    5  C5  UNL     1     -33.695   5.515   3.184  1.00 20.00     0.140 C 
HETATM    6  C6  UNL     1     -31.645   5.405   1.707  1.00 20.00     0.048 C 
HETATM    7  C7  UNL     1     -34.731   6.306   3.953  1.00 20.00     0.079 C 
HETATM    8  C8  UNL     1     -34.183   7.653   4.378  1.00 20.00     0.008 C 
HETATM    9  C9  UNL     1     -33.674   8.435   3.176  1.00 20.00     0.006 C 
HETATM   10  C10 UNL     1     -32.549   7.674   2.451  1.00 20.00     0.001 C 
HETATM   11  C11 UNL     1     -32.948   6.221   2.027  1.00 20.00     0.044 C 
HETATM   12  C12 UNL     1     -32.055   8.542   1.281  1.00 20.00     0.011 C 
HETATM   13  O13 UNL     1     -33.559   4.310   3.414  1.00 20.00    -0.297 OA
ENDROOT
TORSDOF 0
ENDMDL
MODEL 2
REMARK VINA RESULT:       4.1      1.534      3.446
REMARK  0 active torsions:
REMARK  status: ('A' for Active; 'I' for Inactive)
ROOT
HETATM    1  C1  UNL     1     -35.766   5.470   4.425  1.00 20.00    -0.004 C 
HETATM    2  C2  UNL     1     -35.919   6.402   3.339  1.00 20.00    -0.003 C 
HETATM    3  C3  UNL     1     -34.604   4.839   4.637  1.00 20.00    -0.025 C 
HETATM    4  C4  UNL     1     -34.866   6.835   2.631  1.00 20.00    -0.009 C 
HETATM    5  C5  UNL     1     -32.835   7.535   3.727  1.00 20.00     0.140 C 
HETATM    6  C6  UNL     1     -33.396   5.070   3.770  1.00 20.00     0.048 C 
HETATM    7  C7  UNL     1     -32.380   8.776   2.988  1.00 20.00     0.079 C 
HETATM    8  C8  UNL     1     -31.509   8.416   1.803  1.00 20.00     0.008 C 
HETATM    9  C9  UNL     1     -32.232   7.455   0.871  1.00 20.00     0.006 C 
HETATM   10  C10 UNL     1     -32.607   6.150   1.595  1.00 20.00     0.001 C 
HETATM   11  C11 UNL     1     -33.442   6.376   2.900  1.00 20.00     0.044 C 
HETATM   12  C12 UNL     1     -33.289   5.215   0.583  1.00 20.00     0.011 C 
HETATM   13  O13 UNL     1     -32.825   7.527   4.961  1.00 20.00    -0.297 OA
ENDROOT
TORSDOF 0
ENDMDL
MODEL 3
REMARK VINA RESULT:       5.1      1.695      3.587
REMARK  0 active torsions:
REMARK  status: ('A' for Active; 'I' for Inactive)
ROOT
HETATM    1  C1  UNL     1     -34.954   4.337   4.401  1.00 20.00    -0.004 C 
HETATM    2  C2  UNL     1     -33.524   4.476   4.486  1.00 20.00    -0.003 C 
HETATM    3  C3  UNL     1     -35.727   5.353   4.000  1.00 20.00    -0.025 C 
HETATM    4  C4  UNL     1     -32.891   5.543   3.976  1.00 20.00    -0.009 C 
HETATM    5  C5  UNL     1     -33.435   6.378   1.780  1.00 20.00     0.140 C 
HETATM    6  C6  UNL     1     -35.155   6.689   3.607  1.00 20.00     0.048 C 
HETATM    7  C7  UNL     1     -32.109   6.727   1.137  1.00 20.00     0.079 C 
HETATM    8  C8  UNL     1     -31.697   8.145   1.474  1.00 20.00     0.008 C 
HETATM    9  C9  UNL     1     -31.649   8.352   2.981  1.00 20.00     0.006 C 
HETATM   10  C10 UNL     1     -33.023   8.094   3.624  1.00 20.00     0.001 C 
HETATM   11  C11 UNL     1     -33.618   6.686   3.286  1.00 20.00     0.044 C 
HETATM   12  C12 UNL     1     -32.908   8.366   5.134  1.00 20.00     0.011 C 
HETATM   13  O13 UNL     1     -34.278   5.755   1.130  1.00 20.00    -0.297 OA
ENDROOT
TORSDOF 0
ENDMDL
MODEL 4
REMARK VINA RESULT:       5.1      1.995      2.957
REMARK  0 active torsions:
REMARK  status: ('A' for Active; 'I' for Inactive)
ROOT
HETATM    1  C1  UNL     1     -31.709   9.206  -0.081  1.00 20.00    -0.004 C 
HETATM    2  C2  UNL     1     -32.811   9.737   0.678  1.00 20.00    -0.003 C 
HETATM    3  C3  UNL     1     -30.938   8.228   0.409  1.00 20.00    -0.025 C 
HETATM    4  C4  UNL     1     -33.240   9.145   1.801  1.00 20.00    -0.009 C 
HETATM    5  C5  UNL     1     -33.550   6.756   1.906  1.00 20.00     0.140 C 
HETATM    6  C6  UNL     1     -31.178   7.621   1.766  1.00 20.00     0.048 C 
HETATM    7  C7  UNL     1     -34.839   6.545   2.673  1.00 20.00     0.079 C 
HETATM    8  C8  UNL     1     -34.582   6.486   4.165  1.00 20.00     0.008 C 
HETATM    9  C9  UNL     1     -33.857   7.736   4.640  1.00 20.00     0.006 C 
HETATM   10  C10 UNL     1     -32.500   7.898   3.933  1.00 20.00     0.001 C 
HETATM   11  C11 UNL     1     -32.602   7.888   2.371  1.00 20.00     0.044 C 
HETATM   12  C12 UNL     1     -31.808   9.151   4.495  1.00 20.00     0.011 C 
HETATM   13  O13 UNL     1     -33.347   6.112   0.873  1.00 20.00    -0.297 OA
ENDROOT
TORSDOF 0
ENDMDL
MODEL 5
REMARK VINA RESULT:       5.1      1.600      2.889
REMARK  0 active torsions:
REMARK  status: ('A' for Active; 'I' for Inactive)
ROOT
HETATM    1  C1  UNL     1     -32.717   4.693   0.332  1.00 20.00    -0.004 C 
HETATM    2  C2  UNL     1     -32.198   4.562   1.669  1.00 20.00    -0.003 C 
HETATM    3  C3  UNL     1     -33.669   5.588   0.044  1.00 20.00    -0.025 C 
HETATM    4  C4  UNL     1     -32.487   5.456   2.625  1.00 20.00    -0.009 C 
HETATM    5  C5  UNL     1     -32.386   7.825   2.184  1.00 20.00     0.140 C 
HETATM    6  C6  UNL     1     -34.245   6.510   1.085  1.00 20.00     0.048 C 
HETATM    7  C7  UNL     1     -31.747   8.441   3.410  1.00 20.00     0.079 C 
HETATM    8  C8  UNL     1     -32.789   8.774   4.459  1.00 20.00     0.008 C 
HETATM    9  C9  UNL     1     -33.603   7.541   4.823  1.00 20.00     0.006 C 
HETATM   10  C10 UNL     1     -34.334   6.972   3.594  1.00 20.00     0.001 C 
HETATM   11  C11 UNL     1     -33.385   6.660   2.389  1.00 20.00     0.044 C 
HETATM   12  C12 UNL     1     -35.169   5.762   4.047  1.00 20.00     0.011 C 
HETATM   13  O13 UNL     1     -32.009   8.177   1.063  1.00 20.00    -0.297 OA
ENDROOT
TORSDOF 0
ENDMDL
MODEL 6
REMARK VINA RESULT:       5.2      1.684      3.545
REMARK  0 active torsions:
REMARK  status: ('A' for Active; 'I' for Inactive)
ROOT
HETATM    1  C1  UNL     1     -31.465   9.467   1.076  1.00 20.00    -0.004 C 
HETATM    2  C2  UNL     1     -30.986   8.609   2.128  1.00 20.00    -0.003 C 
HETATM    3  C3  UNL     1     -32.544   9.143   0.355  1.00 20.00    -0.025 C 
HETATM    4  C4  UNL     1     -31.708   7.568   2.568  1.00 20.00    -0.009 C 
HETATM    5  C5  UNL     1     -34.066   7.792   3.017  1.00 20.00     0.140 C 
HETATM    6  C6  UNL     1     -33.324   7.879   0.602  1.00 20.00     0.048 C 
HETATM    7  C7  UNL     1     -34.312   7.025   4.299  1.00 20.00     0.079 C 
HETATM    8  C8  UNL     1     -34.598   5.565   4.015  1.00 20.00     0.008 C 
HETATM    9  C9  UNL     1     -33.471   4.939   3.207  1.00 20.00     0.006 C 
HETATM   10  C10 UNL     1     -33.286   5.657   1.857  1.00 20.00     0.001 C 
HETATM   11  C11 UNL     1     -33.067   7.201   1.994  1.00 20.00     0.044 C 
HETATM   12  C12 UNL     1     -32.167   4.943   1.081  1.00 20.00     0.011 C 
HETATM   13  O13 UNL     1     -34.566   8.911   2.875  1.00 20.00    -0.297 OA
ENDROOT
TORSDOF 0
ENDMDL
MODEL 7
REMARK VINA RESULT:       5.3      1.635      3.121
REMARK  0 active torsions:
REMARK  status: ('A' for Active; 'I' for Inactive)
ROOT
HETATM    1  C1  UNL     1     -31.671   9.197   0.467  1.00 20.00    -0.004 C 
HETATM    2  C2  UNL     1     -33.082   8.923   0.536  1.00 20.00    -0.003 C 
HETATM    3  C3  UNL     1     -30.838   8.787   1.432  1.00 20.00    -0.025 C 
HETATM    4  C4  UNL     1     -33.590   8.077   1.444  1.00 20.00    -0.009 C 
HETATM    5  C5  UNL     1     -32.553   5.943   1.871  1.00 20.00     0.140 C 
HETATM    6  C6  UNL     1     -31.318   8.014   2.631  1.00 20.00     0.048 C 
HETATM    7  C7  UNL     1     -33.693   4.956   2.011  1.00 20.00     0.079 C 
HETATM    8  C8  UNL     1     -34.192   4.897   3.440  1.00 20.00     0.008 C 
HETATM    9  C9  UNL     1     -34.598   6.279   3.929  1.00 20.00     0.006 C 
HETATM   10  C10 UNL     1     -33.411   7.259   3.883  1.00 20.00     0.001 C 
HETATM   11  C11 UNL     1     -32.735   7.356   2.474  1.00 20.00     0.044 C 
HETATM   12  C12 UNL     1     -33.883   8.615   4.433  1.00 20.00     0.011 C 
HETATM   13  O13 UNL     1     -31.572   5.642   1.186  1.00 20.00    -0.297 OA
ENDROOT
TORSDOF 0
ENDMDL
