MODEL 1
REMARK VINA RESULT:       5.4      0.000      0.000
REMARK  1 active torsions:
REMARK  status: ('A' for Active; 'I' for Inactive)
REMARK    1  A    between atoms: C8_8  and  C11_11 
ROOT
HETATM    1  C1  UNL     1     -33.226   8.061   3.345  1.00 20.00    -0.081 C 
HETATM    2  C2  UNL     1     -34.115   7.705   4.284  1.00 20.00     0.015 C 
HETATM    3  C3  UNL     1     -31.865   8.622   3.699  1.00 20.00     0.061 C 
HETATM    4  C4  UNL     1     -33.309   9.227   1.112  1.00 20.00     0.039 C 
HETATM    5  C5  UNL     1     -30.746   8.140   2.765  1.00 20.00     0.239 C 
HETATM    6  C6  UNL     1     -31.809   9.296   0.794  1.00 20.00     0.236 C 
HETATM    7  C7  UNL     1     -33.509   7.894   1.862  1.00 20.00     0.046 C 
HETATM    8  C8  UNL     1     -32.425   7.033   1.220  1.00 20.00     0.199 C 
HETATM    9  N12 UNL     1     -31.248   7.986   1.340  1.00 20.00    -0.066 N 
HETATM   10  H32 UNL     1     -30.470   7.665   0.747  1.00 20.00     0.280 HD
ENDROOT
BRANCH   8  11
HETATM   11  C11 UNL     1     -32.155   5.659   1.809  1.00 20.00     0.009 C 
HETATM   12  C9  UNL     1     -33.447   5.026   2.328  1.00 20.00     0.011 C 
HETATM   13  C10 UNL     1     -31.496   4.744   0.775  1.00 20.00     0.011 C 
ENDBRANCH   8  11
TORSDOF 1
ENDMDL
MODEL 2
REMARK VINA RESULT:       5.5      1.484      3.378
REMARK  1 active torsions:
REMARK  status: ('A' for Active; 'I' for Inactive)
REMARK    1  A    between atoms: C8_8  and  C11_11 
ROOT
HETATM    1  C1  UNL     1     -33.637   6.384   0.505  1.00 20.00    -0.081 C 
HETATM    2  C2  UNL     1     -34.671   5.777  -0.095  1.00 20.00     0.015 C 
HETATM    3  C3  UNL     1     -33.162   7.760   0.089  1.00 20.00     0.061 C 
HETATM    4  C4  UNL     1     -31.378   5.688   1.380  1.00 20.00     0.039 C 
HETATM    5  C5  UNL     1     -32.716   8.635   1.270  1.00 20.00     0.239 C 
HETATM    6  C6  UNL     1     -30.825   7.057   1.804  1.00 20.00     0.236 C 
HETATM    7  C7  UNL     1     -32.891   5.750   1.667  1.00 20.00     0.046 C 
HETATM    8  C8  UNL     1     -32.922   6.682   2.875  1.00 20.00     0.199 C 
HETATM    9  N12 UNL     1     -32.042   7.802   2.346  1.00 20.00    -0.066 N 
HETATM   10  H32 UNL     1     -31.757   8.423   3.117  1.00 20.00     0.280 HD
ENDROOT
BRANCH   8  11
HETATM   11  C11 UNL     1     -34.272   7.159   3.382  1.00 20.00     0.009 C 
HETATM   12  C9  UNL     1     -35.139   5.977   3.818  1.00 20.00     0.011 C 
HETATM   13  C10 UNL     1     -34.101   8.146   4.539  1.00 20.00     0.011 C 
ENDBRANCH   8  11
TORSDOF 1
ENDMDL
MODEL 3
REMARK VINA RESULT:       5.7      1.961      3.748
REMARK  1 active torsions:
REMARK  status: ('A' for Active; 'I' for Inactive)
REMARK    1  A    between atoms: C8_8  and  C11_11 
ROOT
HETATM    1  C1  UNL     1     -33.380   5.289   0.825  1.00 20.00    -0.081 C 
HETATM    2  C2  UNL     1     -33.356   4.269  -0.045  1.00 20.00     0.015 C 
HETATM    3  C3  UNL     1     -34.465   6.343   0.798  1.00 20.00     0.061 C 
HETATM    4  C4  UNL     1     -31.679   6.831   1.866  1.00 20.00     0.039 C 
HETATM    5  C5  UNL     1     -34.900   6.807   2.196  1.00 20.00     0.239 C 
HETATM    6  C6  UNL     1     -32.612   7.758   2.658  1.00 20.00     0.236 C 
HETATM    7  C7  UNL     1     -32.338   5.438   1.922  1.00 20.00     0.046 C 
HETATM    8  C8  UNL     1     -33.023   5.494   3.284  1.00 20.00     0.199 C 
HETATM    9  N12 UNL     1     -33.723   6.836   3.155  1.00 20.00    -0.066 N 
HETATM   10  H32 UNL     1     -34.054   7.154   4.077  1.00 20.00     0.280 HD
ENDROOT
BRANCH   8  11
HETATM   11  C11 UNL     1     -33.956   4.358   3.668  1.00 20.00     0.009 C 
HETATM   12  C9  UNL     1     -33.190   3.242   4.381  1.00 20.00     0.011 C 
HETATM   13  C10 UNL     1     -35.097   4.866   4.552  1.00 20.00     0.011 C 
ENDBRANCH   8  11
TORSDOF 1
ENDMDL
MODEL 4
REMARK VINA RESULT:       5.8      1.196      3.347
REMARK  1 active torsions:
REMARK  status: ('A' for Active; 'I' for Inactive)
REMARK    1  A    between atoms: C8_8  and  C11_11 
ROOT
HETATM    1  C1  UNL     1     -33.101   6.126   1.277  1.00 20.00    -0.081 C 
HETATM    2  C2  UNL     1     -33.659   5.348   0.337  1.00 20.00     0.015 C 
HETATM    3  C3  UNL     1     -31.710   5.865   1.814  1.00 20.00     0.061 C 
HETATM    4  C4  UNL     1     -33.877   7.275   3.382  1.00 20.00     0.039 C 
HETATM    5  C5  UNL     1     -30.911   7.147   2.087  1.00 20.00     0.239 C 
HETATM    6  C6  UNL     1     -32.543   7.854   3.874  1.00 20.00     0.236 C 
HETATM    7  C7  UNL     1     -33.812   7.343   1.843  1.00 20.00     0.046 C 
HETATM    8  C8  UNL     1     -32.951   8.587   1.642  1.00 20.00     0.199 C 
HETATM    9  N12 UNL     1     -31.814   8.258   2.595  1.00 20.00    -0.066 N 
HETATM   10  H32 UNL     1     -31.243   9.097   2.768  1.00 20.00     0.280 HD
ENDROOT
BRANCH   8  11
HETATM   11  C11 UNL     1     -32.486   8.921   0.235  1.00 20.00     0.009 C 
HETATM   12  C9  UNL     1     -33.085  10.247  -0.236  1.00 20.00     0.011 C 
HETATM   13  C10 UNL     1     -30.958   8.976   0.166  1.00 20.00     0.011 C 
ENDBRANCH   8  11
TORSDOF 1
ENDMDL
MODEL 5
REMARK VINA RESULT:       5.9      1.772      3.241
REMARK  1 active torsions:
REMARK  status: ('A' for Active; 'I' for Inactive)
REMARK    1  A    between atoms: C8_8  and  C11_11 
ROOT
HETATM    1  C1  UNL     1     -32.344   7.392   1.642  1.00 20.00    -0.081 C 
HETATM    2  C2  UNL     1     -32.166   8.660   2.042  1.00 20.00     0.015 C 
HETATM    3  C3  UNL     1     -31.187   6.428   1.489  1.00 20.00     0.061 C 
HETATM    4  C4  UNL     1     -33.773   6.206  -0.062  1.00 20.00     0.039 C 
HETATM    5  C5  UNL     1     -31.524   4.996   1.929  1.00 20.00     0.239 C 
HETATM    6  C6  UNL     1     -33.243   4.774   0.099  1.00 20.00     0.236 C 
HETATM    7  C7  UNL     1     -33.723   6.824   1.349  1.00 20.00     0.046 C 
HETATM    8  C8  UNL     1     -33.972   5.594   2.216  1.00 20.00     0.199 C 
HETATM    9  N12 UNL     1     -32.963   4.644   1.594  1.00 20.00    -0.066 N 
HETATM   10  H32 UNL     1     -33.148   3.678   1.901  1.00 20.00     0.280 HD
ENDROOT
BRANCH   8  11
HETATM   11  C11 UNL     1     -33.827   5.732   3.722  1.00 20.00     0.009 C 
HETATM   12  C9  UNL     1     -34.664   6.901   4.245  1.00 20.00     0.011 C 
HETATM   13  C10 UNL     1     -34.228   4.436   4.429  1.00 20.00     0.011 C 
ENDBRANCH   8  11
TORSDOF 1
ENDMDL
MODEL 6
REMARK VINA RESULT:       6.5      1.357      2.933
REMARK  1 active torsions:
REMARK  status: ('A' for Active; 'I' for Inactive)
REMARK    1  A    between atoms: C8_8  and  C11_11 
ROOT
HETATM    1  C1  UNL     1     -32.562   8.973   1.297  1.00 20.00    -0.081 C 
HETATM    2  C2  UNL     1     -32.323   9.270   0.012  1.00 20.00     0.015 C 
HETATM    3  C3  UNL     1     -33.828   9.412   2.002  1.00 20.00     0.061 C 
HETATM    4  C4  UNL     1     -31.212   8.885   3.425  1.00 20.00     0.039 C 
HETATM    5  C5  UNL     1     -34.377   8.363   2.980  1.00 20.00     0.239 C 
HETATM    6  C6  UNL     1     -32.324   8.551   4.430  1.00 20.00     0.236 C 
HETATM    7  C7  UNL     1     -31.595   8.145   2.127  1.00 20.00     0.046 C 
HETATM    8  C8  UNL     1     -32.311   6.921   2.690  1.00 20.00     0.199 C 
HETATM    9  N12 UNL     1     -33.251   7.609   3.665  1.00 20.00    -0.066 N 
HETATM   10  H32 UNL     1     -33.658   6.920   4.313  1.00 20.00     0.280 HD
ENDROOT
BRANCH   8  11
HETATM   11  C11 UNL     1     -33.019   5.991   1.720  1.00 20.00     0.009 C 
HETATM   12  C9  UNL     1     -32.015   5.310   0.788  1.00 20.00     0.011 C 
HETATM   13  C10 UNL     1     -33.839   4.941   2.473  1.00 20.00     0.011 C 
ENDBRANCH   8  11
TORSDOF 1
ENDMDL
MODEL 7
REMARK VINA RESULT:       6.8      1.745      3.122
REMARK  1 active torsions:
REMARK  status: ('A' for Active; 'I' for Inactive)
REMARK    1  A    between atoms: C8_8  and  C11_11 
ROOT
HETATM    1  C1  UNL     1     -33.806   5.095   4.107  1.00 20.00    -0.081 C 
HETATM    2  C2  UNL     1     -33.552   3.783   4.211  1.00 20.00     0.015 C 
HETATM    3  C3  UNL     1     -33.377   6.083   5.171  1.00 20.00     0.061 C 
HETATM    4  C4  UNL     1     -35.737   6.518   3.331  1.00 20.00     0.039 C 
HETATM    5  C5  UNL     1     -32.899   7.426   4.600  1.00 20.00     0.239 C 
HETATM    6  C6  UNL     1     -35.188   7.913   3.665  1.00 20.00     0.236 C 
HETATM    7  C7  UNL     1     -34.511   5.688   2.899  1.00 20.00     0.046 C 
HETATM    8  C8  UNL     1     -33.637   6.766   2.265  1.00 20.00     0.199 C 
HETATM    9  N12 UNL     1     -33.695   7.812   3.365  1.00 20.00    -0.066 N 
HETATM   10  H32 UNL     1     -33.347   8.715   3.015  1.00 20.00     0.280 HD
ENDROOT
BRANCH   8  11
HETATM   11  C11 UNL     1     -32.222   6.396   1.854  1.00 20.00     0.009 C 
HETATM   12  C9  UNL     1     -32.231   5.242   0.850  1.00 20.00     0.011 C 
HETATM   13  C10 UNL     1     -31.493   7.605   1.264  1.00 20.00     0.011 C 
ENDBRANCH   8  11
TORSDOF 1
ENDMDL
MODEL 8
REMARK VINA RESULT:       6.8      1.353      3.404
REMARK  1 active torsions:
REMARK  status: ('A' for Active; 'I' for Inactive)
REMARK    1  A    between atoms: C8_8  and  C11_11 
ROOT
HETATM    1  C1  UNL     1     -33.100   7.523   3.294  1.00 20.00    -0.081 C 
HETATM    2  C2  UNL     1     -33.286   8.266   4.394  1.00 20.00     0.015 C 
HETATM    3  C3  UNL     1     -34.176   6.606   2.753  1.00 20.00     0.061 C 
HETATM    4  C4  UNL     1     -31.217   6.164   2.314  1.00 20.00     0.039 C 
HETATM    5  C5  UNL     1     -34.236   6.575   1.219  1.00 20.00     0.239 C 
HETATM    6  C6  UNL     1     -31.926   5.574   1.087  1.00 20.00     0.236 C 
HETATM    7  C7  UNL     1     -31.810   7.576   2.493  1.00 20.00     0.046 C 
HETATM    8  C8  UNL     1     -32.113   7.951   1.045  1.00 20.00     0.199 C 
HETATM    9  N12 UNL     1     -32.849   6.694   0.612  1.00 20.00    -0.066 N 
HETATM   10  H32 UNL     1     -32.931   6.667  -0.414  1.00 20.00     0.280 HD
ENDROOT
BRANCH   8  11
HETATM   11  C11 UNL     1     -32.888   9.229   0.780  1.00 20.00     0.009 C 
HETATM   12  C9  UNL     1     -32.381  10.368   1.666  1.00 20.00     0.011 C 
HETATM   13  C10 UNL     1     -32.795   9.626  -0.695  1.00 20.00     0.011 C 
ENDBRANCH   8  11
TORSDOF 1
ENDMDL
MODEL 9
REMARK VINA RESULT:       6.9      1.335      3.353
REMARK  1 active torsions:
REMARK  status: ('A' for Active; 'I' for Inactive)
REMARK    1  A    between atoms: C8_8  and  C11_11 
ROOT
HETATM    1  C1  UNL     1     -31.854   5.918   1.511  1.00 20.00    -0.081 C 
HETATM    2  C2  UNL     1     -31.205   4.801   1.871  1.00 20.00     0.015 C 
HETATM    3  C3  UNL     1     -33.070   5.886   0.611  1.00 20.00     0.061 C 
HETATM    4  C4  UNL     1     -31.207   8.258   0.830  1.00 20.00     0.039 C 
HETATM    5  C5  UNL     1     -34.146   6.909   1.003  1.00 20.00     0.239 C 
HETATM    6  C6  UNL     1     -32.593   8.828   0.496  1.00 20.00     0.236 C 
HETATM    7  C7  UNL     1     -31.435   7.291   2.010  1.00 20.00     0.046 C 
HETATM    8  C8  UNL     1     -32.606   7.965   2.718  1.00 20.00     0.199 C 
HETATM    9  N12 UNL     1     -33.521   8.190   1.526  1.00 20.00    -0.066 N 
HETATM   10  H32 UNL     1     -34.272   8.849   1.775  1.00 20.00     0.280 HD
ENDROOT
BRANCH   8  11
HETATM   11  C11 UNL     1     -33.275   7.228   3.866  1.00 20.00     0.009 C 
HETATM   12  C9  UNL     1     -33.150   8.020   5.168  1.00 20.00     0.011 C 
HETATM   13  C10 UNL     1     -34.747   6.954   3.551  1.00 20.00     0.011 C 
ENDBRANCH   8  11
TORSDOF 1
ENDMDL
