MODEL 1
REMARK VINA RESULT:       1.4      0.000      0.000
REMARK  1 active torsions:
REMARK  status: ('A' for Active; 'I' for Inactive)
REMARK    1  A    between atoms: C8_8  and  C11_11 
ROOT
HETATM    1  C1  UNL     1     -33.856   5.016   3.560  1.00 20.00     0.131 C 
HETATM    2  C2  UNL     1     -34.916   6.073   3.710  1.00 20.00     0.079 C 
HETATM    3  C3  UNL     1     -34.147   7.336   3.354  1.00 20.00     0.018 C 
HETATM    4  C4  UNL     1     -33.651   5.282   0.550  1.00 20.00     0.002 C 
HETATM    5  C5  UNL     1     -32.547   4.714   1.430  1.00 20.00     0.013 C 
HETATM    6  C6  UNL     1     -33.677   6.772   0.880  1.00 20.00     0.011 C 
HETATM    7  C7  UNL     1     -32.679   5.493   2.729  1.00 20.00     0.064 C 
HETATM    8  C8  UNL     1     -33.100   6.917   2.309  1.00 20.00    -0.027 C 
HETATM    9  O12 UNL     1     -33.957   3.885   4.017  1.00 20.00    -0.298 OA
ENDROOT
BRANCH   8  10
HETATM   10  C11 UNL     1     -31.920   7.893   2.311  1.00 20.00    -0.013 C 
HETATM   11  C9  UNL     1     -31.992   8.817   1.100  1.00 20.00     0.010 C 
HETATM   12  C10 UNL     1     -31.899   8.699   3.607  1.00 20.00     0.010 C 
ENDBRANCH   8  10
TORSDOF 1
ENDMDL
MODEL 2
REMARK VINA RESULT:       1.6      1.251      2.977
REMARK  1 active torsions:
REMARK  status: ('A' for Active; 'I' for Inactive)
REMARK    1  A    between atoms: C8_8  and  C11_11 
ROOT
HETATM    1  C1  UNL     1     -34.942   5.096   4.212  1.00 20.00     0.131 C 
HETATM    2  C2  UNL     1     -33.659   4.337   4.418  1.00 20.00     0.079 C 
HETATM    3  C3  UNL     1     -32.832   4.795   3.227  1.00 20.00     0.018 C 
HETATM    4  C4  UNL     1     -33.730   7.811   4.782  1.00 20.00     0.002 C 
HETATM    5  C5  UNL     1     -35.001   7.601   3.973  1.00 20.00     0.013 C 
HETATM    6  C6  UNL     1     -32.613   7.279   3.889  1.00 20.00     0.011 C 
HETATM    7  C7  UNL     1     -34.770   6.273   3.270  1.00 20.00     0.064 C 
HETATM    8  C8  UNL     1     -33.263   6.242   2.941  1.00 20.00    -0.027 C 
HETATM    9  O12 UNL     1     -35.991   4.819   4.779  1.00 20.00    -0.298 OA
ENDROOT
BRANCH   8  10
HETATM   10  C11 UNL     1     -32.983   6.606   1.481  1.00 20.00    -0.013 C 
HETATM   11  C9  UNL     1     -32.009   7.778   1.402  1.00 20.00     0.010 C 
HETATM   12  C10 UNL     1     -32.437   5.397   0.727  1.00 20.00     0.010 C 
ENDBRANCH   8  10
TORSDOF 1
ENDMDL
MODEL 3
REMARK VINA RESULT:       2.0      2.011      3.588
REMARK  1 active torsions:
REMARK  status: ('A' for Active; 'I' for Inactive)
REMARK    1  A    between atoms: C8_8  and  C11_11 
ROOT
HETATM    1  C1  UNL     1     -32.500   8.117   1.425  1.00 20.00     0.131 C 
HETATM    2  C2  UNL     1     -31.915   8.358   2.790  1.00 20.00     0.079 C 
HETATM    3  C3  UNL     1     -32.831   7.523   3.672  1.00 20.00     0.018 C 
HETATM    4  C4  UNL     1     -31.678   5.205   1.301  1.00 20.00     0.002 C 
HETATM    5  C5  UNL     1     -32.811   5.804   0.481  1.00 20.00     0.013 C 
HETATM    6  C6  UNL     1     -32.200   5.203   2.735  1.00 20.00     0.011 C 
HETATM    7  C7  UNL     1     -33.383   6.884   1.384  1.00 20.00     0.064 C 
HETATM    8  C8  UNL     1     -33.266   6.322   2.817  1.00 20.00    -0.027 C 
HETATM    9  O12 UNL     1     -32.250   8.813   0.449  1.00 20.00    -0.298 OA
ENDROOT
BRANCH   8  10
HETATM   10  C11 UNL     1     -34.595   5.756   3.325  1.00 20.00    -0.013 C 
HETATM   11  C9  UNL     1     -34.357   4.479   4.126  1.00 20.00     0.010 C 
HETATM   12  C10 UNL     1     -35.328   6.794   4.169  1.00 20.00     0.010 C 
ENDBRANCH   8  10
TORSDOF 1
ENDMDL
MODEL 4
REMARK VINA RESULT:       2.1      1.955      4.084
REMARK  1 active torsions:
REMARK  status: ('A' for Active; 'I' for Inactive)
REMARK    1  A    between atoms: C8_8  and  C11_11 
ROOT
HETATM    1  C1  UNL     1     -32.345   7.325   2.297  1.00 20.00     0.131 C 
HETATM    2  C2  UNL     1     -32.919   6.465   1.204  1.00 20.00     0.079 C 
HETATM    3  C3  UNL     1     -33.514   5.312   1.997  1.00 20.00     0.018 C 
HETATM    4  C4  UNL     1     -35.034   8.134   3.429  1.00 20.00     0.002 C 
HETATM    5  C5  UNL     1     -33.735   8.166   4.220  1.00 20.00     0.013 C 
HETATM    6  C6  UNL     1     -35.335   6.649   3.244  1.00 20.00     0.011 C 
HETATM    7  C7  UNL     1     -32.936   7.003   3.656  1.00 20.00     0.064 C 
HETATM    8  C8  UNL     1     -33.978   5.910   3.335  1.00 20.00    -0.027 C 
HETATM    9  O12 UNL     1     -31.529   8.216   2.099  1.00 20.00    -0.298 OA
ENDROOT
BRANCH   8  10
HETATM   10  C11 UNL     1     -34.032   4.828   4.416  1.00 20.00    -0.013 C 
HETATM   11  C9  UNL     1     -35.451   4.690   4.960  1.00 20.00     0.010 C 
HETATM   12  C10 UNL     1     -33.534   3.497   3.862  1.00 20.00     0.010 C 
ENDBRANCH   8  10
TORSDOF 1
ENDMDL
MODEL 5
REMARK VINA RESULT:       2.3      1.316      3.066
REMARK  1 active torsions:
REMARK  status: ('A' for Active; 'I' for Inactive)
REMARK    1  A    between atoms: C8_8  and  C11_11 
ROOT
HETATM    1  C1  UNL     1     -33.242   5.862   2.449  1.00 20.00     0.131 C 
HETATM    2  C2  UNL     1     -31.856   5.667   1.898  1.00 20.00     0.079 C 
HETATM    3  C3  UNL     1     -31.670   6.931   1.072  1.00 20.00     0.018 C 
HETATM    4  C4  UNL     1     -32.481   8.171   4.254  1.00 20.00     0.002 C 
HETATM    5  C5  UNL     1     -33.896   7.910   3.759  1.00 20.00     0.013 C 
HETATM    6  C6  UNL     1     -31.718   8.629   3.014  1.00 20.00     0.011 C 
HETATM    7  C7  UNL     1     -33.694   7.309   2.378  1.00 20.00     0.064 C 
HETATM    8  C8  UNL     1     -32.461   8.032   1.795  1.00 20.00    -0.027 C 
HETATM    9  O12 UNL     1     -33.908   4.961   2.942  1.00 20.00    -0.298 OA
ENDROOT
BRANCH   8  10
HETATM   10  C11 UNL     1     -32.853   9.142   0.815  1.00 20.00    -0.013 C 
HETATM   11  C9  UNL     1     -32.713  10.509   1.477  1.00 20.00     0.010 C 
HETATM   12  C10 UNL     1     -32.000   9.062  -0.447  1.00 20.00     0.010 C 
ENDBRANCH   8  10
TORSDOF 1
ENDMDL
MODEL 6
REMARK VINA RESULT:       3.6      1.721      3.107
REMARK  1 active torsions:
REMARK  status: ('A' for Active; 'I' for Inactive)
REMARK    1  A    between atoms: C8_8  and  C11_11 
ROOT
HETATM    1  C1  UNL     1     -32.130   5.314   0.869  1.00 20.00     0.131 C 
HETATM    2  C2  UNL     1     -33.533   5.339   0.326  1.00 20.00     0.079 C 
HETATM    3  C3  UNL     1     -34.326   5.801   1.539  1.00 20.00     0.018 C 
HETATM    4  C4  UNL     1     -31.912   8.321   1.158  1.00 20.00     0.002 C 
HETATM    5  C5  UNL     1     -31.064   7.328   1.939  1.00 20.00     0.013 C 
HETATM    6  C6  UNL     1     -33.316   8.167   1.736  1.00 20.00     0.011 C 
HETATM    7  C7  UNL     1     -31.986   6.137   2.136  1.00 20.00     0.064 C 
HETATM    8  C8  UNL     1     -33.395   6.738   2.325  1.00 20.00    -0.027 C 
HETATM    9  O12 UNL     1     -31.202   4.735   0.320  1.00 20.00    -0.298 OA
ENDROOT
BRANCH   8  10
HETATM   10  C11 UNL     1     -33.807   6.791   3.799  1.00 20.00    -0.013 C 
HETATM   11  C9  UNL     1     -33.706   8.218   4.328  1.00 20.00     0.010 C 
HETATM   12  C10 UNL     1     -35.222   6.248   3.975  1.00 20.00     0.010 C 
ENDBRANCH   8  10
TORSDOF 1
ENDMDL
MODEL 7
REMARK VINA RESULT:       3.8      1.607      3.001
REMARK  1 active torsions:
REMARK  status: ('A' for Active; 'I' for Inactive)
REMARK    1  A    between atoms: C8_8  and  C11_11 
ROOT
HETATM    1  C1  UNL     1     -32.006   5.577   1.364  1.00 20.00     0.131 C 
HETATM    2  C2  UNL     1     -33.321   5.435   0.648  1.00 20.00     0.079 C 
HETATM    3  C3  UNL     1     -34.271   6.146   1.600  1.00 20.00     0.018 C 
HETATM    4  C4  UNL     1     -31.815   8.572   0.964  1.00 20.00     0.002 C 
HETATM    5  C5  UNL     1     -31.087   7.814   2.064  1.00 20.00     0.013 C 
HETATM    6  C6  UNL     1     -33.286   8.519   1.369  1.00 20.00     0.011 C 
HETATM    7  C7  UNL     1     -32.033   6.676   2.410  1.00 20.00     0.064 C 
HETATM    8  C8  UNL     1     -33.452   7.266   2.261  1.00 20.00    -0.027 C 
HETATM    9  O12 UNL     1     -31.014   4.911   1.097  1.00 20.00    -0.298 OA
ENDROOT
BRANCH   8  10
HETATM   10  C11 UNL     1     -34.062   7.650   3.611  1.00 20.00    -0.013 C 
HETATM   11  C9  UNL     1     -34.991   6.547   4.109  1.00 20.00     0.010 C 
HETATM   12  C10 UNL     1     -32.963   7.932   4.631  1.00 20.00     0.010 C 
ENDBRANCH   8  10
TORSDOF 1
ENDMDL
