MODEL 1
REMARK VINA RESULT:       0.7      0.000      0.000
REMARK  1 active torsions:
REMARK  status: ('A' for Active; 'I' for Inactive)
REMARK    1  A    between atoms: C4_4  and  C7_7 
ROOT
HETATM    1  C1  UNL     1     -32.200   8.799   0.993  1.00 20.00     0.075 C 
HETATM    2  C2  UNL     1     -32.014   8.238   3.409  1.00 20.00     0.105 C 
HETATM    3  C3  UNL     1     -31.814   7.771   1.973  1.00 20.00     0.164 C 
HETATM    4  C4  UNL     1     -34.083   6.564   2.970  1.00 20.00     0.113 C 
HETATM    5  N8  UNL     1     -32.504   9.609   0.220  1.00 20.00    -0.196 NA
HETATM    6  S9  UNL     1     -33.783   8.156   3.791  1.00 20.00    -0.151 SA
HETATM    7  S10 UNL     1     -32.776   6.241   1.738  1.00 20.00    -0.133 SA
ENDROOT
BRANCH   4   8
HETATM    8  C7  UNL     1     -34.102   5.442   4.000  1.00 20.00     0.001 C 
HETATM    9  C5  UNL     1     -35.502   5.270   4.588  1.00 20.00     0.011 C 
HETATM   10  C6  UNL     1     -33.618   4.132   3.380  1.00 20.00     0.011 C 
ENDBRANCH   4   8
TORSDOF 1
ENDMDL
MODEL 2
REMARK VINA RESULT:       1.8      0.544      1.235
REMARK  1 active torsions:
REMARK  status: ('A' for Active; 'I' for Inactive)
REMARK    1  A    between atoms: C4_4  and  C7_7 
ROOT
HETATM    1  C1  UNL     1     -32.197   8.655   1.217  1.00 20.00     0.075 C 
HETATM    2  C2  UNL     1     -32.404   7.831   3.555  1.00 20.00     0.105 C 
HETATM    3  C3  UNL     1     -31.927   7.539   2.138  1.00 20.00     0.164 C 
HETATM    4  C4  UNL     1     -34.257   6.133   2.575  1.00 20.00     0.113 C 
HETATM    5  N8  UNL     1     -32.410   9.534   0.491  1.00 20.00    -0.196 NA
HETATM    6  S9  UNL     1     -34.205   7.632   3.598  1.00 20.00    -0.151 SA
HETATM    7  S10 UNL     1     -32.735   6.006   1.575  1.00 20.00    -0.133 SA
ENDROOT
BRANCH   4   8
HETATM    8  C7  UNL     1     -34.386   4.901   3.462  1.00 20.00     0.001 C 
HETATM    9  C5  UNL     1     -33.009   4.373   3.860  1.00 20.00     0.011 C 
HETATM   10  C6  UNL     1     -35.218   5.216   4.705  1.00 20.00     0.011 C 
ENDBRANCH   4   8
TORSDOF 1
ENDMDL
MODEL 3
REMARK VINA RESULT:       2.5      2.572      4.455
REMARK  1 active torsions:
REMARK  status: ('A' for Active; 'I' for Inactive)
REMARK    1  A    between atoms: C4_4  and  C7_7 
ROOT
HETATM    1  C1  UNL     1     -33.763   4.461   3.875  1.00 20.00     0.075 C 
HETATM    2  C2  UNL     1     -34.608   6.778   3.553  1.00 20.00     0.105 C 
HETATM    3  C3  UNL     1     -34.291   5.435   2.907  1.00 20.00     0.164 C 
HETATM    4  C4  UNL     1     -32.300   7.217   2.228  1.00 20.00     0.113 C 
HETATM    5  N8  UNL     1     -33.346   3.693   4.638  1.00 20.00    -0.196 NA
HETATM    6  S9  UNL     1     -33.049   7.660   3.823  1.00 20.00    -0.151 SA
HETATM    7  S10 UNL     1     -33.109   5.727   1.551  1.00 20.00    -0.133 SA
ENDROOT
BRANCH   4   8
HETATM    8  C7  UNL     1     -32.451   8.369   1.244  1.00 20.00     0.001 C 
HETATM    9  C5  UNL     1     -32.670   9.688   1.984  1.00 20.00     0.011 C 
HETATM   10  C6  UNL     1     -31.227   8.465   0.333  1.00 20.00     0.011 C 
ENDBRANCH   4   8
TORSDOF 1
ENDMDL
MODEL 4
REMARK VINA RESULT:       2.8      1.476      2.474
REMARK  1 active torsions:
REMARK  status: ('A' for Active; 'I' for Inactive)
REMARK    1  A    between atoms: C4_4  and  C7_7 
ROOT
HETATM    1  C1  UNL     1     -32.176   8.068   1.581  1.00 20.00     0.075 C 
HETATM    2  C2  UNL     1     -33.305   5.959   0.903  1.00 20.00     0.105 C 
HETATM    3  C3  UNL     1     -33.402   7.261   1.686  1.00 20.00     0.164 C 
HETATM    4  C4  UNL     1     -32.988   5.204   3.473  1.00 20.00     0.113 C 
HETATM    5  N8  UNL     1     -31.209   8.704   1.498  1.00 20.00    -0.196 NA
HETATM    6  S9  UNL     1     -32.280   4.803   1.849  1.00 20.00    -0.151 SA
HETATM    7  S10 UNL     1     -33.775   6.850   3.422  1.00 20.00    -0.133 SA
ENDROOT
BRANCH   4   8
HETATM    8  C7  UNL     1     -34.024   4.157   3.862  1.00 20.00     0.001 C 
HETATM    9  C5  UNL     1     -33.393   3.068   4.729  1.00 20.00     0.011 C 
HETATM   10  C6  UNL     1     -35.200   4.806   4.592  1.00 20.00     0.011 C 
ENDBRANCH   4   8
TORSDOF 1
ENDMDL
MODEL 5
REMARK VINA RESULT:       3.0      2.477      4.461
REMARK  1 active torsions:
REMARK  status: ('A' for Active; 'I' for Inactive)
REMARK    1  A    between atoms: C4_4  and  C7_7 
ROOT
HETATM    1  C1  UNL     1     -33.927   4.694   3.688  1.00 20.00     0.075 C 
HETATM    2  C2  UNL     1     -34.512   7.104   3.497  1.00 20.00     0.105 C 
HETATM    3  C3  UNL     1     -34.225   5.800   2.764  1.00 20.00     0.164 C 
HETATM    4  C4  UNL     1     -32.010   7.424   2.540  1.00 20.00     0.113 C 
HETATM    5  N8  UNL     1     -33.692   3.823   4.417  1.00 20.00    -0.196 NA
HETATM    6  S9  UNL     1     -32.934   7.797   4.059  1.00 20.00    -0.151 SA
HETATM    7  S10 UNL     1     -32.842   6.090   1.614  1.00 20.00    -0.133 SA
ENDROOT
BRANCH   4   8
HETATM    8  C7  UNL     1     -31.917   8.669   1.668  1.00 20.00     0.001 C 
HETATM    9  C5  UNL     1     -31.641   8.292   0.213  1.00 20.00     0.011 C 
HETATM   10  C6  UNL     1     -33.198   9.498   1.771  1.00 20.00     0.011 C 
ENDBRANCH   4   8
TORSDOF 1
ENDMDL
