MODEL 1
REMARK VINA RESULT:       0.4      0.000      0.000
REMARK  1 active torsions:
REMARK  status: ('A' for Active; 'I' for Inactive)
REMARK    1  A    between atoms: C7_7  and  C10_10 
ROOT
HETATM    1  C1  UNL     1     -31.637   8.404   0.462  1.00 20.00     0.003 C 
HETATM    2  C2  UNL     1     -32.658   9.079   1.000  1.00 20.00     0.004 C 
HETATM    3  C3  UNL     1     -31.850   6.080   1.435  1.00 20.00     0.036 C 
HETATM    4  C4  UNL     1     -33.385   6.231   1.527  1.00 20.00     0.010 C 
HETATM    5  C5  UNL     1     -31.132   7.437   1.485  1.00 20.00     0.145 C 
HETATM    6  C6  UNL     1     -32.863   8.579   2.395  1.00 20.00     0.149 C 
HETATM    7  C7  UNL     1     -33.843   7.386   2.461  1.00 20.00     0.022 C 
HETATM    8  O11 UNL     1     -31.550   8.064   2.719  1.00 20.00    -0.373 OA
ENDROOT
BRANCH   7   9
HETATM    9  C10 UNL     1     -33.964   6.875   3.902  1.00 20.00    -0.016 C 
HETATM   10  C8  UNL     1     -33.860   8.035   4.887  1.00 20.00     0.010 C 
HETATM   11  C9  UNL     1     -35.276   6.122   4.090  1.00 20.00     0.010 C 
ENDBRANCH   7   9
TORSDOF 1
ENDMDL
MODEL 2
REMARK VINA RESULT:       1.9      1.302      3.647
REMARK  1 active torsions:
REMARK  status: ('A' for Active; 'I' for Inactive)
REMARK    1  A    between atoms: C7_7  and  C10_10 
ROOT
HETATM    1  C1  UNL     1     -33.481   5.884   3.443  1.00 20.00     0.003 C 
HETATM    2  C2  UNL     1     -33.688   7.186   3.668  1.00 20.00     0.004 C 
HETATM    3  C3  UNL     1     -31.909   5.839   1.463  1.00 20.00     0.036 C 
HETATM    4  C4  UNL     1     -31.284   7.184   1.895  1.00 20.00     0.010 C 
HETATM    5  C5  UNL     1     -33.352   5.684   1.967  1.00 20.00     0.145 C 
HETATM    6  C6  UNL     1     -33.700   7.889   2.346  1.00 20.00     0.149 C 
HETATM    7  C7  UNL     1     -32.295   8.364   1.912  1.00 20.00     0.022 C 
HETATM    8  O11 UNL     1     -34.079   6.820   1.448  1.00 20.00    -0.373 OA
ENDROOT
BRANCH   7   9
HETATM    9  C10 UNL     1     -32.358   9.018   0.527  1.00 20.00    -0.016 C 
HETATM   10  C8  UNL     1     -32.792  10.475   0.647  1.00 20.00     0.010 C 
HETATM   11  C9  UNL     1     -31.008   8.911  -0.173  1.00 20.00     0.010 C 
ENDBRANCH   7   9
TORSDOF 1
ENDMDL
MODEL 3
REMARK VINA RESULT:       2.2      1.342      2.556
REMARK  1 active torsions:
REMARK  status: ('A' for Active; 'I' for Inactive)
REMARK    1  A    between atoms: C7_7  and  C10_10 
ROOT
HETATM    1  C1  UNL     1     -31.569   5.777   0.706  1.00 20.00     0.003 C 
HETATM    2  C2  UNL     1     -32.005   5.038   1.732  1.00 20.00     0.004 C 
HETATM    3  C3  UNL     1     -32.150   8.149   1.359  1.00 20.00     0.036 C 
HETATM    4  C4  UNL     1     -31.987   7.804   2.857  1.00 20.00     0.010 C 
HETATM    5  C5  UNL     1     -32.519   6.917   0.520  1.00 20.00     0.145 C 
HETATM    6  C6  UNL     1     -33.257   5.667   2.258  1.00 20.00     0.149 C 
HETATM    7  C7  UNL     1     -32.978   6.717   3.358  1.00 20.00     0.022 C 
HETATM    8  O11 UNL     1     -33.734   6.389   1.099  1.00 20.00    -0.373 OA
ENDROOT
BRANCH   7   9
HETATM    9  C10 UNL     1     -34.287   7.372   3.813  1.00 20.00    -0.016 C 
HETATM   10  C8  UNL     1     -35.349   6.310   4.076  1.00 20.00     0.010 C 
HETATM   11  C9  UNL     1     -34.051   8.222   5.057  1.00 20.00     0.010 C 
ENDBRANCH   7   9
TORSDOF 1
ENDMDL
MODEL 4
REMARK VINA RESULT:       2.3      1.493      2.550
REMARK  1 active torsions:
REMARK  status: ('A' for Active; 'I' for Inactive)
REMARK    1  A    between atoms: C7_7  and  C10_10 
ROOT
HETATM    1  C1  UNL     1     -31.791   8.168   1.462  1.00 20.00     0.003 C 
HETATM    2  C2  UNL     1     -31.358   6.932   1.732  1.00 20.00     0.004 C 
HETATM    3  C3  UNL     1     -33.892   8.405   2.849  1.00 20.00     0.036 C 
HETATM    4  C4  UNL     1     -33.325   7.446   3.920  1.00 20.00     0.010 C 
HETATM    5  C5  UNL     1     -33.287   8.144   1.461  1.00 20.00     0.145 C 
HETATM    6  C6  UNL     1     -32.554   6.051   1.920  1.00 20.00     0.149 C 
HETATM    7  C7  UNL     1     -33.040   6.015   3.387  1.00 20.00     0.022 C 
HETATM    8  O11 UNL     1     -33.563   6.757   1.160  1.00 20.00    -0.373 OA
ENDROOT
BRANCH   7   9
HETATM    9  C10 UNL     1     -34.301   5.152   3.509  1.00 20.00    -0.016 C 
HETATM   10  C8  UNL     1     -33.980   3.838   4.214  1.00 20.00     0.010 C 
HETATM   11  C9  UNL     1     -35.395   5.911   4.252  1.00 20.00     0.010 C 
ENDBRANCH   7   9
TORSDOF 1
ENDMDL
MODEL 5
REMARK VINA RESULT:       2.8      1.314      3.669
REMARK  1 active torsions:
REMARK  status: ('A' for Active; 'I' for Inactive)
REMARK    1  A    between atoms: C7_7  and  C10_10 
ROOT
HETATM    1  C1  UNL     1     -34.060   7.878   5.226  1.00 20.00     0.003 C 
HETATM    2  C2  UNL     1     -32.810   8.047   4.783  1.00 20.00     0.004 C 
HETATM    3  C3  UNL     1     -35.037   6.135   3.676  1.00 20.00     0.036 C 
HETATM    4  C4  UNL     1     -33.645   5.494   3.477  1.00 20.00     0.010 C 
HETATM    5  C5  UNL     1     -34.940   7.624   4.044  1.00 20.00     0.145 C 
HETATM    6  C6  UNL     1     -32.823   7.908   3.293  1.00 20.00     0.149 C 
HETATM    7  C7  UNL     1     -32.605   6.450   2.830  1.00 20.00     0.022 C 
HETATM    8  O11 UNL     1     -34.193   8.250   2.977  1.00 20.00    -0.373 OA
ENDROOT
BRANCH   7   9
HETATM    9  C10 UNL     1     -32.692   6.358   1.302  1.00 20.00    -0.016 C 
HETATM   10  C8  UNL     1     -31.934   7.514   0.656  1.00 20.00     0.010 C 
HETATM   11  C9  UNL     1     -32.149   5.018   0.818  1.00 20.00     0.010 C 
ENDBRANCH   7   9
TORSDOF 1
ENDMDL
