MODEL 1
REMARK VINA RESULT:       1.0      0.000      0.000
REMARK  1 active torsions:
REMARK  status: ('A' for Active; 'I' for Inactive)
REMARK    1  A    between atoms: C7_7  and  N8_8 
ROOT
HETATM    1  C1  UNL     1     -32.708   8.626   0.512  1.00 20.00     0.005 C 
HETATM    2  C2  UNL     1     -32.519   9.339   1.859  1.00 20.00     0.007 C 
HETATM    3  C3  UNL     1     -30.984   7.535   1.739  1.00 20.00     0.011 C 
HETATM    4  C4  UNL     1     -33.116   6.458   1.693  1.00 20.00     0.027 C 
HETATM    5  C5  UNL     1     -32.137   7.225   0.782  1.00 20.00    -0.013 C 
HETATM    6  C6  UNL     1     -31.891   8.246   2.746  1.00 20.00     0.006 C 
HETATM    7  C7  UNL     1     -32.906   7.127   3.062  1.00 20.00     0.097 C 
ENDROOT
BRANCH   7   8
HETATM    8  N8  UNL     1     -34.144   7.557   3.693  1.00 20.00    -0.131 NA
HETATM    9 CL9  UNL     1     -35.291   6.228   3.882  1.00 20.00    -0.005 Cl
HETATM   10 CL10 UNL     1     -33.862   8.337   5.252  1.00 20.00    -0.005 Cl
ENDBRANCH   7   8
TORSDOF 1
ENDMDL
MODEL 2
REMARK VINA RESULT:       1.2      2.968      3.815
REMARK  1 active torsions:
REMARK  status: ('A' for Active; 'I' for Inactive)
REMARK    1  A    between atoms: C7_7  and  N8_8 
ROOT
HETATM    1  C1  UNL     1     -34.145   7.018   5.054  1.00 20.00     0.005 C 
HETATM    2  C2  UNL     1     -33.802   8.032   3.954  1.00 20.00     0.007 C 
HETATM    3  C3  UNL     1     -35.703   6.792   3.269  1.00 20.00     0.011 C 
HETATM    4  C4  UNL     1     -33.981   5.142   3.407  1.00 20.00     0.027 C 
HETATM    5  C5  UNL     1     -34.947   5.948   4.297  1.00 20.00    -0.013 C 
HETATM    6  C6  UNL     1     -34.422   7.401   2.692  1.00 20.00     0.006 C 
HETATM    7  C7  UNL     1     -33.662   6.126   2.268  1.00 20.00     0.097 C 
ENDROOT
BRANCH   7   8
HETATM    8  N8  UNL     1     -32.237   6.292   2.028  1.00 20.00    -0.131 NA
HETATM    9 CL9  UNL     1     -31.594   5.050   0.950  1.00 20.00    -0.005 Cl
HETATM   10 CL10 UNL     1     -31.849   7.896   1.398  1.00 20.00    -0.005 Cl
ENDBRANCH   7   8
TORSDOF 1
ENDMDL
MODEL 3
REMARK VINA RESULT:       1.2      0.793      2.429
REMARK  1 active torsions:
REMARK  status: ('A' for Active; 'I' for Inactive)
REMARK    1  A    between atoms: C7_7  and  N8_8 
ROOT
HETATM    1  C1  UNL     1     -31.416   5.969   1.542  1.00 20.00     0.005 C 
HETATM    2  C2  UNL     1     -32.897   5.566   1.594  1.00 20.00     0.007 C 
HETATM    3  C3  UNL     1     -32.726   7.676   0.525  1.00 20.00     0.011 C 
HETATM    4  C4  UNL     1     -31.932   8.105   2.736  1.00 20.00     0.027 C 
HETATM    5  C5  UNL     1     -31.480   7.497   1.394  1.00 20.00    -0.013 C 
HETATM    6  C6  UNL     1     -33.629   6.920   1.503  1.00 20.00     0.006 C 
HETATM    7  C7  UNL     1     -33.429   7.755   2.786  1.00 20.00     0.097 C 
ENDROOT
BRANCH   7   8
HETATM    8  N8  UNL     1     -33.833   7.113   4.026  1.00 20.00    -0.131 NA
HETATM    9 CL9  UNL     1     -33.781   8.223   5.398  1.00 20.00    -0.005 Cl
HETATM   10 CL10 UNL     1     -35.435   6.379   3.906  1.00 20.00    -0.005 Cl
ENDBRANCH   7   8
TORSDOF 1
ENDMDL
MODEL 4
REMARK VINA RESULT:       1.6      0.990      1.273
REMARK  1 active torsions:
REMARK  status: ('A' for Active; 'I' for Inactive)
REMARK    1  A    between atoms: C7_7  and  N8_8 
ROOT
HETATM    1  C1  UNL     1     -33.423   6.548   0.308  1.00 20.00     0.005 C 
HETATM    2  C2  UNL     1     -33.088   7.892   0.970  1.00 20.00     0.007 C 
HETATM    3  C3  UNL     1     -31.395   6.331   1.536  1.00 20.00     0.011 C 
HETATM    4  C4  UNL     1     -33.360   5.411   2.535  1.00 20.00     0.027 C 
HETATM    5  C5  UNL     1     -32.652   5.538   1.172  1.00 20.00    -0.013 C 
HETATM    6  C6  UNL     1     -32.191   7.483   2.155  1.00 20.00     0.006 C 
HETATM    7  C7  UNL     1     -32.996   6.731   3.236  1.00 20.00     0.097 C 
ENDROOT
BRANCH   7   8
HETATM    8  N8  UNL     1     -34.147   7.439   3.773  1.00 20.00    -0.131 NA
HETATM    9 CL9  UNL     1     -35.528   6.368   4.027  1.00 20.00    -0.005 Cl
HETATM   10 CL10 UNL     1     -33.765   8.295   5.269  1.00 20.00    -0.005 Cl
ENDBRANCH   7   8
TORSDOF 1
ENDMDL
MODEL 5
REMARK VINA RESULT:       2.2      2.512      3.459
REMARK  1 active torsions:
REMARK  status: ('A' for Active; 'I' for Inactive)
REMARK    1  A    between atoms: C7_7  and  N8_8 
ROOT
HETATM    1  C1  UNL     1     -33.115   8.103   4.955  1.00 20.00     0.005 C 
HETATM    2  C2  UNL     1     -32.210   7.996   3.719  1.00 20.00     0.007 C 
HETATM    3  C3  UNL     1     -34.393   8.585   3.005  1.00 20.00     0.011 C 
HETATM    4  C4  UNL     1     -34.687   6.422   3.975  1.00 20.00     0.027 C 
HETATM    5  C5  UNL     1     -34.521   7.903   4.369  1.00 20.00    -0.013 C 
HETATM    6  C6  UNL     1     -33.208   7.714   2.579  1.00 20.00     0.006 C 
HETATM    7  C7  UNL     1     -33.824   6.305   2.707  1.00 20.00     0.097 C 
ENDROOT
BRANCH   7   8
HETATM    8  N8  UNL     1     -32.876   5.203   2.751  1.00 20.00    -0.131 NA
HETATM    9 CL9  UNL     1     -33.526   3.799   3.603  1.00 20.00    -0.005 Cl
HETATM   10 CL10 UNL     1     -32.329   4.730   1.141  1.00 20.00    -0.005 Cl
ENDBRANCH   7   8
TORSDOF 1
ENDMDL
MODEL 6
REMARK VINA RESULT:       2.2      1.606      2.705
REMARK  1 active torsions:
REMARK  status: ('A' for Active; 'I' for Inactive)
REMARK    1  A    between atoms: C7_7  and  N8_8 
ROOT
HETATM    1  C1  UNL     1     -31.257   7.119   2.077  1.00 20.00     0.005 C 
HETATM    2  C2  UNL     1     -31.727   5.680   1.824  1.00 20.00     0.007 C 
HETATM    3  C3  UNL     1     -33.161   7.159   0.650  1.00 20.00     0.011 C 
HETATM    4  C4  UNL     1     -33.523   7.731   2.940  1.00 20.00     0.027 C 
HETATM    5  C5  UNL     1     -32.519   7.948   1.792  1.00 20.00    -0.013 C 
HETATM    6  C6  UNL     1     -33.213   5.858   1.456  1.00 20.00     0.006 C 
HETATM    7  C7  UNL     1     -34.044   6.308   2.677  1.00 20.00     0.097 C 
ENDROOT
BRANCH   7   8
HETATM    8  N8  UNL     1     -33.975   5.441   3.842  1.00 20.00    -0.131 NA
HETATM    9 CL9  UNL     1     -35.507   5.380   4.719  1.00 20.00    -0.005 Cl
HETATM   10 CL10 UNL     1     -33.454   3.806   3.425  1.00 20.00    -0.005 Cl
ENDBRANCH   7   8
TORSDOF 1
ENDMDL
MODEL 7
REMARK VINA RESULT:       2.2      2.825      3.693
REMARK  1 active torsions:
REMARK  status: ('A' for Active; 'I' for Inactive)
REMARK    1  A    between atoms: C7_7  and  N8_8 
ROOT
HETATM    1  C1  UNL     1     -33.350   6.111   4.651  1.00 20.00     0.005 C 
HETATM    2  C2  UNL     1     -33.520   7.637   4.653  1.00 20.00     0.007 C 
HETATM    3  C3  UNL     1     -35.328   6.678   3.455  1.00 20.00     0.011 C 
HETATM    4  C4  UNL     1     -33.417   6.085   2.150  1.00 20.00     0.027 C 
HETATM    5  C5  UNL     1     -34.173   5.675   3.429  1.00 20.00    -0.013 C 
HETATM    6  C6  UNL     1     -34.395   7.891   3.409  1.00 20.00     0.006 C 
HETATM    7  C7  UNL     1     -33.617   7.609   2.107  1.00 20.00     0.097 C 
ENDROOT
BRANCH   7   8
HETATM    8  N8  UNL     1     -32.378   8.352   1.938  1.00 20.00    -0.131 NA
HETATM    9 CL9  UNL     1     -31.007   7.291   1.600  1.00 20.00    -0.005 Cl
HETATM   10 CL10 UNL     1     -32.507   9.588   0.684  1.00 20.00    -0.005 Cl
ENDBRANCH   7   8
TORSDOF 1
ENDMDL
MODEL 8
REMARK VINA RESULT:       2.3      2.004      2.747
REMARK  1 active torsions:
REMARK  status: ('A' for Active; 'I' for Inactive)
REMARK    1  A    between atoms: C7_7  and  N8_8 
ROOT
HETATM    1  C1  UNL     1     -33.208   5.515   0.308  1.00 20.00     0.005 C 
HETATM    2  C2  UNL     1     -34.288   6.172   1.179  1.00 20.00     0.007 C 
HETATM    3  C3  UNL     1     -32.176   7.045   1.811  1.00 20.00     0.011 C 
HETATM    4  C4  UNL     1     -32.006   4.725   2.354  1.00 20.00     0.027 C 
HETATM    5  C5  UNL     1     -31.936   5.686   1.151  1.00 20.00    -0.013 C 
HETATM    6  C6  UNL     1     -33.505   6.609   2.433  1.00 20.00     0.006 C 
HETATM    7  C7  UNL     1     -33.051   5.391   3.265  1.00 20.00     0.097 C 
ENDROOT
BRANCH   7   8
HETATM    8  N8  UNL     1     -34.107   4.488   3.693  1.00 20.00    -0.131 NA
HETATM    9 CL9  UNL     1     -33.497   3.186   4.717  1.00 20.00    -0.005 Cl
HETATM   10 CL10 UNL     1     -35.418   5.339   4.516  1.00 20.00    -0.005 Cl
ENDBRANCH   7   8
TORSDOF 1
ENDMDL
MODEL 9
REMARK VINA RESULT:       2.4      1.377      2.373
REMARK  1 active torsions:
REMARK  status: ('A' for Active; 'I' for Inactive)
REMARK    1  A    between atoms: C7_7  and  N8_8 
ROOT
HETATM    1  C1  UNL     1     -31.433   6.127   1.590  1.00 20.00     0.005 C 
HETATM    2  C2  UNL     1     -32.888   5.753   1.270  1.00 20.00     0.007 C 
HETATM    3  C3  UNL     1     -32.627   8.091   0.971  1.00 20.00     0.011 C 
HETATM    4  C4  UNL     1     -32.211   7.777   3.302  1.00 20.00     0.027 C 
HETATM    5  C5  UNL     1     -31.530   7.623   1.929  1.00 20.00    -0.013 C 
HETATM    6  C6  UNL     1     -33.645   7.076   1.497  1.00 20.00     0.006 C 
HETATM    7  C7  UNL     1     -33.683   7.453   2.994  1.00 20.00     0.097 C 
ENDROOT
BRANCH   7   8
HETATM    8  N8  UNL     1     -34.255   6.454   3.882  1.00 20.00    -0.131 NA
HETATM    9 CL9  UNL     1     -36.012   6.355   3.729  1.00 20.00    -0.005 Cl
HETATM   10 CL10 UNL     1     -33.538   4.859   3.641  1.00 20.00    -0.005 Cl
ENDBRANCH   7   8
TORSDOF 1
ENDMDL
