MODEL 1
REMARK VINA RESULT:       1.0      0.000      0.000
REMARK  1 active torsions:
REMARK  status: ('A' for Active; 'I' for Inactive)
REMARK    1  A    between atoms: C7_7  and  C11_11 
ROOT
HETATM    1  C1  UNL     1     -34.043   6.682   3.261  1.00 20.00     0.131 C 
HETATM    2  C2  UNL     1     -33.333   7.835   3.927  1.00 20.00     0.079 C 
HETATM    3  C3  UNL     1     -33.007   8.920   2.913  1.00 20.00     0.017 C 
HETATM    4  C4  UNL     1     -31.148   7.407   1.871  1.00 20.00     0.016 A 
HETATM    5  C5  UNL     1     -33.434   6.089   2.001  1.00 20.00     0.056 C 
HETATM    6  C6  UNL     1     -32.470   6.985   1.272  1.00 20.00     0.006 A 
HETATM    7  C7  UNL     1     -32.258   8.421   1.699  1.00 20.00    -0.032 A 
HETATM    8  C8  UNL     1     -32.802   4.737   2.322  1.00 20.00     0.018 C 
HETATM    9  O12 UNL     1     -35.045   6.181   3.774  1.00 20.00    -0.298 OA
ENDROOT
BRANCH   7  10
HETATM   10  C11 UNL     1     -32.084   9.457   0.618  1.00 20.00    -0.014 C 
HETATM   11  C9  UNL     1     -32.597   8.945  -0.735  1.00 20.00     0.010 C 
HETATM   12  C10 UNL     1     -32.799  10.767   0.981  1.00 20.00     0.010 C 
ENDBRANCH   7  10
TORSDOF 1
ENDMDL
MODEL 2
REMARK VINA RESULT:       2.4      1.421      2.755
REMARK  1 active torsions:
REMARK  status: ('A' for Active; 'I' for Inactive)
REMARK    1  A    between atoms: C7_7  and  C11_11 
ROOT
HETATM    1  C1  UNL     1     -33.653   4.643   3.471  1.00 20.00     0.131 C 
HETATM    2  C2  UNL     1     -33.260   4.547   2.017  1.00 20.00     0.079 C 
HETATM    3  C3  UNL     1     -32.254   5.631   1.662  1.00 20.00     0.017 C 
HETATM    4  C4  UNL     1     -34.134   7.441   1.805  1.00 20.00     0.016 A 
HETATM    5  C5  UNL     1     -34.089   5.993   4.015  1.00 20.00     0.056 C 
HETATM    6  C6  UNL     1     -33.640   7.183   3.210  1.00 20.00     0.006 A 
HETATM    7  C7  UNL     1     -32.697   7.026   2.038  1.00 20.00    -0.032 A 
HETATM    8  C8  UNL     1     -35.601   6.000   4.221  1.00 20.00     0.018 C 
HETATM    9  O12 UNL     1     -33.699   3.633   4.176  1.00 20.00    -0.298 OA
ENDROOT
BRANCH   7  10
HETATM   10  C11 UNL     1     -31.635   8.079   1.844  1.00 20.00    -0.014 C 
HETATM   11  C9  UNL     1     -32.047   9.097   0.773  1.00 20.00     0.010 C 
HETATM   12  C10 UNL     1     -31.325   8.807   3.161  1.00 20.00     0.010 C 
ENDBRANCH   7  10
TORSDOF 1
ENDMDL
MODEL 3
REMARK VINA RESULT:       2.7      1.995      4.295
REMARK  1 active torsions:
REMARK  status: ('A' for Active; 'I' for Inactive)
REMARK    1  A    between atoms: C7_7  and  C11_11 
ROOT
HETATM    1  C1  UNL     1     -32.192   8.286   3.179  1.00 20.00     0.131 C 
HETATM    2  C2  UNL     1     -33.607   8.450   3.677  1.00 20.00     0.079 C 
HETATM    3  C3  UNL     1     -34.163   7.118   4.155  1.00 20.00     0.017 C 
HETATM    4  C4  UNL     1     -34.339   6.289   1.683  1.00 20.00     0.016 A 
HETATM    5  C5  UNL     1     -31.902   7.181   2.177  1.00 20.00     0.056 C 
HETATM    6  C6  UNL     1     -32.915   6.069   2.138  1.00 20.00     0.006 A 
HETATM    7  C7  UNL     1     -34.046   6.004   3.140  1.00 20.00    -0.032 A 
HETATM    8  C8  UNL     1     -31.686   7.785   0.792  1.00 20.00     0.018 C 
HETATM    9  O12 UNL     1     -31.313   9.083   3.512  1.00 20.00    -0.298 OA
ENDROOT
BRANCH   7  10
HETATM   10  C11 UNL     1     -34.439   4.649   3.670  1.00 20.00    -0.014 C 
HETATM   11  C9  UNL     1     -33.208   3.834   4.088  1.00 20.00     0.010 C 
HETATM   12  C10 UNL     1     -35.407   4.772   4.856  1.00 20.00     0.010 C 
ENDBRANCH   7  10
TORSDOF 1
ENDMDL
MODEL 4
REMARK VINA RESULT:       3.0      2.010      4.283
REMARK  1 active torsions:
REMARK  status: ('A' for Active; 'I' for Inactive)
REMARK    1  A    between atoms: C7_7  and  C11_11 
ROOT
HETATM    1  C1  UNL     1     -32.164   5.738   1.378  1.00 20.00     0.131 C 
HETATM    2  C2  UNL     1     -32.126   4.922   2.647  1.00 20.00     0.079 C 
HETATM    3  C3  UNL     1     -33.472   4.967   3.352  1.00 20.00     0.017 C 
HETATM    4  C4  UNL     1     -33.039   7.448   4.052  1.00 20.00     0.016 A 
HETATM    5  C5  UNL     1     -32.697   7.159   1.448  1.00 20.00     0.056 C 
HETATM    6  C6  UNL     1     -33.569   7.458   2.637  1.00 20.00     0.006 A 
HETATM    7  C7  UNL     1     -33.993   6.366   3.594  1.00 20.00    -0.032 A 
HETATM    8  C8  UNL     1     -31.541   8.149   1.344  1.00 20.00     0.018 C 
HETATM    9  O12 UNL     1     -31.693   5.290   0.330  1.00 20.00    -0.298 OA
ENDROOT
BRANCH   7  10
HETATM   10  C11 UNL     1     -35.398   6.411   4.136  1.00 20.00    -0.014 C 
HETATM   11  C9  UNL     1     -36.411   6.756   3.035  1.00 20.00     0.010 C 
HETATM   12  C10 UNL     1     -35.785   5.080   4.797  1.00 20.00     0.010 C 
ENDBRANCH   7  10
TORSDOF 1
ENDMDL
MODEL 5
REMARK VINA RESULT:       3.1      2.133      4.452
REMARK  1 active torsions:
REMARK  status: ('A' for Active; 'I' for Inactive)
REMARK    1  A    between atoms: C7_7  and  C11_11 
ROOT
HETATM    1  C1  UNL     1     -32.405   9.433  -0.123  1.00 20.00     0.131 C 
HETATM    2  C2  UNL     1     -31.423   8.297   0.026  1.00 20.00     0.079 C 
HETATM    3  C3  UNL     1     -31.968   7.242   0.976  1.00 20.00     0.017 C 
HETATM    4  C4  UNL     1     -31.567   8.840   3.004  1.00 20.00     0.016 A 
HETATM    5  C5  UNL     1     -32.971  10.070   1.135  1.00 20.00     0.056 C 
HETATM    6  C6  UNL     1     -32.887   9.222   2.375  1.00 20.00     0.006 A 
HETATM    7  C7  UNL     1     -32.409   7.788   2.314  1.00 20.00    -0.032 A 
HETATM    8  C8  UNL     1     -32.332  11.438   1.353  1.00 20.00     0.018 C 
HETATM    9  O12 UNL     1     -32.673   9.888  -1.237  1.00 20.00    -0.298 OA
ENDROOT
BRANCH   7  10
HETATM   10  C11 UNL     1     -33.104   6.777   3.190  1.00 20.00    -0.014 C 
HETATM   11  C9  UNL     1     -34.366   7.368   3.832  1.00 20.00     0.010 C 
HETATM   12  C10 UNL     1     -33.468   5.511   2.400  1.00 20.00     0.010 C 
ENDBRANCH   7  10
TORSDOF 1
ENDMDL
MODEL 6
REMARK VINA RESULT:       3.5      2.200      5.156
REMARK  1 active torsions:
REMARK  status: ('A' for Active; 'I' for Inactive)
REMARK    1  A    between atoms: C7_7  and  C11_11 
ROOT
HETATM    1  C1  UNL     1     -34.330   7.049   3.826  1.00 20.00     0.131 C 
HETATM    2  C2  UNL     1     -35.373   5.974   4.008  1.00 20.00     0.079 C 
HETATM    3  C3  UNL     1     -34.754   4.727   4.619  1.00 20.00     0.017 C 
HETATM    4  C4  UNL     1     -33.538   4.208   2.365  1.00 20.00     0.016 A 
HETATM    5  C5  UNL     1     -33.029   6.685   3.128  1.00 20.00     0.056 C 
HETATM    6  C6  UNL     1     -32.700   5.217   3.114  1.00 20.00     0.006 A 
HETATM    7  C7  UNL     1     -33.539   4.217   3.878  1.00 20.00    -0.032 A 
HETATM    8  C8  UNL     1     -33.020   7.270   1.719  1.00 20.00     0.018 C 
HETATM    9  O12 UNL     1     -34.563   8.213   4.159  1.00 20.00    -0.298 OA
ENDROOT
BRANCH   7  10
HETATM   10  C11 UNL     1     -32.825   3.088   4.576  1.00 20.00    -0.014 C 
HETATM   11  C9  UNL     1     -32.630   3.386   6.068  1.00 20.00     0.010 C 
HETATM   12  C10 UNL     1     -33.582   1.762   4.407  1.00 20.00     0.010 C 
ENDBRANCH   7  10
TORSDOF 1
ENDMDL
