MODEL 1
REMARK VINA RESULT:      -1.6      0.000      0.000
REMARK  2 active torsions:
REMARK  status: ('A' for Active; 'I' for Inactive)
REMARK    1  A    between atoms: C7_7  and  C10_10 
REMARK    2  A    between atoms: C9_9  and  C10_10 
ROOT
HETATM    1  C1  UNL     1     -33.155   2.581   4.813  1.00 20.00     0.012 C 
HETATM    2  C2  UNL     1     -33.692   3.568   4.389  1.00 20.00    -0.117 C 
HETATM    3  C9  UNL     1     -34.353   4.775   3.874  1.00 20.00     0.093 C 
ENDROOT
BRANCH   3   4
HETATM    4  C10 UNL     1     -33.483   5.442   2.825  1.00 20.00     0.020 C 
BRANCH   4   5
HETATM    5  C7  UNL     1     -33.817   6.926   2.707  1.00 20.00     0.023 C 
HETATM    6  C4  UNL     1     -34.473   7.464   3.992  1.00 20.00     0.008 C 
HETATM    7  C3  UNL     1     -33.294   7.883   4.869  1.00 20.00     0.004 C 
HETATM    8  C5  UNL     1     -32.300   8.498   3.883  1.00 20.00     0.041 C 
HETATM    9  C8  UNL     1     -32.573   7.771   2.597  1.00 20.00     0.086 A 
HETATM   10  C6  UNL     1     -31.536   7.616   1.508  1.00 20.00     0.207 A 
HETATM   11  O11 UNL     1     -32.548   8.624   1.439  1.00 20.00    -0.375 OA
ENDBRANCH   4   5
ENDBRANCH   3   4
TORSDOF 2
ENDMDL
MODEL 2
REMARK VINA RESULT:      -1.6      1.936      4.846
REMARK  2 active torsions:
REMARK  status: ('A' for Active; 'I' for Inactive)
REMARK    1  A    between atoms: C7_7  and  C10_10 
REMARK    2  A    between atoms: C9_9  and  C10_10 
ROOT
HETATM    1  C1  UNL     1     -32.764  10.535   0.012  1.00 20.00     0.012 C 
HETATM    2  C2  UNL     1     -32.236   9.539   0.427  1.00 20.00    -0.117 C 
HETATM    3  C9  UNL     1     -31.587   8.321   0.931  1.00 20.00     0.093 C 
ENDROOT
BRANCH   3   4
HETATM    4  C10 UNL     1     -32.202   7.908   2.255  1.00 20.00     0.020 C 
BRANCH   4   5
HETATM    5  C7  UNL     1     -33.394   6.981   2.033  1.00 20.00     0.023 C 
HETATM    6  C4  UNL     1     -32.988   5.708   1.268  1.00 20.00     0.008 C 
HETATM    7  C3  UNL     1     -32.542   4.739   2.361  1.00 20.00     0.004 C 
HETATM    8  C5  UNL     1     -33.532   4.986   3.501  1.00 20.00     0.041 C 
HETATM    9  C8  UNL     1     -33.920   6.428   3.333  1.00 20.00     0.086 A 
HETATM   10  C6  UNL     1     -34.420   7.280   4.477  1.00 20.00     0.207 A 
HETATM   11  O11 UNL     1     -35.321   6.673   3.546  1.00 20.00    -0.375 OA
ENDBRANCH   4   5
ENDBRANCH   3   4
TORSDOF 2
ENDMDL
MODEL 3
REMARK VINA RESULT:      -1.1      2.139      4.384
REMARK  2 active torsions:
REMARK  status: ('A' for Active; 'I' for Inactive)
REMARK    1  A    between atoms: C7_7  and  C10_10 
REMARK    2  A    between atoms: C9_9  and  C10_10 
ROOT
HETATM    1  C1  UNL     1     -32.031   8.929   1.127  1.00 20.00     0.012 C 
HETATM    2  C2  UNL     1     -31.974   7.736   1.250  1.00 20.00    -0.117 C 
HETATM    3  C9  UNL     1     -31.898   6.276   1.399  1.00 20.00     0.093 C 
ENDROOT
BRANCH   3   4
HETATM    4  C10 UNL     1     -33.222   5.731   1.903  1.00 20.00     0.020 C 
BRANCH   4   5
HETATM    5  C7  UNL     1     -33.306   5.832   3.424  1.00 20.00     0.023 C 
HETATM    6  C4  UNL     1     -34.179   7.020   3.866  1.00 20.00     0.008 C 
HETATM    7  C3  UNL     1     -35.596   6.450   3.908  1.00 20.00     0.004 C 
HETATM    8  C5  UNL     1     -35.411   5.039   4.469  1.00 20.00     0.041 C 
HETATM    9  C8  UNL     1     -34.030   4.652   4.021  1.00 20.00     0.086 A 
HETATM   10  C6  UNL     1     -33.599   3.214   3.845  1.00 20.00     0.207 A 
HETATM   11  O11 UNL     1     -33.275   3.953   5.026  1.00 20.00    -0.375 OA
ENDBRANCH   4   5
ENDBRANCH   3   4
TORSDOF 2
ENDMDL
MODEL 4
REMARK VINA RESULT:      -0.4      2.037      4.663
REMARK  2 active torsions:
REMARK  status: ('A' for Active; 'I' for Inactive)
REMARK    1  A    between atoms: C7_7  and  C10_10 
REMARK    2  A    between atoms: C9_9  and  C10_10 
ROOT
HETATM    1  C1  UNL     1     -32.700  10.599  -0.834  1.00 20.00     0.012 C 
HETATM    2  C2  UNL     1     -32.347   9.829   0.016  1.00 20.00    -0.117 C 
HETATM    3  C9  UNL     1     -31.909   8.885   1.053  1.00 20.00     0.093 C 
ENDROOT
BRANCH   3   4
HETATM    4  C10 UNL     1     -33.011   8.681   2.076  1.00 20.00     0.020 C 
BRANCH   4   5
HETATM    5  C7  UNL     1     -32.686   7.507   2.996  1.00 20.00     0.023 C 
HETATM    6  C4  UNL     1     -33.333   7.677   4.382  1.00 20.00     0.008 C 
HETATM    7  C3  UNL     1     -34.724   7.063   4.226  1.00 20.00     0.004 C 
HETATM    8  C5  UNL     1     -34.489   5.839   3.340  1.00 20.00     0.041 C 
HETATM    9  C8  UNL     1     -33.303   6.223   2.502  1.00 20.00     0.086 A 
HETATM   10  C6  UNL     1     -33.028   5.618   1.145  1.00 20.00     0.207 A 
HETATM   11  O11 UNL     1     -32.358   5.155   2.320  1.00 20.00    -0.375 OA
ENDBRANCH   4   5
ENDBRANCH   3   4
TORSDOF 2
ENDMDL
MODEL 5
REMARK VINA RESULT:      -0.4      1.305      1.763
REMARK  2 active torsions:
REMARK  status: ('A' for Active; 'I' for Inactive)
REMARK    1  A    between atoms: C7_7  and  C10_10 
REMARK    2  A    between atoms: C9_9  and  C10_10 
ROOT
HETATM    1  C1  UNL     1     -33.038   2.609   4.801  1.00 20.00     0.012 C 
HETATM    2  C2  UNL     1     -33.738   3.538   4.504  1.00 20.00    -0.117 C 
HETATM    3  C9  UNL     1     -34.600   4.670   4.139  1.00 20.00     0.093 C 
ENDROOT
BRANCH   3   4
HETATM    4  C10 UNL     1     -33.797   5.958   4.127  1.00 20.00     0.020 C 
BRANCH   4   5
HETATM    5  C7  UNL     1     -33.961   6.687   2.797  1.00 20.00     0.023 C 
HETATM    6  C4  UNL     1     -33.862   8.213   2.970  1.00 20.00     0.008 C 
HETATM    7  C3  UNL     1     -32.368   8.509   2.853  1.00 20.00     0.004 C 
HETATM    8  C5  UNL     1     -31.890   7.562   1.751  1.00 20.00     0.041 C 
HETATM    9  C8  UNL     1     -32.824   6.390   1.853  1.00 20.00     0.086 A 
HETATM   10  C6  UNL     1     -32.451   5.002   1.384  1.00 20.00     0.207 A 
HETATM   11  O11 UNL     1     -33.244   5.878   0.577  1.00 20.00    -0.375 OA
ENDBRANCH   4   5
ENDBRANCH   3   4
TORSDOF 2
ENDMDL
MODEL 6
REMARK VINA RESULT:       0.2      1.298      2.309
REMARK  2 active torsions:
REMARK  status: ('A' for Active; 'I' for Inactive)
REMARK    1  A    between atoms: C7_7  and  C10_10 
REMARK    2  A    between atoms: C9_9  and  C10_10 
ROOT
HETATM    1  C1  UNL     1     -33.058   2.807   4.692  1.00 20.00     0.012 C 
HETATM    2  C2  UNL     1     -33.875   3.670   4.524  1.00 20.00    -0.117 C 
HETATM    3  C9  UNL     1     -34.878   4.725   4.323  1.00 20.00     0.093 C 
ENDROOT
BRANCH   3   4
HETATM    4  C10 UNL     1     -34.519   5.566   3.112  1.00 20.00     0.020 C 
BRANCH   4   5
HETATM    5  C7  UNL     1     -33.097   6.108   3.230  1.00 20.00     0.023 C 
HETATM    6  C4  UNL     1     -32.291   5.873   1.941  1.00 20.00     0.008 C 
HETATM    7  C3  UNL     1     -32.597   7.096   1.078  1.00 20.00     0.004 C 
HETATM    8  C5  UNL     1     -32.631   8.254   2.077  1.00 20.00     0.041 C 
HETATM    9  C8  UNL     1     -33.082   7.610   3.358  1.00 20.00     0.086 A 
HETATM   10  C6  UNL     1     -33.781   8.375   4.458  1.00 20.00     0.207 A 
HETATM   11  O11 UNL     1     -32.381   8.089   4.519  1.00 20.00    -0.375 OA
ENDBRANCH   4   5
ENDBRANCH   3   4
TORSDOF 2
ENDMDL
MODEL 7
REMARK VINA RESULT:       0.7      1.960      3.180
REMARK  2 active torsions:
REMARK  status: ('A' for Active; 'I' for Inactive)
REMARK    1  A    between atoms: C7_7  and  C10_10 
REMARK    2  A    between atoms: C9_9  and  C10_10 
ROOT
HETATM    1  C1  UNL     1     -35.351   5.856   4.031  1.00 20.00     0.012 C 
HETATM    2  C2  UNL     1     -34.664   6.810   4.273  1.00 20.00    -0.117 C 
HETATM    3  C9  UNL     1     -33.827   7.980   4.573  1.00 20.00     0.093 C 
ENDROOT
BRANCH   3   4
HETATM    4  C10 UNL     1     -32.642   8.032   3.627  1.00 20.00     0.020 C 
BRANCH   4   5
HETATM    5  C7  UNL     1     -33.099   7.896   2.177  1.00 20.00     0.023 C 
HETATM    6  C4  UNL     1     -32.844   9.186   1.377  1.00 20.00     0.008 C 
HETATM    7  C3  UNL     1     -31.416   9.029   0.856  1.00 20.00     0.004 C 
HETATM    8  C5  UNL     1     -31.319   7.549   0.484  1.00 20.00     0.041 C 
HETATM    9  C8  UNL     1     -32.277   6.878   1.427  1.00 20.00     0.086 A 
HETATM   10  C6  UNL     1     -32.147   5.427   1.833  1.00 20.00     0.207 A 
HETATM   11  O11 UNL     1     -33.058   5.840   0.810  1.00 20.00    -0.375 OA
ENDBRANCH   4   5
ENDBRANCH   3   4
TORSDOF 2
ENDMDL
MODEL 8
REMARK VINA RESULT:       1.1      2.518      4.001
REMARK  2 active torsions:
REMARK  status: ('A' for Active; 'I' for Inactive)
REMARK    1  A    between atoms: C7_7  and  C10_10 
REMARK    2  A    between atoms: C9_9  and  C10_10 
ROOT
HETATM    1  C1  UNL     1     -31.174   3.824   0.022  1.00 20.00     0.012 C 
HETATM    2  C2  UNL     1     -31.573   4.792   0.610  1.00 20.00    -0.117 C 
HETATM    3  C9  UNL     1     -32.055   5.979   1.329  1.00 20.00     0.093 C 
ENDROOT
BRANCH   3   4
HETATM    4  C10 UNL     1     -33.437   5.719   1.901  1.00 20.00     0.020 C 
BRANCH   4   5
HETATM    5  C7  UNL     1     -33.416   5.797   3.425  1.00 20.00     0.023 C 
HETATM    6  C4  UNL     1     -34.279   6.960   3.946  1.00 20.00     0.008 C 
HETATM    7  C3  UNL     1     -35.678   6.360   4.078  1.00 20.00     0.004 C 
HETATM    8  C5  UNL     1     -35.426   4.946   4.603  1.00 20.00     0.041 C 
HETATM    9  C8  UNL     1     -34.073   4.594   4.054  1.00 20.00     0.086 A 
HETATM   10  C6  UNL     1     -33.627   3.168   3.826  1.00 20.00     0.207 A 
HETATM   11  O11 UNL     1     -33.236   3.897   4.992  1.00 20.00    -0.375 OA
ENDBRANCH   4   5
ENDBRANCH   3   4
TORSDOF 2
ENDMDL
MODEL 9
REMARK VINA RESULT:       1.3      1.990      3.176
REMARK  2 active torsions:
REMARK  status: ('A' for Active; 'I' for Inactive)
REMARK    1  A    between atoms: C7_7  and  C10_10 
REMARK    2  A    between atoms: C9_9  and  C10_10 
ROOT
HETATM    1  C1  UNL     1     -35.506   5.968   4.010  1.00 20.00     0.012 C 
HETATM    2  C2  UNL     1     -34.548   6.675   4.162  1.00 20.00    -0.117 C 
HETATM    3  C9  UNL     1     -33.375   7.537   4.354  1.00 20.00     0.093 C 
ENDROOT
BRANCH   3   4
HETATM    4  C10 UNL     1     -33.256   8.524   3.208  1.00 20.00     0.020 C 
BRANCH   4   5
HETATM    5  C7  UNL     1     -32.135   8.118   2.255  1.00 20.00     0.023 C 
HETATM    6  C4  UNL     1     -32.046   6.589   2.105  1.00 20.00     0.008 C 
HETATM    7  C3  UNL     1     -33.016   6.265   0.970  1.00 20.00     0.004 C 
HETATM    8  C5  UNL     1     -32.820   7.413  -0.022  1.00 20.00     0.041 C 
HETATM    9  C8  UNL     1     -32.411   8.570   0.844  1.00 20.00     0.086 A 
HETATM   10  C6  UNL     1     -32.629  10.011   0.443  1.00 20.00     0.207 A 
HETATM   11  O11 UNL     1     -31.361   9.371   0.274  1.00 20.00    -0.375 OA
ENDBRANCH   4   5
ENDBRANCH   3   4
TORSDOF 2
ENDMDL
