MODEL 1
REMARK VINA RESULT:      -0.8      0.000      0.000
REMARK  2 active torsions:
REMARK  status: ('A' for Active; 'I' for Inactive)
REMARK    1  A    between atoms: C2_2  and  C5_5 
REMARK    2  A    between atoms: C7_7  and  C10_10 
ROOT
HETATM    1  C1  UNL     1     -33.095   6.756   1.991  1.00 20.00    -0.006 A 
HETATM    2  C2  UNL     1     -33.734   6.776   3.163  1.00 20.00     0.005 A 
HETATM    3  C3  UNL     1     -33.137   7.890   3.923  1.00 20.00     0.159 A 
HETATM    4  C6  UNL     1     -32.035   8.560   3.150  1.00 20.00     0.092 A 
HETATM    5  C7  UNL     1     -32.042   7.811   1.815  1.00 20.00     0.019 A 
HETATM    6  O11 UNL     1     -33.489   8.218   5.047  1.00 20.00    -0.292 OA
ENDROOT
BRANCH   5   7
HETATM    7  C10 UNL     1     -32.359   8.730   0.640  1.00 20.00    -0.015 C 
HETATM    8  C8  UNL     1     -32.753  10.121   1.135  1.00 20.00     0.010 C 
HETATM    9  C9  UNL     1     -31.166   8.818  -0.311  1.00 20.00     0.010 C 
ENDBRANCH   5   7
BRANCH   2  10
HETATM   10  C5  UNL     1     -34.774   5.920   3.628  1.00 20.00     0.004 C 
HETATM   11  C4  UNL     1     -34.475   4.707   4.146  1.00 20.00     0.012 C 
ENDBRANCH   2  10
TORSDOF 2
ENDMDL
MODEL 2
REMARK VINA RESULT:      -0.7      1.792      2.828
REMARK  2 active torsions:
REMARK  status: ('A' for Active; 'I' for Inactive)
REMARK    1  A    between atoms: C2_2  and  C5_5 
REMARK    2  A    between atoms: C7_7  and  C10_10 
ROOT
HETATM    1  C1  UNL     1     -32.804   5.278   3.431  1.00 20.00    -0.006 A 
HETATM    2  C2  UNL     1     -33.766   4.537   3.984  1.00 20.00     0.005 A 
HETATM    3  C3  UNL     1     -34.916   5.443   4.160  1.00 20.00     0.159 A 
HETATM    4  C6  UNL     1     -34.595   6.839   3.704  1.00 20.00     0.092 A 
HETATM    5  C7  UNL     1     -33.168   6.710   3.165  1.00 20.00     0.019 A 
HETATM    6  O11 UNL     1     -35.992   5.102   4.630  1.00 20.00    -0.292 OA
ENDROOT
BRANCH   5   7
HETATM    7  C10 UNL     1     -33.079   7.045   1.680  1.00 20.00    -0.015 C 
HETATM    8  C8  UNL     1     -32.108   8.201   1.445  1.00 20.00     0.010 C 
HETATM    9  C9  UNL     1     -32.655   5.817   0.875  1.00 20.00     0.010 C 
ENDBRANCH   5   7
BRANCH   2  10
HETATM   10  C5  UNL     1     -33.734   3.161   4.351  1.00 20.00     0.004 C 
HETATM   11  C4  UNL     1     -32.803   2.711   5.222  1.00 20.00     0.012 C 
ENDBRANCH   2  10
TORSDOF 2
ENDMDL
MODEL 3
REMARK VINA RESULT:      -0.2      1.897      4.505
REMARK  2 active torsions:
REMARK  status: ('A' for Active; 'I' for Inactive)
REMARK    1  A    between atoms: C2_2  and  C5_5 
REMARK    2  A    between atoms: C7_7  and  C10_10 
ROOT
HETATM    1  C1  UNL     1     -33.024   7.756   3.018  1.00 20.00    -0.006 A 
HETATM    2  C2  UNL     1     -32.500   7.493   1.819  1.00 20.00     0.005 A 
HETATM    3  C3  UNL     1     -32.551   6.027   1.674  1.00 20.00     0.159 A 
HETATM    4  C6  UNL     1     -33.120   5.369   2.901  1.00 20.00     0.092 A 
HETATM    5  C7  UNL     1     -33.482   6.557   3.796  1.00 20.00     0.019 A 
HETATM    6  O11 UNL     1     -32.167   5.422   0.684  1.00 20.00    -0.292 OA
ENDROOT
BRANCH   5   7
HETATM    7  C10 UNL     1     -34.976   6.620   4.094  1.00 20.00    -0.015 C 
HETATM    8  C8  UNL     1     -35.751   7.097   2.867  1.00 20.00     0.010 C 
HETATM    9  C9  UNL     1     -35.491   5.257   4.556  1.00 20.00     0.010 C 
ENDBRANCH   5   7
BRANCH   2  10
HETATM   10  C5  UNL     1     -31.984   8.402   0.851  1.00 20.00     0.004 C 
HETATM   11  C4  UNL     1     -32.564   9.611   0.675  1.00 20.00     0.012 C 
ENDBRANCH   2  10
TORSDOF 2
ENDMDL
MODEL 4
REMARK VINA RESULT:       0.0      1.585      2.230
REMARK  2 active torsions:
REMARK  status: ('A' for Active; 'I' for Inactive)
REMARK    1  A    between atoms: C2_2  and  C5_5 
REMARK    2  A    between atoms: C7_7  and  C10_10 
ROOT
HETATM    1  C1  UNL     1     -31.891   7.298   1.143  1.00 20.00    -0.006 A 
HETATM    2  C2  UNL     1     -32.546   6.272   1.692  1.00 20.00     0.005 A 
HETATM    3  C3  UNL     1     -33.363   6.854   2.773  1.00 20.00     0.159 A 
HETATM    4  C6  UNL     1     -33.148   8.337   2.893  1.00 20.00     0.092 A 
HETATM    5  C7  UNL     1     -32.177   8.642   1.748  1.00 20.00     0.019 A 
HETATM    6  O11 UNL     1     -34.112   6.206   3.490  1.00 20.00    -0.292 OA
ENDROOT
BRANCH   5   7
HETATM    7  C10 UNL     1     -32.774   9.602   0.727  1.00 20.00    -0.015 C 
HETATM    8  C8  UNL     1     -32.468  11.051   1.104  1.00 20.00     0.010 C 
HETATM    9  C9  UNL     1     -32.249   9.292  -0.675  1.00 20.00     0.010 C 
ENDBRANCH   5   7
BRANCH   2  10
HETATM   10  C5  UNL     1     -32.494   4.892   1.346  1.00 20.00     0.004 C 
HETATM   11  C4  UNL     1     -31.613   4.456   0.418  1.00 20.00     0.012 C 
ENDBRANCH   2  10
TORSDOF 2
ENDMDL
MODEL 5
REMARK VINA RESULT:       0.4      1.647      2.302
REMARK  2 active torsions:
REMARK  status: ('A' for Active; 'I' for Inactive)
REMARK    1  A    between atoms: C2_2  and  C5_5 
REMARK    2  A    between atoms: C7_7  and  C10_10 
ROOT
HETATM    1  C1  UNL     1     -33.963   7.340   2.450  1.00 20.00    -0.006 A 
HETATM    2  C2  UNL     1     -34.190   6.325   3.288  1.00 20.00     0.005 A 
HETATM    3  C3  UNL     1     -33.277   5.248   2.866  1.00 20.00     0.159 A 
HETATM    4  C6  UNL     1     -32.469   5.647   1.662  1.00 20.00     0.092 A 
HETATM    5  C7  UNL     1     -32.909   7.092   1.411  1.00 20.00     0.019 A 
HETATM    6  O11 UNL     1     -33.196   4.161   3.420  1.00 20.00    -0.292 OA
ENDROOT
BRANCH   5   7
HETATM    7  C10 UNL     1     -31.753   8.077   1.538  1.00 20.00    -0.015 C 
HETATM    8  C8  UNL     1     -31.948   9.263   0.595  1.00 20.00     0.010 C 
HETATM    9  C9  UNL     1     -31.612   8.559   2.982  1.00 20.00     0.010 C 
ENDBRANCH   5   7
BRANCH   2  10
HETATM   10  C5  UNL     1     -35.113   6.250   4.371  1.00 20.00     0.004 C 
HETATM   11  C4  UNL     1     -35.597   5.053   4.770  1.00 20.00     0.012 C 
ENDBRANCH   2  10
TORSDOF 2
ENDMDL
MODEL 6
REMARK VINA RESULT:       0.4      1.104      4.228
REMARK  2 active torsions:
REMARK  status: ('A' for Active; 'I' for Inactive)
REMARK    1  A    between atoms: C2_2  and  C5_5 
REMARK    2  A    between atoms: C7_7  and  C10_10 
ROOT
HETATM    1  C1  UNL     1     -33.625   6.916   2.335  1.00 20.00    -0.006 A 
HETATM    2  C2  UNL     1     -32.571   7.733   2.276  1.00 20.00     0.005 A 
HETATM    3  C3  UNL     1     -32.443   8.317   3.624  1.00 20.00     0.159 A 
HETATM    4  C6  UNL     1     -33.529   7.830   4.543  1.00 20.00     0.092 A 
HETATM    5  C7  UNL     1     -34.305   6.840   3.671  1.00 20.00     0.019 A 
HETATM    6  O11 UNL     1     -31.569   9.108   3.948  1.00 20.00    -0.292 OA
ENDROOT
BRANCH   5   7
HETATM    7  C10 UNL     1     -34.272   5.425   4.237  1.00 20.00    -0.015 C 
HETATM    8  C8  UNL     1     -35.666   4.994   4.692  1.00 20.00     0.010 C 
HETATM    9  C9  UNL     1     -33.720   4.444   3.204  1.00 20.00     0.010 C 
ENDBRANCH   5   7
BRANCH   2  10
HETATM   10  C5  UNL     1     -31.723   8.018   1.167  1.00 20.00     0.004 C 
HETATM   11  C4  UNL     1     -31.944   9.113   0.405  1.00 20.00     0.012 C 
ENDBRANCH   2  10
TORSDOF 2
ENDMDL
MODEL 7
REMARK VINA RESULT:       0.4      2.291      3.232
REMARK  2 active torsions:
REMARK  status: ('A' for Active; 'I' for Inactive)
REMARK    1  A    between atoms: C2_2  and  C5_5 
REMARK    2  A    between atoms: C7_7  and  C10_10 
ROOT
HETATM    1  C1  UNL     1     -34.336   6.123   3.808  1.00 20.00    -0.006 A 
HETATM    2  C2  UNL     1     -33.772   5.003   3.349  1.00 20.00     0.005 A 
HETATM    3  C3  UNL     1     -33.011   5.402   2.151  1.00 20.00     0.159 A 
HETATM    4  C6  UNL     1     -33.165   6.869   1.860  1.00 20.00     0.092 A 
HETATM    5  C7  UNL     1     -34.033   7.365   3.020  1.00 20.00     0.019 A 
HETATM    6  O11 UNL     1     -32.348   4.631   1.473  1.00 20.00    -0.292 OA
ENDROOT
BRANCH   5   7
HETATM    7  C10 UNL     1     -33.318   8.408   3.871  1.00 20.00    -0.015 C 
HETATM    8  C8  UNL     1     -33.344   8.011   5.346  1.00 20.00     0.010 C 
HETATM    9  C9  UNL     1     -31.879   8.598   3.393  1.00 20.00     0.010 C 
ENDBRANCH   5   7
BRANCH   2  10
HETATM   10  C5  UNL     1     -33.863   3.680   3.870  1.00 20.00     0.004 C 
HETATM   11  C4  UNL     1     -33.040   3.283   4.866  1.00 20.00     0.012 C 
ENDBRANCH   2  10
TORSDOF 2
ENDMDL
MODEL 8
REMARK VINA RESULT:       0.6      1.648      4.904
REMARK  2 active torsions:
REMARK  status: ('A' for Active; 'I' for Inactive)
REMARK    1  A    between atoms: C2_2  and  C5_5 
REMARK    2  A    between atoms: C7_7  and  C10_10 
ROOT
HETATM    1  C1  UNL     1     -33.358   4.708   2.722  1.00 20.00    -0.006 A 
HETATM    2  C2  UNL     1     -33.394   6.041   2.642  1.00 20.00     0.005 A 
HETATM    3  C3  UNL     1     -34.331   6.477   3.694  1.00 20.00     0.159 A 
HETATM    4  C6  UNL     1     -34.920   5.306   4.431  1.00 20.00     0.092 A 
HETATM    5  C7  UNL     1     -34.218   4.105   3.793  1.00 20.00     0.019 A 
HETATM    6  O11 UNL     1     -34.603   7.645   3.927  1.00 20.00    -0.292 OA
ENDROOT
BRANCH   5   7
HETATM    7  C10 UNL     1     -33.388   3.320   4.803  1.00 20.00    -0.015 C 
HETATM    8  C8  UNL     1     -33.467   1.821   4.516  1.00 20.00     0.010 C 
HETATM    9  C9  UNL     1     -31.934   3.792   4.788  1.00 20.00     0.010 C 
ENDBRANCH   5   7
BRANCH   2  10
HETATM   10  C5  UNL     1     -32.698   6.901   1.745  1.00 20.00     0.004 C 
HETATM   11  C4  UNL     1     -31.951   7.921   2.224  1.00 20.00     0.012 C 
ENDBRANCH   2  10
TORSDOF 2
ENDMDL
MODEL 9
REMARK VINA RESULT:       0.7      1.944      4.607
REMARK  2 active torsions:
REMARK  status: ('A' for Active; 'I' for Inactive)
REMARK    1  A    between atoms: C2_2  and  C5_5 
REMARK    2  A    between atoms: C7_7  and  C10_10 
ROOT
HETATM    1  C1  UNL     1     -33.186   8.253   2.826  1.00 20.00    -0.006 A 
HETATM    2  C2  UNL     1     -32.587   8.739   1.736  1.00 20.00     0.005 A 
HETATM    3  C3  UNL     1     -31.813   7.618   1.173  1.00 20.00     0.159 A 
HETATM    4  C6  UNL     1     -31.938   6.380   2.018  1.00 20.00     0.092 A 
HETATM    5  C7  UNL     1     -32.912   6.807   3.119  1.00 20.00     0.019 A 
HETATM    6  O11 UNL     1     -31.143   7.691   0.154  1.00 20.00    -0.292 OA
ENDROOT
BRANCH   5   7
HETATM    7  C10 UNL     1     -34.193   5.980   3.108  1.00 20.00    -0.015 C 
HETATM    8  C8  UNL     1     -33.931   4.573   3.642  1.00 20.00     0.010 C 
HETATM    9  C9  UNL     1     -35.285   6.668   3.926  1.00 20.00     0.010 C 
ENDBRANCH   5   7
BRANCH   2  10
HETATM   10  C5  UNL     1     -32.649  10.055   1.195  1.00 20.00     0.004 C 
HETATM   11  C4  UNL     1     -32.697  10.239  -0.144  1.00 20.00     0.012 C 
ENDBRANCH   2  10
TORSDOF 2
ENDMDL
