MODEL 1
REMARK VINA RESULT:      -0.4      0.000      0.000
REMARK  1 active torsions:
REMARK  status: ('A' for Active; 'I' for Inactive)
REMARK    1  A    between atoms: C4_4  and  C10_10 
ROOT
HETATM    1  C1  UNL     1     -34.638   7.426   4.204  1.00 20.00    -0.003 C 
HETATM    2  C2  UNL     1     -33.597   7.884   3.313  1.00 20.00     0.011 C 
HETATM    3  C3  UNL     1     -35.171   6.207   4.346  1.00 20.00    -0.026 C 
HETATM    4  C4  UNL     1     -32.858   7.231   2.400  1.00 20.00    -0.009 C 
HETATM    5  C5  UNL     1     -32.927   5.755   2.174  1.00 20.00     0.156 C 
HETATM    6  C6  UNL     1     -34.765   4.934   3.673  1.00 20.00     0.035 C 
HETATM    7  C7  UNL     1     -33.289   4.856   3.330  1.00 20.00     0.087 C 
HETATM    8  O11 UNL     1     -32.639   5.282   1.075  1.00 20.00    -0.293 OA
ENDROOT
BRANCH   4   9
HETATM    9  C10 UNL     1     -31.898   7.964   1.505  1.00 20.00     0.014 C 
HETATM   10  C8  UNL     1     -32.613   9.106   0.793  1.00 20.00     0.015 C 
HETATM   11  C9  UNL     1     -30.705   8.477   2.305  1.00 20.00     0.015 C 
ENDBRANCH   4   9
TORSDOF 1
ENDMDL
MODEL 2
REMARK VINA RESULT:      -0.0      1.665      4.398
REMARK  1 active torsions:
REMARK  status: ('A' for Active; 'I' for Inactive)
REMARK    1  A    between atoms: C4_4  and  C10_10 
ROOT
HETATM    1  C1  UNL     1     -31.935   6.218   1.228  1.00 20.00    -0.003 C 
HETATM    2  C2  UNL     1     -32.764   5.375   2.058  1.00 20.00     0.011 C 
HETATM    3  C3  UNL     1     -31.799   7.550   1.221  1.00 20.00    -0.026 C 
HETATM    4  C4  UNL     1     -33.608   5.671   3.061  1.00 20.00    -0.009 C 
HETATM    5  C5  UNL     1     -33.802   7.048   3.608  1.00 20.00     0.156 C 
HETATM    6  C6  UNL     1     -32.412   8.548   2.153  1.00 20.00     0.035 C 
HETATM    7  C7  UNL     1     -32.652   8.023   3.556  1.00 20.00     0.087 C 
HETATM    8  O11 UNL     1     -34.867   7.360   4.141  1.00 20.00    -0.293 OA
ENDROOT
BRANCH   4   9
HETATM    9  C10 UNL     1     -34.454   4.608   3.707  1.00 20.00     0.014 C 
HETATM   10  C8  UNL     1     -33.565   3.574   4.387  1.00 20.00     0.015 C 
HETATM   11  C9  UNL     1     -35.431   5.230   4.698  1.00 20.00     0.015 C 
ENDBRANCH   4   9
TORSDOF 1
ENDMDL
MODEL 3
REMARK VINA RESULT:      -0.0      1.724      4.313
REMARK  1 active torsions:
REMARK  status: ('A' for Active; 'I' for Inactive)
REMARK    1  A    between atoms: C4_4  and  C10_10 
ROOT
HETATM    1  C1  UNL     1     -32.302   6.092   1.045  1.00 20.00    -0.003 C 
HETATM    2  C2  UNL     1     -32.989   5.521   2.180  1.00 20.00     0.011 C 
HETATM    3  C3  UNL     1     -31.983   7.366   0.786  1.00 20.00    -0.026 C 
HETATM    4  C4  UNL     1     -33.481   6.085   3.296  1.00 20.00    -0.009 C 
HETATM    5  C5  UNL     1     -33.322   7.531   3.639  1.00 20.00     0.156 C 
HETATM    6  C6  UNL     1     -32.174   8.565   1.661  1.00 20.00     0.035 C 
HETATM    7  C7  UNL     1     -32.101   8.267   3.147  1.00 20.00     0.087 C 
HETATM    8  O11 UNL     1     -34.148   8.093   4.357  1.00 20.00    -0.293 OA
ENDROOT
BRANCH   4   9
HETATM    9  C10 UNL     1     -34.265   5.280   4.295  1.00 20.00     0.014 C 
HETATM   10  C8  UNL     1     -35.758   5.515   4.101  1.00 20.00     0.015 C 
HETATM   11  C9  UNL     1     -33.922   3.799   4.177  1.00 20.00     0.015 C 
ENDBRANCH   4   9
TORSDOF 1
ENDMDL
MODEL 4
REMARK VINA RESULT:       0.0      1.619      2.614
REMARK  1 active torsions:
REMARK  status: ('A' for Active; 'I' for Inactive)
REMARK    1  A    between atoms: C4_4  and  C10_10 
ROOT
HETATM    1  C1  UNL     1     -33.216   4.629   2.491  1.00 20.00    -0.003 C 
HETATM    2  C2  UNL     1     -32.798   5.975   2.174  1.00 20.00     0.011 C 
HETATM    3  C3  UNL     1     -34.022   4.186   3.464  1.00 20.00    -0.026 C 
HETATM    4  C4  UNL     1     -33.106   7.156   2.737  1.00 20.00    -0.009 C 
HETATM    5  C5  UNL     1     -34.093   7.318   3.847  1.00 20.00     0.156 C 
HETATM    6  C6  UNL     1     -34.802   4.989   4.457  1.00 20.00     0.035 C 
HETATM    7  C7  UNL     1     -35.244   6.348   3.948  1.00 20.00     0.087 C 
HETATM    8  O11 UNL     1     -33.995   8.262   4.632  1.00 20.00    -0.293 OA
ENDROOT
BRANCH   4   9
HETATM    9  C10 UNL     1     -32.444   8.430   2.287  1.00 20.00     0.014 C 
HETATM   10  C8  UNL     1     -31.081   8.574   2.951  1.00 20.00     0.015 C 
HETATM   11  C9  UNL     1     -32.322   8.462   0.768  1.00 20.00     0.015 C 
ENDBRANCH   4   9
TORSDOF 1
ENDMDL
MODEL 5
REMARK VINA RESULT:       0.3      1.019      3.845
REMARK  1 active torsions:
REMARK  status: ('A' for Active; 'I' for Inactive)
REMARK    1  A    between atoms: C4_4  and  C10_10 
ROOT
HETATM    1  C1  UNL     1     -32.763   8.381   4.031  1.00 20.00    -0.003 C 
HETATM    2  C2  UNL     1     -33.558   7.177   4.092  1.00 20.00     0.011 C 
HETATM    3  C3  UNL     1     -31.874   8.778   3.112  1.00 20.00    -0.026 C 
HETATM    4  C4  UNL     1     -33.654   6.132   3.252  1.00 20.00    -0.009 C 
HETATM    5  C5  UNL     1     -32.951   6.054   1.936  1.00 20.00     0.156 C 
HETATM    6  C6  UNL     1     -31.519   8.112   1.820  1.00 20.00     0.035 C 
HETATM    7  C7  UNL     1     -32.657   7.331   1.189  1.00 20.00     0.087 C 
HETATM    8  O11 UNL     1     -32.668   4.960   1.448  1.00 20.00    -0.293 OA
ENDROOT
BRANCH   4   9
HETATM    9  C10 UNL     1     -34.485   4.928   3.599  1.00 20.00     0.014 C 
HETATM   10  C8  UNL     1     -33.609   3.850   4.225  1.00 20.00     0.015 C 
HETATM   11  C9  UNL     1     -35.629   5.316   4.530  1.00 20.00     0.015 C 
ENDBRANCH   4   9
TORSDOF 1
ENDMDL
MODEL 6
REMARK VINA RESULT:       1.1      1.600      3.175
REMARK  1 active torsions:
REMARK  status: ('A' for Active; 'I' for Inactive)
REMARK    1  A    between atoms: C4_4  and  C10_10 
ROOT
HETATM    1  C1  UNL     1     -34.565   6.089   3.769  1.00 20.00    -0.003 C 
HETATM    2  C2  UNL     1     -33.934   5.590   2.569  1.00 20.00     0.011 C 
HETATM    3  C3  UNL     1     -34.321   7.206   4.467  1.00 20.00    -0.026 C 
HETATM    4  C4  UNL     1     -32.952   6.098   1.805  1.00 20.00    -0.009 C 
HETATM    5  C5  UNL     1     -32.330   7.438   2.029  1.00 20.00     0.156 C 
HETATM    6  C6  UNL     1     -33.370   8.313   4.139  1.00 20.00     0.035 C 
HETATM    7  C7  UNL     1     -33.159   8.533   2.653  1.00 20.00     0.087 C 
HETATM    8  O11 UNL     1     -31.176   7.656   1.660  1.00 20.00    -0.293 OA
ENDROOT
BRANCH   4   9
HETATM    9  C10 UNL     1     -32.384   5.322   0.648  1.00 20.00     0.014 C 
HETATM   10  C8  UNL     1     -31.241   4.434   1.125  1.00 20.00     0.015 C 
HETATM   11  C9  UNL     1     -33.473   4.499  -0.031  1.00 20.00     0.015 C 
ENDBRANCH   4   9
TORSDOF 1
ENDMDL
MODEL 7
REMARK VINA RESULT:       1.4      1.257      3.566
REMARK  1 active torsions:
REMARK  status: ('A' for Active; 'I' for Inactive)
REMARK    1  A    between atoms: C4_4  and  C10_10 
ROOT
HETATM    1  C1  UNL     1     -31.797   8.070   1.475  1.00 20.00    -0.003 C 
HETATM    2  C2  UNL     1     -32.869   8.112   2.442  1.00 20.00     0.011 C 
HETATM    3  C3  UNL     1     -31.213   7.020   0.885  1.00 20.00    -0.026 C 
HETATM    4  C4  UNL     1     -33.595   7.131   3.006  1.00 20.00    -0.009 C 
HETATM    5  C5  UNL     1     -33.471   5.687   2.642  1.00 20.00     0.156 C 
HETATM    6  C6  UNL     1     -31.578   5.573   0.997  1.00 20.00     0.035 C 
HETATM    7  C7  UNL     1     -33.055   5.322   1.239  1.00 20.00     0.087 C 
HETATM    8  O11 UNL     1     -33.757   4.814   3.461  1.00 20.00    -0.293 OA
ENDROOT
BRANCH   4   9
HETATM    9  C10 UNL     1     -34.599   7.428   4.087  1.00 20.00     0.014 C 
HETATM   10  C8  UNL     1     -35.440   6.190   4.374  1.00 20.00     0.015 C 
HETATM   11  C9  UNL     1     -33.897   7.921   5.348  1.00 20.00     0.015 C 
ENDBRANCH   4   9
TORSDOF 1
ENDMDL
MODEL 8
REMARK VINA RESULT:       2.0      1.604      3.946
REMARK  1 active torsions:
REMARK  status: ('A' for Active; 'I' for Inactive)
REMARK    1  A    between atoms: C4_4  and  C10_10 
ROOT
HETATM    1  C1  UNL     1     -32.554   4.970   1.568  1.00 20.00    -0.003 C 
HETATM    2  C2  UNL     1     -33.368   5.633   2.560  1.00 20.00     0.011 C 
HETATM    3  C3  UNL     1     -31.714   5.485   0.661  1.00 20.00    -0.026 C 
HETATM    4  C4  UNL     1     -33.503   6.933   2.872  1.00 20.00    -0.009 C 
HETATM    5  C5  UNL     1     -32.700   8.029   2.248  1.00 20.00     0.156 C 
HETATM    6  C6  UNL     1     -31.309   6.914   0.481  1.00 20.00     0.035 C 
HETATM    7  C7  UNL     1     -31.305   7.725   1.764  1.00 20.00     0.087 C 
HETATM    8  O11 UNL     1     -33.155   9.171   2.182  1.00 20.00    -0.293 OA
ENDROOT
BRANCH   4   9
HETATM    9  C10 UNL     1     -34.515   7.389   3.888  1.00 20.00     0.014 C 
HETATM   10  C8  UNL     1     -35.421   6.230   4.281  1.00 20.00     0.015 C 
HETATM   11  C9  UNL     1     -33.818   7.981   5.109  1.00 20.00     0.015 C 
ENDBRANCH   4   9
TORSDOF 1
ENDMDL
MODEL 9
REMARK VINA RESULT:       2.1      1.515      2.624
REMARK  1 active torsions:
REMARK  status: ('A' for Active; 'I' for Inactive)
REMARK    1  A    between atoms: C4_4  and  C10_10 
ROOT
HETATM    1  C1  UNL     1     -34.074   4.029   3.855  1.00 20.00    -0.003 C 
HETATM    2  C2  UNL     1     -33.152   4.677   2.951  1.00 20.00     0.011 C 
HETATM    3  C3  UNL     1     -34.985   4.561   4.678  1.00 20.00    -0.026 C 
HETATM    4  C4  UNL     1     -32.956   5.975   2.661  1.00 20.00    -0.009 C 
HETATM    5  C5  UNL     1     -33.790   7.086   3.211  1.00 20.00     0.156 C 
HETATM    6  C6  UNL     1     -35.373   5.998   4.827  1.00 20.00     0.035 C 
HETATM    7  C7  UNL     1     -35.233   6.814   3.555  1.00 20.00     0.087 C 
HETATM    8  O11 UNL     1     -33.318   8.217   3.328  1.00 20.00    -0.293 OA
ENDROOT
BRANCH   4   9
HETATM    9  C10 UNL     1     -31.840   6.410   1.752  1.00 20.00     0.014 C 
HETATM   10  C8  UNL     1     -31.691   5.427   0.598  1.00 20.00     0.015 C 
HETATM   11  C9  UNL     1     -32.088   7.825   1.240  1.00 20.00     0.015 C 
ENDBRANCH   4   9
TORSDOF 1
ENDMDL
