MODEL 1
REMARK VINA RESULT:      -1.4      0.000      0.000
REMARK  1 active torsions:
REMARK  status: ('A' for Active; 'I' for Inactive)
REMARK    1  A    between atoms: C6_6  and  C8_8 
ROOT
HETATM    1  C1  UNL     1     -32.128   7.187   2.140  1.00 20.00     0.061 C 
HETATM    2  C2  UNL     1     -34.642   6.229   3.823  1.00 20.00     0.066 C 
HETATM    3  C3  UNL     1     -32.963   6.117   1.448  1.00 20.00     0.170 C 
HETATM    4  C4  UNL     1     -32.977   8.113   2.953  1.00 20.00     0.153 A 
HETATM    5  C5  UNL     1     -34.166   7.649   3.760  1.00 20.00     0.153 A 
HETATM    6  C6  UNL     1     -33.559   5.164   3.615  1.00 20.00     0.123 C 
HETATM    7  O9  UNL     1     -33.215   4.962   2.242  1.00 20.00    -0.386 OA
HETATM    8  O10 UNL     1     -32.898   7.906   4.373  1.00 20.00    -0.375 OA
ENDROOT
BRANCH   6   9
HETATM    9  C8  UNL     1     -34.048   3.810   4.128  1.00 20.00     0.027 C 
HETATM   10  C7  UNL     1     -32.954   3.048   4.802  1.00 20.00     0.007 C 
ENDBRANCH   6   9
TORSDOF 1
ENDMDL
MODEL 2
REMARK VINA RESULT:      -0.6      1.873      4.020
REMARK  1 active torsions:
REMARK  status: ('A' for Active; 'I' for Inactive)
REMARK    1  A    between atoms: C6_6  and  C8_8 
ROOT
HETATM    1  C1  UNL     1     -33.861   5.658   2.400  1.00 20.00     0.061 C 
HETATM    2  C2  UNL     1     -32.286   8.327   3.085  1.00 20.00     0.066 C 
HETATM    3  C3  UNL     1     -32.408   5.652   1.944  1.00 20.00     0.170 C 
HETATM    4  C4  UNL     1     -34.037   6.414   3.681  1.00 20.00     0.153 A 
HETATM    5  C5  UNL     1     -33.292   7.689   3.995  1.00 20.00     0.153 A 
HETATM    6  C6  UNL     1     -32.496   8.066   1.589  1.00 20.00     0.123 C 
HETATM    7  O9  UNL     1     -32.031   6.783   1.164  1.00 20.00    -0.386 OA
HETATM    8  O10 UNL     1     -34.647   7.707   3.534  1.00 20.00    -0.375 OA
ENDROOT
BRANCH   6   9
HETATM    9  C8  UNL     1     -31.718   9.089   0.763  1.00 20.00     0.027 C 
HETATM   10  C7  UNL     1     -32.603  10.186   0.269  1.00 20.00     0.007 C 
ENDBRANCH   6   9
TORSDOF 1
ENDMDL
MODEL 3
REMARK VINA RESULT:      -0.4      1.459      2.779
REMARK  1 active torsions:
REMARK  status: ('A' for Active; 'I' for Inactive)
REMARK    1  A    between atoms: C6_6  and  C8_8 
ROOT
HETATM    1  C1  UNL     1     -32.270   8.084   1.699  1.00 20.00     0.061 C 
HETATM    2  C2  UNL     1     -33.353   5.418   3.038  1.00 20.00     0.066 C 
HETATM    3  C3  UNL     1     -32.318   8.132   3.221  1.00 20.00     0.170 C 
HETATM    4  C4  UNL     1     -31.932   6.714   1.199  1.00 20.00     0.153 A 
HETATM    5  C5  UNL     1     -32.461   5.450   1.834  1.00 20.00     0.153 A 
HETATM    6  C6  UNL     1     -34.254   6.645   3.219  1.00 20.00     0.123 C 
HETATM    7  O9  UNL     1     -33.578   7.771   3.781  1.00 20.00    -0.386 OA
HETATM    8  O10 UNL     1     -33.043   5.989   0.643  1.00 20.00    -0.375 OA
ENDROOT
BRANCH   6   9
HETATM    9  C8  UNL     1     -35.398   6.320   4.179  1.00 20.00     0.027 C 
HETATM   10  C7  UNL     1     -35.330   4.907   4.659  1.00 20.00     0.007 C 
ENDBRANCH   6   9
TORSDOF 1
ENDMDL
MODEL 4
REMARK VINA RESULT:       0.1      1.435      3.400
REMARK  1 active torsions:
REMARK  status: ('A' for Active; 'I' for Inactive)
REMARK    1  A    between atoms: C6_6  and  C8_8 
ROOT
HETATM    1  C1  UNL     1     -34.881   4.473   4.008  1.00 20.00     0.061 C 
HETATM    2  C2  UNL     1     -33.440   7.224   3.356  1.00 20.00     0.066 C 
HETATM    3  C3  UNL     1     -33.360   4.389   4.009  1.00 20.00     0.170 C 
HETATM    4  C4  UNL     1     -35.364   5.797   4.514  1.00 20.00     0.153 A 
HETATM    5  C5  UNL     1     -34.679   7.104   4.190  1.00 20.00     0.153 A 
HETATM    6  C6  UNL     1     -33.251   6.128   2.300  1.00 20.00     0.123 C 
HETATM    7  O9  UNL     1     -32.741   4.905   2.834  1.00 20.00    -0.386 OA
HETATM    8  O10 UNL     1     -35.857   6.683   3.495  1.00 20.00    -0.375 OA
ENDROOT
BRANCH   6   9
HETATM    9  C8  UNL     1     -32.237   6.581   1.249  1.00 20.00     0.027 C 
HETATM   10  C7  UNL     1     -31.822   8.000   1.458  1.00 20.00     0.007 C 
ENDBRANCH   6   9
TORSDOF 1
ENDMDL
MODEL 5
REMARK VINA RESULT:       0.4      1.737      2.276
REMARK  1 active torsions:
REMARK  status: ('A' for Active; 'I' for Inactive)
REMARK    1  A    between atoms: C6_6  and  C8_8 
ROOT
HETATM    1  C1  UNL     1     -31.585   6.070   1.523  1.00 20.00     0.061 C 
HETATM    2  C2  UNL     1     -33.749   8.145   2.563  1.00 20.00     0.066 C 
HETATM    3  C3  UNL     1     -33.023   5.600   1.353  1.00 20.00     0.170 C 
HETATM    4  C4  UNL     1     -31.460   7.550   1.342  1.00 20.00     0.153 A 
HETATM    5  C5  UNL     1     -32.489   8.533   1.850  1.00 20.00     0.153 A 
HETATM    6  C6  UNL     1     -33.677   6.834   3.355  1.00 20.00     0.123 C 
HETATM    7  O9  UNL     1     -33.810   5.668   2.539  1.00 20.00    -0.386 OA
HETATM    8  O10 UNL     1     -31.271   8.289   2.562  1.00 20.00    -0.375 OA
ENDROOT
BRANCH   6   9
HETATM    9  C8  UNL     1     -34.819   6.769   4.368  1.00 20.00     0.027 C 
HETATM   10  C7  UNL     1     -35.426   5.406   4.428  1.00 20.00     0.007 C 
ENDBRANCH   6   9
TORSDOF 1
ENDMDL
MODEL 6
REMARK VINA RESULT:       0.7      1.325      3.922
REMARK  1 active torsions:
REMARK  status: ('A' for Active; 'I' for Inactive)
REMARK    1  A    between atoms: C6_6  and  C8_8 
ROOT
HETATM    1  C1  UNL     1     -35.014   5.272   4.692  1.00 20.00     0.061 C 
HETATM    2  C2  UNL     1     -33.104   5.915   2.241  1.00 20.00     0.066 C 
HETATM    3  C3  UNL     1     -35.481   6.442   3.835  1.00 20.00     0.170 C 
HETATM    4  C4  UNL     1     -34.344   4.216   3.869  1.00 20.00     0.153 A 
HETATM    5  C5  UNL     1     -33.427   4.529   2.711  1.00 20.00     0.153 A 
HETATM    6  C6  UNL     1     -33.162   7.004   3.319  1.00 20.00     0.123 C 
HETATM    7  O9  UNL     1     -34.490   7.442   3.615  1.00 20.00    -0.386 OA
HETATM    8  O10 UNL     1     -32.913   4.174   3.999  1.00 20.00    -0.375 OA
ENDROOT
BRANCH   6   9
HETATM    9  C8  UNL     1     -32.406   8.247   2.852  1.00 20.00     0.027 C 
HETATM   10  C7  UNL     1     -31.865   8.076   1.470  1.00 20.00     0.007 C 
ENDBRANCH   6   9
TORSDOF 1
ENDMDL
MODEL 7
REMARK VINA RESULT:       0.9      1.448      3.116
REMARK  1 active torsions:
REMARK  status: ('A' for Active; 'I' for Inactive)
REMARK    1  A    between atoms: C6_6  and  C8_8 
ROOT
HETATM    1  C1  UNL     1     -35.049   4.656   4.186  1.00 20.00     0.061 C 
HETATM    2  C2  UNL     1     -33.301   7.093   3.150  1.00 20.00     0.066 C 
HETATM    3  C3  UNL     1     -33.553   4.371   4.148  1.00 20.00     0.170 C 
HETATM    4  C4  UNL     1     -35.333   6.082   4.539  1.00 20.00     0.153 A 
HETATM    5  C5  UNL     1     -34.503   7.239   4.033  1.00 20.00     0.153 A 
HETATM    6  C6  UNL     1     -33.305   5.864   2.233  1.00 20.00     0.123 C 
HETATM    7  O9  UNL     1     -32.931   4.656   2.898  1.00 20.00    -0.386 OA
HETATM    8  O10 UNL     1     -35.758   6.899   3.434  1.00 20.00    -0.375 OA
ENDROOT
BRANCH   6   9
HETATM    9  C8  UNL     1     -32.295   6.050   1.101  1.00 20.00     0.027 C 
HETATM   10  C7  UNL     1     -31.657   4.756   0.714  1.00 20.00     0.007 C 
ENDBRANCH   6   9
TORSDOF 1
ENDMDL
MODEL 8
REMARK VINA RESULT:       1.0      1.330      3.999
REMARK  1 active torsions:
REMARK  status: ('A' for Active; 'I' for Inactive)
REMARK    1  A    between atoms: C6_6  and  C8_8 
ROOT
HETATM    1  C1  UNL     1     -34.621   6.379   4.426  1.00 20.00     0.061 C 
HETATM    2  C2  UNL     1     -33.048   6.045   1.690  1.00 20.00     0.066 C 
HETATM    3  C3  UNL     1     -34.832   7.527   3.447  1.00 20.00     0.170 C 
HETATM    4  C4  UNL     1     -34.468   5.069   3.718  1.00 20.00     0.153 A 
HETATM    5  C5  UNL     1     -33.708   4.915   2.422  1.00 20.00     0.153 A 
HETATM    6  C6  UNL     1     -32.577   7.209   2.568  1.00 20.00     0.123 C 
HETATM    7  O9  UNL     1     -33.629   8.101   2.944  1.00 20.00    -0.386 OA
HETATM    8  O10 UNL     1     -33.122   4.564   3.680  1.00 20.00    -0.375 OA
ENDROOT
BRANCH   6   9
HETATM    9  C8  UNL     1     -31.558   8.060   1.811  1.00 20.00     0.027 C 
HETATM   10  C7  UNL     1     -32.223   9.025   0.886  1.00 20.00     0.007 C 
ENDBRANCH   6   9
TORSDOF 1
ENDMDL
