MODEL 1
REMARK VINA RESULT:       2.6      0.000      0.000
REMARK  0 active torsions:
REMARK  status: ('A' for Active; 'I' for Inactive)
ROOT
HETATM    1  C1  UNL     1     -34.114   8.504   3.219  1.00 20.00     0.154 A 
HETATM    2  C2  UNL     1     -33.204   7.671   2.613  1.00 20.00     0.005 A 
HETATM    3  C3  UNL     1     -33.381   6.419   3.186  1.00 20.00     0.013 A 
HETATM    4  C4  UNL     1     -34.460   6.490   4.010  1.00 20.00     0.062 A 
HETATM    5  C5  UNL     1     -31.802   6.613   1.017  1.00 20.00     0.143 C 
HETATM    6  C6  UNL     1     -32.288   7.765   1.535  1.00 20.00    -0.027 C 
HETATM    7  C7  UNL     1     -35.178   5.340   4.593  1.00 20.00     0.066 C 
HETATM    8  C8  UNL     1     -34.381   4.033   4.285  1.00 20.00     0.009 C 
HETATM    9  C9  UNL     1     -33.645   4.020   2.910  1.00 20.00     0.038 C 
HETATM   10  C10 UNL     1     -32.659   5.205   2.786  1.00 20.00     0.164 C 
HETATM   11  C11 UNL     1     -31.981   9.128   1.009  1.00 20.00     0.051 C 
HETATM   12  O12 UNL     1     -34.913   7.773   4.079  1.00 20.00    -0.326 OA
HETATM   13  O13 UNL     1     -32.083   5.318   1.458  1.00 20.00    -0.352 OA
ENDROOT
TORSDOF 0
ENDMDL
MODEL 2
REMARK VINA RESULT:       2.7      0.966      2.740
REMARK  0 active torsions:
REMARK  status: ('A' for Active; 'I' for Inactive)
ROOT
HETATM    1  C1  UNL     1     -31.886   5.607   1.183  1.00 20.00     0.154 A 
HETATM    2  C2  UNL     1     -32.456   6.772   1.636  1.00 20.00     0.005 A 
HETATM    3  C3  UNL     1     -33.473   6.396   2.504  1.00 20.00     0.013 A 
HETATM    4  C4  UNL     1     -33.408   5.046   2.657  1.00 20.00     0.062 A 
HETATM    5  C5  UNL     1     -32.784   8.995   2.403  1.00 20.00     0.143 C 
HETATM    6  C6  UNL     1     -32.181   8.159   1.526  1.00 20.00    -0.027 C 
HETATM    7  C7  UNL     1     -34.100   4.262   3.697  1.00 20.00     0.066 C 
HETATM    8  C8  UNL     1     -35.083   5.195   4.471  1.00 20.00     0.009 C 
HETATM    9  C9  UNL     1     -34.594   6.668   4.642  1.00 20.00     0.038 C 
HETATM   10  C10 UNL     1     -34.305   7.329   3.275  1.00 20.00     0.164 C 
HETATM   11  C11 UNL     1     -31.193   8.584   0.491  1.00 20.00     0.051 C 
HETATM   12  O12 UNL     1     -32.461   4.526   1.826  1.00 20.00    -0.326 OA
HETATM   13  O13 UNL     1     -33.691   8.638   3.403  1.00 20.00    -0.352 OA
ENDROOT
TORSDOF 0
ENDMDL
MODEL 3
REMARK VINA RESULT:       2.8      0.884      4.584
REMARK  0 active torsions:
REMARK  status: ('A' for Active; 'I' for Inactive)
ROOT
HETATM    1  C1  UNL     1     -32.416   4.948   1.671  1.00 20.00     0.154 A 
HETATM    2  C2  UNL     1     -33.043   5.728   2.612  1.00 20.00     0.005 A 
HETATM    3  C3  UNL     1     -32.685   7.040   2.331  1.00 20.00     0.013 A 
HETATM    4  C4  UNL     1     -31.977   7.036   1.170  1.00 20.00     0.062 A 
HETATM    5  C5  UNL     1     -34.625   6.613   4.145  1.00 20.00     0.143 C 
HETATM    6  C6  UNL     1     -33.993   5.525   3.644  1.00 20.00    -0.027 C 
HETATM    7  C7  UNL     1     -31.650   8.221   0.354  1.00 20.00     0.066 C 
HETATM    8  C8  UNL     1     -32.066   9.508   1.134  1.00 20.00     0.009 C 
HETATM    9  C9  UNL     1     -33.344   9.358   2.017  1.00 20.00     0.038 C 
HETATM   10  C10 UNL     1     -33.186   8.218   3.050  1.00 20.00     0.164 C 
HETATM   11  C11 UNL     1     -34.274   4.118   4.054  1.00 20.00     0.051 C 
HETATM   12  O12 UNL     1     -31.764   5.755   0.757  1.00 20.00    -0.326 OA
HETATM   13  O13 UNL     1     -34.414   7.942   3.773  1.00 20.00    -0.352 OA
ENDROOT
TORSDOF 0
ENDMDL
MODEL 4
REMARK VINA RESULT:       3.0      0.982      3.657
REMARK  0 active torsions:
REMARK  status: ('A' for Active; 'I' for Inactive)
ROOT
HETATM    1  C1  UNL     1     -34.508   7.597   4.394  1.00 20.00     0.154 A 
HETATM    2  C2  UNL     1     -34.295   6.382   3.790  1.00 20.00     0.005 A 
HETATM    3  C3  UNL     1     -33.493   6.632   2.685  1.00 20.00     0.013 A 
HETATM    4  C4  UNL     1     -33.135   7.943   2.722  1.00 20.00     0.062 A 
HETATM    5  C5  UNL     1     -33.907   4.072   3.402  1.00 20.00     0.143 C 
HETATM    6  C6  UNL     1     -34.582   5.025   4.087  1.00 20.00    -0.027 C 
HETATM    7  C7  UNL     1     -32.067   8.569   1.918  1.00 20.00     0.066 C 
HETATM    8  C8  UNL     1     -31.548   7.538   0.868  1.00 20.00     0.009 C 
HETATM    9  C9  UNL     1     -31.549   6.053   1.348  1.00 20.00     0.038 C 
HETATM   10  C10 UNL     1     -32.961   5.601   1.785  1.00 20.00     0.164 C 
HETATM   11  C11 UNL     1     -35.559   4.751   5.181  1.00 20.00     0.051 C 
HETATM   12  O12 UNL     1     -33.775   8.575   3.746  1.00 20.00    -0.326 OA
HETATM   13  O13 UNL     1     -32.965   4.283   2.392  1.00 20.00    -0.352 OA
ENDROOT
TORSDOF 0
ENDMDL
MODEL 5
REMARK VINA RESULT:       3.4      0.830      3.652
REMARK  0 active torsions:
REMARK  status: ('A' for Active; 'I' for Inactive)
ROOT
HETATM    1  C1  UNL     1     -34.432   6.939   4.315  1.00 20.00     0.154 A 
HETATM    2  C2  UNL     1     -33.802   6.116   3.413  1.00 20.00     0.005 A 
HETATM    3  C3  UNL     1     -33.304   6.942   2.414  1.00 20.00     0.013 A 
HETATM    4  C4  UNL     1     -33.521   8.230   2.796  1.00 20.00     0.062 A 
HETATM    5  C5  UNL     1     -32.535   4.364   2.432  1.00 20.00     0.143 C 
HETATM    6  C6  UNL     1     -33.465   4.741   3.342  1.00 20.00    -0.027 C 
HETATM    7  C7  UNL     1     -32.905   9.425   2.188  1.00 20.00     0.066 C 
HETATM    8  C8  UNL     1     -32.125   9.000   0.905  1.00 20.00     0.009 C 
HETATM    9  C9  UNL     1     -31.455   7.593   0.978  1.00 20.00     0.038 C 
HETATM   10  C10 UNL     1     -32.495   6.488   1.277  1.00 20.00     0.164 C 
HETATM   11  C11 UNL     1     -34.113   3.821   4.322  1.00 20.00     0.051 C 
HETATM   12  O12 UNL     1     -34.247   8.260   3.949  1.00 20.00    -0.326 OA
HETATM   13  O13 UNL     1     -31.884   5.193   1.516  1.00 20.00    -0.352 OA
ENDROOT
TORSDOF 0
ENDMDL
MODEL 6
REMARK VINA RESULT:       4.6      1.551      3.078
REMARK  0 active torsions:
REMARK  status: ('A' for Active; 'I' for Inactive)
ROOT
HETATM    1  C1  UNL     1     -33.589   4.238   2.625  1.00 20.00     0.154 A 
HETATM    2  C2  UNL     1     -32.948   5.291   2.019  1.00 20.00     0.005 A 
HETATM    3  C3  UNL     1     -33.388   6.438   2.667  1.00 20.00     0.013 A 
HETATM    4  C4  UNL     1     -34.163   6.050   3.714  1.00 20.00     0.062 A 
HETATM    5  C5  UNL     1     -31.323   6.657   0.956  1.00 20.00     0.143 C 
HETATM    6  C6  UNL     1     -31.928   5.449   1.047  1.00 20.00    -0.027 C 
HETATM    7  C7  UNL     1     -34.597   6.911   4.832  1.00 20.00     0.066 C 
HETATM    8  C8  UNL     1     -34.201   8.388   4.522  1.00 20.00     0.009 C 
HETATM    9  C9  UNL     1     -32.866   8.559   3.731  1.00 20.00     0.038 C 
HETATM   10  C10 UNL     1     -32.904   7.796   2.387  1.00 20.00     0.164 C 
HETATM   11  C11 UNL     1     -31.552   4.249   0.242  1.00 20.00     0.051 C 
HETATM   12  O12 UNL     1     -34.335   4.698   3.694  1.00 20.00    -0.326 OA
HETATM   13  O13 UNL     1     -31.623   7.796   1.706  1.00 20.00    -0.352 OA
ENDROOT
TORSDOF 0
ENDMDL
MODEL 7
REMARK VINA RESULT:       5.4      1.593      3.414
REMARK  0 active torsions:
REMARK  status: ('A' for Active; 'I' for Inactive)
ROOT
HETATM    1  C1  UNL     1     -32.016   8.535   2.897  1.00 20.00     0.154 A 
HETATM    2  C2  UNL     1     -33.063   7.729   3.271  1.00 20.00     0.005 A 
HETATM    3  C3  UNL     1     -33.098   6.686   2.354  1.00 20.00     0.013 A 
HETATM    4  C4  UNL     1     -32.011   6.809   1.546  1.00 20.00     0.062 A 
HETATM    5  C5  UNL     1     -34.649   6.504   4.545  1.00 20.00     0.143 C 
HETATM    6  C6  UNL     1     -33.964   7.658   4.364  1.00 20.00    -0.027 C 
HETATM    7  C7  UNL     1     -31.496   5.774   0.629  1.00 20.00     0.066 C 
HETATM    8  C8  UNL     1     -32.509   4.588   0.577  1.00 20.00     0.009 C 
HETATM    9  C9  UNL     1     -33.256   4.301   1.917  1.00 20.00     0.038 C 
HETATM   10  C10 UNL     1     -34.023   5.547   2.415  1.00 20.00     0.164 C 
HETATM   11  C11 UNL     1     -34.039   8.841   5.271  1.00 20.00     0.051 C 
HETATM   12  O12 UNL     1     -31.343   7.962   1.833  1.00 20.00    -0.326 OA
HETATM   13  O13 UNL     1     -34.589   5.366   3.739  1.00 20.00    -0.352 OA
ENDROOT
TORSDOF 0
ENDMDL
MODEL 8
REMARK VINA RESULT:       5.5      1.607      3.065
REMARK  0 active torsions:
REMARK  status: ('A' for Active; 'I' for Inactive)
ROOT
HETATM    1  C1  UNL     1     -31.699   7.393   1.107  1.00 20.00     0.154 A 
HETATM    2  C2  UNL     1     -32.191   6.230   1.647  1.00 20.00     0.005 A 
HETATM    3  C3  UNL     1     -32.909   6.599   2.777  1.00 20.00     0.013 A 
HETATM    4  C4  UNL     1     -32.947   7.958   2.818  1.00 20.00     0.062 A 
HETATM    5  C5  UNL     1     -33.113   4.059   1.915  1.00 20.00     0.143 C 
HETATM    6  C6  UNL     1     -32.234   4.863   1.272  1.00 20.00    -0.027 C 
HETATM    7  C7  UNL     1     -33.835   8.771   3.671  1.00 20.00     0.066 C 
HETATM    8  C8  UNL     1     -34.580   7.833   4.672  1.00 20.00     0.009 C 
HETATM    9  C9  UNL     1     -34.931   6.419   4.111  1.00 20.00     0.038 C 
HETATM   10  C10 UNL     1     -33.666   5.673   3.628  1.00 20.00     0.164 C 
HETATM   11  C11 UNL     1     -31.351   4.429   0.150  1.00 20.00     0.051 C 
HETATM   12  O12 UNL     1     -32.179   8.477   1.819  1.00 20.00    -0.326 OA
HETATM   13  O13 UNL     1     -33.975   4.427   2.950  1.00 20.00    -0.352 OA
ENDROOT
TORSDOF 0
ENDMDL
