MODEL 1
REMARK VINA RESULT:       0.7      0.000      0.000
REMARK  1 active torsions:
REMARK  status: ('A' for Active; 'I' for Inactive)
REMARK    1  A    between atoms: C8_8  and  C11_11 
ROOT
HETATM    1  C1  UNL     1     -32.594   7.578   1.727  1.00 20.00    -0.079 C 
HETATM    2  C2  UNL     1     -34.109   5.146   3.534  1.00 20.00     0.132 C 
HETATM    3  C3  UNL     1     -32.427   8.550   0.832  1.00 20.00     0.015 C 
HETATM    4  C4  UNL     1     -32.013   6.142   1.902  1.00 20.00     0.047 C 
HETATM    5  C5  UNL     1     -35.181   6.102   4.063  1.00 20.00     0.080 C 
HETATM    6  C6  UNL     1     -34.913   7.421   3.251  1.00 20.00     0.022 C 
HETATM    7  C7  UNL     1     -33.427   5.918   2.416  1.00 20.00     0.072 C 
HETATM    8  C8  UNL     1     -33.402   7.409   3.000  1.00 20.00    -0.004 C 
HETATM    9  O12 UNL     1     -33.903   4.019   3.956  1.00 20.00    -0.298 OA
ENDROOT
BRANCH   8  10
HETATM   10  C11 UNL     1     -32.622   7.822   4.256  1.00 20.00    -0.009 C 
HETATM   11  C9  UNL     1     -31.635   8.936   3.923  1.00 20.00     0.011 C 
HETATM   12  C10 UNL     1     -33.582   8.259   5.356  1.00 20.00     0.011 C 
ENDBRANCH   8  10
TORSDOF 1
ENDMDL
MODEL 2
REMARK VINA RESULT:       1.9      1.915      3.984
REMARK  1 active torsions:
REMARK  status: ('A' for Active; 'I' for Inactive)
REMARK    1  A    between atoms: C8_8  and  C11_11 
ROOT
HETATM    1  C1  UNL     1     -34.830   6.668   3.658  1.00 20.00    -0.079 C 
HETATM    2  C2  UNL     1     -31.953   8.179   2.701  1.00 20.00     0.132 C 
HETATM    3  C3  UNL     1     -36.113   6.313   3.662  1.00 20.00     0.015 C 
HETATM    4  C4  UNL     1     -33.918   7.483   4.625  1.00 20.00     0.047 C 
HETATM    5  C5  UNL     1     -32.000   7.554   1.304  1.00 20.00     0.080 C 
HETATM    6  C6  UNL     1     -33.406   6.850   1.278  1.00 20.00     0.022 C 
HETATM    7  C7  UNL     1     -33.328   7.907   3.288  1.00 20.00     0.072 C 
HETATM    8  C8  UNL     1     -33.649   6.439   2.732  1.00 20.00    -0.004 C 
HETATM    9  O12 UNL     1     -30.992   8.763   3.177  1.00 20.00    -0.298 OA
ENDROOT
BRANCH   8  10
HETATM   10  C11 UNL     1     -32.840   5.188   3.105  1.00 20.00    -0.009 C 
HETATM   11  C9  UNL     1     -33.744   4.148   3.757  1.00 20.00     0.011 C 
HETATM   12  C10 UNL     1     -32.155   4.614   1.871  1.00 20.00     0.011 C 
ENDBRANCH   8  10
TORSDOF 1
ENDMDL
MODEL 3
REMARK VINA RESULT:       2.5      2.324      3.713
REMARK  1 active torsions:
REMARK  status: ('A' for Active; 'I' for Inactive)
REMARK    1  A    between atoms: C8_8  and  C11_11 
ROOT
HETATM    1  C1  UNL     1     -32.733   5.773   1.798  1.00 20.00    -0.079 C 
HETATM    2  C2  UNL     1     -32.437   9.028   0.908  1.00 20.00     0.132 C 
HETATM    3  C3  UNL     1     -32.384   4.537   2.150  1.00 20.00     0.015 C 
HETATM    4  C4  UNL     1     -33.437   6.397   0.554  1.00 20.00     0.047 C 
HETATM    5  C5  UNL     1     -31.669   9.386   2.183  1.00 20.00     0.080 C 
HETATM    6  C6  UNL     1     -31.421   7.984   2.852  1.00 20.00     0.022 C 
HETATM    7  C7  UNL     1     -32.452   7.508   0.884  1.00 20.00     0.072 C 
HETATM    8  C8  UNL     1     -32.633   7.147   2.434  1.00 20.00    -0.004 C 
HETATM    9  O12 UNL     1     -32.904   9.835   0.119  1.00 20.00    -0.298 OA
ENDROOT
BRANCH   8  10
HETATM   10  C11 UNL     1     -33.877   7.510   3.257  1.00 20.00    -0.009 C 
HETATM   11  C9  UNL     1     -34.685   6.257   3.573  1.00 20.00     0.011 C 
HETATM   12  C10 UNL     1     -33.473   8.233   4.536  1.00 20.00     0.011 C 
ENDBRANCH   8  10
TORSDOF 1
ENDMDL
MODEL 4
REMARK VINA RESULT:       2.8      1.555      2.432
REMARK  1 active torsions:
REMARK  status: ('A' for Active; 'I' for Inactive)
REMARK    1  A    between atoms: C8_8  and  C11_11 
ROOT
HETATM    1  C1  UNL     1     -32.473   8.643   1.709  1.00 20.00    -0.079 C 
HETATM    2  C2  UNL     1     -31.812   5.336   1.380  1.00 20.00     0.132 C 
HETATM    3  C3  UNL     1     -32.911   9.865   1.413  1.00 20.00     0.015 C 
HETATM    4  C4  UNL     1     -31.066   8.014   1.948  1.00 20.00     0.047 C 
HETATM    5  C5  UNL     1     -33.288   4.984   1.178  1.00 20.00     0.080 C 
HETATM    6  C6  UNL     1     -33.979   6.393   1.080  1.00 20.00     0.022 C 
HETATM    7  C7  UNL     1     -31.760   6.850   1.256  1.00 20.00     0.072 C 
HETATM    8  C8  UNL     1     -33.122   7.296   1.971  1.00 20.00    -0.004 C 
HETATM    9  O12 UNL     1     -30.919   4.529   1.586  1.00 20.00    -0.298 OA
ENDROOT
BRANCH   8  10
HETATM   10  C11 UNL     1     -33.422   7.063   3.459  1.00 20.00    -0.009 C 
HETATM   11  C9  UNL     1     -33.244   8.359   4.243  1.00 20.00     0.011 C 
HETATM   12  C10 UNL     1     -34.831   6.512   3.635  1.00 20.00     0.011 C 
ENDBRANCH   8  10
TORSDOF 1
ENDMDL
