MODEL 1
REMARK VINA RESULT:      -1.9      0.000      0.000
REMARK  2 active torsions:
REMARK  status: ('A' for Active; 'I' for Inactive)
REMARK    1  A    between atoms: C3_3  and  C4_4 
REMARK    2  A    between atoms: C4_4  and  C5_5 
ROOT
HETATM    1  C1  UNL     1     -32.410   9.175   0.779  1.00 20.00    -0.151 C 
HETATM    2  C2  UNL     1     -32.570   9.908  -0.282  1.00 20.00     0.096 C 
HETATM    3  C3  UNL     1     -32.249   8.446   1.842  1.00 20.00     0.103 C 
ENDROOT
BRANCH   3   4
HETATM    4  C4  UNL     1     -32.338   6.972   1.765  1.00 20.00     0.188 C 
HETATM    5  O9  UNL     1     -31.434   6.257   1.353  1.00 20.00    -0.290 OA
BRANCH   4   6
HETATM    6  C5  UNL     1     -33.601   6.392   2.220  1.00 20.00     0.230 A 
HETATM    7  C6  UNL     1     -34.176   6.703   3.588  1.00 20.00     0.088 A 
HETATM    8  C7  UNL     1     -35.640   6.493   3.819  1.00 20.00     0.049 C 
HETATM    9  C8  UNL     1     -33.478   7.634   4.528  1.00 20.00     0.049 C 
HETATM   10  O10 UNL     1     -33.454   5.493   3.331  1.00 20.00    -0.362 OA
ENDBRANCH   4   6
ENDBRANCH   3   4
TORSDOF 2
ENDMDL
MODEL 2
REMARK VINA RESULT:      -1.2      1.572      4.343
REMARK  2 active torsions:
REMARK  status: ('A' for Active; 'I' for Inactive)
REMARK    1  A    between atoms: C3_3  and  C4_4 
REMARK    2  A    between atoms: C4_4  and  C5_5 
ROOT
HETATM    1  C1  UNL     1     -34.809   5.909   4.043  1.00 20.00    -0.151 C 
HETATM    2  C2  UNL     1     -34.972   4.684   4.444  1.00 20.00     0.096 C 
HETATM    3  C3  UNL     1     -34.649   7.134   3.640  1.00 20.00     0.103 C 
ENDROOT
BRANCH   3   4
HETATM    4  C4  UNL     1     -33.417   7.881   3.970  1.00 20.00     0.188 C 
HETATM    5  O9  UNL     1     -32.919   7.911   5.088  1.00 20.00    -0.290 OA
BRANCH   4   6
HETATM    6  C5  UNL     1     -32.803   8.608   2.858  1.00 20.00     0.230 A 
HETATM    7  C6  UNL     1     -32.149   7.886   1.697  1.00 20.00     0.088 A 
HETATM    8  C7  UNL     1     -31.975   8.615   0.401  1.00 20.00     0.049 C 
HETATM    9  C8  UNL     1     -32.120   6.391   1.632  1.00 20.00     0.049 C 
HETATM   10  O10 UNL     1     -31.379   8.432   2.774  1.00 20.00    -0.362 OA
ENDBRANCH   4   6
ENDBRANCH   3   4
TORSDOF 2
ENDMDL
MODEL 3
REMARK VINA RESULT:      -0.9      1.990      4.555
REMARK  2 active torsions:
REMARK  status: ('A' for Active; 'I' for Inactive)
REMARK    1  A    between atoms: C3_3  and  C4_4 
REMARK    2  A    between atoms: C4_4  and  C5_5 
ROOT
HETATM    1  C1  UNL     1     -33.558   4.032   3.982  1.00 20.00    -0.151 C 
HETATM    2  C2  UNL     1     -33.434   3.053   4.827  1.00 20.00     0.096 C 
HETATM    3  C3  UNL     1     -33.679   5.009   3.134  1.00 20.00     0.103 C 
ENDROOT
BRANCH   3   4
HETATM    4  C4  UNL     1     -34.390   6.250   3.511  1.00 20.00     0.188 C 
HETATM    5  O9  UNL     1     -35.430   6.269   4.156  1.00 20.00    -0.290 OA
BRANCH   4   6
HETATM    6  C5  UNL     1     -33.768   7.495   3.060  1.00 20.00     0.230 A 
HETATM    7  C6  UNL     1     -32.633   7.503   2.055  1.00 20.00     0.088 A 
HETATM    8  C7  UNL     1     -32.364   8.756   1.282  1.00 20.00     0.049 C 
HETATM    9  C8  UNL     1     -32.112   6.229   1.467  1.00 20.00     0.049 C 
HETATM   10  O10 UNL     1     -32.394   7.629   3.462  1.00 20.00    -0.362 OA
ENDBRANCH   4   6
ENDBRANCH   3   4
TORSDOF 2
ENDMDL
MODEL 4
REMARK VINA RESULT:      -0.9      1.302      1.727
REMARK  2 active torsions:
REMARK  status: ('A' for Active; 'I' for Inactive)
REMARK    1  A    between atoms: C3_3  and  C4_4 
REMARK    2  A    between atoms: C4_4  and  C5_5 
ROOT
HETATM    1  C1  UNL     1     -32.157   9.260   0.386  1.00 20.00    -0.151 C 
HETATM    2  C2  UNL     1     -32.634  10.418   0.039  1.00 20.00     0.096 C 
HETATM    3  C3  UNL     1     -31.677   8.103   0.729  1.00 20.00     0.103 C 
ENDROOT
BRANCH   3   4
HETATM    4  C4  UNL     1     -32.357   7.278   1.750  1.00 20.00     0.188 C 
HETATM    5  O9  UNL     1     -32.615   6.090   1.604  1.00 20.00    -0.290 OA
BRANCH   4   6
HETATM    6  C5  UNL     1     -32.719   7.974   2.985  1.00 20.00     0.230 A 
HETATM    7  C6  UNL     1     -33.803   7.453   3.908  1.00 20.00     0.088 A 
HETATM    8  C7  UNL     1     -33.809   7.899   5.336  1.00 20.00     0.049 C 
HETATM    9  C8  UNL     1     -34.540   6.188   3.599  1.00 20.00     0.049 C 
HETATM   10  O10 UNL     1     -34.053   8.509   2.972  1.00 20.00    -0.362 OA
ENDBRANCH   4   6
ENDBRANCH   3   4
TORSDOF 2
ENDMDL
MODEL 5
REMARK VINA RESULT:      -0.8      2.149      4.668
REMARK  2 active torsions:
REMARK  status: ('A' for Active; 'I' for Inactive)
REMARK    1  A    between atoms: C3_3  and  C4_4 
REMARK    2  A    between atoms: C4_4  and  C5_5 
ROOT
HETATM    1  C1  UNL     1     -33.930   3.826   4.571  1.00 20.00    -0.151 C 
HETATM    2  C2  UNL     1     -33.172   2.783   4.733  1.00 20.00     0.096 C 
HETATM    3  C3  UNL     1     -34.691   4.867   4.412  1.00 20.00     0.103 C 
ENDROOT
BRANCH   3   4
HETATM    4  C4  UNL     1     -34.300   5.951   3.486  1.00 20.00     0.188 C 
HETATM    5  O9  UNL     1     -34.569   7.132   3.668  1.00 20.00    -0.290 OA
BRANCH   4   6
HETATM    6  C5  UNL     1     -33.550   5.530   2.303  1.00 20.00     0.230 A 
HETATM    7  C6  UNL     1     -32.461   6.394   1.698  1.00 20.00     0.088 A 
HETATM    8  C7  UNL     1     -31.429   5.748   0.827  1.00 20.00     0.049 C 
HETATM    9  C8  UNL     1     -32.095   7.714   2.301  1.00 20.00     0.049 C 
HETATM   10  O10 UNL     1     -33.784   6.357   1.150  1.00 20.00    -0.362 OA
ENDBRANCH   4   6
ENDBRANCH   3   4
TORSDOF 2
ENDMDL
MODEL 6
REMARK VINA RESULT:      -0.8      2.157      3.305
REMARK  2 active torsions:
REMARK  status: ('A' for Active; 'I' for Inactive)
REMARK    1  A    between atoms: C3_3  and  C4_4 
REMARK    2  A    between atoms: C4_4  and  C5_5 
ROOT
HETATM    1  C1  UNL     1     -32.865   7.749   2.822  1.00 20.00    -0.151 C 
HETATM    2  C2  UNL     1     -32.073   7.829   1.795  1.00 20.00     0.096 C 
HETATM    3  C3  UNL     1     -33.654   7.672   3.851  1.00 20.00     0.103 C 
ENDROOT
BRANCH   3   4
HETATM    4  C4  UNL     1     -34.731   6.660   3.900  1.00 20.00     0.188 C 
HETATM    5  O9  UNL     1     -35.813   6.791   3.342  1.00 20.00    -0.290 OA
BRANCH   4   6
HETATM    6  C5  UNL     1     -34.431   5.456   4.674  1.00 20.00     0.230 A 
HETATM    7  C6  UNL     1     -33.844   4.216   4.028  1.00 20.00     0.088 A 
HETATM    8  C7  UNL     1     -33.126   3.226   4.890  1.00 20.00     0.049 C 
HETATM    9  C8  UNL     1     -33.530   4.181   2.565  1.00 20.00     0.049 C 
HETATM   10  O10 UNL     1     -35.243   4.325   4.315  1.00 20.00    -0.362 OA
ENDBRANCH   4   6
ENDBRANCH   3   4
TORSDOF 2
ENDMDL
MODEL 7
REMARK VINA RESULT:      -0.7      1.511      1.771
REMARK  2 active torsions:
REMARK  status: ('A' for Active; 'I' for Inactive)
REMARK    1  A    between atoms: C3_3  and  C4_4 
REMARK    2  A    between atoms: C4_4  and  C5_5 
ROOT
HETATM    1  C1  UNL     1     -32.318   9.034   0.824  1.00 20.00    -0.151 C 
HETATM    2  C2  UNL     1     -32.426  10.075   0.054  1.00 20.00     0.096 C 
HETATM    3  C3  UNL     1     -32.209   7.991   1.590  1.00 20.00     0.103 C 
ENDROOT
BRANCH   3   4
HETATM    4  C4  UNL     1     -32.507   8.084   3.036  1.00 20.00     0.188 C 
HETATM    5  O9  UNL     1     -31.711   8.498   3.869  1.00 20.00    -0.290 OA
BRANCH   4   6
HETATM    6  C5  UNL     1     -33.843   7.641   3.434  1.00 20.00     0.230 A 
HETATM    7  C6  UNL     1     -34.199   6.171   3.539  1.00 20.00     0.088 A 
HETATM    8  C7  UNL     1     -35.369   5.771   4.382  1.00 20.00     0.049 C 
HETATM    9  C8  UNL     1     -33.186   5.107   3.253  1.00 20.00     0.049 C 
HETATM   10  O10 UNL     1     -34.554   6.952   2.392  1.00 20.00    -0.362 OA
ENDBRANCH   4   6
ENDBRANCH   3   4
TORSDOF 2
ENDMDL
MODEL 8
REMARK VINA RESULT:      -0.6      1.202      4.044
REMARK  2 active torsions:
REMARK  status: ('A' for Active; 'I' for Inactive)
REMARK    1  A    between atoms: C3_3  and  C4_4 
REMARK    2  A    between atoms: C4_4  and  C5_5 
ROOT
HETATM    1  C1  UNL     1     -34.094   6.738   3.370  1.00 20.00    -0.151 C 
HETATM    2  C2  UNL     1     -34.601   7.272   4.441  1.00 20.00     0.096 C 
HETATM    3  C3  UNL     1     -33.590   6.200   2.300  1.00 20.00     0.103 C 
ENDROOT
BRANCH   3   4
HETATM    4  C4  UNL     1     -32.364   6.753   1.685  1.00 20.00     0.188 C 
HETATM    5  O9  UNL     1     -31.543   6.076   1.080  1.00 20.00    -0.290 OA
BRANCH   4   6
HETATM    6  C5  UNL     1     -32.175   8.195   1.842  1.00 20.00     0.230 A 
HETATM    7  C6  UNL     1     -32.328   9.152   0.677  1.00 20.00     0.088 A 
HETATM    8  C7  UNL     1     -32.598  10.596   0.961  1.00 20.00     0.049 C 
HETATM    9  C8  UNL     1     -32.697   8.658  -0.687  1.00 20.00     0.049 C 
HETATM   10  O10 UNL     1     -31.041   8.707   1.122  1.00 20.00    -0.362 OA
ENDBRANCH   4   6
ENDBRANCH   3   4
TORSDOF 2
ENDMDL
MODEL 9
REMARK VINA RESULT:      -0.5      1.908      4.296
REMARK  2 active torsions:
REMARK  status: ('A' for Active; 'I' for Inactive)
REMARK    1  A    between atoms: C3_3  and  C4_4 
REMARK    2  A    between atoms: C4_4  and  C5_5 
ROOT
HETATM    1  C1  UNL     1     -33.671   4.290   3.921  1.00 20.00    -0.151 C 
HETATM    2  C2  UNL     1     -33.475   3.129   4.471  1.00 20.00     0.096 C 
HETATM    3  C3  UNL     1     -33.871   5.451   3.373  1.00 20.00     0.103 C 
ENDROOT
BRANCH   3   4
HETATM    4  C4  UNL     1     -33.196   5.814   2.109  1.00 20.00     0.188 C 
HETATM    5  O9  UNL     1     -32.508   5.038   1.458  1.00 20.00    -0.290 OA
BRANCH   4   6
HETATM    6  C5  UNL     1     -33.396   7.192   1.660  1.00 20.00     0.230 A 
HETATM    7  C6  UNL     1     -32.247   8.177   1.566  1.00 20.00     0.088 A 
HETATM    8  C7  UNL     1     -32.394   9.373   0.680  1.00 20.00     0.049 C 
HETATM    9  C8  UNL     1     -30.850   7.771   1.915  1.00 20.00     0.049 C 
HETATM   10  O10 UNL     1     -33.145   8.171   2.683  1.00 20.00    -0.362 OA
ENDBRANCH   4   6
ENDBRANCH   3   4
TORSDOF 2
ENDMDL
