MODEL 1
REMARK VINA RESULT:      -1.4      0.000      0.000
REMARK  3 active torsions:
REMARK  status: ('A' for Active; 'I' for Inactive)
REMARK    1  A    between atoms: C1_1  and  C7_7 
REMARK    2  A    between atoms: C1_1  and  N9_9 
REMARK    3  A    between atoms: C7_7  and  C8_8 
ROOT
HETATM    1  C2  UNL     1     -35.452   6.179   4.294  1.00 20.00     0.021 C 
HETATM    2  C3  UNL     1     -34.742   4.842   4.423  1.00 20.00     0.021 C 
HETATM    3  C4  UNL     1     -34.375   7.083   3.703  1.00 20.00     0.123 C 
HETATM    4  C5  UNL     1     -33.889   4.787   3.158  1.00 20.00     0.123 C 
HETATM    5  N9  UNL     1     -33.566   6.183   2.888  1.00 20.00    -0.375 N 
ENDROOT
BRANCH   5   6
HETATM    6  C1  UNL     1     -32.633   6.594   1.991  1.00 20.00     0.075 C 
HETATM    7  S10 UNL     1     -31.947   5.554   0.878  1.00 20.00    -0.066 SA
BRANCH   6   8
HETATM    8  C7  UNL     1     -32.280   8.065   2.057  1.00 20.00     0.069 C 
BRANCH   8   9
HETATM    9  C8  UNL     1     -31.835   8.582   0.689  1.00 20.00     0.002 C 
HETATM   10  C6  UNL     1     -32.473   9.924   0.367  1.00 20.00     0.005 C 
ENDBRANCH   8   9
ENDBRANCH   6   8
ENDBRANCH   5   6
TORSDOF 3
ENDMDL
MODEL 2
REMARK VINA RESULT:      -1.4      0.034      1.274
REMARK  3 active torsions:
REMARK  status: ('A' for Active; 'I' for Inactive)
REMARK    1  A    between atoms: C1_1  and  C7_7 
REMARK    2  A    between atoms: C1_1  and  N9_9 
REMARK    3  A    between atoms: C7_7  and  C8_8 
ROOT
HETATM    1  C2  UNL     1     -34.698   4.830   4.433  1.00 20.00     0.021 C 
HETATM    2  C3  UNL     1     -35.452   6.139   4.274  1.00 20.00     0.021 C 
HETATM    3  C4  UNL     1     -33.834   4.778   3.176  1.00 20.00     0.123 C 
HETATM    4  C5  UNL     1     -34.400   7.067   3.672  1.00 20.00     0.123 C 
HETATM    5  N9  UNL     1     -33.558   6.179   2.880  1.00 20.00    -0.375 N 
ENDROOT
BRANCH   5   6
HETATM    6  C1  UNL     1     -32.631   6.602   1.981  1.00 20.00     0.075 C 
HETATM    7  S10 UNL     1     -31.941   5.573   0.860  1.00 20.00    -0.066 SA
BRANCH   6   8
HETATM    8  C7  UNL     1     -32.287   8.075   2.055  1.00 20.00     0.069 C 
BRANCH   8   9
HETATM    9  C8  UNL     1     -31.822   8.597   0.696  1.00 20.00     0.002 C 
HETATM   10  C6  UNL     1     -32.465   9.933   0.363  1.00 20.00     0.005 C 
ENDBRANCH   8   9
ENDBRANCH   6   8
ENDBRANCH   5   6
TORSDOF 3
ENDMDL
MODEL 3
REMARK VINA RESULT:      -0.6      1.955      4.852
REMARK  3 active torsions:
REMARK  status: ('A' for Active; 'I' for Inactive)
REMARK    1  A    between atoms: C1_1  and  C7_7 
REMARK    2  A    between atoms: C1_1  and  N9_9 
REMARK    3  A    between atoms: C7_7  and  C8_8 
ROOT
HETATM    1  C2  UNL     1     -31.884   7.664   0.934  1.00 20.00     0.021 C 
HETATM    2  C3  UNL     1     -31.659   8.438   2.221  1.00 20.00     0.021 C 
HETATM    3  C4  UNL     1     -32.428   6.327   1.429  1.00 20.00     0.123 C 
HETATM    4  C5  UNL     1     -32.857   8.033   3.076  1.00 20.00     0.123 C 
HETATM    5  N9  UNL     1     -33.152   6.671   2.648  1.00 20.00    -0.375 N 
ENDROOT
BRANCH   5   6
HETATM    6  C1  UNL     1     -33.995   5.828   3.300  1.00 20.00     0.075 C 
HETATM    7  S10 UNL     1     -35.362   6.372   4.093  1.00 20.00    -0.066 SA
BRANCH   6   8
HETATM    8  C7  UNL     1     -33.619   4.363   3.236  1.00 20.00     0.069 C 
BRANCH   8   9
HETATM    9  C8  UNL     1     -33.961   3.653   4.545  1.00 20.00     0.002 C 
HETATM   10  C6  UNL     1     -32.818   2.766   5.013  1.00 20.00     0.005 C 
ENDBRANCH   8   9
ENDBRANCH   6   8
ENDBRANCH   5   6
TORSDOF 3
ENDMDL
MODEL 4
REMARK VINA RESULT:      -0.5      1.949      4.757
REMARK  3 active torsions:
REMARK  status: ('A' for Active; 'I' for Inactive)
REMARK    1  A    between atoms: C1_1  and  C7_7 
REMARK    2  A    between atoms: C1_1  and  N9_9 
REMARK    3  A    between atoms: C7_7  and  C8_8 
ROOT
HETATM    1  C2  UNL     1     -31.743   8.520   2.146  1.00 20.00     0.021 C 
HETATM    2  C3  UNL     1     -31.871   7.655   0.903  1.00 20.00     0.021 C 
HETATM    3  C4  UNL     1     -32.945   8.094   2.984  1.00 20.00     0.123 C 
HETATM    4  C5  UNL     1     -32.351   6.320   1.466  1.00 20.00     0.123 C 
HETATM    5  N9  UNL     1     -33.140   6.691   2.634  1.00 20.00    -0.375 N 
ENDROOT
BRANCH   5   6
HETATM    6  C1  UNL     1     -33.953   5.839   3.312  1.00 20.00     0.075 C 
HETATM    7  S10 UNL     1     -35.336   6.358   4.092  1.00 20.00    -0.066 SA
BRANCH   6   8
HETATM    8  C7  UNL     1     -33.527   4.387   3.288  1.00 20.00     0.069 C 
BRANCH   8   9
HETATM    9  C8  UNL     1     -33.987   3.661   4.552  1.00 20.00     0.002 C 
HETATM   10  C6  UNL     1     -32.998   2.585   4.968  1.00 20.00     0.005 C 
ENDBRANCH   8   9
ENDBRANCH   6   8
ENDBRANCH   5   6
TORSDOF 3
ENDMDL
MODEL 5
REMARK VINA RESULT:      -0.4      1.543      1.584
REMARK  3 active torsions:
REMARK  status: ('A' for Active; 'I' for Inactive)
REMARK    1  A    between atoms: C1_1  and  C7_7 
REMARK    2  A    between atoms: C1_1  and  N9_9 
REMARK    3  A    between atoms: C7_7  and  C8_8 
ROOT
HETATM    1  C2  UNL     1     -35.298   6.164   4.069  1.00 20.00     0.021 C 
HETATM    2  C3  UNL     1     -34.375   5.004   3.733  1.00 20.00     0.021 C 
HETATM    3  C4  UNL     1     -34.358   7.365   4.053  1.00 20.00     0.123 C 
HETATM    4  C5  UNL     1     -33.441   5.606   2.686  1.00 20.00     0.123 C 
HETATM    5  N9  UNL     1     -33.350   7.012   3.059  1.00 20.00    -0.375 N 
ENDROOT
BRANCH   5   6
HETATM    6  C1  UNL     1     -32.445   7.884   2.545  1.00 20.00     0.075 C 
HETATM    7  S10 UNL     1     -31.595   8.956   3.505  1.00 20.00    -0.066 SA
BRANCH   6   8
HETATM    8  C7  UNL     1     -32.246   7.798   1.047  1.00 20.00     0.069 C 
BRANCH   8   9
HETATM    9  C8  UNL     1     -31.617   9.081   0.504  1.00 20.00     0.002 C 
HETATM   10  C6  UNL     1     -32.661   9.991  -0.121  1.00 20.00     0.005 C 
ENDBRANCH   8   9
ENDBRANCH   6   8
ENDBRANCH   5   6
TORSDOF 3
ENDMDL
MODEL 6
REMARK VINA RESULT:      -0.4      1.549      2.004
REMARK  3 active torsions:
REMARK  status: ('A' for Active; 'I' for Inactive)
REMARK    1  A    between atoms: C1_1  and  C7_7 
REMARK    2  A    between atoms: C1_1  and  N9_9 
REMARK    3  A    between atoms: C7_7  and  C8_8 
ROOT
HETATM    1  C2  UNL     1     -34.377   5.026   3.692  1.00 20.00     0.021 C 
HETATM    2  C3  UNL     1     -35.280   6.193   4.055  1.00 20.00     0.021 C 
HETATM    3  C4  UNL     1     -33.442   5.628   2.649  1.00 20.00     0.123 C 
HETATM    4  C5  UNL     1     -34.319   7.379   4.052  1.00 20.00     0.123 C 
HETATM    5  N9  UNL     1     -33.327   7.028   3.043  1.00 20.00    -0.375 N 
ENDROOT
BRANCH   5   6
HETATM    6  C1  UNL     1     -32.410   7.893   2.537  1.00 20.00     0.075 C 
HETATM    7  S10 UNL     1     -31.584   8.981   3.499  1.00 20.00    -0.066 SA
BRANCH   6   8
HETATM    8  C7  UNL     1     -32.175   7.783   1.045  1.00 20.00     0.069 C 
BRANCH   8   9
HETATM    9  C8  UNL     1     -31.580   9.076   0.488  1.00 20.00     0.002 C 
HETATM   10  C6  UNL     1     -32.658   9.985  -0.080  1.00 20.00     0.005 C 
ENDBRANCH   8   9
ENDBRANCH   6   8
ENDBRANCH   5   6
TORSDOF 3
ENDMDL
MODEL 7
REMARK VINA RESULT:      -0.0      2.025      4.649
REMARK  3 active torsions:
REMARK  status: ('A' for Active; 'I' for Inactive)
REMARK    1  A    between atoms: C1_1  and  C7_7 
REMARK    2  A    between atoms: C1_1  and  N9_9 
REMARK    3  A    between atoms: C7_7  and  C8_8 
ROOT
HETATM    1  C2  UNL     1     -32.106   6.574   0.767  1.00 20.00     0.021 C 
HETATM    2  C3  UNL     1     -31.371   7.768   1.352  1.00 20.00     0.021 C 
HETATM    3  C4  UNL     1     -32.865   6.018   1.968  1.00 20.00     0.123 C 
HETATM    4  C5  UNL     1     -32.392   8.354   2.323  1.00 20.00     0.123 C 
HETATM    5  N9  UNL     1     -33.148   7.195   2.782  1.00 20.00    -0.375 N 
ENDROOT
BRANCH   5   6
HETATM    6  C1  UNL     1     -34.010   7.209   3.833  1.00 20.00     0.075 C 
HETATM    7  S10 UNL     1     -33.715   8.100   5.215  1.00 20.00    -0.066 SA
BRANCH   6   8
HETATM    8  C7  UNL     1     -35.263   6.380   3.649  1.00 20.00     0.069 C 
BRANCH   8   9
HETATM    9  C8  UNL     1     -35.319   5.240   4.666  1.00 20.00     0.002 C 
HETATM   10  C6  UNL     1     -34.267   4.183   4.375  1.00 20.00     0.005 C 
ENDBRANCH   8   9
ENDBRANCH   6   8
ENDBRANCH   5   6
TORSDOF 3
ENDMDL
MODEL 8
REMARK VINA RESULT:       0.1      1.316      4.658
REMARK  3 active torsions:
REMARK  status: ('A' for Active; 'I' for Inactive)
REMARK    1  A    between atoms: C1_1  and  C7_7 
REMARK    2  A    between atoms: C1_1  and  N9_9 
REMARK    3  A    between atoms: C7_7  and  C8_8 
ROOT
HETATM    1  C2  UNL     1     -32.314   9.945  -0.513  1.00 20.00     0.021 C 
HETATM    2  C3  UNL     1     -32.529  10.802   0.722  1.00 20.00     0.021 C 
HETATM    3  C4  UNL     1     -31.847   8.615   0.070  1.00 20.00     0.123 C 
HETATM    4  C5  UNL     1     -33.128   9.815   1.721  1.00 20.00     0.123 C 
HETATM    5  N9  UNL     1     -32.526   8.538   1.359  1.00 20.00    -0.375 N 
ENDROOT
BRANCH   5   6
HETATM    6  C1  UNL     1     -32.590   7.417   2.124  1.00 20.00     0.075 C 
HETATM    7  S10 UNL     1     -32.196   5.907   1.528  1.00 20.00    -0.066 SA
BRANCH   6   8
HETATM    8  C7  UNL     1     -33.021   7.639   3.558  1.00 20.00     0.069 C 
BRANCH   8   9
HETATM    9  C8  UNL     1     -34.528   7.441   3.714  1.00 20.00     0.002 C 
HETATM   10  C6  UNL     1     -34.866   6.005   4.082  1.00 20.00     0.005 C 
ENDBRANCH   8   9
ENDBRANCH   6   8
ENDBRANCH   5   6
TORSDOF 3
ENDMDL
MODEL 9
REMARK VINA RESULT:       0.5      1.792      2.977
REMARK  3 active torsions:
REMARK  status: ('A' for Active; 'I' for Inactive)
REMARK    1  A    between atoms: C1_1  and  C7_7 
REMARK    2  A    between atoms: C1_1  and  N9_9 
REMARK    3  A    between atoms: C7_7  and  C8_8 
ROOT
HETATM    1  C2  UNL     1     -34.714   4.794   4.500  1.00 20.00     0.021 C 
HETATM    2  C3  UNL     1     -35.463   6.105   4.328  1.00 20.00     0.021 C 
HETATM    3  C4  UNL     1     -33.924   4.678   3.200  1.00 20.00     0.123 C 
HETATM    4  C5  UNL     1     -34.437   6.993   3.629  1.00 20.00     0.123 C 
HETATM    5  N9  UNL     1     -33.650   6.062   2.829  1.00 20.00    -0.375 N 
ENDROOT
BRANCH   5   6
HETATM    6  C1  UNL     1     -32.771   6.435   1.862  1.00 20.00     0.075 C 
HETATM    7  S10 UNL     1     -31.973   7.902   1.901  1.00 20.00    -0.066 SA
BRANCH   6   8
HETATM    8  C7  UNL     1     -32.551   5.417   0.764  1.00 20.00     0.069 C 
BRANCH   8   9
HETATM    9  C8  UNL     1     -31.264   4.627   0.999  1.00 20.00     0.002 C 
HETATM   10  C6  UNL     1     -30.928   3.742  -0.189  1.00 20.00     0.005 C 
ENDBRANCH   8   9
ENDBRANCH   6   8
ENDBRANCH   5   6
TORSDOF 3
ENDMDL
