MODEL 1
REMARK VINA RESULT:      -1.6      0.000      0.000
REMARK  4 active torsions:
REMARK  status: ('A' for Active; 'I' for Inactive)
REMARK    1  A    between atoms: C1_1  and  C6_6 
REMARK    2  A    between atoms: C1_1  and  C7_7 
REMARK    3  A    between atoms: C6_6  and  C8_8 
REMARK    4  A    between atoms: C7_7  and  C9_9 
ROOT
HETATM    1  C1  UNL     1     -32.603   6.706   1.818  1.00 20.00     0.161 C 
HETATM    2  O10 UNL     1     -32.666   5.996   0.814  1.00 20.00    -0.295 OA
ENDROOT
BRANCH   1   3
HETATM    3  C6  UNL     1     -31.995   8.101   1.791  1.00 20.00     0.085 C 
BRANCH   3   4
HETATM    4  C8  UNL     1     -32.300   8.877   0.502  1.00 20.00    -0.016 C 
HETATM    5  C2  UNL     1     -31.090   8.902  -0.434  1.00 20.00     0.010 C 
HETATM    6  C3  UNL     1     -32.722  10.308   0.840  1.00 20.00     0.010 C 
ENDBRANCH   3   4
ENDBRANCH   1   3
BRANCH   1   7
HETATM    7  C7  UNL     1     -33.157   6.219   3.146  1.00 20.00     0.242 C 
HETATM    8  F11 UNL     1     -33.562   4.920   3.040  1.00 20.00    -0.241 F 
BRANCH   7   9
HETATM    9  C9  UNL     1     -34.333   7.062   3.654  1.00 20.00     0.019 C 
HETATM   10  C4  UNL     1     -35.501   6.187   4.117  1.00 20.00     0.012 C 
HETATM   11  C5  UNL     1     -33.876   7.960   4.806  1.00 20.00     0.012 C 
ENDBRANCH   7   9
ENDBRANCH   1   7
TORSDOF 4
ENDMDL
MODEL 2
REMARK VINA RESULT:      -1.6      1.488      4.312
REMARK  4 active torsions:
REMARK  status: ('A' for Active; 'I' for Inactive)
REMARK    1  A    between atoms: C1_1  and  C6_6 
REMARK    2  A    between atoms: C1_1  and  C7_7 
REMARK    3  A    between atoms: C6_6  and  C8_8 
REMARK    4  A    between atoms: C7_7  and  C9_9 
ROOT
HETATM    1  C1  UNL     1     -32.462   6.739   1.695  1.00 20.00     0.161 C 
HETATM    2  O10 UNL     1     -31.854   5.686   1.500  1.00 20.00    -0.295 OA
ENDROOT
BRANCH   1   3
HETATM    3  C6  UNL     1     -33.900   6.768   2.191  1.00 20.00     0.085 C 
BRANCH   3   4
HETATM    4  C8  UNL     1     -34.029   6.562   3.707  1.00 20.00    -0.016 C 
HETATM    5  C2  UNL     1     -35.365   5.908   4.070  1.00 20.00     0.010 C 
HETATM    6  C3  UNL     1     -33.897   7.903   4.431  1.00 20.00     0.010 C 
ENDBRANCH   3   4
ENDBRANCH   1   3
BRANCH   1   7
HETATM    7  C7  UNL     1     -31.784   8.078   1.463  1.00 20.00     0.242 C 
HETATM    8  F11 UNL     1     -31.405   8.627   2.653  1.00 20.00    -0.241 F 
BRANCH   7   9
HETATM    9  C9  UNL     1     -32.672   9.083   0.718  1.00 20.00     0.019 C 
HETATM   10  C4  UNL     1     -32.613  10.474   1.354  1.00 20.00     0.012 C 
HETATM   11  C5  UNL     1     -32.248   9.171  -0.750  1.00 20.00     0.012 C 
ENDBRANCH   7   9
ENDBRANCH   1   7
TORSDOF 4
ENDMDL
MODEL 3
REMARK VINA RESULT:      -1.4      1.301      4.255
REMARK  4 active torsions:
REMARK  status: ('A' for Active; 'I' for Inactive)
REMARK    1  A    between atoms: C1_1  and  C6_6 
REMARK    2  A    between atoms: C1_1  and  C7_7 
REMARK    3  A    between atoms: C6_6  and  C8_8 
REMARK    4  A    between atoms: C7_7  and  C9_9 
ROOT
HETATM    1  C1  UNL     1     -32.706   6.628   1.687  1.00 20.00     0.161 C 
HETATM    2  O10 UNL     1     -32.993   5.912   0.727  1.00 20.00    -0.295 OA
ENDROOT
BRANCH   1   3
HETATM    3  C6  UNL     1     -33.111   6.281   3.112  1.00 20.00     0.085 C 
BRANCH   3   4
HETATM    4  C8  UNL     1     -34.296   7.109   3.630  1.00 20.00    -0.016 C 
HETATM    5  C2  UNL     1     -33.878   8.011   4.794  1.00 20.00     0.010 C 
HETATM    6  C3  UNL     1     -35.428   6.183   4.074  1.00 20.00     0.010 C 
ENDBRANCH   3   4
ENDBRANCH   1   3
BRANCH   1   7
HETATM    7  C7  UNL     1     -31.903   7.903   1.487  1.00 20.00     0.242 C 
HETATM    8  F11 UNL     1     -31.495   8.396   2.692  1.00 20.00    -0.241 F 
BRANCH   7   9
HETATM    9  C9  UNL     1     -32.682   8.996   0.745  1.00 20.00     0.019 C 
HETATM   10  C4  UNL     1     -32.655  10.326   1.502  1.00 20.00     0.012 C 
HETATM   11  C5  UNL     1     -32.105   9.192  -0.658  1.00 20.00     0.012 C 
ENDBRANCH   7   9
ENDBRANCH   1   7
TORSDOF 4
ENDMDL
MODEL 4
REMARK VINA RESULT:      -1.3      1.088      1.480
REMARK  4 active torsions:
REMARK  status: ('A' for Active; 'I' for Inactive)
REMARK    1  A    between atoms: C1_1  and  C6_6 
REMARK    2  A    between atoms: C1_1  and  C7_7 
REMARK    3  A    between atoms: C6_6  and  C8_8 
REMARK    4  A    between atoms: C7_7  and  C9_9 
ROOT
HETATM    1  C1  UNL     1     -32.242   7.680   1.939  1.00 20.00     0.161 C 
HETATM    2  O10 UNL     1     -31.090   7.467   1.561  1.00 20.00    -0.295 OA
ENDROOT
BRANCH   1   3
HETATM    3  C6  UNL     1     -33.031   8.904   1.495  1.00 20.00     0.085 C 
BRANCH   3   4
HETATM    4  C8  UNL     1     -32.245   9.831   0.555  1.00 20.00    -0.016 C 
HETATM    5  C2  UNL     1     -32.506  11.304   0.879  1.00 20.00     0.010 C 
HETATM    6  C3  UNL     1     -32.624   9.545  -0.898  1.00 20.00     0.010 C 
ENDBRANCH   3   4
ENDBRANCH   1   3
BRANCH   1   7
HETATM    7  C7  UNL     1     -32.946   6.704   2.866  1.00 20.00     0.242 C 
HETATM    8  F11 UNL     1     -33.393   5.624   2.162  1.00 20.00    -0.241 F 
BRANCH   7   9
HETATM    9  C9  UNL     1     -34.131   7.329   3.614  1.00 20.00     0.019 C 
HETATM   10  C4  UNL     1     -35.209   6.292   3.939  1.00 20.00     0.012 C 
HETATM   11  C5  UNL     1     -33.646   7.988   4.907  1.00 20.00     0.012 C 
ENDBRANCH   7   9
ENDBRANCH   1   7
TORSDOF 4
ENDMDL
MODEL 5
REMARK VINA RESULT:      -1.0      1.194      1.522
REMARK  4 active torsions:
REMARK  status: ('A' for Active; 'I' for Inactive)
REMARK    1  A    between atoms: C1_1  and  C6_6 
REMARK    2  A    between atoms: C1_1  and  C7_7 
REMARK    3  A    between atoms: C6_6  and  C8_8 
REMARK    4  A    between atoms: C7_7  and  C9_9 
ROOT
HETATM    1  C1  UNL     1     -32.622   7.194   2.017  1.00 20.00     0.161 C 
HETATM    2  O10 UNL     1     -32.412   6.146   1.406  1.00 20.00    -0.295 OA
ENDROOT
BRANCH   1   3
HETATM    3  C6  UNL     1     -31.884   8.485   1.696  1.00 20.00     0.085 C 
BRANCH   3   4
HETATM    4  C8  UNL     1     -32.393   9.182   0.426  1.00 20.00    -0.016 C 
HETATM    5  C2  UNL     1     -31.348   9.139  -0.691  1.00 20.00     0.010 C 
HETATM    6  C3  UNL     1     -32.758  10.634   0.736  1.00 20.00     0.010 C 
ENDBRANCH   3   4
ENDBRANCH   1   3
BRANCH   1   7
HETATM    7  C7  UNL     1     -33.661   7.249   3.125  1.00 20.00     0.242 C 
HETATM    8  F11 UNL     1     -33.069   7.573   4.311  1.00 20.00    -0.241 F 
BRANCH   7   9
HETATM    9  C9  UNL     1     -34.425   5.930   3.300  1.00 20.00     0.019 C 
HETATM   10  C4  UNL     1     -33.515   4.811   3.812  1.00 20.00     0.012 C 
HETATM   11  C5  UNL     1     -35.594   6.125   4.268  1.00 20.00     0.012 C 
ENDBRANCH   7   9
ENDBRANCH   1   7
TORSDOF 4
ENDMDL
MODEL 6
REMARK VINA RESULT:      -0.8      1.788      2.313
REMARK  4 active torsions:
REMARK  status: ('A' for Active; 'I' for Inactive)
REMARK    1  A    between atoms: C1_1  and  C6_6 
REMARK    2  A    between atoms: C1_1  and  C7_7 
REMARK    3  A    between atoms: C6_6  and  C8_8 
REMARK    4  A    between atoms: C7_7  and  C9_9 
ROOT
HETATM    1  C1  UNL     1     -32.358   8.191   2.655  1.00 20.00     0.161 C 
HETATM    2  O10 UNL     1     -31.271   8.385   3.200  1.00 20.00    -0.295 OA
ENDROOT
BRANCH   1   3
HETATM    3  C6  UNL     1     -32.528   8.226   1.144  1.00 20.00     0.085 C 
BRANCH   3   4
HETATM    4  C8  UNL     1     -32.156   9.577   0.517  1.00 20.00    -0.016 C 
HETATM    5  C2  UNL     1     -32.873  10.734   1.217  1.00 20.00     0.010 C 
HETATM    6  C3  UNL     1     -32.506   9.578  -0.972  1.00 20.00     0.010 C 
ENDBRANCH   3   4
ENDBRANCH   1   3
BRANCH   1   7
HETATM    7  C7  UNL     1     -33.594   7.883   3.483  1.00 20.00     0.242 C 
HETATM    8  F11 UNL     1     -33.280   7.866   4.811  1.00 20.00    -0.241 F 
BRANCH   7   9
HETATM    9  C9  UNL     1     -34.249   6.546   3.114  1.00 20.00     0.019 C 
HETATM   10  C4  UNL     1     -33.221   5.415   3.029  1.00 20.00     0.012 C 
HETATM   11  C5  UNL     1     -35.325   6.187   4.141  1.00 20.00     0.012 C 
ENDBRANCH   7   9
ENDBRANCH   1   7
TORSDOF 4
ENDMDL
MODEL 7
REMARK VINA RESULT:      -0.7      1.644      1.884
REMARK  4 active torsions:
REMARK  status: ('A' for Active; 'I' for Inactive)
REMARK    1  A    between atoms: C1_1  and  C6_6 
REMARK    2  A    between atoms: C1_1  and  C7_7 
REMARK    3  A    between atoms: C6_6  and  C8_8 
REMARK    4  A    between atoms: C7_7  and  C9_9 
ROOT
HETATM    1  C1  UNL     1     -32.440   7.714   2.637  1.00 20.00     0.161 C 
HETATM    2  O10 UNL     1     -32.465   8.303   3.717  1.00 20.00    -0.295 OA
ENDROOT
BRANCH   1   3
HETATM    3  C6  UNL     1     -31.794   8.315   1.397  1.00 20.00     0.085 C 
BRANCH   3   4
HETATM    4  C8  UNL     1     -32.716   9.274   0.629  1.00 20.00    -0.016 C 
HETATM    5  C2  UNL     1     -32.389   9.284  -0.866  1.00 20.00     0.010 C 
HETATM    6  C3  UNL     1     -32.589  10.688   1.196  1.00 20.00     0.010 C 
ENDBRANCH   3   4
ENDBRANCH   1   3
BRANCH   1   7
HETATM    7  C7  UNL     1     -33.047   6.329   2.496  1.00 20.00     0.242 C 
HETATM    8  F11 UNL     1     -33.779   6.249   1.348  1.00 20.00    -0.241 F 
BRANCH   7   9
HETATM    9  C9  UNL     1     -33.943   5.940   3.680  1.00 20.00     0.019 C 
HETATM   10  C4  UNL     1     -35.345   6.543   3.553  1.00 20.00     0.012 C 
HETATM   11  C5  UNL     1     -34.046   4.418   3.784  1.00 20.00     0.012 C 
ENDBRANCH   7   9
ENDBRANCH   1   7
TORSDOF 4
ENDMDL
MODEL 8
REMARK VINA RESULT:      -0.6      1.748      4.570
REMARK  4 active torsions:
REMARK  status: ('A' for Active; 'I' for Inactive)
REMARK    1  A    between atoms: C1_1  and  C6_6 
REMARK    2  A    between atoms: C1_1  and  C7_7 
REMARK    3  A    between atoms: C6_6  and  C8_8 
REMARK    4  A    between atoms: C7_7  and  C9_9 
ROOT
HETATM    1  C1  UNL     1     -32.371   8.190   3.214  1.00 20.00     0.161 C 
HETATM    2  O10 UNL     1     -31.461   8.837   3.735  1.00 20.00    -0.295 OA
ENDROOT
BRANCH   1   3
HETATM    3  C6  UNL     1     -33.524   7.613   4.021  1.00 20.00     0.085 C 
BRANCH   3   4
HETATM    4  C8  UNL     1     -34.255   6.465   3.310  1.00 20.00    -0.016 C 
HETATM    5  C2  UNL     1     -35.691   6.319   3.817  1.00 20.00     0.010 C 
HETATM    6  C3  UNL     1     -33.497   5.153   3.518  1.00 20.00     0.010 C 
ENDBRANCH   3   4
ENDBRANCH   1   3
BRANCH   1   7
HETATM    7  C7  UNL     1     -32.391   7.954   1.713  1.00 20.00     0.242 C 
HETATM    8  F11 UNL     1     -31.708   6.813   1.407  1.00 20.00    -0.241 F 
BRANCH   7   9
HETATM    9  C9  UNL     1     -31.792   9.117   0.912  1.00 20.00     0.019 C 
HETATM   10  C4  UNL     1     -31.170   8.639  -0.403  1.00 20.00     0.012 C 
HETATM   11  C5  UNL     1     -32.870  10.163   0.619  1.00 20.00     0.012 C 
ENDBRANCH   7   9
ENDBRANCH   1   7
TORSDOF 4
ENDMDL
MODEL 9
REMARK VINA RESULT:      -0.6      1.408      4.104
REMARK  4 active torsions:
REMARK  status: ('A' for Active; 'I' for Inactive)
REMARK    1  A    between atoms: C1_1  and  C6_6 
REMARK    2  A    between atoms: C1_1  and  C7_7 
REMARK    3  A    between atoms: C6_6  and  C8_8 
REMARK    4  A    between atoms: C7_7  and  C9_9 
ROOT
HETATM    1  C1  UNL     1     -32.675   5.962   1.841  1.00 20.00     0.161 C 
HETATM    2  O10 UNL     1     -31.830   5.228   1.327  1.00 20.00    -0.295 OA
ENDROOT
BRANCH   1   3
HETATM    3  C6  UNL     1     -33.335   5.635   3.172  1.00 20.00     0.085 C 
BRANCH   3   4
HETATM    4  C8  UNL     1     -34.441   6.624   3.567  1.00 20.00    -0.016 C 
HETATM    5  C2  UNL     1     -33.909   7.710   4.505  1.00 20.00     0.010 C 
HETATM    6  C3  UNL     1     -35.595   5.879   4.239  1.00 20.00     0.010 C 
ENDBRANCH   3   4
ENDBRANCH   1   3
BRANCH   1   7
HETATM    7  C7  UNL     1     -33.088   7.258   1.165  1.00 20.00     0.242 C 
HETATM    8  F11 UNL     1     -33.614   7.001  -0.067  1.00 20.00    -0.241 F 
BRANCH   7   9
HETATM    9  C9  UNL     1     -31.929   8.252   1.008  1.00 20.00     0.019 C 
HETATM   10  C4  UNL     1     -32.399   9.582   0.414  1.00 20.00     0.012 C 
HETATM   11  C5  UNL     1     -31.263   8.501   2.363  1.00 20.00     0.012 C 
ENDBRANCH   7   9
ENDBRANCH   1   7
TORSDOF 4
ENDMDL
