MODEL 1
REMARK VINA RESULT:      -1.3      0.000      0.000
REMARK  1 active torsions:
REMARK  status: ('A' for Active; 'I' for Inactive)
REMARK    1  A    between atoms: C2_2  and  C4_4 
ROOT
HETATM    1  C1  UNL     1     -33.282   7.155   2.142  1.00 20.00     0.171 A 
HETATM    2  C2  UNL     1     -33.823   7.050   3.553  1.00 20.00     0.175 A 
HETATM    3  C3  UNL     1     -32.090   7.965   1.773  1.00 20.00     0.044 C 
HETATM    4  O5  UNL     1     -32.990   6.028   2.979  1.00 20.00    -0.352 OA
HETATM    5 CL6  UNL     1     -33.137   8.047   4.831  1.00 20.00    -0.084 Cl
ENDROOT
BRANCH   2   6
HETATM    6  C4  UNL     1     -35.238   6.614   3.763  1.00 20.00     0.172 C 
HETATM    7 CL7  UNL     1     -35.307   5.005   4.528  1.00 20.00    -0.126 Cl
ENDBRANCH   2   6
TORSDOF 1
ENDMDL
MODEL 2
REMARK VINA RESULT:      -1.2      2.393      2.595
REMARK  1 active torsions:
REMARK  status: ('A' for Active; 'I' for Inactive)
REMARK    1  A    between atoms: C2_2  and  C4_4 
ROOT
HETATM    1  C1  UNL     1     -34.353   7.030   4.368  1.00 20.00     0.171 A 
HETATM    2  C2  UNL     1     -34.337   5.693   3.658  1.00 20.00     0.175 A 
HETATM    3  C3  UNL     1     -33.617   8.230   3.886  1.00 20.00     0.044 C 
HETATM    4  O5  UNL     1     -35.428   6.618   3.514  1.00 20.00    -0.352 OA
HETATM    5 CL6  UNL     1     -33.279   5.449   2.272  1.00 20.00    -0.084 Cl
ENDROOT
BRANCH   2   6
HETATM    6  C4  UNL     1     -34.702   4.457   4.416  1.00 20.00     0.172 C 
HETATM    7 CL7  UNL     1     -33.353   3.292   4.432  1.00 20.00    -0.126 Cl
ENDBRANCH   2   6
TORSDOF 1
ENDMDL
MODEL 3
REMARK VINA RESULT:      -1.1      2.311      3.626
REMARK  1 active torsions:
REMARK  status: ('A' for Active; 'I' for Inactive)
REMARK    1  A    between atoms: C2_2  and  C4_4 
ROOT
HETATM    1  C1  UNL     1     -34.116   7.549   3.631  1.00 20.00     0.171 A 
HETATM    2  C2  UNL     1     -32.908   7.334   2.743  1.00 20.00     0.175 A 
HETATM    3  C3  UNL     1     -35.230   6.572   3.761  1.00 20.00     0.044 C 
HETATM    4  O5  UNL     1     -32.865   7.088   4.158  1.00 20.00    -0.352 OA
HETATM    5 CL6  UNL     1     -32.850   5.943   1.665  1.00 20.00    -0.084 Cl
ENDROOT
BRANCH   2   6
HETATM    6  C4  UNL     1     -32.092   8.513   2.320  1.00 20.00     0.172 C 
HETATM    7 CL7  UNL     1     -32.474   8.990   0.645  1.00 20.00    -0.126 Cl
ENDBRANCH   2   6
TORSDOF 1
ENDMDL
MODEL 4
REMARK VINA RESULT:      -1.0      2.057      3.248
REMARK  1 active torsions:
REMARK  status: ('A' for Active; 'I' for Inactive)
REMARK    1  A    between atoms: C2_2  and  C4_4 
ROOT
HETATM    1  C1  UNL     1     -33.174   5.027   3.600  1.00 20.00     0.171 A 
HETATM    2  C2  UNL     1     -33.913   6.330   3.376  1.00 20.00     0.175 A 
HETATM    3  C3  UNL     1     -33.829   3.773   4.059  1.00 20.00     0.044 C 
HETATM    4  O5  UNL     1     -33.571   5.452   2.290  1.00 20.00    -0.352 OA
HETATM    5 CL6  UNL     1     -35.611   6.460   3.823  1.00 20.00    -0.084 Cl
ENDROOT
BRANCH   2   6
HETATM    6  C4  UNL     1     -33.148   7.613   3.367  1.00 20.00     0.172 C 
HETATM    7 CL7  UNL     1     -32.203   7.786   1.864  1.00 20.00    -0.126 Cl
ENDBRANCH   2   6
TORSDOF 1
ENDMDL
MODEL 5
REMARK VINA RESULT:      -1.0      2.052      2.272
REMARK  1 active torsions:
REMARK  status: ('A' for Active; 'I' for Inactive)
REMARK    1  A    between atoms: C2_2  and  C4_4 
ROOT
HETATM    1  C1  UNL     1     -32.246   8.234   0.892  1.00 20.00     0.171 A 
HETATM    2  C2  UNL     1     -32.629   7.323   2.039  1.00 20.00     0.175 A 
HETATM    3  C3  UNL     1     -32.472   9.705   0.895  1.00 20.00     0.044 C 
HETATM    4  O5  UNL     1     -31.281   7.787   1.853  1.00 20.00    -0.352 OA
HETATM    5 CL6  UNL     1     -33.537   7.966   3.403  1.00 20.00    -0.084 Cl
ENDROOT
BRANCH   2   6
HETATM    6  C4  UNL     1     -32.793   5.859   1.787  1.00 20.00     0.172 C 
HETATM    7 CL7  UNL     1     -33.659   5.069   3.132  1.00 20.00    -0.126 Cl
ENDBRANCH   2   6
TORSDOF 1
ENDMDL
MODEL 6
REMARK VINA RESULT:      -0.7      1.944      3.454
REMARK  1 active torsions:
REMARK  status: ('A' for Active; 'I' for Inactive)
REMARK    1  A    between atoms: C2_2  and  C4_4 
ROOT
HETATM    1  C1  UNL     1     -34.675   6.699   3.264  1.00 20.00     0.171 A 
HETATM    2  C2  UNL     1     -33.424   5.931   2.890  1.00 20.00     0.175 A 
HETATM    3  C3  UNL     1     -35.654   6.238   4.284  1.00 20.00     0.044 C 
HETATM    4  O5  UNL     1     -33.390   7.046   3.796  1.00 20.00    -0.352 OA
HETATM    5 CL6  UNL     1     -33.152   4.324   3.556  1.00 20.00    -0.084 Cl
ENDROOT
BRANCH   2   6
HETATM    6  C4  UNL     1     -32.759   6.208   1.581  1.00 20.00     0.172 C 
HETATM    7 CL7  UNL     1     -31.811   7.717   1.650  1.00 20.00    -0.126 Cl
ENDBRANCH   2   6
TORSDOF 1
ENDMDL
MODEL 7
REMARK VINA RESULT:      -0.5      2.158      3.441
REMARK  1 active torsions:
REMARK  status: ('A' for Active; 'I' for Inactive)
REMARK    1  A    between atoms: C2_2  and  C4_4 
ROOT
HETATM    1  C1  UNL     1     -32.761   5.638   2.242  1.00 20.00     0.171 A 
HETATM    2  C2  UNL     1     -32.860   7.142   2.388  1.00 20.00     0.175 A 
HETATM    3  C3  UNL     1     -33.537   4.676   3.070  1.00 20.00     0.044 C 
HETATM    4  O5  UNL     1     -33.563   6.430   1.356  1.00 20.00    -0.352 OA
HETATM    5 CL6  UNL     1     -33.808   7.835   3.699  1.00 20.00    -0.084 Cl
ENDROOT
BRANCH   2   6
HETATM    6  C4  UNL     1     -31.753   8.002   1.868  1.00 20.00     0.172 C 
HETATM    7 CL7  UNL     1     -32.372   9.229   0.732  1.00 20.00    -0.126 Cl
ENDBRANCH   2   6
TORSDOF 1
ENDMDL
MODEL 8
REMARK VINA RESULT:      -0.5      1.768      2.043
REMARK  1 active torsions:
REMARK  status: ('A' for Active; 'I' for Inactive)
REMARK    1  A    between atoms: C2_2  and  C4_4 
ROOT
HETATM    1  C1  UNL     1     -32.125   8.165   2.459  1.00 20.00     0.171 A 
HETATM    2  C2  UNL     1     -33.269   7.209   2.724  1.00 20.00     0.175 A 
HETATM    3  C3  UNL     1     -31.034   7.900   1.483  1.00 20.00     0.044 C 
HETATM    4  O5  UNL     1     -33.415   8.349   1.862  1.00 20.00    -0.352 OA
HETATM    5 CL6  UNL     1     -33.265   5.613   1.980  1.00 20.00    -0.084 Cl
ENDROOT
BRANCH   2   6
HETATM    6  C4  UNL     1     -34.040   7.324   3.999  1.00 20.00     0.172 C 
HETATM    7 CL7  UNL     1     -35.409   6.182   4.027  1.00 20.00    -0.126 Cl
ENDBRANCH   2   6
TORSDOF 1
ENDMDL
MODEL 9
REMARK VINA RESULT:      -0.4      1.980      2.182
REMARK  1 active torsions:
REMARK  status: ('A' for Active; 'I' for Inactive)
REMARK    1  A    between atoms: C2_2  and  C4_4 
ROOT
HETATM    1  C1  UNL     1     -32.551   7.536   2.775  1.00 20.00     0.171 A 
HETATM    2  C2  UNL     1     -33.338   6.276   2.481  1.00 20.00     0.175 A 
HETATM    3  C3  UNL     1     -31.645   8.192   1.795  1.00 20.00     0.044 C 
HETATM    4  O5  UNL     1     -33.938   7.581   2.414  1.00 20.00    -0.352 OA
HETATM    5 CL6  UNL     1     -33.077   5.414   0.968  1.00 20.00    -0.084 Cl
ENDROOT
BRANCH   2   6
HETATM    6  C4  UNL     1     -33.844   5.447   3.616  1.00 20.00     0.172 C 
HETATM    7 CL7  UNL     1     -35.424   6.040   4.191  1.00 20.00    -0.126 Cl
ENDBRANCH   2   6
TORSDOF 1
ENDMDL
