MODEL 1
REMARK VINA RESULT:       0.7      0.000      0.000
REMARK  0 active torsions:
REMARK  status: ('A' for Active; 'I' for Inactive)
ROOT
HETATM    1  C1  UNL     1     -35.958   6.276   3.625  1.00 20.00    -0.029 C 
HETATM    2  C2  UNL     1     -35.077   6.742   2.735  1.00 20.00    -0.013 C 
HETATM    3  C3  UNL     1     -32.987   7.613   3.650  1.00 20.00     0.139 C 
HETATM    4  C4  UNL     1     -35.286   5.513   4.720  1.00 20.00     0.032 C 
HETATM    5  C5  UNL     1     -31.961   8.167   2.692  1.00 20.00     0.079 C 
HETATM    6  C6  UNL     1     -32.255   7.389   1.417  1.00 20.00     0.009 C 
HETATM    7  C7  UNL     1     -32.761   6.035   1.910  1.00 20.00     0.022 C 
HETATM    8  C8  UNL     1     -33.872   5.255   4.155  1.00 20.00     0.004 C 
HETATM    9  C9  UNL     1     -33.671   6.365   3.098  1.00 20.00     0.041 C 
HETATM   10  C10 UNL     1     -33.786   3.831   3.591  1.00 20.00     0.011 C 
HETATM   11  O11 UNL     1     -33.228   8.120   4.740  1.00 20.00    -0.297 OA
ENDROOT
TORSDOF 0
ENDMDL
MODEL 2
REMARK VINA RESULT:       1.3      1.655      3.729
REMARK  0 active torsions:
REMARK  status: ('A' for Active; 'I' for Inactive)
ROOT
HETATM    1  C1  UNL     1     -33.074   5.316   0.425  1.00 20.00    -0.029 C 
HETATM    2  C2  UNL     1     -34.087   5.604   1.247  1.00 20.00    -0.013 C 
HETATM    3  C3  UNL     1     -33.814   4.899   3.570  1.00 20.00     0.139 C 
HETATM    4  C4  UNL     1     -31.750   5.528   1.083  1.00 20.00     0.032 C 
HETATM    5  C5  UNL     1     -34.933   5.184   4.541  1.00 20.00     0.079 C 
HETATM    6  C6  UNL     1     -35.583   6.419   3.933  1.00 20.00     0.009 C 
HETATM    7  C7  UNL     1     -34.432   7.155   3.252  1.00 20.00     0.022 C 
HETATM    8  C8  UNL     1     -32.105   6.365   2.332  1.00 20.00     0.004 C 
HETATM    9  C9  UNL     1     -33.597   6.052   2.593  1.00 20.00     0.041 C 
HETATM   10  C10 UNL     1     -31.814   7.847   2.068  1.00 20.00     0.011 C 
HETATM   11  O11 UNL     1     -33.167   3.858   3.581  1.00 20.00    -0.297 OA
ENDROOT
TORSDOF 0
ENDMDL
MODEL 3
REMARK VINA RESULT:       1.9      1.212      3.488
REMARK  0 active torsions:
REMARK  status: ('A' for Active; 'I' for Inactive)
ROOT
HETATM    1  C1  UNL     1     -32.400   8.145   3.163  1.00 20.00    -0.029 C 
HETATM    2  C2  UNL     1     -32.805   7.138   3.943  1.00 20.00    -0.013 C 
HETATM    3  C3  UNL     1     -35.065   6.308   3.533  1.00 20.00     0.139 C 
HETATM    4  C4  UNL     1     -32.847   7.963   1.750  1.00 20.00     0.032 C 
HETATM    5  C5  UNL     1     -35.583   5.183   4.395  1.00 20.00     0.079 C 
HETATM    6  C6  UNL     1     -34.301   4.462   4.789  1.00 20.00     0.009 C 
HETATM    7  C7  UNL     1     -33.370   4.667   3.597  1.00 20.00     0.022 C 
HETATM    8  C8  UNL     1     -33.273   6.479   1.701  1.00 20.00     0.004 C 
HETATM    9  C9  UNL     1     -33.594   6.122   3.171  1.00 20.00     0.041 C 
HETATM   10  C10 UNL     1     -32.152   5.634   1.083  1.00 20.00     0.011 C 
HETATM   11  O11 UNL     1     -35.761   7.253   3.176  1.00 20.00    -0.297 OA
ENDROOT
TORSDOF 0
ENDMDL
MODEL 4
REMARK VINA RESULT:       2.2      1.709      4.003
REMARK  0 active torsions:
REMARK  status: ('A' for Active; 'I' for Inactive)
ROOT
HETATM    1  C1  UNL     1     -32.581   8.805   0.802  1.00 20.00    -0.029 C 
HETATM    2  C2  UNL     1     -33.565   8.287   1.543  1.00 20.00    -0.013 C 
HETATM    3  C3  UNL     1     -33.181   6.034   2.408  1.00 20.00     0.139 C 
HETATM    4  C4  UNL     1     -31.236   8.474   1.359  1.00 20.00     0.032 C 
HETATM    5  C5  UNL     1     -34.265   5.392   3.239  1.00 20.00     0.079 C 
HETATM    6  C6  UNL     1     -34.964   6.599   3.849  1.00 20.00     0.009 C 
HETATM    7  C7  UNL     1     -33.856   7.639   4.001  1.00 20.00     0.022 C 
HETATM    8  C8  UNL     1     -31.555   7.986   2.789  1.00 20.00     0.004 C 
HETATM    9  C9  UNL     1     -33.028   7.521   2.717  1.00 20.00     0.041 C 
HETATM   10  C10 UNL     1     -31.304   9.115   3.796  1.00 20.00     0.011 C 
HETATM   11  O11 UNL     1     -32.514   5.417   1.585  1.00 20.00    -0.297 OA
ENDROOT
TORSDOF 0
ENDMDL
MODEL 5
REMARK VINA RESULT:       3.5      1.739      2.635
REMARK  0 active torsions:
REMARK  status: ('A' for Active; 'I' for Inactive)
ROOT
HETATM    1  C1  UNL     1     -33.837   4.653   3.858  1.00 20.00    -0.029 C 
HETATM    2  C2  UNL     1     -32.824   5.304   3.278  1.00 20.00    -0.013 C 
HETATM    3  C3  UNL     1     -33.377   6.570   1.264  1.00 20.00     0.139 C 
HETATM    4  C4  UNL     1     -35.093   5.462   3.846  1.00 20.00     0.032 C 
HETATM    5  C5  UNL     1     -32.269   7.312   0.558  1.00 20.00     0.079 C 
HETATM    6  C6  UNL     1     -31.297   7.601   1.694  1.00 20.00     0.009 C 
HETATM    7  C7  UNL     1     -32.189   7.756   2.924  1.00 20.00     0.022 C 
HETATM    8  C8  UNL     1     -34.595   6.884   3.504  1.00 20.00     0.004 C 
HETATM    9  C9  UNL     1     -33.246   6.656   2.783  1.00 20.00     0.041 C 
HETATM   10  C10 UNL     1     -34.485   7.722   4.784  1.00 20.00     0.011 C 
HETATM   11  O11 UNL     1     -34.268   5.975   0.670  1.00 20.00    -0.297 OA
ENDROOT
TORSDOF 0
ENDMDL
MODEL 6
REMARK VINA RESULT:       3.5      1.511      3.322
REMARK  0 active torsions:
REMARK  status: ('A' for Active; 'I' for Inactive)
ROOT
HETATM    1  C1  UNL     1     -31.714   4.729   1.879  1.00 20.00    -0.029 C 
HETATM    2  C2  UNL     1     -32.566   5.119   2.832  1.00 20.00    -0.013 C 
HETATM    3  C3  UNL     1     -32.913   7.528   3.037  1.00 20.00     0.139 C 
HETATM    4  C4  UNL     1     -31.874   5.534   0.632  1.00 20.00     0.032 C 
HETATM    5  C5  UNL     1     -33.852   8.028   4.107  1.00 20.00     0.079 C 
HETATM    6  C6  UNL     1     -34.808   6.855   4.273  1.00 20.00     0.009 C 
HETATM    7  C7  UNL     1     -34.873   6.222   2.885  1.00 20.00     0.022 C 
HETATM    8  C8  UNL     1     -33.233   6.240   0.837  1.00 20.00     0.004 C 
HETATM    9  C9  UNL     1     -33.430   6.255   2.371  1.00 20.00     0.041 C 
HETATM   10  C10 UNL     1     -34.332   5.491   0.073  1.00 20.00     0.011 C 
HETATM   11  O11 UNL     1     -31.863   8.092   2.750  1.00 20.00    -0.297 OA
ENDROOT
TORSDOF 0
ENDMDL
MODEL 7
REMARK VINA RESULT:       3.6      1.535      2.356
REMARK  0 active torsions:
REMARK  status: ('A' for Active; 'I' for Inactive)
ROOT
HETATM    1  C1  UNL     1     -34.192   6.606   3.404  1.00 20.00    -0.029 C 
HETATM    2  C2  UNL     1     -34.036   7.622   2.551  1.00 20.00    -0.013 C 
HETATM    3  C3  UNL     1     -31.734   8.322   2.128  1.00 20.00     0.139 C 
HETATM    4  C4  UNL     1     -33.152   5.553   3.206  1.00 20.00     0.032 C 
HETATM    5  C5  UNL     1     -31.498   9.476   1.185  1.00 20.00     0.079 C 
HETATM    6  C6  UNL     1     -32.711   9.399   0.269  1.00 20.00     0.009 C 
HETATM    7  C7  UNL     1     -33.045   7.910   0.209  1.00 20.00     0.022 C 
HETATM    8  C8  UNL     1     -32.550   5.905   1.827  1.00 20.00     0.004 C 
HETATM    9  C9  UNL     1     -32.858   7.409   1.646  1.00 20.00     0.041 C 
HETATM   10  C10 UNL     1     -33.161   5.006   0.745  1.00 20.00     0.011 C 
HETATM   11  O11 UNL     1     -31.088   8.155   3.157  1.00 20.00    -0.297 OA
ENDROOT
TORSDOF 0
ENDMDL
