MODEL 1
REMARK VINA RESULT:      -0.8      0.000      0.000
REMARK  3 active torsions:
REMARK  status: ('A' for Active; 'I' for Inactive)
REMARK    1  A    between atoms: C1_1  and  C2_2 
REMARK    2  A    between atoms: C1_1  and  O11_11 
REMARK    3  A    between atoms: C8_8  and  N9_9 
ROOT
HETATM    1  C2  UNL     1     -32.398   7.653   2.549  1.00 20.00     0.355 A 
HETATM    2  C3  UNL     1     -32.890   6.224   2.433  1.00 20.00     0.264 A 
HETATM    3  C4  UNL     1     -32.779   5.452   1.164  1.00 20.00     0.046 C 
HETATM    4  N9  UNL     1     -33.826   7.338   2.498  1.00 20.00     0.115 N 
ENDROOT
BRANCH   1   5
HETATM    5  C1  UNL     1     -31.953   8.413   1.380  1.00 20.00     0.294 C 
HETATM    6  O10 UNL     1     -30.951   8.148   0.731  1.00 20.00    -0.263 OA
BRANCH   5   7
HETATM    7  O11 UNL     1     -32.822   9.437   1.146  1.00 20.00    -0.325 OA
HETATM    8  C7  UNL     1     -32.589  10.177  -0.057  1.00 20.00     0.213 C 
ENDBRANCH   5   7
ENDBRANCH   1   5
BRANCH   4   9
HETATM    9  C8  UNL     1     -34.485   7.458   3.793  1.00 20.00     0.216 C 
HETATM   10  C5  UNL     1     -33.465   7.900   4.832  1.00 20.00     0.042 C 
HETATM   11  C6  UNL     1     -35.111   6.118   4.152  1.00 20.00     0.042 C 
ENDBRANCH   4   9
TORSDOF 3
ENDMDL
MODEL 2
REMARK VINA RESULT:      -0.8      2.709      4.720
REMARK  3 active torsions:
REMARK  status: ('A' for Active; 'I' for Inactive)
REMARK    1  A    between atoms: C1_1  and  C2_2 
REMARK    2  A    between atoms: C1_1  and  O11_11 
REMARK    3  A    between atoms: C8_8  and  N9_9 
ROOT
HETATM    1  C2  UNL     1     -33.694   6.043   3.468  1.00 20.00     0.355 A 
HETATM    2  C3  UNL     1     -33.043   7.351   3.867  1.00 20.00     0.264 A 
HETATM    3  C4  UNL     1     -33.652   8.260   4.878  1.00 20.00     0.046 C 
HETATM    4  N9  UNL     1     -33.695   7.201   2.574  1.00 20.00     0.115 N 
ENDROOT
BRANCH   1   5
HETATM    5  C1  UNL     1     -35.041   5.684   3.914  1.00 20.00     0.294 C 
HETATM    6  O10 UNL     1     -36.035   6.367   3.710  1.00 20.00    -0.263 OA
BRANCH   5   7
HETATM    7  O11 UNL     1     -34.999   4.493   4.575  1.00 20.00    -0.325 OA
HETATM    8  C7  UNL     1     -33.821   3.710   4.358  1.00 20.00     0.213 C 
ENDBRANCH   5   7
ENDBRANCH   1   5
BRANCH   4   9
HETATM    9  C8  UNL     1     -32.752   7.072   1.469  1.00 20.00     0.216 C 
HETATM   10  C5  UNL     1     -32.233   5.642   1.421  1.00 20.00     0.042 C 
HETATM   11  C6  UNL     1     -31.624   8.075   1.664  1.00 20.00     0.042 C 
ENDBRANCH   4   9
TORSDOF 3
ENDMDL
MODEL 3
REMARK VINA RESULT:      -0.7      0.517      1.192
REMARK  3 active torsions:
REMARK  status: ('A' for Active; 'I' for Inactive)
REMARK    1  A    between atoms: C1_1  and  C2_2 
REMARK    2  A    between atoms: C1_1  and  O11_11 
REMARK    3  A    between atoms: C8_8  and  N9_9 
ROOT
HETATM    1  C2  UNL     1     -32.096   7.305   2.211  1.00 20.00     0.355 A 
HETATM    2  C3  UNL     1     -32.668   5.935   1.910  1.00 20.00     0.264 A 
HETATM    3  C4  UNL     1     -32.859   5.448   0.516  1.00 20.00     0.046 C 
HETATM    4  N9  UNL     1     -33.517   7.012   2.400  1.00 20.00     0.115 N 
ENDROOT
BRANCH   1   5
HETATM    5  C1  UNL     1     -31.868   8.295   1.157  1.00 20.00     0.294 C 
HETATM    6  O10 UNL     1     -30.966   8.223   0.334  1.00 20.00    -0.263 OA
BRANCH   5   7
HETATM    7  O11 UNL     1     -32.805   9.280   1.247  1.00 20.00    -0.325 OA
HETATM    8  C7  UNL     1     -32.685  10.332   0.283  1.00 20.00     0.213 C 
ENDBRANCH   5   7
ENDBRANCH   1   5
BRANCH   4   9
HETATM    9  C8  UNL     1     -33.887   6.857   3.802  1.00 20.00     0.216 C 
HETATM   10  C5  UNL     1     -35.315   6.336   3.886  1.00 20.00     0.042 C 
HETATM   11  C6  UNL     1     -33.734   8.198   4.504  1.00 20.00     0.042 C 
ENDBRANCH   4   9
TORSDOF 3
ENDMDL
MODEL 4
REMARK VINA RESULT:      -0.6      1.211      2.199
REMARK  3 active torsions:
REMARK  status: ('A' for Active; 'I' for Inactive)
REMARK    1  A    between atoms: C1_1  and  C2_2 
REMARK    2  A    between atoms: C1_1  and  O11_11 
REMARK    3  A    between atoms: C8_8  and  N9_9 
ROOT
HETATM    1  C2  UNL     1     -33.530   7.484   2.504  1.00 20.00     0.355 A 
HETATM    2  C3  UNL     1     -33.727   7.651   3.997  1.00 20.00     0.264 A 
HETATM    3  C4  UNL     1     -32.769   8.421   4.838  1.00 20.00     0.046 C 
HETATM    4  N9  UNL     1     -33.301   6.378   3.433  1.00 20.00     0.115 N 
ENDROOT
BRANCH   1   5
HETATM    5  C1  UNL     1     -32.300   7.912   1.835  1.00 20.00     0.294 C 
HETATM    6  O10 UNL     1     -31.352   7.174   1.608  1.00 20.00    -0.263 OA
BRANCH   5   7
HETATM    7  O11 UNL     1     -32.390   9.235   1.519  1.00 20.00    -0.325 OA
HETATM    8  C7  UNL     1     -32.381   9.534   0.119  1.00 20.00     0.213 C 
ENDBRANCH   5   7
ENDBRANCH   1   5
BRANCH   4   9
HETATM    9  C8  UNL     1     -34.364   5.379   3.407  1.00 20.00     0.216 C 
HETATM   10  C5  UNL     1     -35.592   5.940   4.110  1.00 20.00     0.042 C 
HETATM   11  C6  UNL     1     -33.862   4.108   4.076  1.00 20.00     0.042 C 
ENDBRANCH   4   9
TORSDOF 3
ENDMDL
MODEL 5
REMARK VINA RESULT:      -0.1      1.511      3.004
REMARK  3 active torsions:
REMARK  status: ('A' for Active; 'I' for Inactive)
REMARK    1  A    between atoms: C1_1  and  C2_2 
REMARK    2  A    between atoms: C1_1  and  O11_11 
REMARK    3  A    between atoms: C8_8  and  N9_9 
ROOT
HETATM    1  C2  UNL     1     -33.671   6.824   2.498  1.00 20.00     0.355 A 
HETATM    2  C3  UNL     1     -34.047   7.250   3.902  1.00 20.00     0.264 A 
HETATM    3  C4  UNL     1     -33.272   8.280   4.649  1.00 20.00     0.046 C 
HETATM    4  N9  UNL     1     -33.433   5.955   3.650  1.00 20.00     0.115 N 
ENDROOT
BRANCH   1   5
HETATM    5  C1  UNL     1     -32.426   7.263   1.866  1.00 20.00     0.294 C 
HETATM    6  O10 UNL     1     -32.177   8.425   1.578  1.00 20.00    -0.263 OA
BRANCH   5   7
HETATM    7  O11 UNL     1     -31.615   6.187   1.660  1.00 20.00    -0.325 OA
HETATM    8  C7  UNL     1     -32.130   5.191   0.770  1.00 20.00     0.213 C 
ENDBRANCH   5   7
ENDBRANCH   1   5
BRANCH   4   9
HETATM    9  C8  UNL     1     -34.377   4.847   3.736  1.00 20.00     0.216 C 
HETATM   10  C5  UNL     1     -35.576   5.277   4.569  1.00 20.00     0.042 C 
HETATM   11  C6  UNL     1     -33.671   3.644   4.345  1.00 20.00     0.042 C 
ENDBRANCH   4   9
TORSDOF 3
ENDMDL
MODEL 6
REMARK VINA RESULT:       0.4      2.041      3.994
REMARK  3 active torsions:
REMARK  status: ('A' for Active; 'I' for Inactive)
REMARK    1  A    between atoms: C1_1  and  C2_2 
REMARK    2  A    between atoms: C1_1  and  O11_11 
REMARK    3  A    between atoms: C8_8  and  N9_9 
ROOT
HETATM    1  C2  UNL     1     -33.467   7.831   2.280  1.00 20.00     0.355 A 
HETATM    2  C3  UNL     1     -32.691   6.874   1.398  1.00 20.00     0.264 A 
HETATM    3  C4  UNL     1     -32.378   5.483   1.828  1.00 20.00     0.046 C 
HETATM    4  N9  UNL     1     -32.028   7.983   2.069  1.00 20.00     0.115 N 
ENDROOT
BRANCH   1   5
HETATM    5  C1  UNL     1     -33.794   7.507   3.670  1.00 20.00     0.294 C 
HETATM    6  O10 UNL     1     -33.055   7.734   4.618  1.00 20.00    -0.263 OA
BRANCH   5   7
HETATM    7  O11 UNL     1     -35.026   6.927   3.724  1.00 20.00    -0.325 OA
HETATM    8  C7  UNL     1     -35.055   5.595   4.250  1.00 20.00     0.213 C 
ENDBRANCH   5   7
ENDBRANCH   1   5
BRANCH   4   9
HETATM    9  C8  UNL     1     -31.694   9.080   1.167  1.00 20.00     0.216 C 
HETATM   10  C5  UNL     1     -32.902   9.995   1.028  1.00 20.00     0.042 C 
HETATM   11  C6  UNL     1     -31.266   8.503  -0.174  1.00 20.00     0.042 C 
ENDBRANCH   4   9
TORSDOF 3
ENDMDL
MODEL 7
REMARK VINA RESULT:       1.0      2.007      4.213
REMARK  3 active torsions:
REMARK  status: ('A' for Active; 'I' for Inactive)
REMARK    1  A    between atoms: C1_1  and  C2_2 
REMARK    2  A    between atoms: C1_1  and  O11_11 
REMARK    3  A    between atoms: C8_8  and  N9_9 
ROOT
HETATM    1  C2  UNL     1     -32.116   7.015   1.945  1.00 20.00     0.355 A 
HETATM    2  C3  UNL     1     -32.609   8.054   2.932  1.00 20.00     0.264 A 
HETATM    3  C4  UNL     1     -33.793   7.815   3.803  1.00 20.00     0.046 C 
HETATM    4  N9  UNL     1     -32.813   8.222   1.500  1.00 20.00     0.115 N 
ENDROOT
BRANCH   1   5
HETATM    5  C1  UNL     1     -32.877   5.797   1.662  1.00 20.00     0.294 C 
HETATM    6  O10 UNL     1     -33.572   5.639   0.668  1.00 20.00    -0.263 OA
BRANCH   5   7
HETATM    7  O11 UNL     1     -32.685   4.897   2.667  1.00 20.00    -0.325 OA
HETATM    8  C7  UNL     1     -33.851   4.568   3.430  1.00 20.00     0.213 C 
ENDBRANCH   5   7
ENDBRANCH   1   5
BRANCH   4   9
HETATM    9  C8  UNL     1     -31.922   9.212   0.907  1.00 20.00     0.216 C 
HETATM   10  C5  UNL     1     -32.749  10.376   0.381  1.00 20.00     0.042 C 
HETATM   11  C6  UNL     1     -31.115   8.548  -0.200  1.00 20.00     0.042 C 
ENDBRANCH   4   9
TORSDOF 3
ENDMDL
MODEL 8
REMARK VINA RESULT:       1.0      2.059      3.983
REMARK  3 active torsions:
REMARK  status: ('A' for Active; 'I' for Inactive)
REMARK    1  A    between atoms: C1_1  and  C2_2 
REMARK    2  A    between atoms: C1_1  and  O11_11 
REMARK    3  A    between atoms: C8_8  and  N9_9 
ROOT
HETATM    1  C2  UNL     1     -32.800   6.771   3.095  1.00 20.00     0.355 A 
HETATM    2  C3  UNL     1     -32.180   7.417   1.873  1.00 20.00     0.264 A 
HETATM    3  C4  UNL     1     -32.384   8.858   1.553  1.00 20.00     0.046 C 
HETATM    4  N9  UNL     1     -33.308   6.504   1.750  1.00 20.00     0.115 N 
ENDROOT
BRANCH   1   5
HETATM    5  C1  UNL     1     -33.776   7.474   3.929  1.00 20.00     0.294 C 
HETATM    6  O10 UNL     1     -33.484   8.342   4.740  1.00 20.00    -0.263 OA
BRANCH   5   7
HETATM    7  O11 UNL     1     -35.027   7.010   3.655  1.00 20.00    -0.325 OA
HETATM    8  C7  UNL     1     -35.374   5.770   4.282  1.00 20.00     0.213 C 
ENDBRANCH   5   7
ENDBRANCH   1   5
BRANCH   4   9
HETATM    9  C8  UNL     1     -32.928   5.190   1.245  1.00 20.00     0.216 C 
HETATM   10  C5  UNL     1     -31.426   5.166   0.997  1.00 20.00     0.042 C 
HETATM   11  C6  UNL     1     -33.713   4.905  -0.027  1.00 20.00     0.042 C 
ENDBRANCH   4   9
TORSDOF 3
ENDMDL
MODEL 9
REMARK VINA RESULT:       1.1      2.437      4.024
REMARK  3 active torsions:
REMARK  status: ('A' for Active; 'I' for Inactive)
REMARK    1  A    between atoms: C1_1  and  C2_2 
REMARK    2  A    between atoms: C1_1  and  O11_11 
REMARK    3  A    between atoms: C8_8  and  N9_9 
ROOT
HETATM    1  C2  UNL     1     -34.245   5.872   2.807  1.00 20.00     0.355 A 
HETATM    2  C3  UNL     1     -33.570   4.526   2.971  1.00 20.00     0.264 A 
HETATM    3  C4  UNL     1     -33.655   3.750   4.239  1.00 20.00     0.046 C 
HETATM    4  N9  UNL     1     -32.794   5.758   2.953  1.00 20.00     0.115 N 
ENDROOT
BRANCH   1   5
HETATM    5  C1  UNL     1     -34.865   6.567   3.936  1.00 20.00     0.294 C 
HETATM    6  O10 UNL     1     -35.703   6.066   4.672  1.00 20.00    -0.263 OA
BRANCH   5   7
HETATM    7  O11 UNL     1     -34.364   7.832   4.023  1.00 20.00    -0.325 OA
HETATM    8  C7  UNL     1     -33.451   8.058   5.102  1.00 20.00     0.213 C 
ENDBRANCH   5   7
ENDBRANCH   1   5
BRANCH   4   9
HETATM    9  C8  UNL     1     -32.075   5.964   1.701  1.00 20.00     0.216 C 
HETATM   10  C5  UNL     1     -31.907   7.458   1.462  1.00 20.00     0.042 C 
HETATM   11  C6  UNL     1     -32.848   5.295   0.573  1.00 20.00     0.042 C 
ENDBRANCH   4   9
TORSDOF 3
ENDMDL
