MODEL 1
REMARK VINA RESULT:       1.1      0.000      0.000
REMARK  3 active torsions:
REMARK  status: ('A' for Active; 'I' for Inactive)
REMARK    1  A    between atoms: C1_1  and  C7_7 
REMARK    2  A    between atoms: C1_1  and  N9_9 
REMARK    3  A    between atoms: C7_7  and  C8_8 
ROOT
HETATM    1  C1  UNL     1     -32.604   6.787   1.666  1.00 20.00     0.075 C 
HETATM    2  S10 UNL     1     -31.832   5.351   1.186  1.00 20.00    -0.066 SA
ENDROOT
BRANCH   1   3
HETATM    3  C7  UNL     1     -34.086   6.671   2.081  1.00 20.00     0.077 C 
BRANCH   3   4
HETATM    4  C8  UNL     1     -34.374   6.386   3.585  1.00 20.00    -0.045 C 
HETATM    5  C2  UNL     1     -35.907   6.319   3.764  1.00 20.00     0.015 C 
HETATM    6  C3  UNL     1     -33.836   7.483   4.515  1.00 20.00     0.015 C 
HETATM    7  C4  UNL     1     -33.787   5.034   4.028  1.00 20.00     0.015 C 
ENDBRANCH   3   4
ENDBRANCH   1   3
BRANCH   1   8
HETATM    8  N9  UNL     1     -31.987   8.044   1.688  1.00 20.00    -0.384 N 
HETATM    9  C5  UNL     1     -31.092   8.506   2.750  1.00 20.00     0.149 C 
HETATM   10  C6  UNL     1     -32.302   9.086   0.706  1.00 20.00     0.149 C 
ENDBRANCH   1   8
TORSDOF 3
ENDMDL
MODEL 2
REMARK VINA RESULT:       1.2      0.099      1.386
REMARK  3 active torsions:
REMARK  status: ('A' for Active; 'I' for Inactive)
REMARK    1  A    between atoms: C1_1  and  C7_7 
REMARK    2  A    between atoms: C1_1  and  N9_9 
REMARK    3  A    between atoms: C7_7  and  C8_8 
ROOT
HETATM    1  C1  UNL     1     -32.626   6.818   1.632  1.00 20.00     0.075 C 
HETATM    2  S10 UNL     1     -31.887   5.377   1.115  1.00 20.00    -0.066 SA
ENDROOT
BRANCH   1   3
HETATM    3  C7  UNL     1     -34.101   6.718   2.078  1.00 20.00     0.077 C 
BRANCH   3   4
HETATM    4  C8  UNL     1     -34.360   6.408   3.582  1.00 20.00    -0.045 C 
HETATM    5  C2  UNL     1     -33.619   5.097   3.925  1.00 20.00     0.015 C 
HETATM    6  C3  UNL     1     -35.849   6.208   3.902  1.00 20.00     0.015 C 
HETATM    7  C4  UNL     1     -33.807   7.518   4.493  1.00 20.00     0.015 C 
ENDBRANCH   3   4
ENDBRANCH   1   3
BRANCH   1   8
HETATM    8  N9  UNL     1     -31.990   8.065   1.657  1.00 20.00    -0.384 N 
HETATM    9  C5  UNL     1     -31.089   8.511   2.721  1.00 20.00     0.149 C 
HETATM   10  C6  UNL     1     -32.287   9.114   0.678  1.00 20.00     0.149 C 
ENDBRANCH   1   8
TORSDOF 3
ENDMDL
MODEL 3
REMARK VINA RESULT:       1.2      0.087      1.353
REMARK  3 active torsions:
REMARK  status: ('A' for Active; 'I' for Inactive)
REMARK    1  A    between atoms: C1_1  and  C7_7 
REMARK    2  A    between atoms: C1_1  and  N9_9 
REMARK    3  A    between atoms: C7_7  and  C8_8 
ROOT
HETATM    1  C1  UNL     1     -32.634   6.834   1.650  1.00 20.00     0.075 C 
HETATM    2  S10 UNL     1     -31.912   5.383   1.141  1.00 20.00    -0.066 SA
ENDROOT
BRANCH   1   3
HETATM    3  C7  UNL     1     -34.107   6.753   2.105  1.00 20.00     0.077 C 
BRANCH   3   4
HETATM    4  C8  UNL     1     -34.363   6.353   3.588  1.00 20.00    -0.045 C 
HETATM    5  C2  UNL     1     -33.803   7.481   4.481  1.00 20.00     0.015 C 
HETATM    6  C3  UNL     1     -33.663   5.044   3.983  1.00 20.00     0.015 C 
HETATM    7  C4  UNL     1     -35.866   6.215   3.886  1.00 20.00     0.015 C 
ENDBRANCH   3   4
ENDBRANCH   1   3
BRANCH   1   8
HETATM    8  N9  UNL     1     -31.984   8.076   1.662  1.00 20.00    -0.384 N 
HETATM    9  C5  UNL     1     -31.072   8.520   2.717  1.00 20.00     0.149 C 
HETATM   10  C6  UNL     1     -32.278   9.120   0.677  1.00 20.00     0.149 C 
ENDBRANCH   1   8
TORSDOF 3
ENDMDL
MODEL 4
REMARK VINA RESULT:       1.5      1.302      3.907
REMARK  3 active torsions:
REMARK  status: ('A' for Active; 'I' for Inactive)
REMARK    1  A    between atoms: C1_1  and  C7_7 
REMARK    2  A    between atoms: C1_1  and  N9_9 
REMARK    3  A    between atoms: C7_7  and  C8_8 
ROOT
HETATM    1  C1  UNL     1     -33.126   6.346   1.986  1.00 20.00     0.075 C 
HETATM    2  S10 UNL     1     -32.031   5.179   1.414  1.00 20.00    -0.066 SA
ENDROOT
BRANCH   1   3
HETATM    3  C7  UNL     1     -33.290   7.620   1.130  1.00 20.00     0.077 C 
BRANCH   3   4
HETATM    4  C8  UNL     1     -32.114   8.641   1.157  1.00 20.00    -0.045 C 
HETATM    5  C2  UNL     1     -32.717  10.055   1.019  1.00 20.00     0.015 C 
HETATM    6  C3  UNL     1     -31.119   8.436   0.006  1.00 20.00     0.015 C 
HETATM    7  C4  UNL     1     -31.344   8.582   2.488  1.00 20.00     0.015 C 
ENDBRANCH   3   4
ENDBRANCH   1   3
BRANCH   1   8
HETATM    8  N9  UNL     1     -33.858   6.225   3.174  1.00 20.00    -0.384 N 
HETATM    9  C5  UNL     1     -34.264   7.354   4.012  1.00 20.00     0.149 C 
HETATM   10  C6  UNL     1     -34.162   4.923   3.776  1.00 20.00     0.149 C 
ENDBRANCH   1   8
TORSDOF 3
ENDMDL
MODEL 5
REMARK VINA RESULT:       1.5      1.296      3.993
REMARK  3 active torsions:
REMARK  status: ('A' for Active; 'I' for Inactive)
REMARK    1  A    between atoms: C1_1  and  C7_7 
REMARK    2  A    between atoms: C1_1  and  N9_9 
REMARK    3  A    between atoms: C7_7  and  C8_8 
ROOT
HETATM    1  C1  UNL     1     -33.112   6.347   1.957  1.00 20.00     0.075 C 
HETATM    2  S10 UNL     1     -32.000   5.185   1.407  1.00 20.00    -0.066 SA
ENDROOT
BRANCH   1   3
HETATM    3  C7  UNL     1     -33.280   7.611   1.087  1.00 20.00     0.077 C 
BRANCH   3   4
HETATM    4  C8  UNL     1     -32.147   8.677   1.170  1.00 20.00    -0.045 C 
HETATM    5  C2  UNL     1     -31.173   8.418   0.000  1.00 20.00     0.015 C 
HETATM    6  C3  UNL     1     -31.348   8.597   2.479  1.00 20.00     0.015 C 
HETATM    7  C4  UNL     1     -32.701  10.104   1.019  1.00 20.00     0.015 C 
ENDBRANCH   3   4
ENDBRANCH   1   3
BRANCH   1   8
HETATM    8  N9  UNL     1     -33.853   6.230   3.139  1.00 20.00    -0.384 N 
HETATM    9  C5  UNL     1     -34.272   7.362   3.966  1.00 20.00     0.149 C 
HETATM   10  C6  UNL     1     -34.158   4.930   3.745  1.00 20.00     0.149 C 
ENDBRANCH   1   8
TORSDOF 3
ENDMDL
MODEL 6
REMARK VINA RESULT:       1.6      1.338      4.089
REMARK  3 active torsions:
REMARK  status: ('A' for Active; 'I' for Inactive)
REMARK    1  A    between atoms: C1_1  and  C7_7 
REMARK    2  A    between atoms: C1_1  and  N9_9 
REMARK    3  A    between atoms: C7_7  and  C8_8 
ROOT
HETATM    1  C1  UNL     1     -32.835   7.145   2.472  1.00 20.00     0.075 C 
HETATM    2  S10 UNL     1     -32.683   5.721   1.558  1.00 20.00    -0.066 SA
ENDROOT
BRANCH   1   3
HETATM    3  C7  UNL     1     -31.905   8.316   2.089  1.00 20.00     0.077 C 
BRANCH   3   4
HETATM    4  C8  UNL     1     -32.186   9.021   0.729  1.00 20.00    -0.045 C 
HETATM    5  C2  UNL     1     -30.853   9.090  -0.048  1.00 20.00     0.015 C 
HETATM    6  C3  UNL     1     -32.712  10.454   0.896  1.00 20.00     0.015 C 
HETATM    7  C4  UNL     1     -33.190   8.226  -0.124  1.00 20.00     0.015 C 
ENDBRANCH   3   4
ENDBRANCH   1   3
BRANCH   1   8
HETATM    8  N9  UNL     1     -33.725   7.304   3.541  1.00 20.00    -0.384 N 
HETATM    9  C5  UNL     1     -33.505   8.207   4.672  1.00 20.00     0.149 C 
HETATM   10  C6  UNL     1     -34.911   6.457   3.704  1.00 20.00     0.149 C 
ENDBRANCH   1   8
TORSDOF 3
ENDMDL
MODEL 7
REMARK VINA RESULT:       1.6      2.143      4.292
REMARK  3 active torsions:
REMARK  status: ('A' for Active; 'I' for Inactive)
REMARK    1  A    between atoms: C1_1  and  C7_7 
REMARK    2  A    between atoms: C1_1  and  N9_9 
REMARK    3  A    between atoms: C7_7  and  C8_8 
ROOT
HETATM    1  C1  UNL     1     -33.757   7.398   3.757  1.00 20.00     0.075 C 
HETATM    2  S10 UNL     1     -33.234   8.213   5.154  1.00 20.00    -0.066 SA
ENDROOT
BRANCH   1   3
HETATM    3  C7  UNL     1     -33.585   8.144   2.416  1.00 20.00     0.077 C 
BRANCH   3   4
HETATM    4  C8  UNL     1     -32.190   8.043   1.730  1.00 20.00    -0.045 C 
HETATM    5  C2  UNL     1     -32.172   9.045   0.555  1.00 20.00     0.015 C 
HETATM    6  C3  UNL     1     -31.903   6.645   1.164  1.00 20.00     0.015 C 
HETATM    7  C4  UNL     1     -31.055   8.425   2.696  1.00 20.00     0.015 C 
ENDBRANCH   3   4
ENDBRANCH   1   3
BRANCH   1   8
HETATM    8  N9  UNL     1     -34.339   6.124   3.759  1.00 20.00    -0.384 N 
HETATM    9  C5  UNL     1     -35.712   5.845   4.182  1.00 20.00     0.149 C 
HETATM   10  C6  UNL     1     -33.567   4.912   3.471  1.00 20.00     0.149 C 
ENDBRANCH   1   8
TORSDOF 3
ENDMDL
MODEL 8
REMARK VINA RESULT:       1.6      2.136      4.257
REMARK  3 active torsions:
REMARK  status: ('A' for Active; 'I' for Inactive)
REMARK    1  A    between atoms: C1_1  and  C7_7 
REMARK    2  A    between atoms: C1_1  and  N9_9 
REMARK    3  A    between atoms: C7_7  and  C8_8 
ROOT
HETATM    1  C1  UNL     1     -33.759   7.357   3.729  1.00 20.00     0.075 C 
HETATM    2  S10 UNL     1     -33.238   8.216   5.100  1.00 20.00    -0.066 SA
ENDROOT
BRANCH   1   3
HETATM    3  C7  UNL     1     -33.607   8.068   2.367  1.00 20.00     0.077 C 
BRANCH   3   4
HETATM    4  C8  UNL     1     -32.188   8.058   1.724  1.00 20.00    -0.045 C 
HETATM    5  C2  UNL     1     -31.925   6.631   1.194  1.00 20.00     0.015 C 
HETATM    6  C3  UNL     1     -31.077   8.404   2.725  1.00 20.00     0.015 C 
HETATM    7  C4  UNL     1     -32.099   9.029   0.534  1.00 20.00     0.015 C 
ENDBRANCH   3   4
ENDBRANCH   1   3
BRANCH   1   8
HETATM    8  N9  UNL     1     -34.322   6.075   3.769  1.00 20.00    -0.384 N 
HETATM    9  C5  UNL     1     -35.675   5.783   4.244  1.00 20.00     0.149 C 
HETATM   10  C6  UNL     1     -33.544   4.869   3.472  1.00 20.00     0.149 C 
ENDBRANCH   1   8
TORSDOF 3
ENDMDL
MODEL 9
REMARK VINA RESULT:       2.0      1.990      2.886
REMARK  3 active torsions:
REMARK  status: ('A' for Active; 'I' for Inactive)
REMARK    1  A    between atoms: C1_1  and  C7_7 
REMARK    2  A    between atoms: C1_1  and  N9_9 
REMARK    3  A    between atoms: C7_7  and  C8_8 
ROOT
HETATM    1  C1  UNL     1     -32.766   6.205   1.874  1.00 20.00     0.075 C 
HETATM    2  S10 UNL     1     -32.160   7.792   1.860  1.00 20.00    -0.066 SA
ENDROOT
BRANCH   1   3
HETATM    3  C7  UNL     1     -33.322   5.689   3.219  1.00 20.00     0.077 C 
BRANCH   3   4
HETATM    4  C8  UNL     1     -34.567   6.427   3.794  1.00 20.00    -0.045 C 
HETATM    5  C2  UNL     1     -35.350   5.418   4.663  1.00 20.00     0.015 C 
HETATM    6  C3  UNL     1     -35.512   6.944   2.701  1.00 20.00     0.015 C 
HETATM    7  C4  UNL     1     -34.160   7.609   4.692  1.00 20.00     0.015 C 
ENDBRANCH   3   4
ENDBRANCH   1   3
BRANCH   1   8
HETATM    8  N9  UNL     1     -32.772   5.353   0.763  1.00 20.00    -0.384 N 
HETATM    9  C5  UNL     1     -33.947   5.093  -0.071  1.00 20.00     0.149 C 
HETATM   10  C6  UNL     1     -31.621   4.516   0.413  1.00 20.00     0.149 C 
ENDBRANCH   1   8
TORSDOF 3
ENDMDL
