MODEL 1
REMARK VINA RESULT:      -1.3      0.000      0.000
REMARK  1 active torsions:
REMARK  status: ('A' for Active; 'I' for Inactive)
REMARK    1  A    between atoms: C3_3  and  C8_8 
ROOT
HETATM    1  C1  UNL     1     -32.934   7.484   2.581  1.00 20.00     0.145 C 
HETATM    2  C4  UNL     1     -33.624   7.430   3.931  1.00 20.00     0.080 C 
HETATM    3  C5  UNL     1     -34.813   6.481   3.868  1.00 20.00     0.016 C 
HETATM    4  C6  UNL     1     -33.125   4.997   2.638  1.00 20.00     0.036 C 
HETATM    5  C7  UNL     1     -33.002   6.222   1.736  1.00 20.00     0.152 C 
HETATM    6  C8  UNL     1     -34.405   5.041   3.497  1.00 20.00     0.009 C 
HETATM    7  O9  UNL     1     -32.359   8.507   2.211  1.00 20.00    -0.296 OA
HETATM    8 CL10 UNL     1     -31.524   6.104   0.752  1.00 20.00    -0.117 Cl
ENDROOT
BRANCH   6   9
HETATM    9  C3  UNL     1     -34.244   4.175   4.712  1.00 20.00    -0.032 C 
HETATM   10  C2  UNL     1     -33.410   3.132   4.783  1.00 20.00     0.007 C 
ENDBRANCH   6   9
TORSDOF 1
ENDMDL
MODEL 2
REMARK VINA RESULT:      -0.8      2.227      4.252
REMARK  1 active torsions:
REMARK  status: ('A' for Active; 'I' for Inactive)
REMARK    1  A    between atoms: C3_3  and  C8_8 
ROOT
HETATM    1  C1  UNL     1     -33.461   6.128   2.887  1.00 20.00     0.145 C 
HETATM    2  C4  UNL     1     -33.634   7.545   3.401  1.00 20.00     0.080 C 
HETATM    3  C5  UNL     1     -32.348   8.334   3.184  1.00 20.00     0.016 C 
HETATM    4  C6  UNL     1     -32.457   7.217   0.881  1.00 20.00     0.036 C 
HETATM    5  C7  UNL     1     -32.507   5.942   1.719  1.00 20.00     0.152 C 
HETATM    6  C8  UNL     1     -31.949   8.422   1.698  1.00 20.00     0.009 C 
HETATM    7  O9  UNL     1     -34.070   5.195   3.409  1.00 20.00    -0.296 OA
HETATM    8 CL10 UNL     1     -33.073   4.583   0.720  1.00 20.00    -0.117 Cl
ENDROOT
BRANCH   6   9
HETATM    9  C3  UNL     1     -32.410   9.705   1.070  1.00 20.00    -0.032 C 
HETATM   10  C2  UNL     1     -32.563   9.882  -0.247  1.00 20.00     0.007 C 
ENDBRANCH   6   9
TORSDOF 1
ENDMDL
MODEL 3
REMARK VINA RESULT:      -0.7      2.528      3.956
REMARK  1 active torsions:
REMARK  status: ('A' for Active; 'I' for Inactive)
REMARK    1  A    between atoms: C3_3  and  C8_8 
ROOT
HETATM    1  C1  UNL     1     -34.913   5.409   4.228  1.00 20.00     0.145 C 
HETATM    2  C4  UNL     1     -35.200   6.799   3.692  1.00 20.00     0.080 C 
HETATM    3  C5  UNL     1     -33.926   7.634   3.711  1.00 20.00     0.016 C 
HETATM    4  C6  UNL     1     -32.915   5.492   2.736  1.00 20.00     0.036 C 
HETATM    5  C7  UNL     1     -33.509   4.871   3.998  1.00 20.00     0.152 C 
HETATM    6  C8  UNL     1     -32.803   7.026   2.848  1.00 20.00     0.009 C 
HETATM    7  O9  UNL     1     -35.785   4.773   4.818  1.00 20.00    -0.296 OA
HETATM    8 CL10 UNL     1     -33.590   3.102   3.822  1.00 20.00    -0.117 Cl
ENDROOT
BRANCH   6   9
HETATM    9  C3  UNL     1     -32.752   7.642   1.481  1.00 20.00    -0.032 C 
HETATM   10  C2  UNL     1     -32.016   8.716   1.170  1.00 20.00     0.007 C 
ENDBRANCH   6   9
TORSDOF 1
ENDMDL
MODEL 4
REMARK VINA RESULT:      -0.4      2.739      4.413
REMARK  1 active torsions:
REMARK  status: ('A' for Active; 'I' for Inactive)
REMARK    1  A    between atoms: C3_3  and  C8_8 
ROOT
HETATM    1  C1  UNL     1     -33.741   4.702   3.475  1.00 20.00     0.145 C 
HETATM    2  C4  UNL     1     -32.469   4.754   2.652  1.00 20.00     0.080 C 
HETATM    3  C5  UNL     1     -32.692   5.603   1.407  1.00 20.00     0.016 C 
HETATM    4  C6  UNL     1     -33.821   7.166   3.094  1.00 20.00     0.036 C 
HETATM    5  C7  UNL     1     -34.649   5.920   3.398  1.00 20.00     0.152 C 
HETATM    6  C8  UNL     1     -33.089   7.055   1.742  1.00 20.00     0.009 C 
HETATM    7  O9  UNL     1     -34.005   3.713   4.159  1.00 20.00    -0.296 OA
HETATM    8 CL10 UNL     1     -35.489   6.115   4.954  1.00 20.00    -0.117 Cl
ENDROOT
BRANCH   6   9
HETATM    9  C3  UNL     1     -31.907   7.978   1.715  1.00 20.00    -0.032 C 
HETATM   10  C2  UNL     1     -31.829   9.074   0.951  1.00 20.00     0.007 C 
ENDBRANCH   6   9
TORSDOF 1
ENDMDL
MODEL 5
REMARK VINA RESULT:       0.5      2.713      4.449
REMARK  1 active torsions:
REMARK  status: ('A' for Active; 'I' for Inactive)
REMARK    1  A    between atoms: C3_3  and  C8_8 
ROOT
HETATM    1  C1  UNL     1     -33.017   7.936   4.301  1.00 20.00     0.145 C 
HETATM    2  C4  UNL     1     -31.997   8.922   3.764  1.00 20.00     0.080 C 
HETATM    3  C5  UNL     1     -31.144   8.253   2.693  1.00 20.00     0.016 C 
HETATM    4  C6  UNL     1     -33.424   7.394   1.901  1.00 20.00     0.036 C 
HETATM    5  C7  UNL     1     -33.505   6.870   3.332  1.00 20.00     0.152 C 
HETATM    6  C8  UNL     1     -31.978   7.748   1.499  1.00 20.00     0.009 C 
HETATM    7  O9  UNL     1     -33.409   8.012   5.465  1.00 20.00    -0.296 OA
HETATM    8 CL10 UNL     1     -35.188   6.454   3.731  1.00 20.00    -0.117 Cl
ENDROOT
BRANCH   6   9
HETATM    9  C3  UNL     1     -31.982   8.731   0.365  1.00 20.00    -0.032 C 
HETATM   10  C2  UNL     1     -32.577   9.928   0.413  1.00 20.00     0.007 C 
ENDBRANCH   6   9
TORSDOF 1
ENDMDL
MODEL 6
REMARK VINA RESULT:       0.9      1.958      2.661
REMARK  1 active torsions:
REMARK  status: ('A' for Active; 'I' for Inactive)
REMARK    1  A    between atoms: C3_3  and  C8_8 
ROOT
HETATM    1  C1  UNL     1     -32.111   7.143   1.322  1.00 20.00     0.145 C 
HETATM    2  C4  UNL     1     -32.764   5.817   1.661  1.00 20.00     0.080 C 
HETATM    3  C5  UNL     1     -32.937   5.696   3.170  1.00 20.00     0.016 C 
HETATM    4  C6  UNL     1     -33.762   8.109   2.923  1.00 20.00     0.036 C 
HETATM    5  C7  UNL     1     -32.397   8.301   2.266  1.00 20.00     0.152 C 
HETATM    6  C8  UNL     1     -33.821   6.815   3.758  1.00 20.00     0.009 C 
HETATM    7  O9  UNL     1     -31.387   7.250   0.332  1.00 20.00    -0.296 OA
HETATM    8 CL10 UNL     1     -32.379   9.820   1.339  1.00 20.00    -0.117 Cl
ENDROOT
BRANCH   6   9
HETATM    9  C3  UNL     1     -35.245   6.371   3.926  1.00 20.00    -0.032 C 
HETATM   10  C2  UNL     1     -35.607   5.210   4.483  1.00 20.00     0.007 C 
ENDBRANCH   6   9
TORSDOF 1
ENDMDL
MODEL 7
REMARK VINA RESULT:       1.5      2.343      3.414
REMARK  1 active torsions:
REMARK  status: ('A' for Active; 'I' for Inactive)
REMARK    1  A    between atoms: C3_3  and  C8_8 
ROOT
HETATM    1  C1  UNL     1     -33.707   7.498   3.335  1.00 20.00     0.145 C 
HETATM    2  C4  UNL     1     -32.887   7.835   2.105  1.00 20.00     0.080 C 
HETATM    3  C5  UNL     1     -31.793   6.793   1.910  1.00 20.00     0.016 C 
HETATM    4  C6  UNL     1     -33.717   5.179   2.416  1.00 20.00     0.036 C 
HETATM    5  C7  UNL     1     -33.831   6.022   3.683  1.00 20.00     0.152 C 
HETATM    6  C8  UNL     1     -32.355   5.370   1.719  1.00 20.00     0.009 C 
HETATM    7  O9  UNL     1     -34.230   8.389   4.003  1.00 20.00    -0.296 OA
HETATM    8 CL10 UNL     1     -35.409   5.742   4.457  1.00 20.00    -0.117 Cl
ENDROOT
BRANCH   6   9
HETATM    9  C3  UNL     1     -32.459   5.001   0.268  1.00 20.00    -0.032 C 
HETATM   10  C2  UNL     1     -33.449   4.264  -0.248  1.00 20.00     0.007 C 
ENDBRANCH   6   9
TORSDOF 1
ENDMDL
