MODEL 1
REMARK VINA RESULT:      -1.7      0.000      0.000
REMARK  1 active torsions:
REMARK  status: ('A' for Active; 'I' for Inactive)
REMARK    1  A    between atoms: C5_5  and  N7_7 
ROOT
HETATM    1  C1  UNL     1     -32.435   7.040   1.624  1.00 20.00     0.332 C 
HETATM    2  N7  UNL     1     -33.046   6.078   1.899  1.00 20.00    -0.241 NA
HETATM    3  O8  UNL     1     -31.823   8.003   1.339  1.00 20.00    -0.260 OA
ENDROOT
BRANCH   2   4
HETATM    4  C5  UNL     1     -33.212   5.866   3.345  1.00 20.00     0.126 C 
HETATM    5  C3  UNL     1     -33.945   7.065   3.948  1.00 20.00     0.029 C 
HETATM    6  C2  UNL     1     -35.412   6.662   3.922  1.00 20.00     0.003 C 
HETATM    7  C4  UNL     1     -35.367   5.190   4.296  1.00 20.00     0.018 C 
HETATM    8  C6  UNL     1     -34.132   4.661   3.573  1.00 20.00     0.083 C 
HETATM    9 BR9  UNL     1     -33.247   3.304   4.652  1.00 20.00    -0.089 Br
ENDBRANCH   2   4
TORSDOF 1
ENDMDL
MODEL 2
REMARK VINA RESULT:      -1.4      2.844      3.455
REMARK  1 active torsions:
REMARK  status: ('A' for Active; 'I' for Inactive)
REMARK    1  A    between atoms: C5_5  and  N7_7 
ROOT
HETATM    1  C1  UNL     1     -33.713   3.593   4.479  1.00 20.00     0.332 C 
HETATM    2  N7  UNL     1     -34.539   4.420   4.570  1.00 20.00    -0.241 NA
HETATM    3  O8  UNL     1     -32.886   2.760   4.397  1.00 20.00    -0.260 OA
ENDROOT
BRANCH   2   4
HETATM    4  C5  UNL     1     -34.594   5.341   3.425  1.00 20.00     0.126 C 
HETATM    5  C3  UNL     1     -35.419   6.571   3.808  1.00 20.00     0.029 C 
HETATM    6  C2  UNL     1     -34.390   7.573   4.310  1.00 20.00     0.003 C 
HETATM    7  C4  UNL     1     -33.226   7.373   3.354  1.00 20.00     0.018 C 
HETATM    8  C6  UNL     1     -33.183   5.864   3.132  1.00 20.00     0.083 C 
HETATM    9 BR9  UNL     1     -32.659   5.465   1.300  1.00 20.00    -0.089 Br
ENDBRANCH   2   4
TORSDOF 1
ENDMDL
MODEL 3
REMARK VINA RESULT:      -1.0      1.212      1.212
REMARK  1 active torsions:
REMARK  status: ('A' for Active; 'I' for Inactive)
REMARK    1  A    between atoms: C5_5  and  N7_7 
ROOT
HETATM    1  C1  UNL     1     -32.374   5.464   1.282  1.00 20.00     0.332 C 
HETATM    2  N7  UNL     1     -33.206   6.104   1.803  1.00 20.00    -0.241 NA
HETATM    3  O8  UNL     1     -31.541   4.826   0.751  1.00 20.00    -0.260 OA
ENDROOT
BRANCH   2   4
HETATM    4  C5  UNL     1     -33.282   5.920   3.259  1.00 20.00     0.126 C 
HETATM    5  C3  UNL     1     -33.983   7.129   3.883  1.00 20.00     0.029 C 
HETATM    6  C2  UNL     1     -35.446   6.720   3.955  1.00 20.00     0.003 C 
HETATM    7  C4  UNL     1     -35.371   5.255   4.355  1.00 20.00     0.018 C 
HETATM    8  C6  UNL     1     -34.179   4.717   3.568  1.00 20.00     0.083 C 
HETATM    9 BR9  UNL     1     -33.223   3.385   4.617  1.00 20.00    -0.089 Br
ENDBRANCH   2   4
TORSDOF 1
ENDMDL
MODEL 4
REMARK VINA RESULT:      -0.6      2.211      2.606
REMARK  1 active torsions:
REMARK  status: ('A' for Active; 'I' for Inactive)
REMARK    1  A    between atoms: C5_5  and  N7_7 
ROOT
HETATM    1  C1  UNL     1     -32.346   9.267   0.680  1.00 20.00     0.332 C 
HETATM    2  N7  UNL     1     -32.732   9.188   1.784  1.00 20.00    -0.241 NA
HETATM    3  O8  UNL     1     -31.962   9.354  -0.429  1.00 20.00    -0.260 OA
ENDROOT
BRANCH   2   4
HETATM    4  C5  UNL     1     -32.363   7.936   2.461  1.00 20.00     0.126 C 
HETATM    5  C3  UNL     1     -32.695   8.054   3.950  1.00 20.00     0.029 C 
HETATM    6  C2  UNL     1     -34.096   7.474   4.071  1.00 20.00     0.003 C 
HETATM    7  C4  UNL     1     -34.059   6.292   3.115  1.00 20.00     0.018 C 
HETATM    8  C6  UNL     1     -33.243   6.800   1.930  1.00 20.00     0.083 C 
HETATM    9 BR9  UNL     1     -32.156   5.363   1.194  1.00 20.00    -0.089 Br
ENDBRANCH   2   4
TORSDOF 1
ENDMDL
MODEL 5
REMARK VINA RESULT:      -0.2      2.104      2.857
REMARK  1 active torsions:
REMARK  status: ('A' for Active; 'I' for Inactive)
REMARK    1  A    between atoms: C5_5  and  N7_7 
ROOT
HETATM    1  C1  UNL     1     -32.198   8.907   1.074  1.00 20.00     0.332 C 
HETATM    2  N7  UNL     1     -32.126   8.049   1.870  1.00 20.00    -0.241 NA
HETATM    3  O8  UNL     1     -32.262   9.771   0.279  1.00 20.00    -0.260 OA
ENDROOT
BRANCH   2   4
HETATM    4  C5  UNL     1     -33.230   7.080   1.809  1.00 20.00     0.126 C 
HETATM    5  C3  UNL     1     -32.882   5.985   0.799  1.00 20.00     0.029 C 
HETATM    6  C2  UNL     1     -32.233   4.893   1.636  1.00 20.00     0.003 C 
HETATM    7  C4  UNL     1     -33.071   4.894   2.905  1.00 20.00     0.018 C 
HETATM    8  C6  UNL     1     -33.352   6.371   3.163  1.00 20.00     0.083 C 
HETATM    9 BR9  UNL     1     -35.134   6.599   3.910  1.00 20.00    -0.089 Br
ENDBRANCH   2   4
TORSDOF 1
ENDMDL
MODEL 6
REMARK VINA RESULT:       0.1      3.032      3.648
REMARK  1 active torsions:
REMARK  status: ('A' for Active; 'I' for Inactive)
REMARK    1  A    between atoms: C5_5  and  N7_7 
ROOT
HETATM    1  C1  UNL     1     -33.832   4.480   3.699  1.00 20.00     0.332 C 
HETATM    2  N7  UNL     1     -33.181   5.065   2.919  1.00 20.00    -0.241 NA
HETATM    3  O8  UNL     1     -34.479   3.886   4.481  1.00 20.00    -0.260 OA
ENDROOT
BRANCH   2   4
HETATM    4  C5  UNL     1     -33.691   6.406   2.597  1.00 20.00     0.126 C 
HETATM    5  C3  UNL     1     -34.786   6.780   3.596  1.00 20.00     0.029 C 
HETATM    6  C2  UNL     1     -34.053   7.540   4.692  1.00 20.00     0.003 C 
HETATM    7  C4  UNL     1     -33.043   8.368   3.914  1.00 20.00     0.018 C 
HETATM    8  C6  UNL     1     -32.572   7.432   2.805  1.00 20.00     0.083 C 
HETATM    9 BR9  UNL     1     -32.235   8.437   1.172  1.00 20.00    -0.089 Br
ENDBRANCH   2   4
TORSDOF 1
ENDMDL
MODEL 7
REMARK VINA RESULT:       0.1      3.001      3.545
REMARK  1 active torsions:
REMARK  status: ('A' for Active; 'I' for Inactive)
REMARK    1  A    between atoms: C5_5  and  N7_7 
ROOT
HETATM    1  C1  UNL     1     -32.437   5.404   1.523  1.00 20.00     0.332 C 
HETATM    2  N7  UNL     1     -33.229   5.709   2.331  1.00 20.00    -0.241 NA
HETATM    3  O8  UNL     1     -31.643   5.090   0.714  1.00 20.00    -0.260 OA
ENDROOT
BRANCH   2   4
HETATM    4  C5  UNL     1     -33.523   7.149   2.371  1.00 20.00     0.126 C 
HETATM    5  C3  UNL     1     -34.128   7.501   3.732  1.00 20.00     0.029 C 
HETATM    6  C2  UNL     1     -32.935   7.922   4.577  1.00 20.00     0.003 C 
HETATM    7  C4  UNL     1     -32.084   8.711   3.595  1.00 20.00     0.018 C 
HETATM    8  C6  UNL     1     -32.208   7.932   2.288  1.00 20.00     0.083 C 
HETATM    9 BR9  UNL     1     -32.219   9.154   0.773  1.00 20.00    -0.089 Br
ENDBRANCH   2   4
TORSDOF 1
ENDMDL
MODEL 8
REMARK VINA RESULT:       0.5      3.056      4.081
REMARK  1 active torsions:
REMARK  status: ('A' for Active; 'I' for Inactive)
REMARK    1  A    between atoms: C5_5  and  N7_7 
ROOT
HETATM    1  C1  UNL     1     -35.261   5.842   4.129  1.00 20.00     0.332 C 
HETATM    2  N7  UNL     1     -34.785   6.747   3.556  1.00 20.00    -0.241 NA
HETATM    3  O8  UNL     1     -35.747   4.937   4.703  1.00 20.00    -0.260 OA
ENDROOT
BRANCH   2   4
HETATM    4  C5  UNL     1     -33.324   6.665   3.412  1.00 20.00     0.126 C 
HETATM    5  C3  UNL     1     -32.960   5.347   2.727  1.00 20.00     0.029 C 
HETATM    6  C2  UNL     1     -32.886   5.698   1.248  1.00 20.00     0.003 C 
HETATM    7  C4  UNL     1     -32.229   7.069   1.257  1.00 20.00     0.018 C 
HETATM    8  C6  UNL     1     -32.850   7.770   2.461  1.00 20.00     0.083 C 
HETATM    9 BR9  UNL     1     -31.536   8.916   3.326  1.00 20.00    -0.089 Br
ENDBRANCH   2   4
TORSDOF 1
ENDMDL
MODEL 9
REMARK VINA RESULT:       0.8      2.709      3.779
REMARK  1 active torsions:
REMARK  status: ('A' for Active; 'I' for Inactive)
REMARK    1  A    between atoms: C5_5  and  N7_7 
ROOT
HETATM    1  C1  UNL     1     -34.747   6.081   4.068  1.00 20.00     0.332 C 
HETATM    2  N7  UNL     1     -34.058   6.992   3.806  1.00 20.00    -0.241 NA
HETATM    3  O8  UNL     1     -35.438   5.169   4.341  1.00 20.00    -0.260 OA
ENDROOT
BRANCH   2   4
HETATM    4  C5  UNL     1     -33.785   7.144   2.369  1.00 20.00     0.126 C 
HETATM    5  C3  UNL     1     -33.061   8.471   2.133  1.00 20.00     0.029 C 
HETATM    6  C2  UNL     1     -31.585   8.106   2.172  1.00 20.00     0.003 C 
HETATM    7  C4  UNL     1     -31.545   6.770   1.448  1.00 20.00     0.018 C 
HETATM    8  C6  UNL     1     -32.805   6.053   1.925  1.00 20.00     0.083 C 
HETATM    9 BR9  UNL     1     -33.559   4.983   0.485  1.00 20.00    -0.089 Br
ENDBRANCH   2   4
TORSDOF 1
ENDMDL
