MODEL 1
REMARK VINA RESULT:       0.5      0.000      0.000
REMARK  1 active torsions:
REMARK  status: ('A' for Active; 'I' for Inactive)
REMARK    1  A    between atoms: C1_1  and  C10_10 
ROOT
HETATM    1  C1  UNL     1     -33.724   5.888   2.918  1.00 20.00     0.025 C 
HETATM    2  C2  UNL     1     -33.547   7.123   3.372  1.00 20.00    -0.038 C 
HETATM    3  C3  UNL     1     -32.897   5.818   1.697  1.00 20.00     0.290 C 
HETATM    4  C4  UNL     1     -33.736   7.759   4.700  1.00 20.00     0.038 C 
HETATM    5  C5  UNL     1     -32.600   8.799   4.709  1.00 20.00     0.007 C 
HETATM    6  C6  UNL     1     -31.700   8.461   3.509  1.00 20.00     0.037 C 
HETATM    7  C7  UNL     1     -32.687   7.927   2.489  1.00 20.00     0.162 C 
HETATM    8  O11 UNL     1     -32.807   4.848   0.963  1.00 20.00    -0.260 OA
HETATM    9  O12 UNL     1     -32.192   6.988   1.552  1.00 20.00    -0.308 OA
ENDROOT
BRANCH   1  10
HETATM   10  C10 UNL     1     -34.387   4.715   3.525  1.00 20.00     0.017 C 
HETATM   11  C8  UNL     1     -33.364   3.788   4.190  1.00 20.00     0.015 C 
HETATM   12  C9  UNL     1     -35.456   5.137   4.541  1.00 20.00     0.015 C 
ENDBRANCH   1  10
TORSDOF 1
ENDMDL
MODEL 2
REMARK VINA RESULT:       1.0      1.248      3.500
REMARK  1 active torsions:
REMARK  status: ('A' for Active; 'I' for Inactive)
REMARK    1  A    between atoms: C1_1  and  C10_10 
ROOT
HETATM    1  C1  UNL     1     -32.437   6.883   2.146  1.00 20.00     0.025 C 
HETATM    2  C2  UNL     1     -33.205   6.841   3.228  1.00 20.00    -0.038 C 
HETATM    3  C3  UNL     1     -32.585   5.548   1.532  1.00 20.00     0.290 C 
HETATM    4  C4  UNL     1     -33.831   7.888   4.075  1.00 20.00     0.038 C 
HETATM    5  C5  UNL     1     -35.146   7.201   4.491  1.00 20.00     0.007 C 
HETATM    6  C6  UNL     1     -35.272   5.946   3.612  1.00 20.00     0.037 C 
HETATM    7  C7  UNL     1     -33.828   5.523   3.422  1.00 20.00     0.162 C 
HETATM    8  O11 UNL     1     -32.012   5.170   0.524  1.00 20.00    -0.260 OA
HETATM    9  O12 UNL     1     -33.519   4.823   2.231  1.00 20.00    -0.308 OA
ENDROOT
BRANCH   1  10
HETATM   10  C10 UNL     1     -31.733   8.008   1.496  1.00 20.00     0.017 C 
HETATM   11  C8  UNL     1     -32.722   8.935   0.781  1.00 20.00     0.015 C 
HETATM   12  C9  UNL     1     -30.896   8.806   2.504  1.00 20.00     0.015 C 
ENDBRANCH   1  10
TORSDOF 1
ENDMDL
MODEL 3
REMARK VINA RESULT:       1.1      2.042      3.345
REMARK  1 active torsions:
REMARK  status: ('A' for Active; 'I' for Inactive)
REMARK    1  A    between atoms: C1_1  and  C10_10 
ROOT
HETATM    1  C1  UNL     1     -32.758   6.348   1.958  1.00 20.00     0.025 C 
HETATM    2  C2  UNL     1     -32.185   7.507   1.655  1.00 20.00    -0.038 C 
HETATM    3  C3  UNL     1     -33.590   6.642   3.143  1.00 20.00     0.290 C 
HETATM    4  C4  UNL     1     -31.563   8.044   0.418  1.00 20.00     0.038 C 
HETATM    5  C5  UNL     1     -31.932   9.536   0.511  1.00 20.00     0.007 C 
HETATM    6  C6  UNL     1     -32.969   9.653   1.640  1.00 20.00     0.037 C 
HETATM    7  C7  UNL     1     -32.533   8.571   2.609  1.00 20.00     0.162 C 
HETATM    8  O11 UNL     1     -34.262   5.826   3.751  1.00 20.00    -0.260 OA
HETATM    9  O12 UNL     1     -33.543   7.989   3.413  1.00 20.00    -0.308 OA
ENDROOT
BRANCH   1  10
HETATM   10  C10 UNL     1     -32.801   5.064   1.228  1.00 20.00     0.017 C 
HETATM   11  C8  UNL     1     -33.776   5.135   0.047  1.00 20.00     0.015 C 
HETATM   12  C9  UNL     1     -31.408   4.649   0.738  1.00 20.00     0.015 C 
ENDBRANCH   1  10
TORSDOF 1
ENDMDL
MODEL 4
REMARK VINA RESULT:       1.4      1.879      3.165
REMARK  1 active torsions:
REMARK  status: ('A' for Active; 'I' for Inactive)
REMARK    1  A    between atoms: C1_1  and  C10_10 
ROOT
HETATM    1  C1  UNL     1     -33.799   6.920   3.838  1.00 20.00     0.025 C 
HETATM    2  C2  UNL     1     -32.961   6.745   2.824  1.00 20.00    -0.038 C 
HETATM    3  C3  UNL     1     -33.320   8.145   4.511  1.00 20.00     0.290 C 
HETATM    4  C4  UNL     1     -33.047   5.990   1.549  1.00 20.00     0.038 C 
HETATM    5  C5  UNL     1     -32.228   6.888   0.603  1.00 20.00     0.007 C 
HETATM    6  C6  UNL     1     -31.996   8.208   1.357  1.00 20.00     0.037 C 
HETATM    7  C7  UNL     1     -31.891   7.755   2.801  1.00 20.00     0.162 C 
HETATM    8  O11 UNL     1     -33.809   8.632   5.516  1.00 20.00    -0.260 OA
HETATM    9  O12 UNL     1     -32.282   8.687   3.792  1.00 20.00    -0.308 OA
ENDROOT
BRANCH   1  10
HETATM   10  C10 UNL     1     -35.069   6.244   4.178  1.00 20.00     0.017 C 
HETATM   11  C8  UNL     1     -36.150   6.548   3.135  1.00 20.00     0.015 C 
HETATM   12  C9  UNL     1     -34.879   4.728   4.316  1.00 20.00     0.015 C 
ENDBRANCH   1  10
TORSDOF 1
ENDMDL
MODEL 5
REMARK VINA RESULT:       1.5      1.453      2.560
REMARK  1 active torsions:
REMARK  status: ('A' for Active; 'I' for Inactive)
REMARK    1  A    between atoms: C1_1  and  C10_10 
ROOT
HETATM    1  C1  UNL     1     -33.752   6.765   2.807  1.00 20.00     0.025 C 
HETATM    2  C2  UNL     1     -33.138   7.444   1.846  1.00 20.00    -0.038 C 
HETATM    3  C3  UNL     1     -33.190   5.402   2.718  1.00 20.00     0.290 C 
HETATM    4  C4  UNL     1     -32.911   8.892   1.605  1.00 20.00     0.038 C 
HETATM    5  C5  UNL     1     -31.526   8.878   0.932  1.00 20.00     0.007 C 
HETATM    6  C6  UNL     1     -30.973   7.455   1.113  1.00 20.00     0.037 C 
HETATM    7  C7  UNL     1     -32.225   6.600   1.059  1.00 20.00     0.162 C 
HETATM    8  O11 UNL     1     -33.518   4.459   3.418  1.00 20.00    -0.260 OA
HETATM    9  O12 UNL     1     -32.194   5.378   1.772  1.00 20.00    -0.308 OA
ENDROOT
BRANCH   1  10
HETATM   10  C10 UNL     1     -34.636   7.215   3.903  1.00 20.00     0.017 C 
HETATM   11  C8  UNL     1     -35.484   6.054   4.436  1.00 20.00     0.015 C 
HETATM   12  C9  UNL     1     -33.837   7.853   5.045  1.00 20.00     0.015 C 
ENDBRANCH   1  10
TORSDOF 1
ENDMDL
MODEL 6
REMARK VINA RESULT:       1.5      1.747      2.884
REMARK  1 active torsions:
REMARK  status: ('A' for Active; 'I' for Inactive)
REMARK    1  A    between atoms: C1_1  and  C10_10 
ROOT
HETATM    1  C1  UNL     1     -32.694   6.590   1.644  1.00 20.00     0.025 C 
HETATM    2  C2  UNL     1     -33.696   6.688   2.508  1.00 20.00    -0.038 C 
HETATM    3  C3  UNL     1     -32.014   7.899   1.710  1.00 20.00     0.290 C 
HETATM    4  C4  UNL     1     -34.523   5.687   3.229  1.00 20.00     0.038 C 
HETATM    5  C5  UNL     1     -34.786   6.410   4.564  1.00 20.00     0.007 C 
HETATM    6  C6  UNL     1     -33.849   7.629   4.585  1.00 20.00     0.037 C 
HETATM    7  C7  UNL     1     -33.778   8.022   3.122  1.00 20.00     0.162 C 
HETATM    8  O11 UNL     1     -31.050   8.226   1.039  1.00 20.00    -0.260 OA
HETATM    9  O12 UNL     1     -32.593   8.667   2.691  1.00 20.00    -0.308 OA
ENDROOT
BRANCH   1  10
HETATM   10  C10 UNL     1     -32.159   5.427   0.903  1.00 20.00     0.017 C 
HETATM   11  C8  UNL     1     -31.325   4.527   1.822  1.00 20.00     0.015 C 
HETATM   12  C9  UNL     1     -33.281   4.615   0.245  1.00 20.00     0.015 C 
ENDBRANCH   1  10
TORSDOF 1
ENDMDL
MODEL 7
REMARK VINA RESULT:       1.6      2.013      4.189
REMARK  1 active torsions:
REMARK  status: ('A' for Active; 'I' for Inactive)
REMARK    1  A    between atoms: C1_1  and  C10_10 
ROOT
HETATM    1  C1  UNL     1     -33.786   6.068   2.818  1.00 20.00     0.025 C 
HETATM    2  C2  UNL     1     -33.892   4.827   3.277  1.00 20.00    -0.038 C 
HETATM    3  C3  UNL     1     -34.661   6.868   3.699  1.00 20.00     0.290 C 
HETATM    4  C4  UNL     1     -33.042   3.616   3.150  1.00 20.00     0.038 C 
HETATM    5  C5  UNL     1     -33.262   2.941   4.517  1.00 20.00     0.007 C 
HETATM    6  C6  UNL     1     -33.986   3.974   5.395  1.00 20.00     0.037 C 
HETATM    7  C7  UNL     1     -34.845   4.722   4.393  1.00 20.00     0.162 C 
HETATM    8  O11 UNL     1     -34.864   8.065   3.590  1.00 20.00    -0.260 OA
HETATM    9  O12 UNL     1     -35.158   6.069   4.700  1.00 20.00    -0.308 OA
ENDROOT
BRANCH   1  10
HETATM   10  C10 UNL     1     -32.875   6.659   1.816  1.00 20.00     0.017 C 
HETATM   11  C8  UNL     1     -32.055   7.802   2.425  1.00 20.00     0.015 C 
HETATM   12  C9  UNL     1     -31.941   5.603   1.212  1.00 20.00     0.015 C 
ENDBRANCH   1  10
TORSDOF 1
ENDMDL
MODEL 8
REMARK VINA RESULT:       1.8      2.020      4.114
REMARK  1 active torsions:
REMARK  status: ('A' for Active; 'I' for Inactive)
REMARK    1  A    between atoms: C1_1  and  C10_10 
ROOT
HETATM    1  C1  UNL     1     -33.388   6.386   2.895  1.00 20.00     0.025 C 
HETATM    2  C2  UNL     1     -33.755   5.154   3.224  1.00 20.00    -0.038 C 
HETATM    3  C3  UNL     1     -34.280   7.263   3.680  1.00 20.00     0.290 C 
HETATM    4  C4  UNL     1     -33.082   3.832   3.139  1.00 20.00     0.038 C 
HETATM    5  C5  UNL     1     -33.640   3.123   4.388  1.00 20.00     0.007 C 
HETATM    6  C6  UNL     1     -34.351   4.206   5.216  1.00 20.00     0.037 C 
HETATM    7  C7  UNL     1     -34.897   5.137   4.150  1.00 20.00     0.162 C 
HETATM    8  O11 UNL     1     -34.283   8.481   3.640  1.00 20.00    -0.260 OA
HETATM    9  O12 UNL     1     -35.060   6.496   4.512  1.00 20.00    -0.308 OA
ENDROOT
BRANCH   1  10
HETATM   10  C10 UNL     1     -32.235   6.882   2.114  1.00 20.00     0.017 C 
HETATM   11  C8  UNL     1     -31.885   5.915   0.977  1.00 20.00     0.015 C 
HETATM   12  C9  UNL     1     -32.497   8.285   1.552  1.00 20.00     0.015 C 
ENDBRANCH   1  10
TORSDOF 1
ENDMDL
MODEL 9
REMARK VINA RESULT:       2.1      2.160      3.273
REMARK  1 active torsions:
REMARK  status: ('A' for Active; 'I' for Inactive)
REMARK    1  A    between atoms: C1_1  and  C10_10 
ROOT
HETATM    1  C1  UNL     1     -32.378   6.685   1.556  1.00 20.00     0.025 C 
HETATM    2  C2  UNL     1     -32.017   7.944   1.342  1.00 20.00    -0.038 C 
HETATM    3  C3  UNL     1     -33.221   6.739   2.768  1.00 20.00     0.290 C 
HETATM    4  C4  UNL     1     -31.523   8.673   0.147  1.00 20.00     0.038 C 
HETATM    5  C5  UNL     1     -32.138  10.069   0.362  1.00 20.00     0.007 C 
HETATM    6  C6  UNL     1     -33.155   9.919   1.505  1.00 20.00     0.037 C 
HETATM    7  C7  UNL     1     -32.520   8.856   2.381  1.00 20.00     0.162 C 
HETATM    8  O11 UNL     1     -33.731   5.776   3.314  1.00 20.00    -0.260 OA
HETATM    9  O12 UNL     1     -33.397   8.049   3.144  1.00 20.00    -0.308 OA
ENDROOT
BRANCH   1  10
HETATM   10  C10 UNL     1     -32.219   5.472   0.726  1.00 20.00     0.017 C 
HETATM   11  C8  UNL     1     -31.328   4.440   1.426  1.00 20.00     0.015 C 
HETATM   12  C9  UNL     1     -33.575   4.848   0.375  1.00 20.00     0.015 C 
ENDBRANCH   1  10
TORSDOF 1
ENDMDL
