MODEL 1
REMARK VINA RESULT:      -1.9      0.000      0.000
REMARK  0 active torsions:
REMARK  status: ('A' for Active; 'I' for Inactive)
ROOT
HETATM    1  C1  UNL     1     -33.346   7.758   3.104  1.00 20.00     0.098 A 
HETATM    2  C2  UNL     1     -33.978   6.535   3.182  1.00 20.00     0.136 A 
HETATM    3  C3  UNL     1     -32.434   6.014   1.714  1.00 20.00     0.253 A 
HETATM    4  N4  UNL     1     -33.457   5.535   2.385  1.00 20.00    -0.201 NA
HETATM    5  F5  UNL     1     -31.734   5.258   0.858  1.00 20.00    -0.176 F 
HETATM    6  S6  UNL     1     -32.043   7.662   1.993  1.00 20.00    -0.048 SA
HETATM    7 CL7  UNL     1     -35.330   6.221   4.188  1.00 20.00    -0.062 Cl
ENDROOT
TORSDOF 0
ENDMDL
MODEL 2
REMARK VINA RESULT:      -1.4      2.935      3.155
REMARK  0 active torsions:
REMARK  status: ('A' for Active; 'I' for Inactive)
ROOT
HETATM    1  C1  UNL     1     -32.779   7.528   2.794  1.00 20.00     0.098 A 
HETATM    2  C2  UNL     1     -32.979   6.252   2.311  1.00 20.00     0.136 A 
HETATM    3  C3  UNL     1     -34.598   6.301   3.790  1.00 20.00     0.253 A 
HETATM    4  N4  UNL     1     -34.020   5.547   2.882  1.00 20.00    -0.201 NA
HETATM    5  F5  UNL     1     -35.645   5.868   4.506  1.00 20.00    -0.176 F 
HETATM    6  S6  UNL     1     -33.938   7.871   4.010  1.00 20.00    -0.048 SA
HETATM    7 CL7  UNL     1     -32.023   5.534   1.082  1.00 20.00    -0.062 Cl
ENDROOT
TORSDOF 0
ENDMDL
MODEL 3
REMARK VINA RESULT:      -1.3      1.819      1.975
REMARK  0 active torsions:
REMARK  status: ('A' for Active; 'I' for Inactive)
ROOT
HETATM    1  C1  UNL     1     -33.465   5.427   2.373  1.00 20.00     0.098 A 
HETATM    2  C2  UNL     1     -33.846   6.554   3.070  1.00 20.00     0.136 A 
HETATM    3  C3  UNL     1     -32.247   7.442   1.859  1.00 20.00     0.253 A 
HETATM    4  N4  UNL     1     -33.148   7.710   2.777  1.00 20.00    -0.201 NA
HETATM    5  F5  UNL     1     -31.422   8.384   1.381  1.00 20.00    -0.176 F 
HETATM    6  S6  UNL     1     -32.184   5.819   1.302  1.00 20.00    -0.048 SA
HETATM    7 CL7  UNL     1     -35.099   6.577   4.240  1.00 20.00    -0.062 Cl
ENDROOT
TORSDOF 0
ENDMDL
MODEL 4
REMARK VINA RESULT:      -1.2      3.333      3.610
REMARK  0 active torsions:
REMARK  status: ('A' for Active; 'I' for Inactive)
ROOT
HETATM    1  C1  UNL     1     -32.824   6.132   1.795  1.00 20.00     0.098 A 
HETATM    2  C2  UNL     1     -32.502   7.467   1.927  1.00 20.00     0.136 A 
HETATM    3  C3  UNL     1     -33.797   7.266   3.685  1.00 20.00     0.253 A 
HETATM    4  N4  UNL     1     -33.060   8.118   3.009  1.00 20.00    -0.201 NA
HETATM    5  F5  UNL     1     -34.461   7.628   4.792  1.00 20.00    -0.176 F 
HETATM    6  S6  UNL     1     -33.864   5.663   3.075  1.00 20.00    -0.048 SA
HETATM    7 CL7  UNL     1     -31.479   8.315   0.843  1.00 20.00    -0.062 Cl
ENDROOT
TORSDOF 0
ENDMDL
MODEL 5
REMARK VINA RESULT:      -1.1      2.850      2.960
REMARK  0 active torsions:
REMARK  status: ('A' for Active; 'I' for Inactive)
ROOT
HETATM    1  C1  UNL     1     -34.195   7.426   3.433  1.00 20.00     0.098 A 
HETATM    2  C2  UNL     1     -33.181   6.861   2.689  1.00 20.00     0.136 A 
HETATM    3  C3  UNL     1     -34.012   5.027   3.558  1.00 20.00     0.253 A 
HETATM    4  N4  UNL     1     -33.074   5.486   2.761  1.00 20.00    -0.201 NA
HETATM    5  F5  UNL     1     -34.145   3.718   3.813  1.00 20.00    -0.176 F 
HETATM    6  S6  UNL     1     -35.059   6.194   4.257  1.00 20.00    -0.048 SA
HETATM    7 CL7  UNL     1     -32.090   7.761   1.720  1.00 20.00    -0.062 Cl
ENDROOT
TORSDOF 0
ENDMDL
MODEL 6
REMARK VINA RESULT:      -0.8      2.678      2.942
REMARK  0 active torsions:
REMARK  status: ('A' for Active; 'I' for Inactive)
ROOT
HETATM    1  C1  UNL     1     -35.055   4.938   4.546  1.00 20.00     0.098 A 
HETATM    2  C2  UNL     1     -33.922   4.294   4.096  1.00 20.00     0.136 A 
HETATM    3  C3  UNL     1     -33.671   6.189   3.021  1.00 20.00     0.253 A 
HETATM    4  N4  UNL     1     -33.128   5.009   3.221  1.00 20.00    -0.201 NA
HETATM    5  F5  UNL     1     -33.110   7.097   2.211  1.00 20.00    -0.176 F 
HETATM    6  S6  UNL     1     -35.138   6.506   3.855  1.00 20.00    -0.048 SA
HETATM    7 CL7  UNL     1     -33.479   2.704   4.559  1.00 20.00    -0.062 Cl
ENDROOT
TORSDOF 0
ENDMDL
MODEL 7
REMARK VINA RESULT:      -0.4      2.569      2.876
REMARK  0 active torsions:
REMARK  status: ('A' for Active; 'I' for Inactive)
ROOT
HETATM    1  C1  UNL     1     -32.906   5.486   2.370  1.00 20.00     0.098 A 
HETATM    2  C2  UNL     1     -33.665   5.123   3.462  1.00 20.00     0.136 A 
HETATM    3  C3  UNL     1     -34.061   7.280   3.488  1.00 20.00     0.253 A 
HETATM    4  N4  UNL     1     -34.327   6.151   4.105  1.00 20.00    -0.201 NA
HETATM    5  F5  UNL     1     -34.573   8.449   3.899  1.00 20.00    -0.176 F 
HETATM    6  S6  UNL     1     -33.020   7.180   2.126  1.00 20.00    -0.048 SA
HETATM    7 CL7  UNL     1     -33.813   3.513   4.032  1.00 20.00    -0.062 Cl
ENDROOT
TORSDOF 0
ENDMDL
MODEL 8
REMARK VINA RESULT:      -0.3      2.767      3.011
REMARK  0 active torsions:
REMARK  status: ('A' for Active; 'I' for Inactive)
ROOT
HETATM    1  C1  UNL     1     -33.713   5.887   2.672  1.00 20.00     0.098 A 
HETATM    2  C2  UNL     1     -32.796   5.910   1.644  1.00 20.00     0.136 A 
HETATM    3  C3  UNL     1     -32.361   7.874   2.516  1.00 20.00     0.253 A 
HETATM    4  N4  UNL     1     -32.020   7.049   1.552  1.00 20.00    -0.201 NA
HETATM    5  F5  UNL     1     -31.767   9.066   2.669  1.00 20.00    -0.176 F 
HETATM    6  S6  UNL     1     -33.609   7.345   3.569  1.00 20.00    -0.048 SA
HETATM    7 CL7  UNL     1     -32.588   4.632   0.519  1.00 20.00    -0.062 Cl
ENDROOT
TORSDOF 0
ENDMDL
MODEL 9
REMARK VINA RESULT:       0.0      2.608      2.709
REMARK  0 active torsions:
REMARK  status: ('A' for Active; 'I' for Inactive)
ROOT
HETATM    1  C1  UNL     1     -33.273   8.019   2.889  1.00 20.00     0.098 A 
HETATM    2  C2  UNL     1     -32.527   8.064   1.731  1.00 20.00     0.136 A 
HETATM    3  C3  UNL     1     -32.772   5.890   1.879  1.00 20.00     0.253 A 
HETATM    4  N4  UNL     1     -32.237   6.844   1.152  1.00 20.00    -0.201 NA
HETATM    5  F5  UNL     1     -32.649   4.596   1.550  1.00 20.00    -0.176 F 
HETATM    6  S6  UNL     1     -33.636   6.388   3.277  1.00 20.00    -0.048 SA
HETATM    7 CL7  UNL     1     -31.965   9.515   1.012  1.00 20.00    -0.062 Cl
ENDROOT
TORSDOF 0
ENDMDL
