MODEL 1
REMARK VINA RESULT:       1.0      0.000      0.000
REMARK  1 active torsions:
REMARK  status: ('A' for Active; 'I' for Inactive)
REMARK    1  A    between atoms: C7_7  and  C11_11 
ROOT
HETATM    1  C1  UNL     1     -32.291   8.249   2.878  1.00 20.00    -0.023 C 
HETATM    2  C2  UNL     1     -33.030   7.317   3.500  1.00 20.00     0.007 C 
HETATM    3  C3  UNL     1     -33.751   6.408   1.282  1.00 20.00     0.050 C 
HETATM    4  C4  UNL     1     -31.595   5.540   1.479  1.00 20.00     0.174 C 
HETATM    5  C5  UNL     1     -31.869   8.085   1.432  1.00 20.00     0.010 C 
HETATM    6  C6  UNL     1     -32.332   6.722   0.833  1.00 20.00     0.020 C 
HETATM    7  C7  UNL     1     -33.469   6.079   2.749  1.00 20.00     0.082 C 
HETATM    8  C8  UNL     1     -32.403   9.257   0.604  1.00 20.00     0.015 C 
HETATM    9  O12 UNL     1     -32.315   5.210   2.688  1.00 20.00    -0.375 OA
ENDROOT
BRANCH   7  10
HETATM   10  C11 UNL     1     -34.625   5.362   3.427  1.00 20.00     0.016 C 
HETATM   11  C9  UNL     1     -34.121   4.179   4.254  1.00 20.00     0.013 C 
HETATM   12  C10 UNL     1     -35.422   6.325   4.308  1.00 20.00     0.013 C 
ENDBRANCH   7  10
TORSDOF 1
ENDMDL
MODEL 2
REMARK VINA RESULT:       1.2      1.433      4.324
REMARK  1 active torsions:
REMARK  status: ('A' for Active; 'I' for Inactive)
REMARK    1  A    between atoms: C7_7  and  C11_11 
ROOT
HETATM    1  C1  UNL     1     -33.384   5.797   2.540  1.00 20.00    -0.023 C 
HETATM    2  C2  UNL     1     -32.793   6.593   1.635  1.00 20.00     0.007 C 
HETATM    3  C3  UNL     1     -33.989   8.571   2.594  1.00 20.00     0.050 C 
HETATM    4  C4  UNL     1     -32.283   8.242   4.149  1.00 20.00     0.174 C 
HETATM    5  C5  UNL     1     -33.985   6.360   3.812  1.00 20.00     0.010 C 
HETATM    6  C6  UNL     1     -33.764   7.898   3.939  1.00 20.00     0.020 C 
HETATM    7  C7  UNL     1     -32.732   8.086   1.870  1.00 20.00     0.082 C 
HETATM    8  C8  UNL     1     -35.474   6.013   3.875  1.00 20.00     0.015 C 
HETATM    9  O12 UNL     1     -31.678   8.302   2.837  1.00 20.00    -0.375 OA
ENDROOT
BRANCH   7  10
HETATM   10  C11 UNL     1     -32.441   8.868   0.601  1.00 20.00     0.016 C 
HETATM   11  C9  UNL     1     -32.742  10.354   0.796  1.00 20.00     0.013 C 
HETATM   12  C10 UNL     1     -30.990   8.673   0.161  1.00 20.00     0.013 C 
ENDBRANCH   7  10
TORSDOF 1
ENDMDL
MODEL 3
REMARK VINA RESULT:       1.6      1.530      4.190
REMARK  1 active torsions:
REMARK  status: ('A' for Active; 'I' for Inactive)
REMARK    1  A    between atoms: C7_7  and  C11_11 
ROOT
HETATM    1  C1  UNL     1     -33.313   5.968   2.576  1.00 20.00    -0.023 C 
HETATM    2  C2  UNL     1     -32.519   6.795   1.877  1.00 20.00     0.007 C 
HETATM    3  C3  UNL     1     -33.825   8.758   2.715  1.00 20.00     0.050 C 
HETATM    4  C4  UNL     1     -32.496   8.242   4.561  1.00 20.00     0.174 C 
HETATM    5  C5  UNL     1     -34.150   6.471   3.735  1.00 20.00     0.010 C 
HETATM    6  C6  UNL     1     -33.911   7.984   4.022  1.00 20.00     0.020 C 
HETATM    7  C7  UNL     1     -32.460   8.263   2.234  1.00 20.00     0.082 C 
HETATM    8  C8  UNL     1     -35.630   6.193   3.460  1.00 20.00     0.015 C 
HETATM    9  O12 UNL     1     -31.627   8.362   3.412  1.00 20.00    -0.375 OA
ENDROOT
BRANCH   7  10
HETATM   10  C11 UNL     1     -31.883   9.115   1.116  1.00 20.00     0.016 C 
HETATM   11  C9  UNL     1     -31.426   8.241  -0.053  1.00 20.00     0.013 C 
HETATM   12  C10 UNL     1     -32.902  10.150   0.639  1.00 20.00     0.013 C 
ENDBRANCH   7  10
TORSDOF 1
ENDMDL
MODEL 4
REMARK VINA RESULT:       2.1      1.210      3.879
REMARK  1 active torsions:
REMARK  status: ('A' for Active; 'I' for Inactive)
REMARK    1  A    between atoms: C7_7  and  C11_11 
ROOT
HETATM    1  C1  UNL     1     -34.311   6.199   3.597  1.00 20.00    -0.023 C 
HETATM    2  C2  UNL     1     -33.659   7.236   3.048  1.00 20.00     0.007 C 
HETATM    3  C3  UNL     1     -31.934   5.670   2.135  1.00 20.00     0.050 C 
HETATM    4  C4  UNL     1     -33.702   5.357   0.647  1.00 20.00     0.174 C 
HETATM    5  C5  UNL     1     -34.085   4.781   3.112  1.00 20.00     0.010 C 
HETATM    6  C6  UNL     1     -33.099   4.719   1.906  1.00 20.00     0.020 C 
HETATM    7  C7  UNL     1     -32.667   6.998   1.932  1.00 20.00     0.082 C 
HETATM    8  C8  UNL     1     -33.588   3.913   4.271  1.00 20.00     0.015 C 
HETATM    9  O12 UNL     1     -33.447   6.777   0.734  1.00 20.00    -0.375 OA
ENDROOT
BRANCH   7  10
HETATM   10  C11 UNL     1     -31.722   8.170   1.728  1.00 20.00     0.016 C 
HETATM   11  C9  UNL     1     -32.315   9.184   0.749  1.00 20.00     0.013 C 
HETATM   12  C10 UNL     1     -31.397   8.846   3.061  1.00 20.00     0.013 C 
ENDBRANCH   7  10
TORSDOF 1
ENDMDL
MODEL 5
REMARK VINA RESULT:       3.1      1.302      3.857
REMARK  1 active torsions:
REMARK  status: ('A' for Active; 'I' for Inactive)
REMARK    1  A    between atoms: C7_7  and  C11_11 
ROOT
HETATM    1  C1  UNL     1     -34.510   5.959   3.690  1.00 20.00    -0.023 C 
HETATM    2  C2  UNL     1     -34.049   7.129   3.219  1.00 20.00     0.007 C 
HETATM    3  C3  UNL     1     -32.018   5.970   2.328  1.00 20.00     0.050 C 
HETATM    4  C4  UNL     1     -33.629   5.402   0.741  1.00 20.00     0.174 C 
HETATM    5  C5  UNL     1     -33.995   4.637   3.157  1.00 20.00     0.010 C 
HETATM    6  C6  UNL     1     -32.967   4.827   2.001  1.00 20.00     0.020 C 
HETATM    7  C7  UNL     1     -32.984   7.142   2.145  1.00 20.00     0.082 C 
HETATM    8  C8  UNL     1     -33.389   3.821   4.301  1.00 20.00     0.015 C 
HETATM    9  O12 UNL     1     -33.656   6.838   0.902  1.00 20.00    -0.375 OA
ENDROOT
BRANCH   7  10
HETATM   10  C11 UNL     1     -32.275   8.481   2.040  1.00 20.00     0.016 C 
HETATM   11  C9  UNL     1     -30.869   8.401   2.635  1.00 20.00     0.013 C 
HETATM   12  C10 UNL     1     -32.210   8.950   0.585  1.00 20.00     0.013 C 
ENDBRANCH   7  10
TORSDOF 1
ENDMDL
MODEL 6
REMARK VINA RESULT:       3.2      1.475      2.491
REMARK  1 active torsions:
REMARK  status: ('A' for Active; 'I' for Inactive)
REMARK    1  A    between atoms: C7_7  and  C11_11 
ROOT
HETATM    1  C1  UNL     1     -32.749   6.646   1.471  1.00 20.00    -0.023 C 
HETATM    2  C2  UNL     1     -33.441   5.624   1.999  1.00 20.00     0.007 C 
HETATM    3  C3  UNL     1     -33.193   6.632   4.276  1.00 20.00     0.050 C 
HETATM    4  C4  UNL     1     -34.883   7.946   3.351  1.00 20.00     0.174 C 
HETATM    5  C5  UNL     1     -32.589   7.957   2.214  1.00 20.00     0.010 C 
HETATM    6  C6  UNL     1     -33.363   7.967   3.567  1.00 20.00     0.020 C 
HETATM    7  C7  UNL     1     -34.069   5.766   3.367  1.00 20.00     0.082 C 
HETATM    8  C8  UNL     1     -31.102   8.248   2.432  1.00 20.00     0.015 C 
HETATM    9  O12 UNL     1     -35.263   6.562   3.187  1.00 20.00    -0.375 OA
ENDROOT
BRANCH   7  10
HETATM   10  C11 UNL     1     -34.425   4.427   3.990  1.00 20.00     0.016 C 
HETATM   11  C9  UNL     1     -33.167   3.693   4.458  1.00 20.00     0.013 C 
HETATM   12  C10 UNL     1     -35.397   4.610   5.156  1.00 20.00     0.013 C 
ENDBRANCH   7  10
TORSDOF 1
ENDMDL
MODEL 7
REMARK VINA RESULT:       3.8      1.383      2.197
REMARK  1 active torsions:
REMARK  status: ('A' for Active; 'I' for Inactive)
REMARK    1  A    between atoms: C7_7  and  C11_11 
ROOT
HETATM    1  C1  UNL     1     -33.573   9.729   1.710  1.00 20.00    -0.023 C 
HETATM    2  C2  UNL     1     -33.966   8.846   2.642  1.00 20.00     0.007 C 
HETATM    3  C3  UNL     1     -32.484   7.107   1.621  1.00 20.00     0.050 C 
HETATM    4  C4  UNL     1     -30.951   8.414   2.797  1.00 20.00     0.174 C 
HETATM    5  C5  UNL     1     -32.294   9.526   0.922  1.00 20.00     0.010 C 
HETATM    6  C6  UNL     1     -31.515   8.255   1.378  1.00 20.00     0.020 C 
HETATM    7  C7  UNL     1     -33.133   7.612   2.911  1.00 20.00     0.082 C 
HETATM    8  C8  UNL     1     -32.615   9.464  -0.573  1.00 20.00     0.015 C 
HETATM    9  O12 UNL     1     -32.009   8.047   3.711  1.00 20.00    -0.375 OA
ENDROOT
BRANCH   7  10
HETATM   10  C11 UNL     1     -33.908   6.532   3.646  1.00 20.00     0.016 C 
HETATM   11  C9  UNL     1     -35.406   6.837   3.641  1.00 20.00     0.013 C 
HETATM   12  C10 UNL     1     -33.645   5.158   3.028  1.00 20.00     0.013 C 
ENDBRANCH   7  10
TORSDOF 1
ENDMDL
MODEL 8
REMARK VINA RESULT:       4.0      1.547      2.836
REMARK  1 active torsions:
REMARK  status: ('A' for Active; 'I' for Inactive)
REMARK    1  A    between atoms: C7_7  and  C11_11 
ROOT
HETATM    1  C1  UNL     1     -33.317   5.509   1.088  1.00 20.00    -0.023 C 
HETATM    2  C2  UNL     1     -34.073   6.182   1.969  1.00 20.00     0.007 C 
HETATM    3  C3  UNL     1     -32.006   7.070   3.065  1.00 20.00     0.050 C 
HETATM    4  C4  UNL     1     -32.154   8.411   1.163  1.00 20.00     0.174 C 
HETATM    5  C5  UNL     1     -31.871   5.887   0.838  1.00 20.00     0.010 C 
HETATM    6  C6  UNL     1     -31.440   7.144   1.655  1.00 20.00     0.020 C 
HETATM    7  C7  UNL     1     -33.478   7.336   2.746  1.00 20.00     0.082 C 
HETATM    8  C8  UNL     1     -30.965   4.694   1.152  1.00 20.00     0.015 C 
HETATM    9  O12 UNL     1     -33.432   8.459   1.836  1.00 20.00    -0.375 OA
ENDROOT
BRANCH   7  10
HETATM   10  C11 UNL     1     -34.294   7.696   3.976  1.00 20.00     0.016 C 
HETATM   11  C9  UNL     1     -35.197   6.533   4.389  1.00 20.00     0.013 C 
HETATM   12  C10 UNL     1     -33.382   8.097   5.136  1.00 20.00     0.013 C 
ENDBRANCH   7  10
TORSDOF 1
ENDMDL
