MODEL 1
REMARK VINA RESULT:       2.0      0.000      0.000
REMARK  0 active torsions:
REMARK  status: ('A' for Active; 'I' for Inactive)
ROOT
HETATM    1  C1  UNL     1     -32.022   6.942   1.129  1.00 20.00     0.024 A 
HETATM    2  C2  UNL     1     -32.847   6.456   2.188  1.00 20.00    -0.016 A 
HETATM    3  C3  UNL     1     -33.446   7.496   2.870  1.00 20.00    -0.007 A 
HETATM    4  C4  UNL     1     -32.025   8.320   1.059  1.00 20.00    -0.020 A 
HETATM    5  C5  UNL     1     -33.101   5.024   2.547  1.00 20.00     0.311 C 
HETATM    6  C6  UNL     1     -34.346   7.305   4.046  1.00 20.00     0.077 C 
HETATM    7  C7  UNL     1     -34.763   5.825   4.153  1.00 20.00     0.277 C 
HETATM    8  C8  UNL     1     -31.304   9.194   0.109  1.00 20.00     0.056 C 
HETATM    9  C9  UNL     1     -33.969   3.544   4.242  1.00 20.00     0.310 C 
HETATM   10  N10 UNL     1     -33.609   4.929   3.934  1.00 20.00     0.088 N 
HETATM   11  S11 UNL     1     -33.022   9.024   2.262  1.00 20.00    -0.099 SA
ENDROOT
TORSDOF 0
ENDMDL
MODEL 2
REMARK VINA RESULT:       3.0      1.252      2.102
REMARK  0 active torsions:
REMARK  status: ('A' for Active; 'I' for Inactive)
ROOT
HETATM    1  C1  UNL     1     -33.295   9.024   2.169  1.00 20.00     0.024 A 
HETATM    2  C2  UNL     1     -33.411   7.654   2.552  1.00 20.00    -0.016 A 
HETATM    3  C3  UNL     1     -32.635   6.844   1.746  1.00 20.00    -0.007 A 
HETATM    4  C4  UNL     1     -32.449   9.193   1.093  1.00 20.00    -0.020 A 
HETATM    5  C5  UNL     1     -34.219   7.101   3.686  1.00 20.00     0.311 C 
HETATM    6  C6  UNL     1     -32.569   5.360   1.884  1.00 20.00     0.077 C 
HETATM    7  C7  UNL     1     -33.194   4.928   3.226  1.00 20.00     0.277 C 
HETATM    8  C8  UNL     1     -32.072  10.448   0.407  1.00 20.00     0.056 C 
HETATM    9  C9  UNL     1     -35.140   5.091   4.649  1.00 20.00     0.310 C 
HETATM   10  N10 UNL     1     -34.454   5.653   3.485  1.00 20.00     0.088 N 
HETATM   11  S11 UNL     1     -31.794   7.705   0.549  1.00 20.00    -0.099 SA
ENDROOT
TORSDOF 0
ENDMDL
MODEL 3
REMARK VINA RESULT:       3.2      2.128      4.758
REMARK  0 active torsions:
REMARK  status: ('A' for Active; 'I' for Inactive)
ROOT
HETATM    1  C1  UNL     1     -34.719   6.717   3.934  1.00 20.00     0.024 A 
HETATM    2  C2  UNL     1     -33.735   6.895   2.916  1.00 20.00    -0.016 A 
HETATM    3  C3  UNL     1     -33.172   5.688   2.551  1.00 20.00    -0.007 A 
HETATM    4  C4  UNL     1     -34.855   5.394   4.299  1.00 20.00    -0.020 A 
HETATM    5  C5  UNL     1     -33.338   8.184   2.261  1.00 20.00     0.311 C 
HETATM    6  C6  UNL     1     -32.093   5.554   1.528  1.00 20.00     0.077 C 
HETATM    7  C7  UNL     1     -31.962   6.866   0.728  1.00 20.00     0.277 C 
HETATM    8  C8  UNL     1     -35.761   4.807   5.310  1.00 20.00     0.056 C 
HETATM    9  C9  UNL     1     -31.679   9.260   0.881  1.00 20.00     0.310 C 
HETATM   10  N10 UNL     1     -32.012   8.042   1.620  1.00 20.00     0.088 N 
HETATM   11  S11 UNL     1     -33.801   4.370   3.416  1.00 20.00    -0.099 SA
ENDROOT
TORSDOF 0
ENDMDL
MODEL 4
REMARK VINA RESULT:       3.8      2.021      4.358
REMARK  0 active torsions:
REMARK  status: ('A' for Active; 'I' for Inactive)
ROOT
HETATM    1  C1  UNL     1     -32.775   5.273   2.558  1.00 20.00     0.024 A 
HETATM    2  C2  UNL     1     -32.801   6.668   2.259  1.00 20.00    -0.016 A 
HETATM    3  C3  UNL     1     -33.720   7.330   3.048  1.00 20.00    -0.007 A 
HETATM    4  C4  UNL     1     -33.674   4.937   3.548  1.00 20.00    -0.020 A 
HETATM    5  C5  UNL     1     -31.949   7.391   1.260  1.00 20.00     0.311 C 
HETATM    6  C6  UNL     1     -33.994   8.794   2.949  1.00 20.00     0.077 C 
HETATM    7  C7  UNL     1     -32.892   9.480   2.117  1.00 20.00     0.277 C 
HETATM    8  C8  UNL     1     -33.944   3.606   4.133  1.00 20.00     0.056 C 
HETATM    9  C9  UNL     1     -31.677   9.447   0.029  1.00 20.00     0.310 C 
HETATM   10  N10 UNL     1     -32.566   8.691   0.911  1.00 20.00     0.088 N 
HETATM   11  S11 UNL     1     -34.543   6.300   4.118  1.00 20.00    -0.099 SA
ENDROOT
TORSDOF 0
ENDMDL
