MODEL 1
REMARK VINA RESULT:       3.2      0.000      0.000
REMARK  0 active torsions:
REMARK  status: ('A' for Active; 'I' for Inactive)
ROOT
HETATM    1  C1  UNL     1     -34.982   4.609   4.768  1.00 20.00    -0.004 C 
HETATM    2  C2  UNL     1     -33.644   4.369   4.295  1.00 20.00    -0.003 C 
HETATM    3  C3  UNL     1     -35.759   5.543   4.206  1.00 20.00    -0.025 C 
HETATM    4  C4  UNL     1     -33.047   5.199   3.427  1.00 20.00    -0.009 C 
HETATM    5  C5  UNL     1     -33.152   7.591   3.718  1.00 20.00     0.140 C 
HETATM    6  C6  UNL     1     -35.283   6.400   3.063  1.00 20.00     0.048 C 
HETATM    7  C7  UNL     1     -31.767   8.103   3.386  1.00 20.00     0.079 C 
HETATM    8  C8  UNL     1     -31.630   8.381   1.903  1.00 20.00     0.008 C 
HETATM    9  C9  UNL     1     -31.968   7.145   1.086  1.00 20.00     0.006 C 
HETATM   10  C10 UNL     1     -33.412   6.680   1.348  1.00 20.00     0.001 C 
HETATM   11  C11 UNL     1     -33.726   6.436   2.862  1.00 20.00     0.044 C 
HETATM   12  C12 UNL     1     -33.696   5.458   0.457  1.00 20.00     0.011 C 
HETATM   13  O13 UNL     1     -33.730   8.015   4.722  1.00 20.00    -0.297 OA
ENDROOT
TORSDOF 0
ENDMDL
MODEL 2
REMARK VINA RESULT:       4.6      1.488      4.187
REMARK  0 active torsions:
REMARK  status: ('A' for Active; 'I' for Inactive)
ROOT
HETATM    1  C1  UNL     1     -31.543   9.637   0.202  1.00 20.00    -0.004 C 
HETATM    2  C2  UNL     1     -32.958   9.395   0.313  1.00 20.00    -0.003 C 
HETATM    3  C3  UNL     1     -30.651   8.783   0.719  1.00 20.00    -0.025 C 
HETATM    4  C4  UNL     1     -33.445   8.431   1.109  1.00 20.00    -0.009 C 
HETATM    5  C5  UNL     1     -32.615   8.135   3.354  1.00 20.00     0.140 C 
HETATM    6  C6  UNL     1     -31.067   7.534   1.449  1.00 20.00     0.048 C 
HETATM    7  C7  UNL     1     -33.835   7.856   4.205  1.00 20.00     0.079 C 
HETATM    8  C8  UNL     1     -34.158   6.377   4.227  1.00 20.00     0.008 C 
HETATM    9  C9  UNL     1     -34.340   5.840   2.817  1.00 20.00     0.006 C 
HETATM   10  C10 UNL     1     -33.064   6.033   1.977  1.00 20.00     0.001 C 
HETATM   11  C11 UNL     1     -32.559   7.514   1.937  1.00 20.00     0.044 C 
HETATM   12  C12 UNL     1     -33.306   5.429   0.583  1.00 20.00     0.011 C 
HETATM   13  O13 UNL     1     -31.767   8.936   3.755  1.00 20.00    -0.297 OA
ENDROOT
TORSDOF 0
ENDMDL
MODEL 3
REMARK VINA RESULT:       4.7      1.747      3.690
REMARK  0 active torsions:
REMARK  status: ('A' for Active; 'I' for Inactive)
ROOT
HETATM    1  C1  UNL     1     -32.081   4.402  -0.119  1.00 20.00    -0.004 C 
HETATM    2  C2  UNL     1     -33.447   4.819   0.065  1.00 20.00    -0.003 C 
HETATM    3  C3  UNL     1     -31.208   4.419   0.896  1.00 20.00    -0.025 C 
HETATM    4  C4  UNL     1     -33.847   5.434   1.187  1.00 20.00    -0.009 C 
HETATM    5  C5  UNL     1     -32.548   7.218   2.160  1.00 20.00     0.140 C 
HETATM    6  C6  UNL     1     -31.593   4.880   2.277  1.00 20.00     0.048 C 
HETATM    7  C7  UNL     1     -33.552   8.260   2.602  1.00 20.00     0.079 C 
HETATM    8  C8  UNL     1     -34.048   7.979   4.005  1.00 20.00     0.008 C 
HETATM    9  C9  UNL     1     -34.631   6.579   4.104  1.00 20.00     0.006 C 
HETATM   10  C10 UNL     1     -33.581   5.510   3.751  1.00 20.00     0.001 C 
HETATM   11  C11 UNL     1     -32.914   5.726   2.352  1.00 20.00     0.044 C 
HETATM   12  C12 UNL     1     -34.227   4.124   3.916  1.00 20.00     0.011 C 
HETATM   13  O13 UNL     1     -31.532   7.574   1.557  1.00 20.00    -0.297 OA
ENDROOT
TORSDOF 0
ENDMDL
MODEL 4
REMARK VINA RESULT:       4.8      1.506      2.845
REMARK  0 active torsions:
REMARK  status: ('A' for Active; 'I' for Inactive)
ROOT
HETATM    1  C1  UNL     1     -35.467   4.892   4.236  1.00 20.00    -0.004 C 
HETATM    2  C2  UNL     1     -35.754   6.225   3.774  1.00 20.00    -0.003 C 
HETATM    3  C3  UNL     1     -34.208   4.482   4.431  1.00 20.00    -0.025 C 
HETATM    4  C4  UNL     1     -34.785   7.034   3.321  1.00 20.00    -0.009 C 
HETATM    5  C5  UNL     1     -33.102   6.228   1.793  1.00 20.00     0.140 C 
HETATM    6  C6  UNL     1     -33.024   5.376   4.172  1.00 20.00     0.048 C 
HETATM    7  C7  UNL     1     -32.911   7.333   0.777  1.00 20.00     0.079 C 
HETATM    8  C8  UNL     1     -31.875   8.332   1.247  1.00 20.00     0.008 C 
HETATM    9  C9  UNL     1     -32.245   8.897   2.609  1.00 20.00     0.006 C 
HETATM   10  C10 UNL     1     -32.343   7.784   3.668  1.00 20.00     0.001 C 
HETATM   11  C11 UNL     1     -33.321   6.628   3.273  1.00 20.00     0.044 C 
HETATM   12  C12 UNL     1     -32.674   8.433   5.023  1.00 20.00     0.011 C 
HETATM   13  O13 UNL     1     -33.200   5.060   1.407  1.00 20.00    -0.297 OA
ENDROOT
TORSDOF 0
ENDMDL
MODEL 5
REMARK VINA RESULT:       4.9      1.269      3.976
REMARK  0 active torsions:
REMARK  status: ('A' for Active; 'I' for Inactive)
ROOT
HETATM    1  C1  UNL     1     -32.172   9.360   0.647  1.00 20.00    -0.004 C 
HETATM    2  C2  UNL     1     -33.220   8.457   0.250  1.00 20.00    -0.003 C 
HETATM    3  C3  UNL     1     -31.286   9.021   1.591  1.00 20.00    -0.025 C 
HETATM    4  C4  UNL     1     -33.484   7.339   0.942  1.00 20.00    -0.009 C 
HETATM    5  C5  UNL     1     -33.610   7.368   3.351  1.00 20.00     0.140 C 
HETATM    6  C6  UNL     1     -31.335   7.691   2.297  1.00 20.00     0.048 C 
HETATM    7  C7  UNL     1     -34.790   6.490   3.707  1.00 20.00     0.079 C 
HETATM    8  C8  UNL     1     -34.371   5.041   3.838  1.00 20.00     0.008 C 
HETATM    9  C9  UNL     1     -33.691   4.556   2.568  1.00 20.00     0.006 C 
HETATM   10  C10 UNL     1     -32.432   5.386   2.257  1.00 20.00     0.001 C 
HETATM   11  C11 UNL     1     -32.701   6.926   2.178  1.00 20.00     0.044 C 
HETATM   12  C12 UNL     1     -31.775   4.812   0.989  1.00 20.00     0.011 C 
HETATM   13  O13 UNL     1     -33.475   8.459   3.912  1.00 20.00    -0.297 OA
ENDROOT
TORSDOF 0
ENDMDL
MODEL 6
REMARK VINA RESULT:       5.3      1.599      4.106
REMARK  0 active torsions:
REMARK  status: ('A' for Active; 'I' for Inactive)
ROOT
HETATM    1  C1  UNL     1     -31.936   8.547   1.556  1.00 20.00    -0.004 C 
HETATM    2  C2  UNL     1     -32.002   8.298   2.972  1.00 20.00    -0.003 C 
HETATM    3  C3  UNL     1     -32.706   7.869   0.696  1.00 20.00    -0.025 C 
HETATM    4  C4  UNL     1     -32.670   7.247   3.470  1.00 20.00    -0.009 C 
HETATM    5  C5  UNL     1     -32.442   5.053   2.493  1.00 20.00     0.140 C 
HETATM    6  C6  UNL     1     -33.672   6.807   1.151  1.00 20.00     0.048 C 
HETATM    7  C7  UNL     1     -32.367   4.094   3.661  1.00 20.00     0.079 C 
HETATM    8  C8  UNL     1     -33.749   3.656   4.097  1.00 20.00     0.008 C 
HETATM    9  C9  UNL     1     -34.619   4.857   4.430  1.00 20.00     0.006 C 
HETATM   10  C10 UNL     1     -34.779   5.786   3.212  1.00 20.00     0.001 C 
HETATM   11  C11 UNL     1     -33.417   6.251   2.597  1.00 20.00     0.044 C 
HETATM   12  C12 UNL     1     -35.703   6.950   3.610  1.00 20.00     0.011 C 
HETATM   13  O13 UNL     1     -31.650   4.930   1.555  1.00 20.00    -0.297 OA
ENDROOT
TORSDOF 0
ENDMDL
MODEL 7
REMARK VINA RESULT:       5.9      1.708      3.087
REMARK  0 active torsions:
REMARK  status: ('A' for Active; 'I' for Inactive)
ROOT
HETATM    1  C1  UNL     1     -32.842   4.317   0.266  1.00 20.00    -0.004 C 
HETATM    2  C2  UNL     1     -31.743   4.701   1.112  1.00 20.00    -0.003 C 
HETATM    3  C3  UNL     1     -33.842   5.167  -0.000  1.00 20.00    -0.025 C 
HETATM    4  C4  UNL     1     -31.774   5.832   1.832  1.00 20.00    -0.009 C 
HETATM    5  C5  UNL     1     -33.735   6.452   3.092  1.00 20.00     0.140 C 
HETATM    6  C6  UNL     1     -33.884   6.559   0.571  1.00 20.00     0.048 C 
HETATM    7  C7  UNL     1     -33.221   6.988   4.410  1.00 20.00     0.079 C 
HETATM    8  C8  UNL     1     -32.923   8.470   4.318  1.00 20.00     0.008 C 
HETATM    9  C9  UNL     1     -31.946   8.758   3.190  1.00 20.00     0.006 C 
HETATM   10  C10 UNL     1     -32.511   8.303   1.831  1.00 20.00     0.001 C 
HETATM   11  C11 UNL     1     -32.946   6.800   1.806  1.00 20.00     0.044 C 
HETATM   12  C12 UNL     1     -31.491   8.666   0.738  1.00 20.00     0.011 C 
HETATM   13  O13 UNL     1     -34.685   5.663   3.087  1.00 20.00    -0.297 OA
ENDROOT
TORSDOF 0
ENDMDL
MODEL 8
REMARK VINA RESULT:       6.1      1.838      4.364
REMARK  0 active torsions:
REMARK  status: ('A' for Active; 'I' for Inactive)
ROOT
HETATM    1  C1  UNL     1     -31.279   9.015   0.828  1.00 20.00    -0.004 C 
HETATM    2  C2  UNL     1     -30.845   8.322   2.012  1.00 20.00    -0.003 C 
HETATM    3  C3  UNL     1     -32.573   9.061   0.487  1.00 20.00    -0.025 C 
HETATM    4  C4  UNL     1     -31.674   7.524   2.702  1.00 20.00    -0.009 C 
HETATM    5  C5  UNL     1     -33.097   5.936   1.575  1.00 20.00     0.140 C 
HETATM    6  C6  UNL     1     -33.643   8.389   1.306  1.00 20.00     0.048 C 
HETATM    7  C7  UNL     1     -33.045   4.676   2.412  1.00 20.00     0.079 C 
HETATM    8  C8  UNL     1     -34.094   4.704   3.504  1.00 20.00     0.008 C 
HETATM    9  C9  UNL     1     -33.944   5.944   4.369  1.00 20.00     0.006 C 
HETATM   10  C10 UNL     1     -34.096   7.229   3.535  1.00 20.00     0.001 C 
HETATM   11  C11 UNL     1     -33.125   7.298   2.310  1.00 20.00     0.044 C 
HETATM   12  C12 UNL     1     -33.978   8.437   4.481  1.00 20.00     0.011 C 
HETATM   13  O13 UNL     1     -32.993   5.853   0.348  1.00 20.00    -0.297 OA
ENDROOT
TORSDOF 0
ENDMDL
