MODEL 1
REMARK VINA RESULT:       0.5      0.000      0.000
REMARK  0 active torsions:
REMARK  status: ('A' for Active; 'I' for Inactive)
ROOT
HETATM    1  C1  UNL     1     -32.654   8.053   2.917  1.00 20.00     0.050 C 
HETATM    2  C2  UNL     1     -32.367   7.319   1.835  1.00 20.00    -0.014 C 
HETATM    3  C3  UNL     1     -33.604   7.553   3.938  1.00 20.00     0.188 C 
HETATM    4  C4  UNL     1     -33.622   5.339   2.780  1.00 20.00     0.064 C 
HETATM    5  C5  UNL     1     -32.894   5.929   1.549  1.00 20.00    -0.026 C 
HETATM    6  C6  UNL     1     -34.441   6.331   3.608  1.00 20.00     0.164 C 
HETATM    7  C7  UNL     1     -31.700   5.010   1.211  1.00 20.00     0.019 C 
HETATM    8  C8  UNL     1     -33.810   5.975   0.314  1.00 20.00     0.019 C 
HETATM    9  C9  UNL     1     -35.750   6.770   2.967  1.00 20.00     0.060 C 
HETATM   10  O10 UNL     1     -33.730   8.157   5.001  1.00 20.00    -0.290 OA
HETATM   11  F11 UNL     1     -34.780   5.682   4.767  1.00 20.00    -0.235 F 
ENDROOT
TORSDOF 0
ENDMDL
MODEL 2
REMARK VINA RESULT:       0.9      2.135      3.483
REMARK  0 active torsions:
REMARK  status: ('A' for Active; 'I' for Inactive)
ROOT
HETATM    1  C1  UNL     1     -32.651   8.012   3.321  1.00 20.00     0.050 C 
HETATM    2  C2  UNL     1     -33.479   7.267   4.064  1.00 20.00    -0.014 C 
HETATM    3  C3  UNL     1     -32.399   7.671   1.902  1.00 20.00     0.188 C 
HETATM    4  C4  UNL     1     -34.215   5.960   2.031  1.00 20.00     0.064 C 
HETATM    5  C5  UNL     1     -34.275   6.078   3.572  1.00 20.00    -0.026 C 
HETATM    6  C6  UNL     1     -32.876   6.326   1.387  1.00 20.00     0.164 C 
HETATM    7  C7  UNL     1     -35.751   6.271   3.981  1.00 20.00     0.019 C 
HETATM    8  C8  UNL     1     -33.763   4.801   4.261  1.00 20.00     0.019 C 
HETATM    9  C9  UNL     1     -31.775   5.292   1.571  1.00 20.00     0.060 C 
HETATM   10  O10 UNL     1     -31.774   8.454   1.189  1.00 20.00    -0.290 OA
HETATM   11  F11 UNL     1     -33.104   6.407   0.037  1.00 20.00    -0.235 F 
ENDROOT
TORSDOF 0
ENDMDL
MODEL 3
REMARK VINA RESULT:       1.1      1.704      2.848
REMARK  0 active torsions:
REMARK  status: ('A' for Active; 'I' for Inactive)
ROOT
HETATM    1  C1  UNL     1     -32.835   5.657   2.274  1.00 20.00     0.050 C 
HETATM    2  C2  UNL     1     -32.084   6.574   1.650  1.00 20.00    -0.014 C 
HETATM    3  C3  UNL     1     -33.876   6.069   3.244  1.00 20.00     0.188 C 
HETATM    4  C4  UNL     1     -33.514   8.446   2.564  1.00 20.00     0.064 C 
HETATM    5  C5  UNL     1     -32.226   8.073   1.792  1.00 20.00    -0.026 C 
HETATM    6  C6  UNL     1     -33.894   7.511   3.714  1.00 20.00     0.164 C 
HETATM    7  C7  UNL     1     -32.315   8.695   0.382  1.00 20.00     0.019 C 
HETATM    8  C8  UNL     1     -30.969   8.642   2.473  1.00 20.00     0.019 C 
HETATM    9  C9  UNL     1     -33.032   7.649   4.961  1.00 20.00     0.060 C 
HETATM   10  O10 UNL     1     -34.667   5.235   3.680  1.00 20.00    -0.290 OA
HETATM   11  F11 UNL     1     -35.168   7.855   4.088  1.00 20.00    -0.235 F 
ENDROOT
TORSDOF 0
ENDMDL
MODEL 4
REMARK VINA RESULT:       1.2      1.991      3.093
REMARK  0 active torsions:
REMARK  status: ('A' for Active; 'I' for Inactive)
ROOT
HETATM    1  C1  UNL     1     -34.019   6.931   3.569  1.00 20.00     0.050 C 
HETATM    2  C2  UNL     1     -33.397   8.058   3.200  1.00 20.00    -0.014 C 
HETATM    3  C3  UNL     1     -33.665   5.635   2.943  1.00 20.00     0.188 C 
HETATM    4  C4  UNL     1     -31.737   6.751   1.813  1.00 20.00     0.064 C 
HETATM    5  C5  UNL     1     -32.269   8.153   2.196  1.00 20.00    -0.026 C 
HETATM    6  C6  UNL     1     -32.790   5.647   1.705  1.00 20.00     0.164 C 
HETATM    7  C7  UNL     1     -31.109   8.948   2.834  1.00 20.00     0.019 C 
HETATM    8  C8  UNL     1     -32.749   8.936   0.963  1.00 20.00     0.019 C 
HETATM    9  C9  UNL     1     -33.668   5.721   0.463  1.00 20.00     0.060 C 
HETATM   10  O10 UNL     1     -34.120   4.591   3.406  1.00 20.00    -0.290 OA
HETATM   11  F11 UNL     1     -32.103   4.463   1.618  1.00 20.00    -0.235 F 
ENDROOT
TORSDOF 0
ENDMDL
MODEL 5
REMARK VINA RESULT:       1.6      2.479      3.984
REMARK  0 active torsions:
REMARK  status: ('A' for Active; 'I' for Inactive)
ROOT
HETATM    1  C1  UNL     1     -33.655   5.724   2.499  1.00 20.00     0.050 C 
HETATM    2  C2  UNL     1     -34.232   6.525   3.403  1.00 20.00    -0.014 C 
HETATM    3  C3  UNL     1     -32.449   6.166   1.760  1.00 20.00     0.188 C 
HETATM    4  C4  UNL     1     -32.315   8.164   3.254  1.00 20.00     0.064 C 
HETATM    5  C5  UNL     1     -33.729   7.890   3.819  1.00 20.00    -0.026 C 
HETATM    6  C6  UNL     1     -32.044   7.625   1.848  1.00 20.00     0.164 C 
HETATM    7  C7  UNL     1     -33.647   7.935   5.360  1.00 20.00     0.019 C 
HETATM    8  C8  UNL     1     -34.737   8.963   3.374  1.00 20.00     0.019 C 
HETATM    9  C9  UNL     1     -32.711   8.406   0.725  1.00 20.00     0.060 C 
HETATM   10  O10 UNL     1     -31.834   5.363   1.061  1.00 20.00    -0.290 OA
HETATM   11  F11 UNL     1     -30.693   7.738   1.643  1.00 20.00    -0.235 F 
ENDROOT
TORSDOF 0
ENDMDL
MODEL 6
REMARK VINA RESULT:       1.8      2.072      3.246
REMARK  0 active torsions:
REMARK  status: ('A' for Active; 'I' for Inactive)
ROOT
HETATM    1  C1  UNL     1     -32.782   6.063   1.413  1.00 20.00     0.050 C 
HETATM    2  C2  UNL     1     -33.781   5.524   2.123  1.00 20.00    -0.014 C 
HETATM    3  C3  UNL     1     -32.080   7.275   1.897  1.00 20.00     0.188 C 
HETATM    4  C4  UNL     1     -33.308   7.072   4.064  1.00 20.00     0.064 C 
HETATM    5  C5  UNL     1     -34.267   6.013   3.471  1.00 20.00    -0.026 C 
HETATM    6  C6  UNL     1     -32.683   8.042   3.059  1.00 20.00     0.164 C 
HETATM    7  C7  UNL     1     -34.315   4.813   4.441  1.00 20.00     0.019 C 
HETATM    8  C8  UNL     1     -35.699   6.556   3.331  1.00 20.00     0.019 C 
HETATM    9  C9  UNL     1     -33.631   9.108   2.526  1.00 20.00     0.060 C 
HETATM   10  O10 UNL     1     -31.061   7.658   1.326  1.00 20.00    -0.290 OA
HETATM   11  F11 UNL     1     -31.692   8.711   3.730  1.00 20.00    -0.235 F 
ENDROOT
TORSDOF 0
ENDMDL
MODEL 7
REMARK VINA RESULT:       2.3      1.744      2.814
REMARK  0 active torsions:
REMARK  status: ('A' for Active; 'I' for Inactive)
ROOT
HETATM    1  C1  UNL     1     -33.915   6.128   3.524  1.00 20.00     0.050 C 
HETATM    2  C2  UNL     1     -33.521   5.230   2.612  1.00 20.00    -0.014 C 
HETATM    3  C3  UNL     1     -33.632   7.570   3.335  1.00 20.00     0.188 C 
HETATM    4  C4  UNL     1     -32.837   7.070   1.020  1.00 20.00     0.064 C 
HETATM    5  C5  UNL     1     -32.827   5.549   1.306  1.00 20.00    -0.026 C 
HETATM    6  C6  UNL     1     -32.666   7.978   2.239  1.00 20.00     0.164 C 
HETATM    7  C7  UNL     1     -33.583   4.841   0.161  1.00 20.00     0.019 C 
HETATM    8  C8  UNL     1     -31.396   4.986   1.338  1.00 20.00     0.019 C 
HETATM    9  C9  UNL     1     -31.252   8.030   2.802  1.00 20.00     0.060 C 
HETATM   10  O10 UNL     1     -34.142   8.395   4.090  1.00 20.00    -0.290 OA
HETATM   11  F11 UNL     1     -32.959   9.250   1.820  1.00 20.00    -0.235 F 
ENDROOT
TORSDOF 0
ENDMDL
