MODEL 1
REMARK VINA RESULT:      -1.2      0.000      0.000
REMARK  3 active torsions:
REMARK  status: ('A' for Active; 'I' for Inactive)
REMARK    1  A    between atoms: C1_1  and  C5_5 
REMARK    2  A    between atoms: C2_2  and  C6_6 
REMARK    3  A    between atoms: C6_6  and  O7_7 
ROOT
HETATM    1  C3  UNL     1     -32.660   9.110   1.122  1.00 20.00     0.060 C 
HETATM    2  C4  UNL     1     -31.450   6.911   1.218  1.00 20.00     0.060 C 
HETATM    3  C6  UNL     1     -32.168   7.985   2.033  1.00 20.00     0.114 C 
ENDROOT
BRANCH   3   4
HETATM    4  C2  UNL     1     -33.290   7.394   2.781  1.00 20.00    -0.068 C 
HETATM    5  C1  UNL     1     -34.203   6.912   3.393  1.00 20.00    -0.088 C 
BRANCH   5   6
HETATM    6  C5  UNL     1     -35.317   6.323   4.134  1.00 20.00     0.208 C 
HETATM    7 CL8  UNL     1     -34.931   4.631   4.505  1.00 20.00    -0.117 Cl
ENDBRANCH   5   6
ENDBRANCH   3   4
BRANCH   3   8
HETATM    8  O7  UNL     1     -31.218   8.528   2.951  1.00 20.00    -0.378 OA
HETATM    9  H17 UNL     1     -31.726   8.854   3.709  1.00 20.00     0.211 HD
ENDBRANCH   3   8
TORSDOF 3
ENDMDL
MODEL 2
REMARK VINA RESULT:      -1.0      0.955      1.429
REMARK  3 active torsions:
REMARK  status: ('A' for Active; 'I' for Inactive)
REMARK    1  A    between atoms: C1_1  and  C5_5 
REMARK    2  A    between atoms: C2_2  and  C6_6 
REMARK    3  A    between atoms: C6_6  and  O7_7 
ROOT
HETATM    1  C3  UNL     1     -31.234   8.732   3.058  1.00 20.00     0.060 C 
HETATM    2  C4  UNL     1     -32.647   8.947   0.992  1.00 20.00     0.060 C 
HETATM    3  C6  UNL     1     -32.144   7.995   2.075  1.00 20.00     0.114 C 
ENDROOT
BRANCH   3   4
HETATM    4  C2  UNL     1     -33.281   7.380   2.783  1.00 20.00    -0.068 C 
HETATM    5  C1  UNL     1     -34.205   6.880   3.362  1.00 20.00    -0.088 C 
BRANCH   5   6
HETATM    6  C5  UNL     1     -35.331   6.267   4.064  1.00 20.00     0.208 C 
HETATM    7 CL8  UNL     1     -34.899   4.604   4.504  1.00 20.00    -0.117 Cl
ENDBRANCH   5   6
ENDBRANCH   3   4
BRANCH   3   8
HETATM    8  O7  UNL     1     -31.381   6.976   1.427  1.00 20.00    -0.378 OA
HETATM    9  H17 UNL     1     -31.047   7.366   0.605  1.00 20.00     0.211 HD
ENDBRANCH   3   8
TORSDOF 3
ENDMDL
MODEL 3
REMARK VINA RESULT:      -0.9      3.215      4.363
REMARK  3 active torsions:
REMARK  status: ('A' for Active; 'I' for Inactive)
REMARK    1  A    between atoms: C1_1  and  C5_5 
REMARK    2  A    between atoms: C2_2  and  C6_6 
REMARK    3  A    between atoms: C6_6  and  O7_7 
ROOT
HETATM    1  C3  UNL     1     -33.981   7.557   4.887  1.00 20.00     0.060 C 
HETATM    2  C4  UNL     1     -33.781   5.358   3.687  1.00 20.00     0.060 C 
HETATM    3  C6  UNL     1     -34.112   6.843   3.541  1.00 20.00     0.114 C 
ENDROOT
BRANCH   3   4
HETATM    4  C2  UNL     1     -33.232   7.465   2.536  1.00 20.00    -0.068 C 
HETATM    5  C1  UNL     1     -32.514   7.975   1.720  1.00 20.00    -0.088 C 
BRANCH   5   6
HETATM    6  C5  UNL     1     -31.644   8.594   0.724  1.00 20.00     0.208 C 
HETATM    7 CL8  UNL     1     -32.473  10.002   0.030  1.00 20.00    -0.117 Cl
ENDBRANCH   5   6
ENDBRANCH   3   4
BRANCH   3   8
HETATM    8  O7  UNL     1     -35.469   6.937   3.107  1.00 20.00    -0.378 OA
HETATM    9  H17 UNL     1     -35.668   6.106   2.650  1.00 20.00     0.211 HD
ENDBRANCH   3   8
TORSDOF 3
ENDMDL
MODEL 4
REMARK VINA RESULT:      -0.9      2.998      4.388
REMARK  3 active torsions:
REMARK  status: ('A' for Active; 'I' for Inactive)
REMARK    1  A    between atoms: C1_1  and  C5_5 
REMARK    2  A    between atoms: C2_2  and  C6_6 
REMARK    3  A    between atoms: C6_6  and  O7_7 
ROOT
HETATM    1  C3  UNL     1     -33.920   5.278   3.903  1.00 20.00     0.060 C 
HETATM    2  C4  UNL     1     -35.703   6.892   3.179  1.00 20.00     0.060 C 
HETATM    3  C6  UNL     1     -34.262   6.750   3.664  1.00 20.00     0.114 C 
ENDROOT
BRANCH   3   4
HETATM    4  C2  UNL     1     -33.332   7.346   2.689  1.00 20.00    -0.068 C 
HETATM    5  C1  UNL     1     -32.574   7.834   1.897  1.00 20.00    -0.088 C 
BRANCH   5   6
HETATM    6  C5  UNL     1     -31.654   8.427   0.929  1.00 20.00     0.208 C 
HETATM    7 CL8  UNL     1     -32.424   9.850   0.200  1.00 20.00    -0.117 Cl
ENDBRANCH   5   6
ENDBRANCH   3   4
BRANCH   3   8
HETATM    8  O7  UNL     1     -34.159   7.447   4.906  1.00 20.00    -0.378 OA
HETATM    9  H17 UNL     1     -33.296   7.214   5.279  1.00 20.00     0.211 HD
ENDBRANCH   3   8
TORSDOF 3
ENDMDL
MODEL 5
REMARK VINA RESULT:      -0.7      0.993      1.483
REMARK  3 active torsions:
REMARK  status: ('A' for Active; 'I' for Inactive)
REMARK    1  A    between atoms: C1_1  and  C5_5 
REMARK    2  A    between atoms: C2_2  and  C6_6 
REMARK    3  A    between atoms: C6_6  and  O7_7 
ROOT
HETATM    1  C3  UNL     1     -31.541   6.931   1.140  1.00 20.00     0.060 C 
HETATM    2  C4  UNL     1     -31.197   8.598   2.987  1.00 20.00     0.060 C 
HETATM    3  C6  UNL     1     -32.213   7.977   2.031  1.00 20.00     0.114 C 
ENDROOT
BRANCH   3   4
HETATM    4  C2  UNL     1     -33.326   7.376   2.787  1.00 20.00    -0.068 C 
HETATM    5  C1  UNL     1     -34.231   6.887   3.405  1.00 20.00    -0.088 C 
BRANCH   5   6
HETATM    6  C5  UNL     1     -35.333   6.289   4.155  1.00 20.00     0.208 C 
HETATM    7 CL8  UNL     1     -34.928   4.601   4.525  1.00 20.00    -0.117 Cl
ENDBRANCH   5   6
ENDBRANCH   3   4
BRANCH   3   8
HETATM    8  O7  UNL     1     -32.715   9.025   1.200  1.00 20.00    -0.378 OA
HETATM    9  H17 UNL     1     -32.708   9.829   1.741  1.00 20.00     0.211 HD
ENDBRANCH   3   8
TORSDOF 3
ENDMDL
MODEL 6
REMARK VINA RESULT:      -0.4      2.841      3.518
REMARK  3 active torsions:
REMARK  status: ('A' for Active; 'I' for Inactive)
REMARK    1  A    between atoms: C1_1  and  C5_5 
REMARK    2  A    between atoms: C2_2  and  C6_6 
REMARK    3  A    between atoms: C6_6  and  O7_7 
ROOT
HETATM    1  C3  UNL     1     -33.538   6.977   2.146  1.00 20.00     0.060 C 
HETATM    2  C4  UNL     1     -33.966   7.632   4.533  1.00 20.00     0.060 C 
HETATM    3  C6  UNL     1     -34.297   6.631   3.428  1.00 20.00     0.114 C 
ENDROOT
BRANCH   3   4
HETATM    4  C2  UNL     1     -33.979   5.262   3.866  1.00 20.00    -0.068 C 
HETATM    5  C1  UNL     1     -33.722   4.146   4.225  1.00 20.00    -0.088 C 
BRANCH   5   6
HETATM    6  C5  UNL     1     -33.404   2.788   4.662  1.00 20.00     0.208 C 
HETATM    7 CL8  UNL     1     -32.472   2.872   6.170  1.00 20.00    -0.117 Cl
ENDBRANCH   5   6
ENDBRANCH   3   4
BRANCH   3   8
HETATM    8  O7  UNL     1     -35.698   6.733   3.167  1.00 20.00    -0.378 OA
HETATM    9  H17 UNL     1     -35.970   5.879   2.800  1.00 20.00     0.211 HD
ENDBRANCH   3   8
TORSDOF 3
ENDMDL
MODEL 7
REMARK VINA RESULT:      -0.3      3.358      4.356
REMARK  3 active torsions:
REMARK  status: ('A' for Active; 'I' for Inactive)
REMARK    1  A    between atoms: C1_1  and  C5_5 
REMARK    2  A    between atoms: C2_2  and  C6_6 
REMARK    3  A    between atoms: C6_6  and  O7_7 
ROOT
HETATM    1  C3  UNL     1     -33.471   5.176   0.514  1.00 20.00     0.060 C 
HETATM    2  C4  UNL     1     -33.499   5.666   2.978  1.00 20.00     0.060 C 
HETATM    3  C6  UNL     1     -32.727   5.844   1.671  1.00 20.00     0.114 C 
ENDROOT
BRANCH   3   4
HETATM    4  C2  UNL     1     -32.513   7.274   1.394  1.00 20.00    -0.068 C 
HETATM    5  C1  UNL     1     -32.338   8.441   1.171  1.00 20.00    -0.088 C 
BRANCH   5   6
HETATM    6  C5  UNL     1     -32.128   9.860   0.896  1.00 20.00     0.208 C 
HETATM    7 CL8  UNL     1     -32.887  10.264  -0.656  1.00 20.00    -0.117 Cl
ENDBRANCH   5   6
ENDBRANCH   3   4
BRANCH   3   8
HETATM    8  O7  UNL     1     -31.464   5.196   1.831  1.00 20.00    -0.378 OA
HETATM    9  H17 UNL     1     -31.001   5.287   0.985  1.00 20.00     0.211 HD
ENDBRANCH   3   8
TORSDOF 3
ENDMDL
MODEL 8
REMARK VINA RESULT:      -0.2      2.159      2.874
REMARK  3 active torsions:
REMARK  status: ('A' for Active; 'I' for Inactive)
REMARK    1  A    between atoms: C1_1  and  C5_5 
REMARK    2  A    between atoms: C2_2  and  C6_6 
REMARK    3  A    between atoms: C6_6  and  O7_7 
ROOT
HETATM    1  C3  UNL     1     -30.792   9.331  -0.174  1.00 20.00     0.060 C 
HETATM    2  C4  UNL     1     -32.485  10.850   0.893  1.00 20.00     0.060 C 
HETATM    3  C6  UNL     1     -32.248   9.475   0.271  1.00 20.00     0.114 C 
ENDROOT
BRANCH   3   4
HETATM    4  C2  UNL     1     -32.606   8.413   1.227  1.00 20.00    -0.068 C 
HETATM    5  C1  UNL     1     -32.895   7.545   2.005  1.00 20.00    -0.088 C 
BRANCH   5   6
HETATM    6  C5  UNL     1     -33.252   6.492   2.952  1.00 20.00     0.208 C 
HETATM    7 CL8  UNL     1     -34.596   7.058   3.963  1.00 20.00    -0.117 Cl
ENDBRANCH   5   6
ENDBRANCH   3   4
BRANCH   3   8
HETATM    8  O7  UNL     1     -33.086   9.378  -0.881  1.00 20.00    -0.378 OA
HETATM    9  H17 UNL     1     -33.487   8.497  -0.855  1.00 20.00     0.211 HD
ENDBRANCH   3   8
TORSDOF 3
ENDMDL
MODEL 9
REMARK VINA RESULT:      -0.2      3.479      4.402
REMARK  3 active torsions:
REMARK  status: ('A' for Active; 'I' for Inactive)
REMARK    1  A    between atoms: C1_1  and  C5_5 
REMARK    2  A    between atoms: C2_2  and  C6_6 
REMARK    3  A    between atoms: C6_6  and  O7_7 
ROOT
HETATM    1  C3  UNL     1     -33.518   5.567   2.958  1.00 20.00     0.060 C 
HETATM    2  C4  UNL     1     -31.445   5.016   1.651  1.00 20.00     0.060 C 
HETATM    3  C6  UNL     1     -32.771   5.774   1.640  1.00 20.00     0.114 C 
ENDROOT
BRANCH   3   4
HETATM    4  C2  UNL     1     -32.539   7.207   1.395  1.00 20.00    -0.068 C 
HETATM    5  C1  UNL     1     -32.348   8.376   1.197  1.00 20.00    -0.088 C 
BRANCH   5   6
HETATM    6  C5  UNL     1     -32.119   9.798   0.956  1.00 20.00     0.208 C 
HETATM    7 CL8  UNL     1     -32.854  10.245  -0.596  1.00 20.00    -0.117 Cl
ENDBRANCH   5   6
ENDBRANCH   3   4
BRANCH   3   8
HETATM    8  O7  UNL     1     -33.562   5.232   0.581  1.00 20.00    -0.378 OA
HETATM    9  H17 UNL     1     -33.300   4.304   0.490  1.00 20.00     0.211 HD
ENDBRANCH   3   8
TORSDOF 3
ENDMDL
