MODEL 1
REMARK VINA RESULT:       1.1      0.000      0.000
REMARK  0 active torsions:
REMARK  status: ('A' for Active; 'I' for Inactive)
ROOT
HETATM    1  C1  UNL     1     -33.902   4.862   3.667  1.00 20.00     0.066 C 
HETATM    2  C2  UNL     1     -31.360   6.872   2.027  1.00 20.00     0.034 C 
HETATM    3  C3  UNL     1     -32.077   5.670   1.410  1.00 20.00     0.036 C 
HETATM    4  C4  UNL     1     -33.323   7.300   3.536  1.00 20.00     0.053 C 
HETATM    5  C5  UNL     1     -34.089   6.115   2.932  1.00 20.00     0.124 C 
HETATM    6  C6  UNL     1     -32.523   7.810   2.335  1.00 20.00     0.123 C 
HETATM    7  C7  UNL     1     -33.545   6.090   1.498  1.00 20.00     0.139 C 
HETATM    8  N8  UNL     1     -33.754   3.870   4.249  1.00 20.00    -0.197 NA
HETATM    9  O9  UNL     1     -33.424   7.513   1.242  1.00 20.00    -0.379 OA
ENDROOT
TORSDOF 0
ENDMDL
MODEL 2
REMARK VINA RESULT:       1.3      1.619      2.434
REMARK  0 active torsions:
REMARK  status: ('A' for Active; 'I' for Inactive)
ROOT
HETATM    1  C1  UNL     1     -33.501   3.790   4.415  1.00 20.00     0.066 C 
HETATM    2  C2  UNL     1     -33.932   7.397   4.393  1.00 20.00     0.034 C 
HETATM    3  C3  UNL     1     -32.946   6.615   3.523  1.00 20.00     0.036 C 
HETATM    4  C4  UNL     1     -35.433   5.387   4.543  1.00 20.00     0.053 C 
HETATM    5  C5  UNL     1     -34.483   4.568   3.657  1.00 20.00     0.124 C 
HETATM    6  C6  UNL     1     -35.271   6.796   3.971  1.00 20.00     0.123 C 
HETATM    7  C7  UNL     1     -33.871   5.658   2.768  1.00 20.00     0.139 C 
HETATM    8  N8  UNL     1     -32.723   3.173   5.015  1.00 20.00    -0.197 NA
HETATM    9  O9  UNL     1     -35.026   6.514   2.573  1.00 20.00    -0.379 OA
ENDROOT
TORSDOF 0
ENDMDL
MODEL 3
REMARK VINA RESULT:       1.6      1.726      2.547
REMARK  0 active torsions:
REMARK  status: ('A' for Active; 'I' for Inactive)
ROOT
HETATM    1  C1  UNL     1     -34.266   6.672   3.408  1.00 20.00     0.066 C 
HETATM    2  C2  UNL     1     -32.736   8.698   0.811  1.00 20.00     0.034 C 
HETATM    3  C3  UNL     1     -32.914   9.113   2.272  1.00 20.00     0.036 C 
HETATM    4  C4  UNL     1     -32.715   6.275   1.476  1.00 20.00     0.053 C 
HETATM    5  C5  UNL     1     -32.873   6.644   2.957  1.00 20.00     0.124 C 
HETATM    6  C6  UNL     1     -31.881   7.441   0.942  1.00 20.00     0.123 C 
HETATM    7  C7  UNL     1     -32.167   8.005   3.016  1.00 20.00     0.139 C 
HETATM    8  N8  UNL     1     -35.370   6.692   3.765  1.00 20.00    -0.197 NA
HETATM    9  O9  UNL     1     -31.071   7.768   2.095  1.00 20.00    -0.379 OA
ENDROOT
TORSDOF 0
ENDMDL
MODEL 4
REMARK VINA RESULT:       1.7      3.065      3.903
REMARK  0 active torsions:
REMARK  status: ('A' for Active; 'I' for Inactive)
ROOT
HETATM    1  C1  UNL     1     -32.646   9.586   0.275  1.00 20.00     0.066 C 
HETATM    2  C2  UNL     1     -33.199   6.427   1.978  1.00 20.00     0.034 C 
HETATM    3  C3  UNL     1     -31.930   6.816   1.218  1.00 20.00     0.036 C 
HETATM    4  C4  UNL     1     -33.703   8.847   2.427  1.00 20.00     0.053 C 
HETATM    5  C5  UNL     1     -32.429   9.285   1.691  1.00 20.00     0.124 C 
HETATM    6  C6  UNL     1     -33.274   7.515   3.046  1.00 20.00     0.123 C 
HETATM    7  C7  UNL     1     -31.498   8.092   1.944  1.00 20.00     0.139 C 
HETATM    8  N8  UNL     1     -32.818   9.827  -0.847  1.00 20.00    -0.197 NA
HETATM    9  O9  UNL     1     -31.871   7.755   3.305  1.00 20.00    -0.379 OA
ENDROOT
TORSDOF 0
ENDMDL
MODEL 5
REMARK VINA RESULT:       1.8      2.726      3.555
REMARK  0 active torsions:
REMARK  status: ('A' for Active; 'I' for Inactive)
ROOT
HETATM    1  C1  UNL     1     -32.214   8.903   0.917  1.00 20.00     0.066 C 
HETATM    2  C2  UNL     1     -34.291   6.033   1.714  1.00 20.00     0.034 C 
HETATM    3  C3  UNL     1     -33.302   6.117   0.552  1.00 20.00     0.036 C 
HETATM    4  C4  UNL     1     -32.959   7.727   3.005  1.00 20.00     0.053 C 
HETATM    5  C5  UNL     1     -31.928   7.831   1.872  1.00 20.00     0.124 C 
HETATM    6  C6  UNL     1     -33.383   6.260   2.920  1.00 20.00     0.123 C 
HETATM    7  C7  UNL     1     -31.985   6.421   1.270  1.00 20.00     0.139 C 
HETATM    8  N8  UNL     1     -32.440   9.754   0.161  1.00 20.00    -0.197 NA
HETATM    9  O9  UNL     1     -32.158   5.631   2.474  1.00 20.00    -0.379 OA
ENDROOT
TORSDOF 0
ENDMDL
MODEL 6
REMARK VINA RESULT:       1.9      1.746      2.583
REMARK  0 active torsions:
REMARK  status: ('A' for Active; 'I' for Inactive)
ROOT
HETATM    1  C1  UNL     1     -32.477   5.702   1.676  1.00 20.00     0.066 C 
HETATM    2  C2  UNL     1     -32.774   7.883   4.566  1.00 20.00     0.034 C 
HETATM    3  C3  UNL     1     -32.200   8.283   3.206  1.00 20.00     0.036 C 
HETATM    4  C4  UNL     1     -34.177   6.105   3.478  1.00 20.00     0.053 C 
HETATM    5  C5  UNL     1     -33.644   6.485   2.089  1.00 20.00     0.124 C 
HETATM    6  C6  UNL     1     -34.192   7.455   4.196  1.00 20.00     0.123 C 
HETATM    7  C7  UNL     1     -33.366   7.983   2.262  1.00 20.00     0.139 C 
HETATM    8  N8  UNL     1     -31.553   5.082   1.349  1.00 20.00    -0.197 NA
HETATM    9  O9  UNL     1     -34.486   8.359   3.105  1.00 20.00    -0.379 OA
ENDROOT
TORSDOF 0
ENDMDL
MODEL 7
REMARK VINA RESULT:       2.0      2.643      3.461
REMARK  0 active torsions:
REMARK  status: ('A' for Active; 'I' for Inactive)
ROOT
HETATM    1  C1  UNL     1     -32.309   8.518   1.449  1.00 20.00     0.066 C 
HETATM    2  C2  UNL     1     -35.194   6.761   2.784  1.00 20.00     0.034 C 
HETATM    3  C3  UNL     1     -34.387   6.338   1.556  1.00 20.00     0.036 C 
HETATM    4  C4  UNL     1     -33.187   7.942   3.728  1.00 20.00     0.053 C 
HETATM    5  C5  UNL     1     -32.331   7.524   2.524  1.00 20.00     0.124 C 
HETATM    6  C6  UNL     1     -34.132   6.748   3.880  1.00 20.00     0.123 C 
HETATM    7  C7  UNL     1     -32.977   6.189   2.132  1.00 20.00     0.139 C 
HETATM    8  N8  UNL     1     -32.291   9.306   0.598  1.00 20.00    -0.197 NA
HETATM    9  O9  UNL     1     -33.288   5.656   3.445  1.00 20.00    -0.379 OA
ENDROOT
TORSDOF 0
ENDMDL
MODEL 8
REMARK VINA RESULT:       2.2      2.012      3.024
REMARK  0 active torsions:
REMARK  status: ('A' for Active; 'I' for Inactive)
ROOT
HETATM    1  C1  UNL     1     -32.651   5.681   1.812  1.00 20.00     0.066 C 
HETATM    2  C2  UNL     1     -33.933   7.339   4.778  1.00 20.00     0.034 C 
HETATM    3  C3  UNL     1     -33.841   7.960   3.384  1.00 20.00     0.036 C 
HETATM    4  C4  UNL     1     -34.079   5.040   3.774  1.00 20.00     0.053 C 
HETATM    5  C5  UNL     1     -34.010   5.619   2.353  1.00 20.00     0.124 C 
HETATM    6  C6  UNL     1     -34.836   6.134   4.529  1.00 20.00     0.123 C 
HETATM    7  C7  UNL     1     -34.674   6.989   2.543  1.00 20.00     0.139 C 
HETATM    8  N8  UNL     1     -31.575   5.729   1.382  1.00 20.00    -0.197 NA
HETATM    9  O9  UNL     1     -35.712   6.645   3.497  1.00 20.00    -0.379 OA
ENDROOT
TORSDOF 0
ENDMDL
MODEL 9
REMARK VINA RESULT:       2.3      1.710      2.341
REMARK  0 active torsions:
REMARK  status: ('A' for Active; 'I' for Inactive)
ROOT
HETATM    1  C1  UNL     1     -33.259   7.905   4.065  1.00 20.00     0.066 C 
HETATM    2  C2  UNL     1     -31.795   5.208   2.122  1.00 20.00     0.034 C 
HETATM    3  C3  UNL     1     -33.120   5.137   2.882  1.00 20.00     0.036 C 
HETATM    4  C4  UNL     1     -32.035   7.698   1.884  1.00 20.00     0.053 C 
HETATM    5  C5  UNL     1     -33.380   7.673   2.625  1.00 20.00     0.124 C 
HETATM    6  C6  UNL     1     -32.049   6.356   1.149  1.00 20.00     0.123 C 
HETATM    7  C7  UNL     1     -33.914   6.284   2.254  1.00 20.00     0.139 C 
HETATM    8  N8  UNL     1     -33.164   8.089   5.207  1.00 20.00    -0.197 NA
HETATM    9  O9  UNL     1     -33.461   6.190   0.879  1.00 20.00    -0.379 OA
ENDROOT
TORSDOF 0
ENDMDL
