MODEL 1
REMARK VINA RESULT:      -1.1      0.000      0.000
REMARK  2 active torsions:
REMARK  status: ('A' for Active; 'I' for Inactive)
REMARK    1  A    between atoms: C5_5  and  O8_8 
REMARK    2  A    between atoms: C6_6  and  O8_8 
ROOT
HETATM    1  C1  UNL     1     -32.386   9.014   0.881  1.00 20.00     0.097 C 
HETATM    2  C3  UNL     1     -32.111   6.629   1.430  1.00 20.00     0.062 C 
HETATM    3  C4  UNL     1     -31.323   8.414   3.020  1.00 20.00     0.062 C 
HETATM    4  C6  UNL     1     -32.374   8.031   1.979  1.00 20.00     0.141 C 
HETATM    5  N7  UNL     1     -32.395   9.789   0.018  1.00 20.00    -0.194 NA
ENDROOT
BRANCH   4   6
HETATM    6  O8  UNL     1     -33.656   8.038   2.607  1.00 20.00    -0.367 OA
BRANCH   6   7
HETATM    7  C5  UNL     1     -33.656   7.247   3.786  1.00 20.00     0.165 C 
HETATM    8  C2  UNL     1     -34.976   6.513   3.886  1.00 20.00     0.033 C 
ENDBRANCH   6   7
ENDBRANCH   4   6
TORSDOF 2
ENDMDL
MODEL 2
REMARK VINA RESULT:      -1.0      2.874      4.254
REMARK  2 active torsions:
REMARK  status: ('A' for Active; 'I' for Inactive)
REMARK    1  A    between atoms: C5_5  and  O8_8 
REMARK    2  A    between atoms: C6_6  and  O8_8 
ROOT
HETATM    1  C1  UNL     1     -34.249   5.050   4.041  1.00 20.00     0.097 C 
HETATM    2  C3  UNL     1     -35.834   6.730   3.187  1.00 20.00     0.062 C 
HETATM    3  C4  UNL     1     -33.932   7.404   4.692  1.00 20.00     0.062 C 
HETATM    4  C6  UNL     1     -34.387   6.445   3.591  1.00 20.00     0.141 C 
HETATM    5  N7  UNL     1     -34.138   3.950   4.396  1.00 20.00    -0.194 NA
ENDROOT
BRANCH   4   6
HETATM    6  O8  UNL     1     -33.553   6.640   2.450  1.00 20.00    -0.367 OA
BRANCH   6   7
HETATM    7  C5  UNL     1     -32.650   7.716   2.648  1.00 20.00     0.165 C 
HETATM    8  C2  UNL     1     -31.872   7.948   1.370  1.00 20.00     0.033 C 
ENDBRANCH   6   7
ENDBRANCH   4   6
TORSDOF 2
ENDMDL
MODEL 3
REMARK VINA RESULT:      -0.9      2.637      3.706
REMARK  2 active torsions:
REMARK  status: ('A' for Active; 'I' for Inactive)
REMARK    1  A    between atoms: C5_5  and  O8_8 
REMARK    2  A    between atoms: C6_6  and  O8_8 
ROOT
HETATM    1  C1  UNL     1     -33.460   6.241   2.430  1.00 20.00     0.097 C 
HETATM    2  C3  UNL     1     -33.863   7.731   4.349  1.00 20.00     0.062 C 
HETATM    3  C4  UNL     1     -35.717   6.310   3.412  1.00 20.00     0.062 C 
HETATM    4  C6  UNL     1     -34.216   6.400   3.684  1.00 20.00     0.141 C 
HETATM    5  N7  UNL     1     -32.865   6.113   1.442  1.00 20.00    -0.194 NA
ENDROOT
BRANCH   4   6
HETATM    6  O8  UNL     1     -33.852   5.342   4.571  1.00 20.00    -0.367 OA
BRANCH   6   7
HETATM    7  C5  UNL     1     -34.096   4.072   3.986  1.00 20.00     0.165 C 
HETATM    8  C2  UNL     1     -33.262   3.031   4.704  1.00 20.00     0.033 C 
ENDBRANCH   6   7
ENDBRANCH   4   6
TORSDOF 2
ENDMDL
MODEL 4
REMARK VINA RESULT:      -0.9      2.043      3.614
REMARK  2 active torsions:
REMARK  status: ('A' for Active; 'I' for Inactive)
REMARK    1  A    between atoms: C5_5  and  O8_8 
REMARK    2  A    between atoms: C6_6  and  O8_8 
ROOT
HETATM    1  C1  UNL     1     -33.505   7.412   3.171  1.00 20.00     0.097 C 
HETATM    2  C3  UNL     1     -31.227   8.208   2.678  1.00 20.00     0.062 C 
HETATM    3  C4  UNL     1     -32.149   6.160   1.541  1.00 20.00     0.062 C 
HETATM    4  C6  UNL     1     -32.482   7.535   2.119  1.00 20.00     0.141 C 
HETATM    5  N7  UNL     1     -34.313   7.314   3.999  1.00 20.00    -0.194 NA
ENDROOT
BRANCH   4   6
HETATM    6  O8  UNL     1     -33.003   8.352   1.072  1.00 20.00    -0.367 OA
BRANCH   6   7
HETATM    7  C5  UNL     1     -32.073   9.353   0.687  1.00 20.00     0.165 C 
HETATM    8  C2  UNL     1     -32.685  10.200  -0.409  1.00 20.00     0.033 C 
ENDBRANCH   6   7
ENDBRANCH   4   6
TORSDOF 2
ENDMDL
MODEL 5
REMARK VINA RESULT:      -0.7      1.595      2.213
REMARK  2 active torsions:
REMARK  status: ('A' for Active; 'I' for Inactive)
REMARK    1  A    between atoms: C5_5  and  O8_8 
REMARK    2  A    between atoms: C6_6  and  O8_8 
ROOT
HETATM    1  C1  UNL     1     -32.205   6.581   1.609  1.00 20.00     0.097 C 
HETATM    2  C3  UNL     1     -31.357   8.369   3.074  1.00 20.00     0.062 C 
HETATM    3  C4  UNL     1     -32.361   8.912   0.831  1.00 20.00     0.062 C 
HETATM    4  C6  UNL     1     -32.409   7.975   2.037  1.00 20.00     0.141 C 
HETATM    5  N7  UNL     1     -32.046   5.483   1.270  1.00 20.00    -0.194 NA
ENDROOT
BRANCH   4   6
HETATM    6  O8  UNL     1     -33.698   8.081   2.640  1.00 20.00    -0.367 OA
BRANCH   6   7
HETATM    7  C5  UNL     1     -33.751   7.376   3.872  1.00 20.00     0.165 C 
HETATM    8  C2  UNL     1     -35.003   6.525   3.899  1.00 20.00     0.033 C 
ENDBRANCH   6   7
ENDBRANCH   4   6
TORSDOF 2
ENDMDL
MODEL 6
REMARK VINA RESULT:      -0.6      1.624      2.225
REMARK  2 active torsions:
REMARK  status: ('A' for Active; 'I' for Inactive)
REMARK    1  A    between atoms: C5_5  and  O8_8 
REMARK    2  A    between atoms: C6_6  and  O8_8 
ROOT
HETATM    1  C1  UNL     1     -32.275   7.306   1.654  1.00 20.00     0.097 C 
HETATM    2  C3  UNL     1     -33.784   5.775   0.454  1.00 20.00     0.062 C 
HETATM    3  C4  UNL     1     -31.579   4.963   1.355  1.00 20.00     0.062 C 
HETATM    4  C6  UNL     1     -32.754   5.916   1.575  1.00 20.00     0.141 C 
HETATM    5  N7  UNL     1     -31.896   8.402   1.718  1.00 20.00    -0.194 NA
ENDROOT
BRANCH   4   6
HETATM    6  O8  UNL     1     -33.383   5.581   2.811  1.00 20.00    -0.367 OA
BRANCH   6   7
HETATM    7  C5  UNL     1     -34.058   6.700   3.366  1.00 20.00     0.165 C 
HETATM    8  C2  UNL     1     -35.325   6.223   4.045  1.00 20.00     0.033 C 
ENDBRANCH   6   7
ENDBRANCH   4   6
TORSDOF 2
ENDMDL
MODEL 7
REMARK VINA RESULT:      -0.5      2.996      3.898
REMARK  2 active torsions:
REMARK  status: ('A' for Active; 'I' for Inactive)
REMARK    1  A    between atoms: C5_5  and  O8_8 
REMARK    2  A    between atoms: C6_6  and  O8_8 
ROOT
HETATM    1  C1  UNL     1     -33.817   7.411   4.376  1.00 20.00     0.097 C 
HETATM    2  C3  UNL     1     -35.852   6.606   3.246  1.00 20.00     0.062 C 
HETATM    3  C4  UNL     1     -33.570   6.002   2.372  1.00 20.00     0.062 C 
HETATM    4  C6  UNL     1     -34.403   6.291   3.621  1.00 20.00     0.141 C 
HETATM    5  N7  UNL     1     -33.354   8.293   4.972  1.00 20.00    -0.194 NA
ENDROOT
BRANCH   4   6
HETATM    6  O8  UNL     1     -34.394   5.130   4.449  1.00 20.00    -0.367 OA
BRANCH   6   7
HETATM    7  C5  UNL     1     -33.844   4.013   3.767  1.00 20.00     0.165 C 
HETATM    8  C2  UNL     1     -33.270   3.048   4.783  1.00 20.00     0.033 C 
ENDBRANCH   6   7
ENDBRANCH   4   6
TORSDOF 2
ENDMDL
MODEL 8
REMARK VINA RESULT:      -0.5      1.884      3.405
REMARK  2 active torsions:
REMARK  status: ('A' for Active; 'I' for Inactive)
REMARK    1  A    between atoms: C5_5  and  O8_8 
REMARK    2  A    between atoms: C6_6  and  O8_8 
ROOT
HETATM    1  C1  UNL     1     -32.426   6.321   1.699  1.00 20.00     0.097 C 
HETATM    2  C3  UNL     1     -33.619   7.584   3.445  1.00 20.00     0.062 C 
HETATM    3  C4  UNL     1     -31.269   8.202   2.789  1.00 20.00     0.062 C 
HETATM    4  C6  UNL     1     -32.609   7.654   2.299  1.00 20.00     0.141 C 
HETATM    5  N7  UNL     1     -32.281   5.272   1.225  1.00 20.00    -0.194 NA
ENDROOT
BRANCH   4   6
HETATM    6  O8  UNL     1     -33.120   8.535   1.300  1.00 20.00    -0.367 OA
BRANCH   6   7
HETATM    7  C5  UNL     1     -32.083   9.307   0.714  1.00 20.00     0.165 C 
HETATM    8  C2  UNL     1     -32.667  10.153  -0.398  1.00 20.00     0.033 C 
ENDBRANCH   6   7
ENDBRANCH   4   6
TORSDOF 2
ENDMDL
MODEL 9
REMARK VINA RESULT:      -0.1      1.323      2.460
REMARK  2 active torsions:
REMARK  status: ('A' for Active; 'I' for Inactive)
REMARK    1  A    between atoms: C5_5  and  O8_8 
REMARK    2  A    between atoms: C6_6  and  O8_8 
ROOT
HETATM    1  C1  UNL     1     -32.384   9.033   0.971  1.00 20.00     0.097 C 
HETATM    2  C3  UNL     1     -31.137   8.578   3.045  1.00 20.00     0.062 C 
HETATM    3  C4  UNL     1     -33.506   7.774   2.765  1.00 20.00     0.062 C 
HETATM    4  C6  UNL     1     -32.182   8.059   2.057  1.00 20.00     0.141 C 
HETATM    5  N7  UNL     1     -32.544   9.799   0.114  1.00 20.00    -0.194 NA
ENDROOT
BRANCH   4   6
HETATM    6  O8  UNL     1     -31.701   6.840   1.490  1.00 20.00    -0.367 OA
BRANCH   6   7
HETATM    7  C5  UNL     1     -32.688   5.822   1.545  1.00 20.00     0.165 C 
HETATM    8  C2  UNL     1     -32.277   4.688   0.629  1.00 20.00     0.033 C 
ENDBRANCH   6   7
ENDBRANCH   4   6
TORSDOF 2
ENDMDL
