MODEL 1
REMARK VINA RESULT:       0.9      0.000      0.000
REMARK  1 active torsions:
REMARK  status: ('A' for Active; 'I' for Inactive)
REMARK    1  A    between atoms: C5_5  and  C10_10 
ROOT
HETATM    1  C6  UNL     1     -31.480   8.811   0.367  1.00 20.00     0.005 C 
HETATM    2  C7  UNL     1     -32.743   9.361   1.046  1.00 20.00     0.005 C 
HETATM    3  C8  UNL     1     -31.953   6.505   1.242  1.00 20.00     0.014 C 
HETATM    4  C9  UNL     1     -31.409   8.303   2.692  1.00 20.00     0.010 C 
HETATM    5  C10 UNL     1     -33.284   7.044   1.821  1.00 20.00     0.023 C 
HETATM    6  C11 UNL     1     -31.010   7.717   1.340  1.00 20.00    -0.013 C 
HETATM    7  C12 UNL     1     -32.881   8.465   2.295  1.00 20.00    -0.006 C 
ENDROOT
BRANCH   5   8
HETATM    8  C5  UNL     1     -33.877   6.110   2.863  1.00 20.00    -0.051 A 
HETATM    9  C1  UNL     1     -34.963   6.518   3.628  1.00 20.00     0.026 A 
HETATM   10  C3  UNL     1     -35.468   5.631   4.564  1.00 20.00     0.116 A 
HETATM   11  N13 UNL     1     -34.969   4.393   4.779  1.00 20.00    -0.273 NA
HETATM   12  C4  UNL     1     -33.912   4.031   4.016  1.00 20.00     0.116 A 
HETATM   13  C2  UNL     1     -33.336   4.844   3.054  1.00 20.00     0.026 A 
ENDBRANCH   5   8
TORSDOF 1
ENDMDL
MODEL 2
REMARK VINA RESULT:       0.9      0.024      1.305
REMARK  1 active torsions:
REMARK  status: ('A' for Active; 'I' for Inactive)
REMARK    1  A    between atoms: C5_5  and  C10_10 
ROOT
HETATM    1  C6  UNL     1     -31.497   8.793   0.371  1.00 20.00     0.005 C 
HETATM    2  C7  UNL     1     -32.756   9.345   1.056  1.00 20.00     0.005 C 
HETATM    3  C8  UNL     1     -31.969   6.488   1.250  1.00 20.00     0.014 C 
HETATM    4  C9  UNL     1     -31.416   8.286   2.696  1.00 20.00     0.010 C 
HETATM    5  C10 UNL     1     -33.296   7.029   1.835  1.00 20.00     0.023 C 
HETATM    6  C11 UNL     1     -31.024   7.699   1.343  1.00 20.00    -0.013 C 
HETATM    7  C12 UNL     1     -32.889   8.449   2.307  1.00 20.00    -0.006 C 
ENDROOT
BRANCH   5   8
HETATM    8  C5  UNL     1     -33.886   6.096   2.879  1.00 20.00    -0.051 A 
HETATM    9  C1  UNL     1     -33.340   4.832   3.074  1.00 20.00     0.026 A 
HETATM   10  C3  UNL     1     -33.912   4.019   4.039  1.00 20.00     0.116 A 
HETATM   11  N13 UNL     1     -34.970   4.379   4.801  1.00 20.00    -0.273 NA
HETATM   12  C4  UNL     1     -35.474   5.615   4.582  1.00 20.00     0.116 A 
HETATM   13  C2  UNL     1     -34.973   6.502   3.644  1.00 20.00     0.026 A 
ENDBRANCH   5   8
TORSDOF 1
ENDMDL
MODEL 3
REMARK VINA RESULT:       3.2      1.266      2.491
REMARK  1 active torsions:
REMARK  status: ('A' for Active; 'I' for Inactive)
REMARK    1  A    between atoms: C5_5  and  C10_10 
ROOT
HETATM    1  C6  UNL     1     -31.392  10.809  -0.242  1.00 20.00     0.005 C 
HETATM    2  C7  UNL     1     -30.753   9.419  -0.370  1.00 20.00     0.005 C 
HETATM    3  C8  UNL     1     -32.854  10.019   1.641  1.00 20.00     0.014 C 
HETATM    4  C9  UNL     1     -33.101   9.183  -0.566  1.00 20.00     0.010 C 
HETATM    5  C10 UNL     1     -32.119   8.658   1.583  1.00 20.00     0.023 C 
HETATM    6  C11 UNL     1     -32.838  10.490   0.176  1.00 20.00    -0.013 C 
HETATM    7  C12 UNL     1     -31.895   8.473   0.060  1.00 20.00    -0.006 C 
ENDROOT
BRANCH   5   8
HETATM    8  C5  UNL     1     -32.884   7.561   2.307  1.00 20.00    -0.051 A 
HETATM    9  C1  UNL     1     -33.699   7.876   3.388  1.00 20.00     0.026 A 
HETATM   10  C3  UNL     1     -34.375   6.842   4.014  1.00 20.00     0.116 A 
HETATM   11  N13 UNL     1     -34.289   5.545   3.639  1.00 20.00    -0.273 NA
HETATM   12  C4  UNL     1     -33.486   5.278   2.584  1.00 20.00     0.116 A 
HETATM   13  C2  UNL     1     -32.769   6.240   1.891  1.00 20.00     0.026 A 
ENDBRANCH   5   8
TORSDOF 1
ENDMDL
MODEL 4
REMARK VINA RESULT:       3.2      1.268      2.779
REMARK  1 active torsions:
REMARK  status: ('A' for Active; 'I' for Inactive)
REMARK    1  A    between atoms: C5_5  and  C10_10 
ROOT
HETATM    1  C6  UNL     1     -31.389  10.814  -0.242  1.00 20.00     0.005 C 
HETATM    2  C7  UNL     1     -30.752   9.423  -0.372  1.00 20.00     0.005 C 
HETATM    3  C8  UNL     1     -32.848  10.024   1.644  1.00 20.00     0.014 C 
HETATM    4  C9  UNL     1     -33.101   9.190  -0.563  1.00 20.00     0.010 C 
HETATM    5  C10 UNL     1     -32.115   8.662   1.583  1.00 20.00     0.023 C 
HETATM    6  C11 UNL     1     -32.834  10.496   0.180  1.00 20.00    -0.013 C 
HETATM    7  C12 UNL     1     -31.895   8.478   0.059  1.00 20.00    -0.006 C 
ENDROOT
BRANCH   5   8
HETATM    8  C5  UNL     1     -32.879   7.566   2.308  1.00 20.00    -0.051 A 
HETATM    9  C1  UNL     1     -32.770   6.245   1.888  1.00 20.00     0.026 A 
HETATM   10  C3  UNL     1     -33.486   5.282   2.582  1.00 20.00     0.116 A 
HETATM   11  N13 UNL     1     -34.284   5.550   3.640  1.00 20.00    -0.273 NA
HETATM   12  C4  UNL     1     -34.365   6.846   4.018  1.00 20.00     0.116 A 
HETATM   13  C2  UNL     1     -33.690   7.880   3.392  1.00 20.00     0.026 A 
ENDBRANCH   5   8
TORSDOF 1
ENDMDL
MODEL 5
REMARK VINA RESULT:       3.7      2.622      5.110
REMARK  1 active torsions:
REMARK  status: ('A' for Active; 'I' for Inactive)
REMARK    1  A    between atoms: C5_5  and  C10_10 
ROOT
HETATM    1  C6  UNL     1     -34.088   5.674   4.409  1.00 20.00     0.005 C 
HETATM    2  C7  UNL     1     -33.972   7.148   4.824  1.00 20.00     0.005 C 
HETATM    3  C8  UNL     1     -32.979   6.156   2.207  1.00 20.00     0.014 C 
HETATM    4  C9  UNL     1     -35.112   7.043   2.752  1.00 20.00     0.010 C 
HETATM    5  C10 UNL     1     -32.760   7.612   2.685  1.00 20.00     0.023 C 
HETATM    6  C11 UNL     1     -34.300   5.757   2.888  1.00 20.00    -0.013 C 
HETATM    7  C12 UNL     1     -34.064   7.895   3.476  1.00 20.00    -0.006 C 
ENDROOT
BRANCH   5   8
HETATM    8  C5  UNL     1     -32.432   8.550   1.535  1.00 20.00    -0.051 A 
HETATM    9  C1  UNL     1     -31.536   8.157   0.548  1.00 20.00     0.026 A 
HETATM   10  C3  UNL     1     -31.271   9.047  -0.480  1.00 20.00     0.116 A 
HETATM   11  N13 UNL     1     -31.829  10.275  -0.580  1.00 20.00    -0.273 NA
HETATM   12  C4  UNL     1     -32.695  10.622   0.400  1.00 20.00     0.116 A 
HETATM   13  C2  UNL     1     -33.027   9.805   1.467  1.00 20.00     0.026 A 
ENDBRANCH   5   8
TORSDOF 1
ENDMDL
MODEL 6
REMARK VINA RESULT:       3.7      2.620      4.940
REMARK  1 active torsions:
REMARK  status: ('A' for Active; 'I' for Inactive)
REMARK    1  A    between atoms: C5_5  and  C10_10 
ROOT
HETATM    1  C6  UNL     1     -34.085   5.670   4.417  1.00 20.00     0.005 C 
HETATM    2  C7  UNL     1     -33.968   7.145   4.829  1.00 20.00     0.005 C 
HETATM    3  C8  UNL     1     -32.977   6.146   2.213  1.00 20.00     0.014 C 
HETATM    4  C9  UNL     1     -35.109   7.035   2.757  1.00 20.00     0.010 C 
HETATM    5  C10 UNL     1     -32.758   7.603   2.687  1.00 20.00     0.023 C 
HETATM    6  C11 UNL     1     -34.298   5.749   2.896  1.00 20.00    -0.013 C 
HETATM    7  C12 UNL     1     -34.061   7.888   3.479  1.00 20.00    -0.006 C 
ENDROOT
BRANCH   5   8
HETATM    8  C5  UNL     1     -32.431   8.538   1.535  1.00 20.00    -0.051 A 
HETATM    9  C1  UNL     1     -33.020   9.796   1.468  1.00 20.00     0.026 A 
HETATM   10  C3  UNL     1     -32.689  10.611   0.398  1.00 20.00     0.116 A 
HETATM   11  N13 UNL     1     -31.829  10.259  -0.584  1.00 20.00    -0.273 NA
HETATM   12  C4  UNL     1     -31.276   9.029  -0.484  1.00 20.00     0.116 A 
HETATM   13  C2  UNL     1     -31.541   8.140   0.544  1.00 20.00     0.026 A 
ENDBRANCH   5   8
TORSDOF 1
ENDMDL
