MODEL 1
REMARK VINA RESULT:      -1.9      0.000      0.000
REMARK  2 active torsions:
REMARK  status: ('A' for Active; 'I' for Inactive)
REMARK    1  A    between atoms: C2_2  and  C5_5 
REMARK    2  A    between atoms: C3_3  and  C6_6 
ROOT
HETATM    1  C1  UNL     1     -32.709   6.477   1.310  1.00 20.00     0.204 C 
HETATM    2  C2  UNL     1     -31.894   7.708   1.630  1.00 20.00     0.162 C 
HETATM    3  C3  UNL     1     -33.133   7.148   3.433  1.00 20.00     0.260 C 
HETATM    4  O7  UNL     1     -33.074   5.982   2.599  1.00 20.00    -0.359 OA
HETATM    5  O8  UNL     1     -32.608   8.281   2.728  1.00 20.00    -0.353 OA
ENDROOT
BRANCH   2   6
HETATM    6  C5  UNL     1     -31.794   8.693   0.486  1.00 20.00     0.148 C 
HETATM    7 CL9  UNL     1     -32.742  10.155   0.837  1.00 20.00    -0.128 Cl
ENDBRANCH   2   6
BRANCH   3   8
HETATM    8  C6  UNL     1     -34.569   7.426   3.832  1.00 20.00     0.056 C 
HETATM    9  C4  UNL     1     -35.342   6.164   4.062  1.00 20.00     0.010 C 
ENDBRANCH   3   8
TORSDOF 2
ENDMDL
MODEL 2
REMARK VINA RESULT:      -1.6      1.714      2.532
REMARK  2 active torsions:
REMARK  status: ('A' for Active; 'I' for Inactive)
REMARK    1  A    between atoms: C2_2  and  C5_5 
REMARK    2  A    between atoms: C3_3  and  C6_6 
ROOT
HETATM    1  C1  UNL     1     -33.876   7.747   3.937  1.00 20.00     0.204 C 
HETATM    2  C2  UNL     1     -33.470   7.253   2.569  1.00 20.00     0.162 C 
HETATM    3  C3  UNL     1     -34.712   5.668   3.591  1.00 20.00     0.260 C 
HETATM    4  O7  UNL     1     -34.975   6.900   4.278  1.00 20.00    -0.359 OA
HETATM    5  O8  UNL     1     -33.608   5.836   2.691  1.00 20.00    -0.353 OA
ENDROOT
BRANCH   2   6
HETATM    6  C5  UNL     1     -32.056   7.621   2.177  1.00 20.00     0.148 C 
HETATM    7 CL9  UNL     1     -32.063   8.870   0.914  1.00 20.00    -0.128 Cl
ENDBRANCH   2   6
BRANCH   3   8
HETATM    8  C6  UNL     1     -34.382   4.579   4.592  1.00 20.00     0.056 C 
HETATM    9  C4  UNL     1     -33.542   3.496   3.989  1.00 20.00     0.010 C 
ENDBRANCH   3   8
TORSDOF 2
ENDMDL
MODEL 3
REMARK VINA RESULT:      -1.6      2.122      2.774
REMARK  2 active torsions:
REMARK  status: ('A' for Active; 'I' for Inactive)
REMARK    1  A    between atoms: C2_2  and  C5_5 
REMARK    2  A    between atoms: C3_3  and  C6_6 
ROOT
HETATM    1  C1  UNL     1     -33.216   7.795   4.026  1.00 20.00     0.204 C 
HETATM    2  C2  UNL     1     -33.317   7.423   2.566  1.00 20.00     0.162 C 
HETATM    3  C3  UNL     1     -34.950   6.369   3.715  1.00 20.00     0.260 C 
HETATM    4  O7  UNL     1     -34.504   7.455   4.541  1.00 20.00    -0.359 OA
HETATM    5  O8  UNL     1     -34.061   6.203   2.603  1.00 20.00    -0.353 OA
ENDROOT
BRANCH   2   6
HETATM    6  C5  UNL     1     -31.979   7.212   1.891  1.00 20.00     0.148 C 
HETATM    7 CL9  UNL     1     -31.863   5.563   1.239  1.00 20.00    -0.128 Cl
ENDBRANCH   2   6
BRANCH   3   8
HETATM    8  C6  UNL     1     -34.988   5.088   4.524  1.00 20.00     0.056 C 
HETATM    9  C4  UNL     1     -33.968   4.097   4.056  1.00 20.00     0.010 C 
ENDBRANCH   3   8
TORSDOF 2
ENDMDL
MODEL 4
REMARK VINA RESULT:      -1.5      2.444      3.372
REMARK  2 active torsions:
REMARK  status: ('A' for Active; 'I' for Inactive)
REMARK    1  A    between atoms: C2_2  and  C5_5 
REMARK    2  A    between atoms: C3_3  and  C6_6 
ROOT
HETATM    1  C1  UNL     1     -34.996   6.515   4.221  1.00 20.00     0.204 C 
HETATM    2  C2  UNL     1     -34.019   6.530   3.070  1.00 20.00     0.162 C 
HETATM    3  C3  UNL     1     -34.260   4.411   3.811  1.00 20.00     0.260 C 
HETATM    4  O7  UNL     1     -35.393   5.145   4.295  1.00 20.00    -0.359 OA
HETATM    5  O8  UNL     1     -33.293   5.313   3.257  1.00 20.00    -0.353 OA
ENDROOT
BRANCH   2   6
HETATM    6  C5  UNL     1     -33.082   7.718   3.075  1.00 20.00     0.148 C 
HETATM    7 CL9  UNL     1     -32.024   7.683   1.647  1.00 20.00    -0.128 Cl
ENDBRANCH   2   6
BRANCH   3   8
HETATM    8  C6  UNL     1     -33.626   3.631   4.946  1.00 20.00     0.056 C 
HETATM    9  C4  UNL     1     -33.103   2.303   4.493  1.00 20.00     0.010 C 
ENDBRANCH   3   8
TORSDOF 2
ENDMDL
MODEL 5
REMARK VINA RESULT:      -1.0      2.180      3.905
REMARK  2 active torsions:
REMARK  status: ('A' for Active; 'I' for Inactive)
REMARK    1  A    between atoms: C2_2  and  C5_5 
REMARK    2  A    between atoms: C3_3  and  C6_6 
ROOT
HETATM    1  C1  UNL     1     -33.211   7.868   3.379  1.00 20.00     0.204 C 
HETATM    2  C2  UNL     1     -32.962   6.448   2.929  1.00 20.00     0.162 C 
HETATM    3  C3  UNL     1     -31.887   7.867   1.539  1.00 20.00     0.260 C 
HETATM    4  O7  UNL     1     -32.167   8.603   2.739  1.00 20.00    -0.359 OA
HETATM    5  O8  UNL     1     -32.583   6.614   1.561  1.00 20.00    -0.353 OA
ENDROOT
BRANCH   2   6
HETATM    6  C5  UNL     1     -34.170   5.546   3.044  1.00 20.00     0.148 C 
HETATM    7 CL9  UNL     1     -35.430   6.313   4.035  1.00 20.00    -0.128 Cl
ENDBRANCH   2   6
BRANCH   3   8
HETATM    8  C6  UNL     1     -32.328   8.667   0.329  1.00 20.00     0.056 C 
HETATM    9  C4  UNL     1     -32.463  10.126   0.638  1.00 20.00     0.010 C 
ENDBRANCH   3   8
TORSDOF 2
ENDMDL
MODEL 6
REMARK VINA RESULT:      -0.5      3.091      4.318
REMARK  2 active torsions:
REMARK  status: ('A' for Active; 'I' for Inactive)
REMARK    1  A    between atoms: C2_2  and  C5_5 
REMARK    2  A    between atoms: C3_3  and  C6_6 
ROOT
HETATM    1  C1  UNL     1     -32.711   4.659   2.391  1.00 20.00     0.204 C 
HETATM    2  C2  UNL     1     -34.000   5.086   3.051  1.00 20.00     0.162 C 
HETATM    3  C3  UNL     1     -33.162   6.819   1.872  1.00 20.00     0.260 C 
HETATM    4  O7  UNL     1     -32.531   5.635   1.363  1.00 20.00    -0.359 OA
HETATM    5  O8  UNL     1     -33.889   6.511   3.069  1.00 20.00    -0.353 OA
ENDROOT
BRANCH   2   6
HETATM    6  C5  UNL     1     -34.180   4.548   4.454  1.00 20.00     0.148 C 
HETATM    7 CL9  UNL     1     -33.287   3.025   4.657  1.00 20.00    -0.128 Cl
ENDBRANCH   2   6
BRANCH   3   8
HETATM    8  C6  UNL     1     -32.114   7.871   2.177  1.00 20.00     0.056 C 
HETATM    9  C4  UNL     1     -32.026   8.906   1.098  1.00 20.00     0.010 C 
ENDBRANCH   3   8
TORSDOF 2
ENDMDL
MODEL 7
REMARK VINA RESULT:      -0.3      3.103      4.447
REMARK  2 active torsions:
REMARK  status: ('A' for Active; 'I' for Inactive)
REMARK    1  A    between atoms: C2_2  and  C5_5 
REMARK    2  A    between atoms: C3_3  and  C6_6 
ROOT
HETATM    1  C1  UNL     1     -35.259   6.233   3.933  1.00 20.00     0.204 C 
HETATM    2  C2  UNL     1     -34.047   5.390   4.251  1.00 20.00     0.162 C 
HETATM    3  C3  UNL     1     -33.370   7.414   3.512  1.00 20.00     0.260 C 
HETATM    4  O7  UNL     1     -34.738   7.563   3.919  1.00 20.00    -0.359 OA
HETATM    5  O8  UNL     1     -33.014   6.025   3.494  1.00 20.00    -0.353 OA
ENDROOT
BRANCH   2   6
HETATM    6  C5  UNL     1     -34.186   3.938   3.852  1.00 20.00     0.148 C 
HETATM    7 CL9  UNL     1     -33.122   2.914   4.840  1.00 20.00    -0.128 Cl
ENDBRANCH   2   6
BRANCH   3   8
HETATM    8  C6  UNL     1     -33.176   8.001   2.128  1.00 20.00     0.056 C 
HETATM    9  C4  UNL     1     -31.783   7.791   1.619  1.00 20.00     0.010 C 
ENDBRANCH   3   8
TORSDOF 2
ENDMDL
MODEL 8
REMARK VINA RESULT:      -0.1      2.360      3.834
REMARK  2 active torsions:
REMARK  status: ('A' for Active; 'I' for Inactive)
REMARK    1  A    between atoms: C2_2  and  C5_5 
REMARK    2  A    between atoms: C3_3  and  C6_6 
ROOT
HETATM    1  C1  UNL     1     -32.733   8.056   2.238  1.00 20.00     0.204 C 
HETATM    2  C2  UNL     1     -33.138   7.193   3.410  1.00 20.00     0.162 C 
HETATM    3  C3  UNL     1     -32.098   5.912   1.868  1.00 20.00     0.260 C 
HETATM    4  O7  UNL     1     -31.737   7.271   1.581  1.00 20.00    -0.359 OA
HETATM    5  O8  UNL     1     -33.148   5.880   2.845  1.00 20.00    -0.353 OA
ENDROOT
BRANCH   2   6
HETATM    6  C5  UNL     1     -34.493   7.536   3.987  1.00 20.00     0.148 C 
HETATM    7 CL9  UNL     1     -35.514   6.086   4.085  1.00 20.00    -0.128 Cl
ENDBRANCH   2   6
BRANCH   3   8
HETATM    8  C6  UNL     1     -32.570   5.226   0.601  1.00 20.00     0.056 C 
HETATM    9  C4  UNL     1     -31.595   4.194   0.123  1.00 20.00     0.010 C 
ENDBRANCH   3   8
TORSDOF 2
ENDMDL
MODEL 9
REMARK VINA RESULT:      -0.1      2.461      3.691
REMARK  2 active torsions:
REMARK  status: ('A' for Active; 'I' for Inactive)
REMARK    1  A    between atoms: C2_2  and  C5_5 
REMARK    2  A    between atoms: C3_3  and  C6_6 
ROOT
HETATM    1  C1  UNL     1     -33.499   6.645   2.630  1.00 20.00     0.204 C 
HETATM    2  C2  UNL     1     -32.366   6.096   1.796  1.00 20.00     0.162 C 
HETATM    3  C3  UNL     1     -32.077   8.319   2.069  1.00 20.00     0.260 C 
HETATM    4  O7  UNL     1     -32.988   7.896   3.094  1.00 20.00    -0.359 OA
HETATM    5  O8  UNL     1     -31.877   7.259   1.124  1.00 20.00    -0.353 OA
ENDROOT
BRANCH   2   6
HETATM    6  C5  UNL     1     -32.792   5.042   0.799  1.00 20.00     0.148 C 
HETATM    7 CL9  UNL     1     -31.374   4.195   0.143  1.00 20.00    -0.128 Cl
ENDBRANCH   2   6
BRANCH   3   8
HETATM    8  C6  UNL     1     -32.634   9.533   1.352  1.00 20.00     0.056 C 
HETATM    9  C4  UNL     1     -32.255   9.553  -0.097  1.00 20.00     0.010 C 
ENDBRANCH   3   8
TORSDOF 2
ENDMDL
