MODEL 1
REMARK VINA RESULT:      -0.7      0.000      0.000
REMARK  0 active torsions:
REMARK  status: ('A' for Active; 'I' for Inactive)
ROOT
HETATM    1  C1  UNL     1     -33.913   7.357   3.844  1.00 20.00     0.148 A 
HETATM    2  C2  UNL     1     -33.552   5.527   2.394  1.00 20.00     0.148 A 
HETATM    3  C3  UNL     1     -33.030   8.174   3.259  1.00 20.00     0.074 A 
HETATM    4  C4  UNL     1     -32.625   6.129   1.640  1.00 20.00     0.074 A 
HETATM    5  O5  UNL     1     -34.206   6.070   3.471  1.00 20.00    -0.334 OA
HETATM    6  S6  UNL     1     -32.069   7.745   1.889  1.00 20.00    -0.110 SA
ENDROOT
TORSDOF 0
ENDMDL
MODEL 2
REMARK VINA RESULT:      -0.7      0.052      2.046
REMARK  0 active torsions:
REMARK  status: ('A' for Active; 'I' for Inactive)
ROOT
HETATM    1  C1  UNL     1     -33.513   5.549   2.356  1.00 20.00     0.148 A 
HETATM    2  C2  UNL     1     -33.885   7.371   3.813  1.00 20.00     0.148 A 
HETATM    3  C3  UNL     1     -32.582   6.155   1.611  1.00 20.00     0.074 A 
HETATM    4  C4  UNL     1     -32.998   8.191   3.239  1.00 20.00     0.074 A 
HETATM    5  O5  UNL     1     -34.177   6.086   3.429  1.00 20.00    -0.334 OA
HETATM    6  S6  UNL     1     -32.028   7.770   1.872  1.00 20.00    -0.110 SA
ENDROOT
TORSDOF 0
ENDMDL
MODEL 3
REMARK VINA RESULT:      -0.6      1.374      1.872
REMARK  0 active torsions:
REMARK  status: ('A' for Active; 'I' for Inactive)
ROOT
HETATM    1  C1  UNL     1     -32.508   8.193   2.719  1.00 20.00     0.148 A 
HETATM    2  C2  UNL     1     -34.055   6.607   3.541  1.00 20.00     0.148 A 
HETATM    3  C3  UNL     1     -32.020   7.418   1.745  1.00 20.00     0.074 A 
HETATM    4  C4  UNL     1     -33.748   5.646   2.663  1.00 20.00     0.074 A 
HETATM    5  O5  UNL     1     -33.490   7.855   3.616  1.00 20.00    -0.334 OA
HETATM    6  S6  UNL     1     -32.550   5.805   1.428  1.00 20.00    -0.110 SA
ENDROOT
TORSDOF 0
ENDMDL
MODEL 4
REMARK VINA RESULT:      -0.6      1.405      2.095
REMARK  0 active torsions:
REMARK  status: ('A' for Active; 'I' for Inactive)
ROOT
HETATM    1  C1  UNL     1     -34.021   6.724   3.587  1.00 20.00     0.148 A 
HETATM    2  C2  UNL     1     -32.447   8.223   2.664  1.00 20.00     0.148 A 
HETATM    3  C3  UNL     1     -33.772   5.721   2.739  1.00 20.00     0.074 A 
HETATM    4  C4  UNL     1     -32.013   7.396   1.706  1.00 20.00     0.074 A 
HETATM    5  O5  UNL     1     -33.414   7.954   3.599  1.00 20.00    -0.334 OA
HETATM    6  S6  UNL     1     -32.607   5.792   1.466  1.00 20.00    -0.110 SA
ENDROOT
TORSDOF 0
ENDMDL
MODEL 5
REMARK VINA RESULT:      -0.6      1.822      2.148
REMARK  0 active torsions:
REMARK  status: ('A' for Active; 'I' for Inactive)
ROOT
HETATM    1  C1  UNL     1     -31.959   7.711   1.833  1.00 20.00     0.148 A 
HETATM    2  C2  UNL     1     -33.122   5.660   1.991  1.00 20.00     0.148 A 
HETATM    3  C3  UNL     1     -32.579   8.301   2.860  1.00 20.00     0.074 A 
HETATM    4  C4  UNL     1     -33.879   6.011   3.036  1.00 20.00     0.074 A 
HETATM    5  O5  UNL     1     -32.179   6.439   1.368  1.00 20.00    -0.334 OA
HETATM    6  S6  UNL     1     -33.806   7.551   3.816  1.00 20.00    -0.110 SA
ENDROOT
TORSDOF 0
ENDMDL
MODEL 6
REMARK VINA RESULT:      -0.6      1.808      2.615
REMARK  0 active torsions:
REMARK  status: ('A' for Active; 'I' for Inactive)
ROOT
HETATM    1  C1  UNL     1     -33.163   5.647   2.029  1.00 20.00     0.148 A 
HETATM    2  C2  UNL     1     -31.973   7.678   1.827  1.00 20.00     0.148 A 
HETATM    3  C3  UNL     1     -33.904   6.025   3.077  1.00 20.00     0.074 A 
HETATM    4  C4  UNL     1     -32.574   8.293   2.852  1.00 20.00     0.074 A 
HETATM    5  O5  UNL     1     -32.216   6.402   1.385  1.00 20.00    -0.334 OA
HETATM    6  S6  UNL     1     -33.801   7.574   3.832  1.00 20.00    -0.110 SA
ENDROOT
TORSDOF 0
ENDMDL
MODEL 7
REMARK VINA RESULT:      -0.5      0.889      1.036
REMARK  0 active torsions:
REMARK  status: ('A' for Active; 'I' for Inactive)
ROOT
HETATM    1  C1  UNL     1     -34.125   6.410   3.511  1.00 20.00     0.148 A 
HETATM    2  C2  UNL     1     -32.775   5.818   1.664  1.00 20.00     0.148 A 
HETATM    3  C3  UNL     1     -33.618   7.637   3.665  1.00 20.00     0.074 A 
HETATM    4  C4  UNL     1     -32.109   6.976   1.603  1.00 20.00     0.074 A 
HETATM    5  O5  UNL     1     -33.757   5.488   2.564  1.00 20.00    -0.334 OA
HETATM    6  S6  UNL     1     -32.373   8.306   2.674  1.00 20.00    -0.110 SA
ENDROOT
TORSDOF 0
ENDMDL
MODEL 8
REMARK VINA RESULT:      -0.4      1.864      2.152
REMARK  0 active torsions:
REMARK  status: ('A' for Active; 'I' for Inactive)
ROOT
HETATM    1  C1  UNL     1     -32.727   8.250   3.116  1.00 20.00     0.148 A 
HETATM    2  C2  UNL     1     -32.222   6.642   1.460  1.00 20.00     0.148 A 
HETATM    3  C3  UNL     1     -33.652   7.517   3.744  1.00 20.00     0.074 A 
HETATM    4  C4  UNL     1     -33.089   5.720   1.894  1.00 20.00     0.074 A 
HETATM    5  O5  UNL     1     -32.005   7.880   2.009  1.00 20.00    -0.334 OA
HETATM    6  S6  UNL     1     -34.121   5.926   3.264  1.00 20.00    -0.110 SA
ENDROOT
TORSDOF 0
ENDMDL
MODEL 9
REMARK VINA RESULT:       0.0      1.791      2.778
REMARK  0 active torsions:
REMARK  status: ('A' for Active; 'I' for Inactive)
ROOT
HETATM    1  C1  UNL     1     -34.065   4.114   3.943  1.00 20.00     0.148 A 
HETATM    2  C2  UNL     1     -35.403   6.022   4.334  1.00 20.00     0.148 A 
HETATM    3  C3  UNL     1     -33.184   4.724   3.143  1.00 20.00     0.074 A 
HETATM    4  C4  UNL     1     -34.679   6.855   3.579  1.00 20.00     0.074 A 
HETATM    5  O5  UNL     1     -35.155   4.689   4.546  1.00 20.00    -0.334 OA
HETATM    6  S6  UNL     1     -33.259   6.393   2.709  1.00 20.00    -0.110 SA
ENDROOT
TORSDOF 0
ENDMDL
