MODEL 1
REMARK VINA RESULT:      -1.0      0.000      0.000
REMARK  3 active torsions:
REMARK  status: ('A' for Active; 'I' for Inactive)
REMARK    1  A    between atoms: C1_1  and  C4_4 
REMARK    2  A    between atoms: C4_4  and  C5_5 
REMARK    3  A    between atoms: C5_5  and  C6_6 
ROOT
HETATM    1  C5  UNL     1     -32.164   7.943   1.914  1.00 20.00     0.035 C 
ENDROOT
BRANCH   1   2
HETATM    2  C4  UNL     1     -31.725   8.582   0.594  1.00 20.00     0.115 C 
BRANCH   2   3
HETATM    3  C1  UNL     1     -32.507   9.840   0.195  1.00 20.00     0.172 C 
HETATM    4  O7  UNL     1     -32.599  10.751   1.063  1.00 20.00    -0.648 OA
HETATM    5  O8  UNL     1     -32.975   9.805  -0.981  1.00 20.00    -0.648 OA
ENDBRANCH   2   3
ENDBRANCH   1   2
BRANCH   1   6
HETATM    6  C6  UNL     1     -32.809   6.542   1.803  1.00 20.00     0.030 C 
HETATM    7  C2  UNL     1     -33.699   6.493   0.553  1.00 20.00     0.032 C 
HETATM    8  C3  UNL     1     -31.764   5.424   1.727  1.00 20.00     0.032 C 
HETATM    9 CL9  UNL     1     -33.862   6.235   3.231  1.00 20.00    -0.120 Cl
ENDBRANCH   1   6
TORSDOF 3
ENDMDL
MODEL 2
REMARK VINA RESULT:      -0.9      3.654      4.449
REMARK  3 active torsions:
REMARK  status: ('A' for Active; 'I' for Inactive)
REMARK    1  A    between atoms: C1_1  and  C4_4 
REMARK    2  A    between atoms: C4_4  and  C5_5 
REMARK    3  A    between atoms: C5_5  and  C6_6 
ROOT
HETATM    1  C5  UNL     1     -33.657   8.069   2.580  1.00 20.00     0.035 C 
ENDROOT
BRANCH   1   2
HETATM    2  C4  UNL     1     -33.746   7.315   3.910  1.00 20.00     0.115 C 
BRANCH   2   3
HETATM    3  C1  UNL     1     -34.571   6.023   3.866  1.00 20.00     0.172 C 
HETATM    4  O7  UNL     1     -33.930   4.945   3.731  1.00 20.00    -0.648 OA
HETATM    5  O8  UNL     1     -35.819   6.205   3.969  1.00 20.00    -0.648 OA
ENDBRANCH   2   3
ENDBRANCH   1   2
BRANCH   1   6
HETATM    6  C6  UNL     1     -32.285   8.020   1.868  1.00 20.00     0.030 C 
HETATM    7  C2  UNL     1     -31.187   8.437   2.857  1.00 20.00     0.032 C 
HETATM    8  C3  UNL     1     -31.968   6.629   1.311  1.00 20.00     0.032 C 
HETATM    9 CL9  UNL     1     -32.260   9.195   0.503  1.00 20.00    -0.120 Cl
ENDBRANCH   1   6
TORSDOF 3
ENDMDL
MODEL 3
REMARK VINA RESULT:      -0.9      3.743      4.660
REMARK  3 active torsions:
REMARK  status: ('A' for Active; 'I' for Inactive)
REMARK    1  A    between atoms: C1_1  and  C4_4 
REMARK    2  A    between atoms: C4_4  and  C5_5 
REMARK    3  A    between atoms: C5_5  and  C6_6 
ROOT
HETATM    1  C5  UNL     1     -33.517   7.430   2.796  1.00 20.00     0.035 C 
ENDROOT
BRANCH   1   2
HETATM    2  C4  UNL     1     -33.648   5.909   2.903  1.00 20.00     0.115 C 
BRANCH   2   3
HETATM    3  C1  UNL     1     -34.686   5.420   3.921  1.00 20.00     0.172 C 
HETATM    4  O7  UNL     1     -34.542   4.245   4.359  1.00 20.00    -0.648 OA
HETATM    5  O8  UNL     1     -35.579   6.273   4.197  1.00 20.00    -0.648 OA
ENDBRANCH   2   3
ENDBRANCH   1   2
BRANCH   1   6
HETATM    6  C6  UNL     1     -32.272   7.948   2.037  1.00 20.00     0.030 C 
HETATM    7  C2  UNL     1     -31.580   6.769   1.339  1.00 20.00     0.032 C 
HETATM    8  C3  UNL     1     -32.627   9.016   0.998  1.00 20.00     0.032 C 
HETATM    9 CL9  UNL     1     -31.095   8.658   3.200  1.00 20.00    -0.120 Cl
ENDBRANCH   1   6
TORSDOF 3
ENDMDL
MODEL 4
REMARK VINA RESULT:      -0.8      3.476      4.310
REMARK  3 active torsions:
REMARK  status: ('A' for Active; 'I' for Inactive)
REMARK    1  A    between atoms: C1_1  and  C4_4 
REMARK    2  A    between atoms: C4_4  and  C5_5 
REMARK    3  A    between atoms: C5_5  and  C6_6 
ROOT
HETATM    1  C5  UNL     1     -33.621   8.071   2.564  1.00 20.00     0.035 C 
ENDROOT
BRANCH   1   2
HETATM    2  C4  UNL     1     -33.758   7.342   3.903  1.00 20.00     0.115 C 
BRANCH   2   3
HETATM    3  C1  UNL     1     -34.577   6.045   3.851  1.00 20.00     0.172 C 
HETATM    4  O7  UNL     1     -33.929   4.969   3.734  1.00 20.00    -0.648 OA
HETATM    5  O8  UNL     1     -35.827   6.222   3.931  1.00 20.00    -0.648 OA
ENDBRANCH   2   3
ENDBRANCH   1   2
BRANCH   1   6
HETATM    6  C6  UNL     1     -32.229   7.993   1.893  1.00 20.00     0.030 C 
HETATM    7  C2  UNL     1     -32.205   8.917   0.668  1.00 20.00     0.032 C 
HETATM    8  C3  UNL     1     -31.099   8.388   2.850  1.00 20.00     0.032 C 
HETATM    9 CL9  UNL     1     -31.920   6.316   1.314  1.00 20.00    -0.120 Cl
ENDBRANCH   1   6
TORSDOF 3
ENDMDL
MODEL 5
REMARK VINA RESULT:      -0.8      5.256      6.201
REMARK  3 active torsions:
REMARK  status: ('A' for Active; 'I' for Inactive)
REMARK    1  A    between atoms: C1_1  and  C4_4 
REMARK    2  A    between atoms: C4_4  and  C5_5 
REMARK    3  A    between atoms: C5_5  and  C6_6 
ROOT
HETATM    1  C5  UNL     1     -34.446   5.080   4.485  1.00 20.00     0.035 C 
ENDROOT
BRANCH   1   2
HETATM    2  C4  UNL     1     -33.787   3.881   3.797  1.00 20.00     0.115 C 
BRANCH   2   3
HETATM    3  C1  UNL     1     -33.212   2.825   4.751  1.00 20.00     0.172 C 
HETATM    4  O7  UNL     1     -33.551   1.628   4.543  1.00 20.00    -0.648 OA
HETATM    5  O8  UNL     1     -32.456   3.299   5.648  1.00 20.00    -0.648 OA
ENDBRANCH   2   3
ENDBRANCH   1   2
BRANCH   1   6
HETATM    6  C6  UNL     1     -34.430   6.405   3.688  1.00 20.00     0.030 C 
HETATM    7  C2  UNL     1     -35.851   6.718   3.198  1.00 20.00     0.032 C 
HETATM    8  C3  UNL     1     -33.909   7.580   4.522  1.00 20.00     0.032 C 
HETATM    9 CL9  UNL     1     -33.381   6.235   2.234  1.00 20.00    -0.120 Cl
ENDBRANCH   1   6
TORSDOF 3
ENDMDL
MODEL 6
REMARK VINA RESULT:      -0.8      3.553      4.382
REMARK  3 active torsions:
REMARK  status: ('A' for Active; 'I' for Inactive)
REMARK    1  A    between atoms: C1_1  and  C4_4 
REMARK    2  A    between atoms: C4_4  and  C5_5 
REMARK    3  A    between atoms: C5_5  and  C6_6 
ROOT
HETATM    1  C5  UNL     1     -33.667   8.074   2.594  1.00 20.00     0.035 C 
ENDROOT
BRANCH   1   2
HETATM    2  C4  UNL     1     -33.753   7.299   3.912  1.00 20.00     0.115 C 
BRANCH   2   3
HETATM    3  C1  UNL     1     -34.626   6.039   3.864  1.00 20.00     0.172 C 
HETATM    4  O7  UNL     1     -35.874   6.211   3.916  1.00 20.00    -0.648 OA
HETATM    5  O8  UNL     1     -33.969   4.961   3.781  1.00 20.00    -0.648 OA
ENDBRANCH   2   3
ENDBRANCH   1   2
BRANCH   1   6
HETATM    6  C6  UNL     1     -32.282   8.080   1.905  1.00 20.00     0.030 C 
HETATM    7  C2  UNL     1     -31.961   6.664   1.405  1.00 20.00     0.032 C 
HETATM    8  C3  UNL     1     -32.221   9.061   0.729  1.00 20.00     0.032 C 
HETATM    9 CL9  UNL     1     -31.008   8.538   3.091  1.00 20.00    -0.120 Cl
ENDBRANCH   1   6
TORSDOF 3
ENDMDL
MODEL 7
REMARK VINA RESULT:      -0.7      5.132      6.199
REMARK  3 active torsions:
REMARK  status: ('A' for Active; 'I' for Inactive)
REMARK    1  A    between atoms: C1_1  and  C4_4 
REMARK    2  A    between atoms: C4_4  and  C5_5 
REMARK    3  A    between atoms: C5_5  and  C6_6 
ROOT
HETATM    1  C5  UNL     1     -34.516   5.033   4.428  1.00 20.00     0.035 C 
ENDROOT
BRANCH   1   2
HETATM    2  C4  UNL     1     -33.683   3.915   3.796  1.00 20.00     0.115 C 
BRANCH   2   3
HETATM    3  C1  UNL     1     -33.199   2.838   4.775  1.00 20.00     0.172 C 
HETATM    4  O7  UNL     1     -33.556   1.652   4.537  1.00 20.00    -0.648 OA
HETATM    5  O8  UNL     1     -32.488   3.285   5.722  1.00 20.00    -0.648 OA
ENDBRANCH   2   3
ENDBRANCH   1   2
BRANCH   1   6
HETATM    6  C6  UNL     1     -34.490   6.392   3.690  1.00 20.00     0.030 C 
HETATM    7  C2  UNL     1     -33.529   6.300   2.496  1.00 20.00     0.032 C 
HETATM    8  C3  UNL     1     -35.877   6.813   3.196  1.00 20.00     0.032 C 
HETATM    9 CL9  UNL     1     -33.867   7.675   4.789  1.00 20.00    -0.120 Cl
ENDBRANCH   1   6
TORSDOF 3
ENDMDL
MODEL 8
REMARK VINA RESULT:      -0.7      1.962      2.542
REMARK  3 active torsions:
REMARK  status: ('A' for Active; 'I' for Inactive)
REMARK    1  A    between atoms: C1_1  and  C4_4 
REMARK    2  A    between atoms: C4_4  and  C5_5 
REMARK    3  A    between atoms: C5_5  and  C6_6 
ROOT
HETATM    1  C5  UNL     1     -33.315   6.930   2.156  1.00 20.00     0.035 C 
ENDROOT
BRANCH   1   2
HETATM    2  C4  UNL     1     -32.266   8.039   2.278  1.00 20.00     0.115 C 
BRANCH   2   3
HETATM    3  C1  UNL     1     -32.055   8.871   1.007  1.00 20.00     0.172 C 
HETATM    4  O7  UNL     1     -32.780   9.895   0.873  1.00 20.00    -0.648 OA
HETATM    5  O8  UNL     1     -31.164   8.415   0.234  1.00 20.00    -0.648 OA
ENDBRANCH   2   3
ENDBRANCH   1   2
BRANCH   1   6
HETATM    6  C6  UNL     1     -34.122   6.621   3.439  1.00 20.00     0.030 C 
HETATM    7  C2  UNL     1     -33.645   7.544   4.570  1.00 20.00     0.032 C 
HETATM    8  C3  UNL     1     -35.629   6.801   3.237  1.00 20.00     0.032 C 
HETATM    9 CL9  UNL     1     -33.819   4.924   3.960  1.00 20.00    -0.120 Cl
ENDBRANCH   1   6
TORSDOF 3
ENDMDL
MODEL 9
REMARK VINA RESULT:      -0.6      1.956      2.441
REMARK  3 active torsions:
REMARK  status: ('A' for Active; 'I' for Inactive)
REMARK    1  A    between atoms: C1_1  and  C4_4 
REMARK    2  A    between atoms: C4_4  and  C5_5 
REMARK    3  A    between atoms: C5_5  and  C6_6 
ROOT
HETATM    1  C5  UNL     1     -33.346   6.950   2.142  1.00 20.00     0.035 C 
ENDROOT
BRANCH   1   2
HETATM    2  C4  UNL     1     -32.262   8.025   2.252  1.00 20.00     0.115 C 
BRANCH   2   3
HETATM    3  C1  UNL     1     -32.072   8.882   0.994  1.00 20.00     0.172 C 
HETATM    4  O7  UNL     1     -32.816   9.894   0.878  1.00 20.00    -0.648 OA
HETATM    5  O8  UNL     1     -31.175   8.455   0.210  1.00 20.00    -0.648 OA
ENDBRANCH   2   3
ENDBRANCH   1   2
BRANCH   1   6
HETATM    6  C6  UNL     1     -34.152   6.671   3.433  1.00 20.00     0.030 C 
HETATM    7  C2  UNL     1     -33.903   5.224   3.881  1.00 20.00     0.032 C 
HETATM    8  C3  UNL     1     -33.778   7.627   4.570  1.00 20.00     0.032 C 
HETATM    9 CL9  UNL     1     -35.914   6.842   3.105  1.00 20.00    -0.120 Cl
ENDBRANCH   1   6
TORSDOF 3
ENDMDL
