MODEL 1
REMARK VINA RESULT:       5.5      0.000      0.000
REMARK  1 active torsions:
REMARK  status: ('A' for Active; 'I' for Inactive)
REMARK    1  A    between atoms: C1_1  and  C5_5 
ROOT
HETATM    1  C2  UNL     1     -32.311   5.366   1.154  1.00 20.00     0.006 C 
HETATM    2  C3  UNL     1     -31.256   6.249   1.844  1.00 20.00     0.011 C 
HETATM    3  C4  UNL     1     -33.383   7.374   0.173  1.00 20.00     0.017 C 
HETATM    4  C5  UNL     1     -32.289   8.252   0.820  1.00 20.00     0.056 C 
HETATM    5  C6  UNL     1     -33.581   6.242   1.209  1.00 20.00    -0.005 C 
HETATM    6  C7  UNL     1     -32.057   7.543   2.194  1.00 20.00    -0.027 C 
HETATM    7  C8  UNL     1     -33.460   6.970   2.570  1.00 20.00    -0.036 C 
HETATM    8  C9  UNL     1     -31.347   8.376   3.246  1.00 20.00     0.016 C 
HETATM    9  C10 UNL     1     -33.470   6.028   3.794  1.00 20.00     0.016 C 
HETATM   10  C11 UNL     1     -34.583   7.992   2.829  1.00 20.00     0.016 C 
ENDROOT
BRANCH   4  11
HETATM   11  C1  UNL     1     -32.680   9.699   0.866  1.00 20.00     0.236 C 
HETATM   12  O12 UNL     1     -32.313  10.524   0.036  1.00 20.00    -0.306 OA
ENDBRANCH   4  11
TORSDOF 1
ENDMDL
MODEL 2
REMARK VINA RESULT:       5.9      2.135      3.620
REMARK  1 active torsions:
REMARK  status: ('A' for Active; 'I' for Inactive)
REMARK    1  A    between atoms: C1_1  and  C5_5 
ROOT
HETATM    1  C2  UNL     1     -30.579   7.607   2.231  1.00 20.00     0.006 C 
HETATM    2  C3  UNL     1     -31.481   6.536   1.593  1.00 20.00     0.011 C 
HETATM    3  C4  UNL     1     -32.366   8.179   3.851  1.00 20.00     0.017 C 
HETATM    4  C5  UNL     1     -33.246   7.065   3.246  1.00 20.00     0.056 C 
HETATM    5  C6  UNL     1     -31.583   8.711   2.626  1.00 20.00    -0.005 C 
HETATM    6  C7  UNL     1     -32.908   7.157   1.723  1.00 20.00    -0.027 C 
HETATM    7  C8  UNL     1     -32.629   8.675   1.485  1.00 20.00    -0.036 C 
HETATM    8  C9  UNL     1     -33.901   6.483   0.792  1.00 20.00     0.016 C 
HETATM    9  C10 UNL     1     -32.057   9.021   0.092  1.00 20.00     0.016 C 
HETATM   10  C11 UNL     1     -33.810   9.641   1.695  1.00 20.00     0.016 C 
ENDROOT
BRANCH   4  11
HETATM   11  C1  UNL     1     -34.689   7.215   3.626  1.00 20.00     0.236 C 
HETATM   12  O12 UNL     1     -35.384   6.285   4.022  1.00 20.00    -0.306 OA
ENDBRANCH   4  11
TORSDOF 1
ENDMDL
MODEL 3
REMARK VINA RESULT:       6.2      1.148      2.916
REMARK  1 active torsions:
REMARK  status: ('A' for Active; 'I' for Inactive)
REMARK    1  A    between atoms: C1_1  and  C5_5 
ROOT
HETATM    1  C2  UNL     1     -34.498   6.983   4.150  1.00 20.00     0.006 C 
HETATM    2  C3  UNL     1     -35.105   6.929   2.736  1.00 20.00     0.011 C 
HETATM    3  C4  UNL     1     -32.478   8.114   3.265  1.00 20.00     0.017 C 
HETATM    4  C5  UNL     1     -33.114   8.110   1.858  1.00 20.00     0.056 C 
HETATM    5  C6  UNL     1     -32.990   6.791   3.884  1.00 20.00    -0.005 C 
HETATM    6  C7  UNL     1     -33.852   6.733   1.825  1.00 20.00    -0.027 C 
HETATM    7  C8  UNL     1     -32.954   5.798   2.697  1.00 20.00    -0.036 C 
HETATM    8  C9  UNL     1     -34.235   6.230   0.444  1.00 20.00     0.016 C 
HETATM    9  C10 UNL     1     -33.568   4.415   3.011  1.00 20.00     0.016 C 
HETATM   10  C11 UNL     1     -31.535   5.508   2.172  1.00 20.00     0.016 C 
ENDROOT
BRANCH   4  11
HETATM   11  C1  UNL     1     -32.103   8.359   0.780  1.00 20.00     0.236 C 
HETATM   12  O12 UNL     1     -32.062   9.389   0.115  1.00 20.00    -0.306 OA
ENDBRANCH   4  11
TORSDOF 1
ENDMDL
MODEL 4
REMARK VINA RESULT:       6.7      1.538      2.253
REMARK  1 active torsions:
REMARK  status: ('A' for Active; 'I' for Inactive)
REMARK    1  A    between atoms: C1_1  and  C5_5 
ROOT
HETATM    1  C2  UNL     1     -33.217   4.389   3.637  1.00 20.00     0.006 C 
HETATM    2  C3  UNL     1     -32.743   5.534   4.551  1.00 20.00     0.011 C 
HETATM    3  C4  UNL     1     -33.153   5.899   1.673  1.00 20.00     0.017 C 
HETATM    4  C5  UNL     1     -32.623   7.029   2.581  1.00 20.00     0.056 C 
HETATM    5  C6  UNL     1     -34.107   5.117   2.608  1.00 20.00    -0.005 C 
HETATM    6  C7  UNL     1     -33.411   6.791   3.910  1.00 20.00    -0.027 C 
HETATM    7  C8  UNL     1     -34.791   6.228   3.441  1.00 20.00    -0.036 C 
HETATM    8  C9  UNL     1     -33.436   7.965   4.873  1.00 20.00     0.016 C 
HETATM    9  C10 UNL     1     -35.697   5.701   4.575  1.00 20.00     0.016 C 
HETATM   10  C11 UNL     1     -35.680   7.170   2.608  1.00 20.00     0.016 C 
ENDROOT
BRANCH   4  11
HETATM   11  C1  UNL     1     -32.766   8.379   1.945  1.00 20.00     0.236 C 
HETATM   12  O12 UNL     1     -32.081   8.758   1.001  1.00 20.00    -0.306 OA
ENDBRANCH   4  11
TORSDOF 1
ENDMDL
MODEL 5
REMARK VINA RESULT:       6.8      2.219      3.499
REMARK  1 active torsions:
REMARK  status: ('A' for Active; 'I' for Inactive)
REMARK    1  A    between atoms: C1_1  and  C5_5 
ROOT
HETATM    1  C2  UNL     1     -35.728   6.912   3.244  1.00 20.00     0.006 C 
HETATM    2  C3  UNL     1     -35.128   5.621   3.828  1.00 20.00     0.011 C 
HETATM    3  C4  UNL     1     -34.052   6.893   1.418  1.00 20.00     0.017 C 
HETATM    4  C5  UNL     1     -33.489   5.566   1.973  1.00 20.00     0.056 C 
HETATM    5  C6  UNL     1     -34.488   7.650   2.696  1.00 20.00    -0.005 C 
HETATM    6  C7  UNL     1     -33.605   5.771   3.519  1.00 20.00    -0.027 C 
HETATM    7  C8  UNL     1     -33.378   7.303   3.719  1.00 20.00    -0.036 C 
HETATM    8  C9  UNL     1     -32.765   4.832   4.366  1.00 20.00     0.016 C 
HETATM    9  C10 UNL     1     -33.653   7.820   5.149  1.00 20.00     0.016 C 
HETATM   10  C11 UNL     1     -31.991   7.857   3.342  1.00 20.00     0.016 C 
ENDROOT
BRANCH   4  11
HETATM   11  C1  UNL     1     -32.124   5.262   1.434  1.00 20.00     0.236 C 
HETATM   12  O12 UNL     1     -31.930   4.634   0.399  1.00 20.00    -0.306 OA
ENDBRANCH   4  11
TORSDOF 1
ENDMDL
MODEL 6
REMARK VINA RESULT:       6.9      2.900      4.215
REMARK  1 active torsions:
REMARK  status: ('A' for Active; 'I' for Inactive)
REMARK    1  A    between atoms: C1_1  and  C5_5 
ROOT
HETATM    1  C2  UNL     1     -32.939   6.345   0.730  1.00 20.00     0.006 C 
HETATM    2  C3  UNL     1     -34.416   6.205   1.140  1.00 20.00     0.011 C 
HETATM    3  C4  UNL     1     -32.243   4.997   2.690  1.00 20.00     0.017 C 
HETATM    4  C5  UNL     1     -33.729   4.810   3.066  1.00 20.00     0.056 C 
HETATM    5  C6  UNL     1     -32.211   6.423   2.089  1.00 20.00    -0.005 C 
HETATM    6  C7  UNL     1     -34.347   6.198   2.699  1.00 20.00    -0.027 C 
HETATM    7  C8  UNL     1     -33.197   7.216   2.983  1.00 20.00    -0.036 C 
HETATM    8  C9  UNL     1     -35.700   6.495   3.323  1.00 20.00     0.016 C 
HETATM    9  C10 UNL     1     -33.470   8.657   2.499  1.00 20.00     0.016 C 
HETATM   10  C11 UNL     1     -32.733   7.354   4.445  1.00 20.00     0.016 C 
ENDROOT
BRANCH   4  11
HETATM   11  C1  UNL     1     -33.899   4.349   4.483  1.00 20.00     0.236 C 
HETATM   12  O12 UNL     1     -33.542   3.246   4.882  1.00 20.00    -0.306 OA
ENDBRANCH   4  11
TORSDOF 1
ENDMDL
MODEL 7
REMARK VINA RESULT:       7.0      2.597      3.986
REMARK  1 active torsions:
REMARK  status: ('A' for Active; 'I' for Inactive)
REMARK    1  A    between atoms: C1_1  and  C5_5 
ROOT
HETATM    1  C2  UNL     1     -32.427   8.476   2.779  1.00 20.00     0.006 C 
HETATM    2  C3  UNL     1     -31.424   7.330   2.552  1.00 20.00     0.011 C 
HETATM    3  C4  UNL     1     -34.162   6.851   3.480  1.00 20.00     0.017 C 
HETATM    4  C5  UNL     1     -33.137   5.709   3.306  1.00 20.00     0.056 C 
HETATM    5  C6  UNL     1     -33.771   7.845   2.360  1.00 20.00    -0.005 C 
HETATM    6  C7  UNL     1     -32.333   6.166   2.046  1.00 20.00    -0.027 C 
HETATM    7  C8  UNL     1     -33.386   6.924   1.176  1.00 20.00    -0.036 C 
HETATM    8  C9  UNL     1     -31.524   5.080   1.359  1.00 20.00     0.016 C 
HETATM    9  C10 UNL     1     -32.803   7.673  -0.043  1.00 20.00     0.016 C 
HETATM   10  C11 UNL     1     -34.561   6.095   0.626  1.00 20.00     0.016 C 
ENDROOT
BRANCH   4  11
HETATM   11  C1  UNL     1     -33.795   4.364   3.235  1.00 20.00     0.236 C 
HETATM   12  O12 UNL     1     -33.974   3.646   4.213  1.00 20.00    -0.306 OA
ENDBRANCH   4  11
TORSDOF 1
ENDMDL
MODEL 8
REMARK VINA RESULT:       7.2      2.111      3.203
REMARK  1 active torsions:
REMARK  status: ('A' for Active; 'I' for Inactive)
REMARK    1  A    between atoms: C1_1  and  C5_5 
ROOT
HETATM    1  C2  UNL     1     -30.986   5.405   1.331  1.00 20.00     0.006 C 
HETATM    2  C3  UNL     1     -31.681   4.693   2.504  1.00 20.00     0.011 C 
HETATM    3  C4  UNL     1     -32.216   7.495   1.840  1.00 20.00     0.017 C 
HETATM    4  C5  UNL     1     -32.868   6.795   3.051  1.00 20.00     0.056 C 
HETATM    5  C6  UNL     1     -32.084   6.353   0.804  1.00 20.00    -0.005 C 
HETATM    6  C7  UNL     1     -33.100   5.344   2.518  1.00 20.00    -0.027 C 
HETATM    7  C8  UNL     1     -33.387   5.538   0.995  1.00 20.00    -0.036 C 
HETATM    8  C9  UNL     1     -34.093   4.510   3.307  1.00 20.00     0.016 C 
HETATM    9  C10 UNL     1     -33.442   4.232   0.172  1.00 20.00     0.016 C 
HETATM   10  C11 UNL     1     -34.664   6.314   0.621  1.00 20.00     0.016 C 
ENDROOT
BRANCH   4  11
HETATM   11  C1  UNL     1     -34.077   7.531   3.547  1.00 20.00     0.236 C 
HETATM   12  O12 UNL     1     -34.274   7.788   4.730  1.00 20.00    -0.306 OA
ENDBRANCH   4  11
TORSDOF 1
ENDMDL
MODEL 9
REMARK VINA RESULT:       7.4      2.109      3.593
REMARK  1 active torsions:
REMARK  status: ('A' for Active; 'I' for Inactive)
REMARK    1  A    between atoms: C1_1  and  C5_5 
ROOT
HETATM    1  C2  UNL     1     -32.471   8.661   1.838  1.00 20.00     0.006 C 
HETATM    2  C3  UNL     1     -33.205   8.003   0.656  1.00 20.00     0.011 C 
HETATM    3  C4  UNL     1     -31.073   6.635   2.128  1.00 20.00     0.017 C 
HETATM    4  C5  UNL     1     -31.771   6.000   0.906  1.00 20.00     0.056 C 
HETATM    5  C6  UNL     1     -32.201   7.470   2.781  1.00 20.00    -0.005 C 
HETATM    6  C7  UNL     1     -33.245   6.497   1.064  1.00 20.00    -0.027 C 
HETATM    7  C8  UNL     1     -33.457   6.580   2.609  1.00 20.00    -0.036 C 
HETATM    8  C9  UNL     1     -34.282   5.726   0.266  1.00 20.00     0.016 C 
HETATM    9  C10 UNL     1     -34.775   7.254   3.049  1.00 20.00     0.016 C 
HETATM   10  C11 UNL     1     -33.390   5.255   3.393  1.00 20.00     0.016 C 
ENDROOT
BRANCH   4  11
HETATM   11  C1  UNL     1     -31.562   4.517   0.843  1.00 20.00     0.236 C 
HETATM   12  O12 UNL     1     -31.196   3.928  -0.169  1.00 20.00    -0.306 OA
ENDBRANCH   4  11
TORSDOF 1
ENDMDL
