MODEL 1
REMARK VINA RESULT:      -2.5      0.000      0.000
REMARK  5 active torsions:
REMARK  status: ('A' for Active; 'I' for Inactive)
REMARK    1  A    between atoms: C2_2  and  C5_5 
REMARK    2  A    between atoms: C5_5  and  C8_8 
REMARK    3  A    between atoms: C6_6  and  C7_7 
REMARK    4  A    between atoms: C7_7  and  C8_8 
REMARK    5  A    between atoms: C8_8  and  O9_9 
ROOT
HETATM    1  C1  UNL     1     -32.478   8.657   1.118  1.00 20.00    -0.111 C 
HETATM    2  C2  UNL     1     -32.690   7.661   1.756  1.00 20.00    -0.104 C 
HETATM    3  C3  UNL     1     -32.226   9.870   0.342  1.00 20.00     0.112 C 
ENDROOT
BRANCH   2   4
HETATM    4  C5  UNL     1     -32.948   6.440   2.533  1.00 20.00     0.125 C 
BRANCH   4   5
HETATM    5  C8  UNL     1     -34.231   6.521   3.370  1.00 20.00     0.129 C 
BRANCH   5   6
HETATM    6  C7  UNL     1     -34.579   5.269   4.186  1.00 20.00     0.032 C 
BRANCH   6   7
HETATM    7  C6  UNL     1     -33.879   4.004   3.696  1.00 20.00    -0.002 C 
HETATM    8  C4  UNL     1     -33.337   3.184   4.857  1.00 20.00     0.005 C 
ENDBRANCH   6   7
ENDBRANCH   5   6
BRANCH   5   9
HETATM    9  O9  UNL     1     -34.139   7.615   4.284  1.00 20.00    -0.395 OA
HETATM   10  H23 UNL     1     -33.512   7.344   4.971  1.00 20.00     0.210 HD
ENDBRANCH   5   9
ENDBRANCH   4   5
ENDBRANCH   2   4
TORSDOF 5
ENDMDL
MODEL 2
REMARK VINA RESULT:      -2.5      1.344      5.219
REMARK  5 active torsions:
REMARK  status: ('A' for Active; 'I' for Inactive)
REMARK    1  A    between atoms: C2_2  and  C5_5 
REMARK    2  A    between atoms: C5_5  and  C8_8 
REMARK    3  A    between atoms: C6_6  and  C7_7 
REMARK    4  A    between atoms: C7_7  and  C8_8 
REMARK    5  A    between atoms: C8_8  and  O9_9 
ROOT
HETATM    1  C1  UNL     1     -33.656   3.954   4.202  1.00 20.00    -0.111 C 
HETATM    2  C2  UNL     1     -33.905   5.062   3.812  1.00 20.00    -0.104 C 
HETATM    3  C3  UNL     1     -33.353   2.606   4.682  1.00 20.00     0.112 C 
ENDROOT
BRANCH   2   4
HETATM    4  C5  UNL     1     -34.206   6.419   3.330  1.00 20.00     0.125 C 
BRANCH   4   5
HETATM    5  C8  UNL     1     -33.403   6.806   2.082  1.00 20.00     0.129 C 
BRANCH   5   6
HETATM    6  C7  UNL     1     -32.348   7.902   2.276  1.00 20.00     0.032 C 
BRANCH   6   7
HETATM    7  C6  UNL     1     -31.743   8.408   0.968  1.00 20.00    -0.002 C 
HETATM    8  C4  UNL     1     -32.443   9.669   0.483  1.00 20.00     0.005 C 
ENDBRANCH   6   7
ENDBRANCH   5   6
BRANCH   5   9
HETATM    9  O9  UNL     1     -32.732   5.653   1.568  1.00 20.00    -0.395 OA
HETATM   10  H23 UNL     1     -33.343   5.239   0.942  1.00 20.00     0.210 HD
ENDBRANCH   5   9
ENDBRANCH   4   5
ENDBRANCH   2   4
TORSDOF 5
ENDMDL
MODEL 3
REMARK VINA RESULT:      -2.5      1.436      1.807
REMARK  5 active torsions:
REMARK  status: ('A' for Active; 'I' for Inactive)
REMARK    1  A    between atoms: C2_2  and  C5_5 
REMARK    2  A    between atoms: C5_5  and  C8_8 
REMARK    3  A    between atoms: C6_6  and  C7_7 
REMARK    4  A    between atoms: C7_7  and  C8_8 
REMARK    5  A    between atoms: C8_8  and  O9_9 
ROOT
HETATM    1  C1  UNL     1     -32.675   7.842   2.374  1.00 20.00    -0.111 C 
HETATM    2  C2  UNL     1     -33.534   7.423   3.101  1.00 20.00    -0.104 C 
HETATM    3  C3  UNL     1     -31.630   8.349   1.485  1.00 20.00     0.112 C 
ENDROOT
BRANCH   2   4
HETATM    4  C5  UNL     1     -34.584   6.909   3.995  1.00 20.00     0.125 C 
BRANCH   4   5
HETATM    5  C8  UNL     1     -34.903   5.428   3.755  1.00 20.00     0.129 C 
BRANCH   5   6
HETATM    6  C7  UNL     1     -33.694   4.495   3.614  1.00 20.00     0.032 C 
BRANCH   6   7
HETATM    7  C6  UNL     1     -33.798   3.225   4.457  1.00 20.00    -0.002 C 
HETATM    8  C4  UNL     1     -32.539   3.001   5.281  1.00 20.00     0.005 C 
ENDBRANCH   6   7
ENDBRANCH   5   6
BRANCH   5   9
HETATM    9  O9  UNL     1     -35.704   4.930   4.828  1.00 20.00    -0.395 OA
HETATM   10  H23 UNL     1     -35.133   4.917   5.610  1.00 20.00     0.210 HD
ENDBRANCH   5   9
ENDBRANCH   4   5
ENDBRANCH   2   4
TORSDOF 5
ENDMDL
MODEL 4
REMARK VINA RESULT:      -2.3      0.789      4.998
REMARK  5 active torsions:
REMARK  status: ('A' for Active; 'I' for Inactive)
REMARK    1  A    between atoms: C2_2  and  C5_5 
REMARK    2  A    between atoms: C5_5  and  C8_8 
REMARK    3  A    between atoms: C6_6  and  C7_7 
REMARK    4  A    between atoms: C7_7  and  C8_8 
REMARK    5  A    between atoms: C8_8  and  O9_9 
ROOT
HETATM    1  C1  UNL     1     -33.754   3.538   4.365  1.00 20.00    -0.111 C 
HETATM    2  C2  UNL     1     -34.199   4.621   4.097  1.00 20.00    -0.104 C 
HETATM    3  C3  UNL     1     -33.207   2.222   4.694  1.00 20.00     0.112 C 
ENDROOT
BRANCH   2   4
HETATM    4  C5  UNL     1     -34.744   5.946   3.764  1.00 20.00     0.125 C 
BRANCH   4   5
HETATM    5  C8  UNL     1     -33.656   6.991   3.489  1.00 20.00     0.129 C 
BRANCH   5   6
HETATM    6  C7  UNL     1     -33.119   7.040   2.053  1.00 20.00     0.032 C 
BRANCH   6   7
HETATM    7  C6  UNL     1     -31.944   7.998   1.870  1.00 20.00    -0.002 C 
HETATM    8  C4  UNL     1     -32.266   9.085   0.856  1.00 20.00     0.005 C 
ENDBRANCH   6   7
ENDBRANCH   5   6
BRANCH   5   9
HETATM    9  O9  UNL     1     -34.152   8.294   3.804  1.00 20.00    -0.395 OA
HETATM   10  H23 UNL     1     -33.375   8.857   3.935  1.00 20.00     0.210 HD
ENDBRANCH   5   9
ENDBRANCH   4   5
ENDBRANCH   2   4
TORSDOF 5
ENDMDL
MODEL 5
REMARK VINA RESULT:      -2.3      1.517      1.988
REMARK  5 active torsions:
REMARK  status: ('A' for Active; 'I' for Inactive)
REMARK    1  A    between atoms: C2_2  and  C5_5 
REMARK    2  A    between atoms: C5_5  and  C8_8 
REMARK    3  A    between atoms: C6_6  and  C7_7 
REMARK    4  A    between atoms: C7_7  and  C8_8 
REMARK    5  A    between atoms: C8_8  and  O9_9 
ROOT
HETATM    1  C1  UNL     1     -32.355   9.393   0.649  1.00 20.00    -0.111 C 
HETATM    2  C2  UNL     1     -32.074   8.398   1.261  1.00 20.00    -0.104 C 
HETATM    3  C3  UNL     1     -32.694  10.607  -0.093  1.00 20.00     0.112 C 
ENDROOT
BRANCH   2   4
HETATM    4  C5  UNL     1     -31.735   7.180   2.012  1.00 20.00     0.125 C 
BRANCH   4   5
HETATM    5  C8  UNL     1     -32.969   6.375   2.439  1.00 20.00     0.129 C 
BRANCH   5   6
HETATM    6  C7  UNL     1     -33.996   7.126   3.296  1.00 20.00     0.032 C 
BRANCH   6   7
HETATM    7  C6  UNL     1     -35.092   6.227   3.866  1.00 20.00    -0.002 C 
HETATM    8  C4  UNL     1     -34.549   4.854   4.233  1.00 20.00     0.005 C 
ENDBRANCH   6   7
ENDBRANCH   5   6
BRANCH   5   9
HETATM    9  O9  UNL     1     -33.651   5.892   1.280  1.00 20.00    -0.395 OA
HETATM   10  H23 UNL     1     -33.015   5.939   0.551  1.00 20.00     0.210 HD
ENDBRANCH   5   9
ENDBRANCH   4   5
ENDBRANCH   2   4
TORSDOF 5
ENDMDL
MODEL 6
REMARK VINA RESULT:      -2.2      1.313      4.555
REMARK  5 active torsions:
REMARK  status: ('A' for Active; 'I' for Inactive)
REMARK    1  A    between atoms: C2_2  and  C5_5 
REMARK    2  A    between atoms: C5_5  and  C8_8 
REMARK    3  A    between atoms: C6_6  and  C7_7 
REMARK    4  A    between atoms: C7_7  and  C8_8 
REMARK    5  A    between atoms: C8_8  and  O9_9 
ROOT
HETATM    1  C1  UNL     1     -33.770   3.709   4.324  1.00 20.00    -0.111 C 
HETATM    2  C2  UNL     1     -34.180   4.807   4.062  1.00 20.00    -0.104 C 
HETATM    3  C3  UNL     1     -33.266   2.374   4.647  1.00 20.00     0.112 C 
ENDROOT
BRANCH   2   4
HETATM    4  C5  UNL     1     -34.682   6.151   3.737  1.00 20.00     0.125 C 
BRANCH   4   5
HETATM    5  C8  UNL     1     -33.583   7.221   3.748  1.00 20.00     0.129 C 
BRANCH   5   6
HETATM    6  C7  UNL     1     -33.298   7.903   2.403  1.00 20.00     0.032 C 
BRANCH   6   7
HETATM    7  C6  UNL     1     -32.002   7.436   1.743  1.00 20.00    -0.002 C 
HETATM    8  C4  UNL     1     -32.082   5.972   1.336  1.00 20.00     0.005 C 
ENDBRANCH   6   7
ENDBRANCH   5   6
BRANCH   5   9
HETATM    9  O9  UNL     1     -33.921   8.246   4.684  1.00 20.00    -0.395 OA
HETATM   10  H23 UNL     1     -33.806   9.088   4.219  1.00 20.00     0.210 HD
ENDBRANCH   5   9
ENDBRANCH   4   5
ENDBRANCH   2   4
TORSDOF 5
ENDMDL
MODEL 7
REMARK VINA RESULT:      -2.1      1.768      5.160
REMARK  5 active torsions:
REMARK  status: ('A' for Active; 'I' for Inactive)
REMARK    1  A    between atoms: C2_2  and  C5_5 
REMARK    2  A    between atoms: C5_5  and  C8_8 
REMARK    3  A    between atoms: C6_6  and  C7_7 
REMARK    4  A    between atoms: C7_7  and  C8_8 
REMARK    5  A    between atoms: C8_8  and  O9_9 
ROOT
HETATM    1  C1  UNL     1     -34.364   6.118   3.348  1.00 20.00    -0.111 C 
HETATM    2  C2  UNL     1     -33.479   6.205   2.539  1.00 20.00    -0.104 C 
HETATM    3  C3  UNL     1     -35.445   6.012   4.327  1.00 20.00     0.112 C 
ENDROOT
BRANCH   2   4
HETATM    4  C5  UNL     1     -32.394   6.315   1.552  1.00 20.00     0.125 C 
BRANCH   4   5
HETATM    5  C8  UNL     1     -31.600   7.621   1.677  1.00 20.00     0.129 C 
BRANCH   5   6
HETATM    6  C7  UNL     1     -31.645   8.553   0.460  1.00 20.00     0.032 C 
BRANCH   6   7
HETATM    7  C6  UNL     1     -32.378   9.867   0.721  1.00 20.00    -0.002 C 
HETATM    8  C4  UNL     1     -32.970  10.437  -0.560  1.00 20.00     0.005 C 
ENDBRANCH   6   7
ENDBRANCH   5   6
BRANCH   5   9
HETATM    9  O9  UNL     1     -32.073   8.365   2.802  1.00 20.00    -0.395 OA
HETATM   10  H23 UNL     1     -32.210   7.724   3.515  1.00 20.00     0.210 HD
ENDBRANCH   5   9
ENDBRANCH   4   5
ENDBRANCH   2   4
TORSDOF 5
ENDMDL
MODEL 8
REMARK VINA RESULT:      -1.7      1.722      2.472
REMARK  5 active torsions:
REMARK  status: ('A' for Active; 'I' for Inactive)
REMARK    1  A    between atoms: C2_2  and  C5_5 
REMARK    2  A    between atoms: C5_5  and  C8_8 
REMARK    3  A    between atoms: C6_6  and  C7_7 
REMARK    4  A    between atoms: C7_7  and  C8_8 
REMARK    5  A    between atoms: C8_8  and  O9_9 
ROOT
HETATM    1  C1  UNL     1     -32.297   8.065   1.180  1.00 20.00    -0.111 C 
HETATM    2  C2  UNL     1     -32.598   6.961   1.545  1.00 20.00    -0.104 C 
HETATM    3  C3  UNL     1     -31.936   9.410   0.734  1.00 20.00     0.112 C 
ENDROOT
BRANCH   2   4
HETATM    4  C5  UNL     1     -32.963   5.607   1.990  1.00 20.00     0.125 C 
BRANCH   4   5
HETATM    5  C8  UNL     1     -33.512   5.573   3.421  1.00 20.00     0.129 C 
BRANCH   5   6
HETATM    6  C7  UNL     1     -34.793   6.381   3.667  1.00 20.00     0.032 C 
BRANCH   6   7
HETATM    7  C6  UNL     1     -34.534   7.826   4.091  1.00 20.00    -0.002 C 
HETATM    8  C4  UNL     1     -33.290   7.935   4.960  1.00 20.00     0.005 C 
ENDBRANCH   6   7
ENDBRANCH   5   6
BRANCH   5   9
HETATM    9  O9  UNL     1     -33.781   4.222   3.800  1.00 20.00    -0.395 OA
HETATM   10  H23 UNL     1     -34.385   4.266   4.555  1.00 20.00     0.210 HD
ENDBRANCH   5   9
ENDBRANCH   4   5
ENDBRANCH   2   4
TORSDOF 5
ENDMDL
MODEL 9
REMARK VINA RESULT:      -1.3      1.479      2.400
REMARK  5 active torsions:
REMARK  status: ('A' for Active; 'I' for Inactive)
REMARK    1  A    between atoms: C2_2  and  C5_5 
REMARK    2  A    between atoms: C5_5  and  C8_8 
REMARK    3  A    between atoms: C6_6  and  C7_7 
REMARK    4  A    between atoms: C7_7  and  C8_8 
REMARK    5  A    between atoms: C8_8  and  O9_9 
ROOT
HETATM    1  C1  UNL     1     -32.317   5.737   1.293  1.00 20.00    -0.111 C 
HETATM    2  C2  UNL     1     -32.541   6.710   1.961  1.00 20.00    -0.104 C 
HETATM    3  C3  UNL     1     -32.040   4.551   0.484  1.00 20.00     0.112 C 
ENDROOT
BRANCH   2   4
HETATM    4  C5  UNL     1     -32.815   7.904   2.776  1.00 20.00     0.125 C 
BRANCH   4   5
HETATM    5  C8  UNL     1     -34.070   7.762   3.647  1.00 20.00     0.129 C 
BRANCH   5   6
HETATM    6  C7  UNL     1     -34.964   6.552   3.342  1.00 20.00     0.032 C 
BRANCH   6   7
HETATM    7  C6  UNL     1     -35.039   5.543   4.486  1.00 20.00    -0.002 C 
HETATM    8  C4  UNL     1     -34.233   4.291   4.175  1.00 20.00     0.005 C 
ENDBRANCH   6   7
ENDBRANCH   5   6
BRANCH   5   9
HETATM    9  O9  UNL     1     -33.692   7.678   5.022  1.00 20.00    -0.395 OA
HETATM   10  H23 UNL     1     -33.173   8.473   5.211  1.00 20.00     0.210 HD
ENDBRANCH   5   9
ENDBRANCH   4   5
ENDBRANCH   2   4
TORSDOF 5
ENDMDL
