MODEL 1
REMARK VINA RESULT:      -1.6      0.000      0.000
REMARK  3 active torsions:
REMARK  status: ('A' for Active; 'I' for Inactive)
REMARK    1  A    between atoms: C1_1  and  C3_3 
REMARK    2  A    between atoms: C2_2  and  C3_3 
REMARK    3  A    between atoms: C2_2  and  S6_6 
ROOT
HETATM    1  C3  UNL     1     -33.148   7.001   1.966  1.00 20.00     0.192 C 
HETATM    2 CL7  UNL     1     -32.479   5.422   1.429  1.00 20.00    -0.113 Cl
ENDROOT
BRANCH   1   3
HETATM    3  C1  UNL     1     -33.823   6.709   3.317  1.00 20.00     0.192 C 
HETATM    4  O4  UNL     1     -34.075   5.487   3.525  1.00 20.00    -0.647 OA
HETATM    5  O5  UNL     1     -34.048   7.709   4.054  1.00 20.00    -0.647 OA
ENDBRANCH   1   3
BRANCH   1   6
HETATM    6  C2  UNL     1     -32.019   8.026   1.969  1.00 20.00     0.102 C 
BRANCH   6   7
HETATM    7  S6  UNL     1     -32.267   9.283   0.676  1.00 20.00    -0.180 SA
HETATM    8  H11 UNL     1     -31.705   8.575  -0.313  1.00 20.00     0.101 HD
ENDBRANCH   6   7
ENDBRANCH   1   6
TORSDOF 3
ENDMDL
MODEL 2
REMARK VINA RESULT:      -1.6      0.022      1.221
REMARK  3 active torsions:
REMARK  status: ('A' for Active; 'I' for Inactive)
REMARK    1  A    between atoms: C1_1  and  C3_3 
REMARK    2  A    between atoms: C2_2  and  C3_3 
REMARK    3  A    between atoms: C2_2  and  S6_6 
ROOT
HETATM    1  C3  UNL     1     -33.153   6.988   1.968  1.00 20.00     0.192 C 
HETATM    2 CL7  UNL     1     -32.478   5.416   1.419  1.00 20.00    -0.113 Cl
ENDROOT
BRANCH   1   3
HETATM    3  C1  UNL     1     -33.832   6.683   3.313  1.00 20.00     0.192 C 
HETATM    4  O4  UNL     1     -34.052   7.699   4.034  1.00 20.00    -0.647 OA
HETATM    5  O5  UNL     1     -34.087   5.468   3.545  1.00 20.00    -0.647 OA
ENDBRANCH   1   3
BRANCH   1   6
HETATM    6  C2  UNL     1     -32.028   8.016   1.984  1.00 20.00     0.102 C 
BRANCH   6   7
HETATM    7  S6  UNL     1     -32.262   9.271   0.686  1.00 20.00    -0.180 SA
HETATM    8  H11 UNL     1     -31.013   9.208   0.206  1.00 20.00     0.101 HD
ENDBRANCH   6   7
ENDBRANCH   1   6
TORSDOF 3
ENDMDL
MODEL 3
REMARK VINA RESULT:      -1.4      2.200      2.596
REMARK  3 active torsions:
REMARK  status: ('A' for Active; 'I' for Inactive)
REMARK    1  A    between atoms: C1_1  and  C3_3 
REMARK    2  A    between atoms: C2_2  and  C3_3 
REMARK    3  A    between atoms: C2_2  and  S6_6 
ROOT
HETATM    1  C3  UNL     1     -33.470   6.191   3.547  1.00 20.00     0.192 C 
HETATM    2 CL7  UNL     1     -34.150   7.774   4.058  1.00 20.00    -0.113 Cl
ENDROOT
BRANCH   1   3
HETATM    3  C1  UNL     1     -34.510   5.149   3.991  1.00 20.00     0.192 C 
HETATM    4  O4  UNL     1     -35.643   5.629   4.284  1.00 20.00    -0.647 OA
HETATM    5  O5  UNL     1     -34.119   3.948   4.014  1.00 20.00    -0.647 OA
ENDBRANCH   1   3
BRANCH   1   6
HETATM    6  C2  UNL     1     -33.159   6.260   2.056  1.00 20.00     0.102 C 
BRANCH   6   7
HETATM    7  S6  UNL     1     -32.061   7.661   1.675  1.00 20.00    -0.180 SA
HETATM    8  H11 UNL     1     -30.969   7.138   2.248  1.00 20.00     0.101 HD
ENDBRANCH   6   7
ENDBRANCH   1   6
TORSDOF 3
ENDMDL
MODEL 4
REMARK VINA RESULT:      -1.4      2.218      2.395
REMARK  3 active torsions:
REMARK  status: ('A' for Active; 'I' for Inactive)
REMARK    1  A    between atoms: C1_1  and  C3_3 
REMARK    2  A    between atoms: C2_2  and  C3_3 
REMARK    3  A    between atoms: C2_2  and  S6_6 
ROOT
HETATM    1  C3  UNL     1     -33.476   6.167   3.551  1.00 20.00     0.192 C 
HETATM    2 CL7  UNL     1     -34.157   7.750   4.064  1.00 20.00    -0.113 Cl
ENDROOT
BRANCH   1   3
HETATM    3  C1  UNL     1     -34.510   5.123   4.003  1.00 20.00     0.192 C 
HETATM    4  O4  UNL     1     -34.085   3.931   4.009  1.00 20.00    -0.647 OA
HETATM    5  O5  UNL     1     -35.651   5.567   4.312  1.00 20.00    -0.647 OA
ENDBRANCH   1   3
BRANCH   1   6
HETATM    6  C2  UNL     1     -33.173   6.235   2.059  1.00 20.00     0.102 C 
BRANCH   6   7
HETATM    7  S6  UNL     1     -32.073   7.632   1.671  1.00 20.00    -0.180 SA
HETATM    8  H11 UNL     1     -31.955   7.355   0.366  1.00 20.00     0.101 HD
ENDBRANCH   6   7
ENDBRANCH   1   6
TORSDOF 3
ENDMDL
MODEL 5
REMARK VINA RESULT:      -1.2      3.324      3.569
REMARK  3 active torsions:
REMARK  status: ('A' for Active; 'I' for Inactive)
REMARK    1  A    between atoms: C1_1  and  C3_3 
REMARK    2  A    between atoms: C2_2  and  C3_3 
REMARK    3  A    between atoms: C2_2  and  S6_6 
ROOT
HETATM    1  C3  UNL     1     -33.544   5.476   3.546  1.00 20.00     0.192 C 
HETATM    2 CL7  UNL     1     -33.070   5.671   1.822  1.00 20.00    -0.113 Cl
ENDROOT
BRANCH   1   3
HETATM    3  C1  UNL     1     -34.496   6.649   3.831  1.00 20.00     0.192 C 
HETATM    4  O4  UNL     1     -35.724   6.343   3.820  1.00 20.00    -0.647 OA
HETATM    5  O5  UNL     1     -33.952   7.769   4.041  1.00 20.00    -0.647 OA
ENDBRANCH   1   3
BRANCH   1   6
HETATM    6  C2  UNL     1     -34.105   4.072   3.735  1.00 20.00     0.102 C 
BRANCH   6   7
HETATM    7  S6  UNL     1     -33.026   3.067   4.802  1.00 20.00    -0.180 SA
HETATM    8  H11 UNL     1     -33.239   1.910   4.162  1.00 20.00     0.101 HD
ENDBRANCH   6   7
ENDBRANCH   1   6
TORSDOF 3
ENDMDL
MODEL 6
REMARK VINA RESULT:      -1.2      3.330      3.702
REMARK  3 active torsions:
REMARK  status: ('A' for Active; 'I' for Inactive)
REMARK    1  A    between atoms: C1_1  and  C3_3 
REMARK    2  A    between atoms: C2_2  and  C3_3 
REMARK    3  A    between atoms: C2_2  and  S6_6 
ROOT
HETATM    1  C3  UNL     1     -33.547   5.475   3.549  1.00 20.00     0.192 C 
HETATM    2 CL7  UNL     1     -33.072   5.676   1.827  1.00 20.00    -0.113 Cl
ENDROOT
BRANCH   1   3
HETATM    3  C1  UNL     1     -34.511   6.638   3.835  1.00 20.00     0.192 C 
HETATM    4  O4  UNL     1     -33.944   7.740   4.088  1.00 20.00    -0.647 OA
HETATM    5  O5  UNL     1     -35.742   6.364   3.788  1.00 20.00    -0.647 OA
ENDBRANCH   1   3
BRANCH   1   6
HETATM    6  C2  UNL     1     -34.095   4.065   3.735  1.00 20.00     0.102 C 
BRANCH   6   7
HETATM    7  S6  UNL     1     -33.025   3.079   4.829  1.00 20.00    -0.180 SA
HETATM    8  H11 UNL     1     -33.770   3.240   5.931  1.00 20.00     0.101 HD
ENDBRANCH   6   7
ENDBRANCH   1   6
TORSDOF 3
ENDMDL
MODEL 7
REMARK VINA RESULT:      -1.1      1.332      1.392
REMARK  3 active torsions:
REMARK  status: ('A' for Active; 'I' for Inactive)
REMARK    1  A    between atoms: C1_1  and  C3_3 
REMARK    2  A    between atoms: C2_2  and  C3_3 
REMARK    3  A    between atoms: C2_2  and  S6_6 
ROOT
HETATM    1  C3  UNL     1     -33.813   6.491   2.580  1.00 20.00     0.192 C 
HETATM    2 CL7  UNL     1     -32.802   5.388   1.585  1.00 20.00    -0.113 Cl
ENDROOT
BRANCH   1   3
HETATM    3  C1  UNL     1     -34.437   5.594   3.661  1.00 20.00     0.192 C 
HETATM    4  O4  UNL     1     -33.851   4.485   3.825  1.00 20.00    -0.647 OA
HETATM    5  O5  UNL     1     -35.451   6.058   4.253  1.00 20.00    -0.647 OA
ENDBRANCH   1   3
BRANCH   1   6
HETATM    6  C2  UNL     1     -32.937   7.642   3.063  1.00 20.00     0.102 C 
BRANCH   6   7
HETATM    7  S6  UNL     1     -31.801   8.201   1.754  1.00 20.00    -0.180 SA
HETATM    8  H11 UNL     1     -30.675   7.870   2.399  1.00 20.00     0.101 HD
ENDBRANCH   6   7
ENDBRANCH   1   6
TORSDOF 3
ENDMDL
MODEL 8
REMARK VINA RESULT:      -0.8      3.254      3.536
REMARK  3 active torsions:
REMARK  status: ('A' for Active; 'I' for Inactive)
REMARK    1  A    between atoms: C1_1  and  C3_3 
REMARK    2  A    between atoms: C2_2  and  C3_3 
REMARK    3  A    between atoms: C2_2  and  S6_6 
ROOT
HETATM    1  C3  UNL     1     -33.389   7.506   2.906  1.00 20.00     0.192 C 
HETATM    2 CL7  UNL     1     -32.720   8.179   4.433  1.00 20.00    -0.113 Cl
ENDROOT
BRANCH   1   3
HETATM    3  C1  UNL     1     -32.286   7.723   1.858  1.00 20.00     0.192 C 
HETATM    4  O4  UNL     1     -31.622   6.684   1.572  1.00 20.00    -0.647 OA
HETATM    5  O5  UNL     1     -32.167   8.897   1.409  1.00 20.00    -0.647 OA
ENDBRANCH   1   3
BRANCH   1   6
HETATM    6  C2  UNL     1     -33.820   6.067   3.163  1.00 20.00     0.102 C 
BRANCH   6   7
HETATM    7  S6  UNL     1     -35.331   6.002   4.177  1.00 20.00    -0.180 SA
HETATM    8  H11 UNL     1     -35.293   7.284   4.562  1.00 20.00     0.101 HD
ENDBRANCH   6   7
ENDBRANCH   1   6
TORSDOF 3
ENDMDL
MODEL 9
REMARK VINA RESULT:      -0.7      3.263      3.726
REMARK  3 active torsions:
REMARK  status: ('A' for Active; 'I' for Inactive)
REMARK    1  A    between atoms: C1_1  and  C3_3 
REMARK    2  A    between atoms: C2_2  and  C3_3 
REMARK    3  A    between atoms: C2_2  and  S6_6 
ROOT
HETATM    1  C3  UNL     1     -33.371   7.573   2.886  1.00 20.00     0.192 C 
HETATM    2 CL7  UNL     1     -32.707   8.217   4.428  1.00 20.00    -0.113 Cl
ENDROOT
BRANCH   1   3
HETATM    3  C1  UNL     1     -32.265   7.813   1.845  1.00 20.00     0.192 C 
HETATM    4  O4  UNL     1     -32.247   8.980   1.357  1.00 20.00    -0.647 OA
HETATM    5  O5  UNL     1     -31.511   6.831   1.597  1.00 20.00    -0.647 OA
ENDBRANCH   1   3
BRANCH   1   6
HETATM    6  C2  UNL     1     -33.799   6.128   3.113  1.00 20.00     0.102 C 
BRANCH   6   7
HETATM    7  S6  UNL     1     -35.302   6.039   4.137  1.00 20.00    -0.180 SA
HETATM    8  H11 UNL     1     -35.929   5.128   3.382  1.00 20.00     0.101 HD
ENDBRANCH   6   7
ENDBRANCH   1   6
TORSDOF 3
ENDMDL
