MODEL 1
REMARK VINA RESULT:       0.7      0.000      0.000
REMARK  2 active torsions:
REMARK  status: ('A' for Active; 'I' for Inactive)
REMARK    1  A    between atoms: C6_6  and  C9_9 
REMARK    2  A    between atoms: C6_6  and  C10_10 
ROOT
HETATM    1  C1  UNL     1     -32.653   8.100   3.077  1.00 20.00     0.047 C 
HETATM    2  C2  UNL     1     -33.443   7.335   3.839  1.00 20.00    -0.014 C 
HETATM    3  C3  UNL     1     -32.157   7.600   1.773  1.00 20.00     0.149 C 
HETATM    4  C4  UNL     1     -32.494   6.183   1.367  1.00 20.00     0.084 C 
HETATM    5  C5  UNL     1     -33.844   5.757   1.928  1.00 20.00     0.021 C 
HETATM    6  C6  UNL     1     -33.952   5.962   3.455  1.00 20.00    -0.023 C 
HETATM    7  O11 UNL     1     -31.437   8.316   1.079  1.00 20.00    -0.293 OA
ENDROOT
BRANCH   6   8
HETATM    8  C9  UNL     1     -33.135   4.899   4.209  1.00 20.00     0.009 C 
HETATM    9  C7  UNL     1     -33.913   3.640   4.381  1.00 20.00     0.006 C 
ENDBRANCH   6   8
BRANCH   6  10
HETATM   10  C10 UNL     1     -35.430   5.830   3.864  1.00 20.00     0.009 C 
HETATM   11  C8  UNL     1     -36.287   6.782   3.104  1.00 20.00     0.006 C 
ENDBRANCH   6  10
TORSDOF 2
ENDMDL
MODEL 2
REMARK VINA RESULT:       0.7      2.346      3.887
REMARK  2 active torsions:
REMARK  status: ('A' for Active; 'I' for Inactive)
REMARK    1  A    between atoms: C6_6  and  C9_9 
REMARK    2  A    between atoms: C6_6  and  C10_10 
ROOT
HETATM    1  C1  UNL     1     -35.089   6.564   3.779  1.00 20.00     0.047 C 
HETATM    2  C2  UNL     1     -34.230   7.031   2.866  1.00 20.00    -0.014 C 
HETATM    3  C3  UNL     1     -34.968   5.174   4.279  1.00 20.00     0.149 C 
HETATM    4  C4  UNL     1     -33.912   4.278   3.675  1.00 20.00     0.084 C 
HETATM    5  C5  UNL     1     -32.693   5.081   3.240  1.00 20.00     0.021 C 
HETATM    6  C6  UNL     1     -33.053   6.260   2.308  1.00 20.00    -0.023 C 
HETATM    7  O11 UNL     1     -35.761   4.759   5.123  1.00 20.00    -0.293 OA
ENDROOT
BRANCH   6   8
HETATM    8  C9  UNL     1     -33.410   5.755   0.900  1.00 20.00     0.009 C 
HETATM    9  C7  UNL     1     -32.409   4.766   0.410  1.00 20.00     0.006 C 
ENDBRANCH   6   8
BRANCH   6  10
HETATM   10  C10 UNL     1     -31.832   7.192   2.204  1.00 20.00     0.009 C 
HETATM   11  C8  UNL     1     -32.147   8.407   1.405  1.00 20.00     0.006 C 
ENDBRANCH   6  10
TORSDOF 2
ENDMDL
MODEL 3
REMARK VINA RESULT:       1.0      2.106      4.163
REMARK  2 active torsions:
REMARK  status: ('A' for Active; 'I' for Inactive)
REMARK    1  A    between atoms: C6_6  and  C9_9 
REMARK    2  A    between atoms: C6_6  and  C10_10 
ROOT
HETATM    1  C1  UNL     1     -33.110   5.569   2.209  1.00 20.00     0.047 C 
HETATM    2  C2  UNL     1     -32.358   6.461   1.555  1.00 20.00    -0.014 C 
HETATM    3  C3  UNL     1     -33.996   6.003   3.315  1.00 20.00     0.149 C 
HETATM    4  C4  UNL     1     -33.965   7.453   3.739  1.00 20.00     0.084 C 
HETATM    5  C5  UNL     1     -33.652   8.364   2.559  1.00 20.00     0.021 C 
HETATM    6  C6  UNL     1     -32.365   7.953   1.808  1.00 20.00    -0.023 C 
HETATM    7  O11 UNL     1     -34.687   5.173   3.904  1.00 20.00    -0.293 OA
ENDROOT
BRANCH   6   8
HETATM    8  C9  UNL     1     -31.115   8.327   2.622  1.00 20.00     0.009 C 
HETATM    9  C7  UNL     1     -31.480   9.041   3.878  1.00 20.00     0.006 C 
ENDBRANCH   6   8
BRANCH   6  10
HETATM   10  C10 UNL     1     -32.323   8.702   0.464  1.00 20.00     0.009 C 
HETATM   11  C8  UNL     1     -32.681  10.137   0.634  1.00 20.00     0.006 C 
ENDBRANCH   6  10
TORSDOF 2
ENDMDL
MODEL 4
REMARK VINA RESULT:       1.5      2.343      4.207
REMARK  2 active torsions:
REMARK  status: ('A' for Active; 'I' for Inactive)
REMARK    1  A    between atoms: C6_6  and  C9_9 
REMARK    2  A    between atoms: C6_6  and  C10_10 
ROOT
HETATM    1  C1  UNL     1     -33.842   4.428   4.011  1.00 20.00     0.047 C 
HETATM    2  C2  UNL     1     -33.040   4.959   3.081  1.00 20.00    -0.014 C 
HETATM    3  C3  UNL     1     -35.073   5.138   4.433  1.00 20.00     0.149 C 
HETATM    4  C4  UNL     1     -35.354   6.505   3.853  1.00 20.00     0.084 C 
HETATM    5  C5  UNL     1     -34.806   6.624   2.437  1.00 20.00     0.021 C 
HETATM    6  C6  UNL     1     -33.310   6.250   2.339  1.00 20.00    -0.023 C 
HETATM    7  O11 UNL     1     -35.804   4.636   5.285  1.00 20.00    -0.293 OA
ENDROOT
BRANCH   6   8
HETATM    8  C9  UNL     1     -32.428   7.361   2.935  1.00 20.00     0.009 C 
HETATM    9  C7  UNL     1     -31.896   8.258   1.870  1.00 20.00     0.006 C 
ENDBRANCH   6   8
BRANCH   6  10
HETATM   10  C10 UNL     1     -32.946   6.073   0.853  1.00 20.00     0.009 C 
HETATM   11  C8  UNL     1     -32.092   4.872   0.646  1.00 20.00     0.006 C 
ENDBRANCH   6  10
TORSDOF 2
ENDMDL
MODEL 5
REMARK VINA RESULT:       1.5      0.611      2.465
REMARK  2 active torsions:
REMARK  status: ('A' for Active; 'I' for Inactive)
REMARK    1  A    between atoms: C6_6  and  C9_9 
REMARK    2  A    between atoms: C6_6  and  C10_10 
ROOT
HETATM    1  C1  UNL     1     -32.350   6.388   1.210  1.00 20.00     0.047 C 
HETATM    2  C2  UNL     1     -33.125   5.659   2.021  1.00 20.00    -0.014 C 
HETATM    3  C3  UNL     1     -32.027   7.795   1.547  1.00 20.00     0.149 C 
HETATM    4  C4  UNL     1     -32.658   8.406   2.777  1.00 20.00     0.084 C 
HETATM    5  C5  UNL     1     -32.890   7.356   3.856  1.00 20.00     0.021 C 
HETATM    6  C6  UNL     1     -33.686   6.135   3.344  1.00 20.00    -0.023 C 
HETATM    7  O11 UNL     1     -31.308   8.452   0.796  1.00 20.00    -0.293 OA
ENDROOT
BRANCH   6   8
HETATM    8  C9  UNL     1     -35.171   6.489   3.158  1.00 20.00     0.009 C 
HETATM    9  C7  UNL     1     -35.981   6.054   4.330  1.00 20.00     0.006 C 
ENDBRANCH   6   8
BRANCH   6  10
HETATM   10  C10 UNL     1     -33.573   5.006   4.385  1.00 20.00     0.009 C 
HETATM   11  C8  UNL     1     -33.594   3.668   3.734  1.00 20.00     0.006 C 
ENDBRANCH   6  10
TORSDOF 2
ENDMDL
MODEL 6
REMARK VINA RESULT:       1.8      2.294      4.101
REMARK  2 active torsions:
REMARK  status: ('A' for Active; 'I' for Inactive)
REMARK    1  A    between atoms: C6_6  and  C9_9 
REMARK    2  A    between atoms: C6_6  and  C10_10 
ROOT
HETATM    1  C1  UNL     1     -32.234   8.515   4.109  1.00 20.00     0.047 C 
HETATM    2  C2  UNL     1     -31.754   8.234   2.892  1.00 20.00    -0.014 C 
HETATM    3  C3  UNL     1     -33.582   8.048   4.509  1.00 20.00     0.149 C 
HETATM    4  C4  UNL     1     -34.429   7.325   3.488  1.00 20.00     0.084 C 
HETATM    5  C5  UNL     1     -33.563   6.533   2.517  1.00 20.00     0.021 C 
HETATM    6  C6  UNL     1     -32.465   7.394   1.852  1.00 20.00    -0.023 C 
HETATM    7  O11 UNL     1     -34.008   8.309   5.633  1.00 20.00    -0.293 OA
ENDROOT
BRANCH   6   8
HETATM    8  C9  UNL     1     -33.071   8.326   0.788  1.00 20.00     0.009 C 
HETATM    9  C7  UNL     1     -32.189   9.500   0.535  1.00 20.00     0.006 C 
ENDBRANCH   6   8
BRANCH   6  10
HETATM   10  C10 UNL     1     -31.453   6.456   1.170  1.00 20.00     0.009 C 
HETATM   11  C8  UNL     1     -32.005   5.081   1.024  1.00 20.00     0.006 C 
ENDBRANCH   6  10
TORSDOF 2
ENDMDL
MODEL 7
REMARK VINA RESULT:       1.8      2.139      4.209
REMARK  2 active torsions:
REMARK  status: ('A' for Active; 'I' for Inactive)
REMARK    1  A    between atoms: C6_6  and  C9_9 
REMARK    2  A    between atoms: C6_6  and  C10_10 
ROOT
HETATM    1  C1  UNL     1     -34.248   7.133   3.944  1.00 20.00     0.047 C 
HETATM    2  C2  UNL     1     -33.455   8.041   3.365  1.00 20.00    -0.014 C 
HETATM    3  C3  UNL     1     -34.307   5.747   3.421  1.00 20.00     0.149 C 
HETATM    4  C4  UNL     1     -33.521   5.411   2.176  1.00 20.00     0.084 C 
HETATM    5  C5  UNL     1     -32.251   6.248   2.084  1.00 20.00     0.021 C 
HETATM    6  C6  UNL     1     -32.522   7.764   2.205  1.00 20.00    -0.023 C 
HETATM    7  O11 UNL     1     -35.037   4.921   3.967  1.00 20.00    -0.293 OA
ENDROOT
BRANCH   6   8
HETATM    8  C9  UNL     1     -33.156   8.312   0.915  1.00 20.00     0.009 C 
HETATM    9  C7  UNL     1     -32.418   9.506   0.415  1.00 20.00     0.006 C 
ENDBRANCH   6   8
BRANCH   6  10
HETATM   10  C10 UNL     1     -31.181   8.483   2.442  1.00 20.00     0.009 C 
HETATM   11  C8  UNL     1     -31.149   9.139   3.778  1.00 20.00     0.006 C 
ENDBRANCH   6  10
TORSDOF 2
ENDMDL
MODEL 8
REMARK VINA RESULT:       2.0      2.302      3.937
REMARK  2 active torsions:
REMARK  status: ('A' for Active; 'I' for Inactive)
REMARK    1  A    between atoms: C6_6  and  C9_9 
REMARK    2  A    between atoms: C6_6  and  C10_10 
ROOT
HETATM    1  C1  UNL     1     -34.469   6.613   2.374  1.00 20.00     0.047 C 
HETATM    2  C2  UNL     1     -33.575   6.877   1.414  1.00 20.00    -0.014 C 
HETATM    3  C3  UNL     1     -34.226   7.059   3.767  1.00 20.00     0.149 C 
HETATM    4  C4  UNL     1     -32.916   7.738   4.090  1.00 20.00     0.084 C 
HETATM    5  C5  UNL     1     -32.395   8.526   2.895  1.00 20.00     0.021 C 
HETATM    6  C6  UNL     1     -32.303   7.675   1.609  1.00 20.00    -0.023 C 
HETATM    7  O11 UNL     1     -35.059   6.815   4.638  1.00 20.00    -0.293 OA
ENDROOT
BRANCH   6   8
HETATM    8  C9  UNL     1     -31.112   6.704   1.679  1.00 20.00     0.009 C 
HETATM    9  C7  UNL     1     -31.515   5.324   1.285  1.00 20.00     0.006 C 
ENDBRANCH   6   8
BRANCH   6  10
HETATM   10  C10 UNL     1     -32.102   8.619   0.410  1.00 20.00     0.009 C 
HETATM   11  C8  UNL     1     -32.632   9.980   0.700  1.00 20.00     0.006 C 
ENDBRANCH   6  10
TORSDOF 2
ENDMDL
MODEL 9
REMARK VINA RESULT:       2.0      1.566      2.453
REMARK  2 active torsions:
REMARK  status: ('A' for Active; 'I' for Inactive)
REMARK    1  A    between atoms: C6_6  and  C9_9 
REMARK    2  A    between atoms: C6_6  and  C10_10 
ROOT
HETATM    1  C1  UNL     1     -32.029   9.076   2.058  1.00 20.00     0.047 C 
HETATM    2  C2  UNL     1     -32.200   7.873   2.616  1.00 20.00    -0.014 C 
HETATM    3  C3  UNL     1     -32.348   9.291   0.627  1.00 20.00     0.149 C 
HETATM    4  C4  UNL     1     -32.787   8.106  -0.201  1.00 20.00     0.084 C 
HETATM    5  C5  UNL     1     -33.549   7.095   0.646  1.00 20.00     0.021 C 
HETATM    6  C6  UNL     1     -32.770   6.662   1.909  1.00 20.00    -0.023 C 
HETATM    7  O11 UNL     1     -32.192  10.404   0.128  1.00 20.00    -0.293 OA
ENDROOT
BRANCH   6   8
HETATM    8  C9  UNL     1     -31.618   5.711   1.541  1.00 20.00     0.009 C 
HETATM    9  C7  UNL     1     -32.075   4.642   0.610  1.00 20.00     0.006 C 
ENDBRANCH   6   8
BRANCH   6  10
HETATM   10  C10 UNL     1     -33.738   5.924   2.852  1.00 20.00     0.009 C 
HETATM   11  C8  UNL     1     -34.444   6.876   3.752  1.00 20.00     0.006 C 
ENDBRANCH   6  10
TORSDOF 2
ENDMDL
