MODEL 1
REMARK VINA RESULT:      -1.8      0.000      0.000
REMARK  1 active torsions:
REMARK  status: ('A' for Active; 'I' for Inactive)
REMARK    1  A    between atoms: C2_2  and  C7_7 
ROOT
HETATM    1  C3  UNL     1     -33.017   7.916   3.104  1.00 20.00     0.034 C 
HETATM    2  C4  UNL     1     -33.430   5.554   2.371  1.00 20.00     0.034 C 
HETATM    3  C5  UNL     1     -32.075   8.047   1.912  1.00 20.00     0.168 C 
HETATM    4  C6  UNL     1     -32.466   5.815   1.220  1.00 20.00     0.168 C 
HETATM    5  C7  UNL     1     -34.076   6.856   2.827  1.00 20.00     0.011 C 
HETATM    6  O8  UNL     1     -31.488   6.786   1.590  1.00 20.00    -0.391 OA
ENDROOT
BRANCH   5   7
HETATM    7  C2  UNL     1     -34.827   6.588   4.117  1.00 20.00    -0.032 C 
HETATM    8  C1  UNL     1     -35.356   5.405   4.443  1.00 20.00     0.007 C 
ENDBRANCH   5   7
TORSDOF 1
ENDMDL
MODEL 2
REMARK VINA RESULT:      -1.7      1.713      3.404
REMARK  1 active torsions:
REMARK  status: ('A' for Active; 'I' for Inactive)
REMARK    1  A    between atoms: C2_2  and  C7_7 
ROOT
HETATM    1  C3  UNL     1     -33.239   8.322   2.956  1.00 20.00     0.034 C 
HETATM    2  C4  UNL     1     -32.823   6.226   1.645  1.00 20.00     0.034 C 
HETATM    3  C5  UNL     1     -33.873   7.443   4.028  1.00 20.00     0.168 C 
HETATM    4  C6  UNL     1     -33.479   5.462   2.788  1.00 20.00     0.168 C 
HETATM    5  C7  UNL     1     -32.216   7.526   2.156  1.00 20.00     0.011 C 
HETATM    6  O8  UNL     1     -34.451   6.274   3.447  1.00 20.00    -0.391 OA
ENDROOT
BRANCH   5   7
HETATM    7  C2  UNL     1     -31.798   8.359   0.958  1.00 20.00    -0.032 C 
HETATM    8  C1  UNL     1     -32.398   9.495   0.592  1.00 20.00     0.007 C 
ENDBRANCH   5   7
TORSDOF 1
ENDMDL
MODEL 3
REMARK VINA RESULT:      -1.6      0.520      1.793
REMARK  1 active torsions:
REMARK  status: ('A' for Active; 'I' for Inactive)
REMARK    1  A    between atoms: C2_2  and  C7_7 
ROOT
HETATM    1  C3  UNL     1     -33.390   5.729   2.125  1.00 20.00     0.034 C 
HETATM    2  C4  UNL     1     -33.256   8.045   3.076  1.00 20.00     0.034 C 
HETATM    3  C5  UNL     1     -32.046   5.999   1.458  1.00 20.00     0.168 C 
HETATM    4  C6  UNL     1     -31.920   8.188   2.358  1.00 20.00     0.168 C 
HETATM    5  C7  UNL     1     -33.539   6.579   3.380  1.00 20.00     0.011 C 
HETATM    6  O8  UNL     1     -31.893   7.390   1.174  1.00 20.00    -0.391 OA
ENDROOT
BRANCH   5   7
HETATM    7  C2  UNL     1     -34.972   6.462   3.865  1.00 20.00    -0.032 C 
HETATM    8  C1  UNL     1     -35.475   5.374   4.454  1.00 20.00     0.007 C 
ENDBRANCH   5   7
TORSDOF 1
ENDMDL
MODEL 4
REMARK VINA RESULT:      -1.4      1.189      1.400
REMARK  1 active torsions:
REMARK  status: ('A' for Active; 'I' for Inactive)
REMARK    1  A    between atoms: C2_2  and  C7_7 
ROOT
HETATM    1  C3  UNL     1     -33.768   7.303   4.008  1.00 20.00     0.034 C 
HETATM    2  C4  UNL     1     -33.105   5.653   2.240  1.00 20.00     0.034 C 
HETATM    3  C5  UNL     1     -33.153   8.387   3.129  1.00 20.00     0.168 C 
HETATM    4  C6  UNL     1     -32.527   6.827   1.458  1.00 20.00     0.168 C 
HETATM    5  C7  UNL     1     -34.227   6.127   3.155  1.00 20.00     0.011 C 
HETATM    6  O8  UNL     1     -32.086   7.856   2.344  1.00 20.00    -0.391 OA
ENDROOT
BRANCH   5   7
HETATM    7  C2  UNL     1     -34.599   4.985   4.082  1.00 20.00    -0.032 C 
HETATM    8  C1  UNL     1     -33.856   3.888   4.252  1.00 20.00     0.007 C 
ENDBRANCH   5   7
TORSDOF 1
ENDMDL
MODEL 5
REMARK VINA RESULT:      -1.4      1.632      3.669
REMARK  1 active torsions:
REMARK  status: ('A' for Active; 'I' for Inactive)
REMARK    1  A    between atoms: C2_2  and  C7_7 
ROOT
HETATM    1  C3  UNL     1     -32.714   5.736   2.170  1.00 20.00     0.034 C 
HETATM    2  C4  UNL     1     -33.775   7.566   3.517  1.00 20.00     0.034 C 
HETATM    3  C5  UNL     1     -33.791   4.805   2.715  1.00 20.00     0.168 C 
HETATM    4  C6  UNL     1     -34.793   6.535   3.989  1.00 20.00     0.168 C 
HETATM    5  C7  UNL     1     -33.216   7.174   2.155  1.00 20.00     0.011 C 
HETATM    6  O8  UNL     1     -34.217   5.228   4.011  1.00 20.00    -0.391 OA
ENDROOT
BRANCH   5   7
HETATM    7  C2  UNL     1     -32.042   8.083   1.843  1.00 20.00    -0.032 C 
HETATM    8  C1  UNL     1     -32.056   9.024   0.894  1.00 20.00     0.007 C 
ENDBRANCH   5   7
TORSDOF 1
ENDMDL
MODEL 6
REMARK VINA RESULT:      -1.3      2.081      3.584
REMARK  1 active torsions:
REMARK  status: ('A' for Active; 'I' for Inactive)
REMARK    1  A    between atoms: C2_2  and  C7_7 
ROOT
HETATM    1  C3  UNL     1     -34.664   6.852   3.343  1.00 20.00     0.034 C 
HETATM    2  C4  UNL     1     -33.310   4.769   3.005  1.00 20.00     0.034 C 
HETATM    3  C5  UNL     1     -35.320   6.150   4.526  1.00 20.00     0.168 C 
HETATM    4  C6  UNL     1     -34.040   4.182   4.206  1.00 20.00     0.168 C 
HETATM    5  C7  UNL     1     -33.269   6.289   3.101  1.00 20.00     0.011 C 
HETATM    6  O8  UNL     1     -35.350   4.737   4.323  1.00 20.00    -0.391 OA
ENDROOT
BRANCH   5   7
HETATM    7  C2  UNL     1     -32.760   6.835   1.780  1.00 20.00    -0.032 C 
HETATM    8  C1  UNL     1     -31.983   7.917   1.668  1.00 20.00     0.007 C 
ENDBRANCH   5   7
TORSDOF 1
ENDMDL
MODEL 7
REMARK VINA RESULT:      -1.0      2.191      3.197
REMARK  1 active torsions:
REMARK  status: ('A' for Active; 'I' for Inactive)
REMARK    1  A    between atoms: C2_2  and  C7_7 
ROOT
HETATM    1  C3  UNL     1     -34.964   5.057   4.561  1.00 20.00     0.034 C 
HETATM    2  C4  UNL     1     -32.949   5.226   3.079  1.00 20.00     0.034 C 
HETATM    3  C5  UNL     1     -35.372   6.433   4.046  1.00 20.00     0.168 C 
HETATM    4  C6  UNL     1     -33.467   6.591   2.645  1.00 20.00     0.168 C 
HETATM    5  C7  UNL     1     -34.103   4.339   3.529  1.00 20.00     0.011 C 
HETATM    6  O8  UNL     1     -34.222   7.201   3.691  1.00 20.00    -0.391 OA
ENDROOT
BRANCH   5   7
HETATM    7  C2  UNL     1     -33.523   3.096   4.177  1.00 20.00    -0.032 C 
HETATM    8  C1  UNL     1     -32.857   3.098   5.336  1.00 20.00     0.007 C 
ENDBRANCH   5   7
TORSDOF 1
ENDMDL
MODEL 8
REMARK VINA RESULT:      -0.6      1.538      3.232
REMARK  1 active torsions:
REMARK  status: ('A' for Active; 'I' for Inactive)
REMARK    1  A    between atoms: C2_2  and  C7_7 
ROOT
HETATM    1  C3  UNL     1     -33.849   6.031   3.064  1.00 20.00     0.034 C 
HETATM    2  C4  UNL     1     -32.026   7.325   1.929  1.00 20.00     0.034 C 
HETATM    3  C5  UNL     1     -34.112   7.275   3.906  1.00 20.00     0.168 C 
HETATM    4  C6  UNL     1     -32.388   8.497   2.833  1.00 20.00     0.168 C 
HETATM    5  C7  UNL     1     -33.233   6.419   1.725  1.00 20.00     0.011 C 
HETATM    6  O8  UNL     1     -32.914   8.033   4.076  1.00 20.00    -0.391 OA
ENDROOT
BRANCH   5   7
HETATM    7  C2  UNL     1     -32.766   5.152   1.034  1.00 20.00    -0.032 C 
HETATM    8  C1  UNL     1     -31.485   4.794   0.914  1.00 20.00     0.007 C 
ENDBRANCH   5   7
TORSDOF 1
ENDMDL
MODEL 9
REMARK VINA RESULT:      -0.4      1.961      3.394
REMARK  1 active torsions:
REMARK  status: ('A' for Active; 'I' for Inactive)
REMARK    1  A    between atoms: C2_2  and  C7_7 
ROOT
HETATM    1  C3  UNL     1     -33.775   7.415   2.980  1.00 20.00     0.034 C 
HETATM    2  C4  UNL     1     -33.884   4.910   2.969  1.00 20.00     0.034 C 
HETATM    3  C5  UNL     1     -34.606   7.376   4.258  1.00 20.00     0.168 C 
HETATM    4  C6  UNL     1     -34.708   5.008   4.247  1.00 20.00     0.168 C 
HETATM    5  C7  UNL     1     -32.977   6.126   2.828  1.00 20.00     0.011 C 
HETATM    6  O8  UNL     1     -35.452   6.226   4.276  1.00 20.00    -0.391 OA
ENDROOT
BRANCH   5   7
HETATM    7  C2  UNL     1     -32.368   6.106   1.439  1.00 20.00    -0.032 C 
HETATM    8  C1  UNL     1     -32.003   4.992   0.798  1.00 20.00     0.007 C 
ENDBRANCH   5   7
TORSDOF 1
ENDMDL
