MODEL 1
REMARK VINA RESULT:      -1.7      0.000      0.000
REMARK  2 active torsions:
REMARK  status: ('A' for Active; 'I' for Inactive)
REMARK    1  A    between atoms: C5_5  and  C6_6 
REMARK    2  A    between atoms: C6_6  and  C7_7 
ROOT
HETATM    1  C1  UNL     1     -33.558   6.196   2.532  1.00 20.00     0.068 C 
HETATM    2  C3  UNL     1     -35.875   6.761   3.145  1.00 20.00     0.031 C 
HETATM    3  C4  UNL     1     -33.960   7.484   4.579  1.00 20.00     0.031 C 
HETATM    4  C7  UNL     1     -34.489   6.357   3.672  1.00 20.00     0.042 C 
HETATM    5  N8  UNL     1     -32.827   6.072   1.639  1.00 20.00    -0.196 NA
ENDROOT
BRANCH   4   6
HETATM    6  C6  UNL     1     -34.551   5.048   4.502  1.00 20.00     0.023 C 
BRANCH   6   7
HETATM    7  C5  UNL     1     -33.844   3.838   3.875  1.00 20.00    -0.003 C 
HETATM    8  C2  UNL     1     -33.143   3.000   4.934  1.00 20.00     0.005 C 
ENDBRANCH   6   7
ENDBRANCH   4   6
TORSDOF 2
ENDMDL
MODEL 2
REMARK VINA RESULT:      -1.6      2.550      3.782
REMARK  2 active torsions:
REMARK  status: ('A' for Active; 'I' for Inactive)
REMARK    1  A    between atoms: C5_5  and  C6_6 
REMARK    2  A    between atoms: C6_6  and  C7_7 
ROOT
HETATM    1  C1  UNL     1     -32.441   8.985   0.957  1.00 20.00     0.068 C 
HETATM    2  C3  UNL     1     -31.029   8.359   2.875  1.00 20.00     0.031 C 
HETATM    3  C4  UNL     1     -31.968   6.613   1.354  1.00 20.00     0.031 C 
HETATM    4  C7  UNL     1     -32.247   7.973   2.021  1.00 20.00     0.042 C 
HETATM    5  N8  UNL     1     -32.593   9.777   0.122  1.00 20.00    -0.196 NA
ENDROOT
BRANCH   4   6
HETATM    6  C6  UNL     1     -33.532   7.845   2.880  1.00 20.00     0.023 C 
BRANCH   6   7
HETATM    7  C5  UNL     1     -33.913   6.414   3.282  1.00 20.00    -0.003 C 
HETATM    8  C2  UNL     1     -35.252   6.383   4.006  1.00 20.00     0.005 C 
ENDBRANCH   6   7
ENDBRANCH   4   6
TORSDOF 2
ENDMDL
MODEL 3
REMARK VINA RESULT:      -1.6      1.862      3.632
REMARK  2 active torsions:
REMARK  status: ('A' for Active; 'I' for Inactive)
REMARK    1  A    between atoms: C5_5  and  C6_6 
REMARK    2  A    between atoms: C6_6  and  C7_7 
ROOT
HETATM    1  C1  UNL     1     -34.171   5.098   3.957  1.00 20.00     0.068 C 
HETATM    2  C3  UNL     1     -33.803   7.445   4.605  1.00 20.00     0.031 C 
HETATM    3  C4  UNL     1     -35.738   6.805   3.157  1.00 20.00     0.031 C 
HETATM    4  C7  UNL     1     -34.264   6.499   3.485  1.00 20.00     0.042 C 
HETATM    5  N8  UNL     1     -34.099   4.000   4.328  1.00 20.00    -0.196 NA
ENDROOT
BRANCH   4   6
HETATM    6  C6  UNL     1     -33.425   6.686   2.195  1.00 20.00     0.023 C 
BRANCH   6   7
HETATM    7  C5  UNL     1     -32.257   7.676   2.308  1.00 20.00    -0.003 C 
HETATM    8  C2  UNL     1     -32.249   8.655   1.142  1.00 20.00     0.005 C 
ENDBRANCH   6   7
ENDBRANCH   4   6
TORSDOF 2
ENDMDL
MODEL 4
REMARK VINA RESULT:      -1.2      1.857      3.419
REMARK  2 active torsions:
REMARK  status: ('A' for Active; 'I' for Inactive)
REMARK    1  A    between atoms: C5_5  and  C6_6 
REMARK    2  A    between atoms: C6_6  and  C7_7 
ROOT
HETATM    1  C1  UNL     1     -32.239   7.319   1.562  1.00 20.00     0.068 C 
HETATM    2  C3  UNL     1     -31.518   4.987   1.243  1.00 20.00     0.031 C 
HETATM    3  C4  UNL     1     -33.748   5.760   0.421  1.00 20.00     0.031 C 
HETATM    4  C7  UNL     1     -32.706   5.914   1.545  1.00 20.00     0.042 C 
HETATM    5  N8  UNL     1     -31.874   8.421   1.575  1.00 20.00    -0.196 NA
ENDROOT
BRANCH   4   6
HETATM    6  C6  UNL     1     -33.383   5.557   2.894  1.00 20.00     0.023 C 
BRANCH   6   7
HETATM    7  C5  UNL     1     -34.163   6.699   3.560  1.00 20.00    -0.003 C 
HETATM    8  C2  UNL     1     -35.502   6.212   4.096  1.00 20.00     0.005 C 
ENDBRANCH   6   7
ENDBRANCH   4   6
TORSDOF 2
ENDMDL
MODEL 5
REMARK VINA RESULT:      -1.2      2.070      3.304
REMARK  2 active torsions:
REMARK  status: ('A' for Active; 'I' for Inactive)
REMARK    1  A    between atoms: C5_5  and  C6_6 
REMARK    2  A    between atoms: C6_6  and  C7_7 
ROOT
HETATM    1  C1  UNL     1     -32.293   6.581   1.619  1.00 20.00     0.068 C 
HETATM    2  C3  UNL     1     -32.358   8.907   0.816  1.00 20.00     0.031 C 
HETATM    3  C4  UNL     1     -31.313   8.342   3.014  1.00 20.00     0.031 C 
HETATM    4  C7  UNL     1     -32.456   7.990   2.045  1.00 20.00     0.042 C 
HETATM    5  N8  UNL     1     -32.163   5.477   1.286  1.00 20.00    -0.196 NA
ENDROOT
BRANCH   4   6
HETATM    6  C6  UNL     1     -33.805   8.172   2.789  1.00 20.00     0.023 C 
BRANCH   6   7
HETATM    7  C5  UNL     1     -33.979   7.317   4.052  1.00 20.00    -0.003 C 
HETATM    8  C2  UNL     1     -35.155   6.362   3.913  1.00 20.00     0.005 C 
ENDBRANCH   6   7
ENDBRANCH   4   6
TORSDOF 2
ENDMDL
MODEL 6
REMARK VINA RESULT:      -1.2      1.446      2.067
REMARK  2 active torsions:
REMARK  status: ('A' for Active; 'I' for Inactive)
REMARK    1  A    between atoms: C5_5  and  C6_6 
REMARK    2  A    between atoms: C6_6  and  C7_7 
ROOT
HETATM    1  C1  UNL     1     -33.864   7.377   4.406  1.00 20.00     0.068 C 
HETATM    2  C3  UNL     1     -33.597   6.071   2.336  1.00 20.00     0.031 C 
HETATM    3  C4  UNL     1     -35.868   6.700   3.168  1.00 20.00     0.031 C 
HETATM    4  C7  UNL     1     -34.449   6.283   3.597  1.00 20.00     0.042 C 
HETATM    5  N8  UNL     1     -33.407   8.235   5.040  1.00 20.00    -0.196 NA
ENDROOT
BRANCH   4   6
HETATM    6  C6  UNL     1     -34.553   4.987   4.443  1.00 20.00     0.023 C 
BRANCH   6   7
HETATM    7  C5  UNL     1     -33.805   3.772   3.879  1.00 20.00    -0.003 C 
HETATM    8  C2  UNL     1     -33.105   2.994   4.984  1.00 20.00     0.005 C 
ENDBRANCH   6   7
ENDBRANCH   4   6
TORSDOF 2
ENDMDL
MODEL 7
REMARK VINA RESULT:      -1.0      2.680      4.676
REMARK  2 active torsions:
REMARK  status: ('A' for Active; 'I' for Inactive)
REMARK    1  A    between atoms: C5_5  and  C6_6 
REMARK    2  A    between atoms: C6_6  and  C7_7 
ROOT
HETATM    1  C1  UNL     1     -33.735   6.486   2.881  1.00 20.00     0.068 C 
HETATM    2  C3  UNL     1     -33.639   6.511   0.421  1.00 20.00     0.031 C 
HETATM    3  C4  UNL     1     -31.794   5.491   1.763  1.00 20.00     0.031 C 
HETATM    4  C7  UNL     1     -32.827   6.632   1.720  1.00 20.00     0.042 C 
HETATM    5  N8  UNL     1     -34.445   6.371   3.792  1.00 20.00    -0.196 NA
ENDROOT
BRANCH   4   6
HETATM    6  C6  UNL     1     -32.069   7.983   1.798  1.00 20.00     0.023 C 
BRANCH   6   7
HETATM    7  C5  UNL     1     -31.828   8.680   0.453  1.00 20.00    -0.003 C 
HETATM    8  C2  UNL     1     -32.537  10.026   0.394  1.00 20.00     0.005 C 
ENDBRANCH   6   7
ENDBRANCH   4   6
TORSDOF 2
ENDMDL
MODEL 8
REMARK VINA RESULT:      -0.8      1.147      1.201
REMARK  2 active torsions:
REMARK  status: ('A' for Active; 'I' for Inactive)
REMARK    1  A    between atoms: C5_5  and  C6_6 
REMARK    2  A    between atoms: C6_6  and  C7_7 
ROOT
HETATM    1  C1  UNL     1     -33.036   7.587   2.407  1.00 20.00     0.068 C 
HETATM    2  C3  UNL     1     -35.313   6.893   3.036  1.00 20.00     0.031 C 
HETATM    3  C4  UNL     1     -33.626   7.479   4.784  1.00 20.00     0.031 C 
HETATM    4  C7  UNL     1     -33.823   6.825   3.404  1.00 20.00     0.042 C 
HETATM    5  N8  UNL     1     -32.420   8.186   1.627  1.00 20.00    -0.196 NA
ENDROOT
BRANCH   4   6
HETATM    6  C6  UNL     1     -33.317   5.360   3.479  1.00 20.00     0.023 C 
BRANCH   6   7
HETATM    7  C5  UNL     1     -34.237   4.385   4.224  1.00 20.00    -0.003 C 
HETATM    8  C2  UNL     1     -33.483   3.134   4.654  1.00 20.00     0.005 C 
ENDBRANCH   6   7
ENDBRANCH   4   6
TORSDOF 2
ENDMDL
MODEL 9
REMARK VINA RESULT:      -0.7      1.939      3.516
REMARK  2 active torsions:
REMARK  status: ('A' for Active; 'I' for Inactive)
REMARK    1  A    between atoms: C5_5  and  C6_6 
REMARK    2  A    between atoms: C6_6  and  C7_7 
ROOT
HETATM    1  C1  UNL     1     -33.669   7.430   4.341  1.00 20.00     0.068 C 
HETATM    2  C3  UNL     1     -35.751   6.534   3.380  1.00 20.00     0.031 C 
HETATM    3  C4  UNL     1     -33.853   5.015   3.960  1.00 20.00     0.031 C 
HETATM    4  C7  UNL     1     -34.220   6.410   3.419  1.00 20.00     0.042 C 
HETATM    5  N8  UNL     1     -33.236   8.228   5.064  1.00 20.00    -0.196 NA
ENDROOT
BRANCH   4   6
HETATM    6  C6  UNL     1     -33.596   6.569   2.008  1.00 20.00     0.023 C 
BRANCH   6   7
HETATM    7  C5  UNL     1     -32.160   7.111   1.982  1.00 20.00    -0.003 C 
HETATM    8  C2  UNL     1     -32.095   8.465   1.290  1.00 20.00     0.005 C 
ENDBRANCH   6   7
ENDBRANCH   4   6
TORSDOF 2
ENDMDL
