MODEL 1
REMARK VINA RESULT:       0.6      0.000      0.000
REMARK  1 active torsions:
REMARK  status: ('A' for Active; 'I' for Inactive)
REMARK    1  A    between atoms: C1_1  and  C6_6 
ROOT
HETATM    1  C2  UNL     1     -33.126   7.741   3.844  1.00 20.00     0.005 C 
HETATM    2  C3  UNL     1     -34.179   7.218   4.832  1.00 20.00     0.006 C 
HETATM    3  C4  UNL     1     -33.285   5.625   2.517  1.00 20.00     0.016 C 
HETATM    4  C5  UNL     1     -35.104   7.160   2.652  1.00 20.00     0.010 C 
HETATM    5  C6  UNL     1     -34.347   5.072   3.476  1.00 20.00     0.051 C 
HETATM    6  C7  UNL     1     -33.583   7.136   2.506  1.00 20.00    -0.013 C 
HETATM    7  C8  UNL     1     -35.083   6.341   3.945  1.00 20.00    -0.003 C 
ENDROOT
BRANCH   5   8
HETATM    8  C1  UNL     1     -33.773   4.259   4.594  1.00 20.00     0.236 C 
HETATM    9  O9  UNL     1     -33.643   3.040   4.546  1.00 20.00    -0.306 OA
ENDBRANCH   5   8
TORSDOF 1
ENDMDL
MODEL 2
REMARK VINA RESULT:       0.7      3.425      4.571
REMARK  1 active torsions:
REMARK  status: ('A' for Active; 'I' for Inactive)
REMARK    1  A    between atoms: C1_1  and  C6_6 
ROOT
HETATM    1  C2  UNL     1     -33.783   6.894   2.831  1.00 20.00     0.005 C 
HETATM    2  C3  UNL     1     -32.673   7.897   3.178  1.00 20.00     0.006 C 
HETATM    3  C4  UNL     1     -33.240   7.098   0.396  1.00 20.00     0.016 C 
HETATM    4  C5  UNL     1     -31.714   6.116   1.944  1.00 20.00     0.010 C 
HETATM    5  C6  UNL     1     -32.114   8.094   0.704  1.00 20.00     0.051 C 
HETATM    6  C7  UNL     1     -33.206   6.154   1.613  1.00 20.00    -0.013 C 
HETATM    7  C8  UNL     1     -31.616   7.637   2.088  1.00 20.00    -0.003 C 
ENDROOT
BRANCH   5   8
HETATM    8  C1  UNL     1     -32.559   9.523   0.664  1.00 20.00     0.236 C 
HETATM    9  O9  UNL     1     -32.792  10.130  -0.376  1.00 20.00    -0.306 OA
ENDBRANCH   5   8
TORSDOF 1
ENDMDL
MODEL 3
REMARK VINA RESULT:       0.7      2.193      3.328
REMARK  1 active torsions:
REMARK  status: ('A' for Active; 'I' for Inactive)
REMARK    1  A    between atoms: C1_1  and  C6_6 
ROOT
HETATM    1  C2  UNL     1     -33.989   5.112   4.091  1.00 20.00     0.005 C 
HETATM    2  C3  UNL     1     -33.686   5.322   2.601  1.00 20.00     0.006 C 
HETATM    3  C4  UNL     1     -33.878   7.580   4.489  1.00 20.00     0.016 C 
HETATM    4  C5  UNL     1     -35.601   6.600   3.164  1.00 20.00     0.010 C 
HETATM    5  C6  UNL     1     -33.584   7.832   3.004  1.00 20.00     0.051 C 
HETATM    6  C7  UNL     1     -34.815   6.358   4.452  1.00 20.00    -0.013 C 
HETATM    7  C8  UNL     1     -34.338   6.686   2.303  1.00 20.00    -0.003 C 
ENDROOT
BRANCH   5   8
HETATM    8  C1  UNL     1     -32.122   7.876   2.686  1.00 20.00     0.236 C 
HETATM    9  O9  UNL     1     -31.681   7.966   1.545  1.00 20.00    -0.306 OA
ENDBRANCH   5   8
TORSDOF 1
ENDMDL
MODEL 4
REMARK VINA RESULT:       0.8      1.824      3.039
REMARK  1 active torsions:
REMARK  status: ('A' for Active; 'I' for Inactive)
REMARK    1  A    between atoms: C1_1  and  C6_6 
ROOT
HETATM    1  C2  UNL     1     -32.964   7.881   0.664  1.00 20.00     0.005 C 
HETATM    2  C3  UNL     1     -33.746   6.566   0.787  1.00 20.00     0.006 C 
HETATM    3  C4  UNL     1     -32.592   7.921   3.139  1.00 20.00     0.016 C 
HETATM    4  C5  UNL     1     -31.602   6.256   1.748  1.00 20.00     0.010 C 
HETATM    5  C6  UNL     1     -33.358   6.601   3.301  1.00 20.00     0.051 C 
HETATM    6  C7  UNL     1     -31.904   7.754   1.771  1.00 20.00    -0.013 C 
HETATM    7  C8  UNL     1     -33.065   5.867   1.979  1.00 20.00    -0.003 C 
ENDROOT
BRANCH   5   8
HETATM    8  C1  UNL     1     -34.817   6.791   3.576  1.00 20.00     0.236 C 
HETATM    9  O9  UNL     1     -35.508   5.962   4.160  1.00 20.00    -0.306 OA
ENDBRANCH   5   8
TORSDOF 1
ENDMDL
MODEL 5
REMARK VINA RESULT:       1.2      1.216      1.676
REMARK  1 active torsions:
REMARK  status: ('A' for Active; 'I' for Inactive)
REMARK    1  A    between atoms: C1_1  and  C6_6 
ROOT
HETATM    1  C2  UNL     1     -31.761   8.042   3.204  1.00 20.00     0.005 C 
HETATM    2  C3  UNL     1     -33.141   7.799   3.832  1.00 20.00     0.006 C 
HETATM    3  C4  UNL     1     -32.022   6.003   1.777  1.00 20.00     0.016 C 
HETATM    4  C5  UNL     1     -33.400   7.926   1.480  1.00 20.00     0.010 C 
HETATM    5  C6  UNL     1     -33.410   5.732   2.373  1.00 20.00     0.051 C 
HETATM    6  C7  UNL     1     -31.948   7.541   1.762  1.00 20.00    -0.013 C 
HETATM    7  C8  UNL     1     -33.935   7.146   2.684  1.00 20.00    -0.003 C 
ENDROOT
BRANCH   5   8
HETATM    8  C1  UNL     1     -33.379   4.824   3.562  1.00 20.00     0.236 C 
HETATM    9  O9  UNL     1     -34.377   4.280   4.024  1.00 20.00    -0.306 OA
ENDBRANCH   5   8
TORSDOF 1
ENDMDL
MODEL 6
REMARK VINA RESULT:       1.2      2.682      3.597
REMARK  1 active torsions:
REMARK  status: ('A' for Active; 'I' for Inactive)
REMARK    1  A    between atoms: C1_1  and  C6_6 
ROOT
HETATM    1  C2  UNL     1     -35.191   6.742   3.332  1.00 20.00     0.005 C 
HETATM    2  C3  UNL     1     -34.329   7.835   3.981  1.00 20.00     0.006 C 
HETATM    3  C4  UNL     1     -33.377   6.257   1.678  1.00 20.00     0.016 C 
HETATM    4  C5  UNL     1     -33.107   5.805   4.003  1.00 20.00     0.010 C 
HETATM    5  C6  UNL     1     -32.481   7.334   2.306  1.00 20.00     0.051 C 
HETATM    6  C7  UNL     1     -34.149   5.702   2.890  1.00 20.00    -0.013 C 
HETATM    7  C8  UNL     1     -32.895   7.306   3.789  1.00 20.00    -0.003 C 
ENDROOT
BRANCH   5   8
HETATM    8  C1  UNL     1     -32.627   8.677   1.663  1.00 20.00     0.236 C 
HETATM    9  O9  UNL     1     -32.055   8.996   0.626  1.00 20.00    -0.306 OA
ENDBRANCH   5   8
TORSDOF 1
ENDMDL
MODEL 7
REMARK VINA RESULT:       1.2      2.173      3.252
REMARK  1 active torsions:
REMARK  status: ('A' for Active; 'I' for Inactive)
REMARK    1  A    between atoms: C1_1  and  C6_6 
ROOT
HETATM    1  C2  UNL     1     -31.592   5.812   1.676  1.00 20.00     0.005 C 
HETATM    2  C3  UNL     1     -31.545   7.345   1.749  1.00 20.00     0.006 C 
HETATM    3  C4  UNL     1     -33.727   5.789   2.981  1.00 20.00     0.016 C 
HETATM    4  C5  UNL     1     -33.611   6.703   0.782  1.00 20.00     0.010 C 
HETATM    5  C6  UNL     1     -33.721   7.321   3.066  1.00 20.00     0.051 C 
HETATM    6  C7  UNL     1     -33.099   5.519   1.601  1.00 20.00    -0.013 C 
HETATM    7  C8  UNL     1     -33.035   7.738   1.752  1.00 20.00    -0.003 C 
ENDROOT
BRANCH   5   8
HETATM    8  C1  UNL     1     -33.045   7.846   4.294  1.00 20.00     0.236 C 
HETATM    9  O9  UNL     1     -33.653   8.264   5.274  1.00 20.00    -0.306 OA
ENDBRANCH   5   8
TORSDOF 1
ENDMDL
MODEL 8
REMARK VINA RESULT:       1.6      0.898      1.975
REMARK  1 active torsions:
REMARK  status: ('A' for Active; 'I' for Inactive)
REMARK    1  A    between atoms: C1_1  and  C6_6 
ROOT
HETATM    1  C2  UNL     1     -34.578   6.544   1.926  1.00 20.00     0.005 C 
HETATM    2  C3  UNL     1     -33.174   6.081   2.340  1.00 20.00     0.006 C 
HETATM    3  C4  UNL     1     -35.536   5.619   4.045  1.00 20.00     0.016 C 
HETATM    4  C5  UNL     1     -34.039   7.474   4.051  1.00 20.00     0.010 C 
HETATM    5  C6  UNL     1     -34.147   5.151   4.499  1.00 20.00     0.051 C 
HETATM    6  C7  UNL     1     -35.227   6.914   3.270  1.00 20.00    -0.013 C 
HETATM    7  C8  UNL     1     -33.208   6.200   3.876  1.00 20.00    -0.003 C 
ENDROOT
BRANCH   5   8
HETATM    8  C1  UNL     1     -33.833   3.744   4.096  1.00 20.00     0.236 C 
HETATM    9  O9  UNL     1     -33.161   2.979   4.781  1.00 20.00    -0.306 OA
ENDBRANCH   5   8
TORSDOF 1
ENDMDL
MODEL 9
REMARK VINA RESULT:       1.7      1.651      2.760
REMARK  1 active torsions:
REMARK  status: ('A' for Active; 'I' for Inactive)
REMARK    1  A    between atoms: C1_1  and  C6_6 
ROOT
HETATM    1  C2  UNL     1     -36.006   6.572   3.300  1.00 20.00     0.005 C 
HETATM    2  C3  UNL     1     -35.022   7.593   2.711  1.00 20.00     0.006 C 
HETATM    3  C4  UNL     1     -34.140   4.944   3.662  1.00 20.00     0.016 C 
HETATM    4  C5  UNL     1     -34.272   6.991   4.877  1.00 20.00     0.010 C 
HETATM    5  C6  UNL     1     -33.124   5.942   3.090  1.00 20.00     0.051 C 
HETATM    6  C7  UNL     1     -35.161   5.857   4.367  1.00 20.00    -0.013 C 
HETATM    7  C8  UNL     1     -33.720   7.306   3.484  1.00 20.00    -0.003 C 
ENDROOT
BRANCH   5   8
HETATM    8  C1  UNL     1     -32.899   5.783   1.619  1.00 20.00     0.236 C 
HETATM    9  O9  UNL     1     -31.856   5.354   1.137  1.00 20.00    -0.306 OA
ENDBRANCH   5   8
TORSDOF 1
ENDMDL
