MODEL 1
REMARK VINA RESULT:       0.5      0.000      0.000
REMARK  0 active torsions:
REMARK  status: ('A' for Active; 'I' for Inactive)
ROOT
HETATM    1  C1  UNL     1     -32.161   5.200   2.124  1.00 20.00     0.017 A 
HETATM    2  C2  UNL     1     -31.702   6.325   1.441  1.00 20.00     0.025 A 
HETATM    3  C3  UNL     1     -33.465   7.692   2.421  1.00 20.00     0.032 A 
HETATM    4  C4  UNL     1     -33.268   5.360   2.938  1.00 20.00     0.016 A 
HETATM    5  C5  UNL     1     -33.928   6.573   3.096  1.00 20.00    -0.038 A 
HETATM    6  C6  UNL     1     -32.348   7.564   1.589  1.00 20.00     0.034 A 
HETATM    7  C7  UNL     1     -33.936   4.363   3.759  1.00 20.00     0.160 A 
HETATM    8  C8  UNL     1     -35.078   5.008   4.507  1.00 20.00     0.093 A 
HETATM    9  C9  UNL     1     -35.099   6.482   4.033  1.00 20.00     0.023 A 
HETATM   10  C10 UNL     1     -36.417   6.842   3.356  1.00 20.00     0.015 C 
HETATM   11  O11 UNL     1     -33.601   3.195   3.827  1.00 20.00    -0.292 OA
HETATM   12 CL12 UNL     1     -31.757   8.939   0.737  1.00 20.00    -0.084 Cl
ENDROOT
TORSDOF 0
ENDMDL
MODEL 2
REMARK VINA RESULT:       0.7      2.966      4.583
REMARK  0 active torsions:
REMARK  status: ('A' for Active; 'I' for Inactive)
ROOT
HETATM    1  C1  UNL     1     -34.019   7.998   3.420  1.00 20.00     0.017 A 
HETATM    2  C2  UNL     1     -34.818   7.167   4.204  1.00 20.00     0.025 A 
HETATM    3  C3  UNL     1     -33.794   5.186   3.222  1.00 20.00     0.032 A 
HETATM    4  C4  UNL     1     -33.127   7.390   2.555  1.00 20.00     0.016 A 
HETATM    5  C5  UNL     1     -33.002   6.011   2.437  1.00 20.00    -0.038 A 
HETATM    6  C6  UNL     1     -34.706   5.770   4.107  1.00 20.00     0.034 A 
HETATM    7  C7  UNL     1     -32.183   8.016   1.644  1.00 20.00     0.160 A 
HETATM    8  C8  UNL     1     -31.390   6.950   0.927  1.00 20.00     0.093 A 
HETATM    9  C9  UNL     1     -31.966   5.603   1.428  1.00 20.00     0.023 A 
HETATM   10  C10 UNL     1     -32.553   4.778   0.289  1.00 20.00     0.015 C 
HETATM   11  O11 UNL     1     -32.060   9.219   1.505  1.00 20.00    -0.292 OA
HETATM   12 CL12 UNL     1     -35.702   4.767   5.091  1.00 20.00    -0.084 Cl
ENDROOT
TORSDOF 0
ENDMDL
MODEL 3
REMARK VINA RESULT:       1.2      2.213      2.940
REMARK  0 active torsions:
REMARK  status: ('A' for Active; 'I' for Inactive)
ROOT
HETATM    1  C1  UNL     1     -32.465   7.464   2.109  1.00 20.00     0.017 A 
HETATM    2  C2  UNL     1     -31.745   6.706   1.186  1.00 20.00     0.025 A 
HETATM    3  C3  UNL     1     -32.903   4.679   1.886  1.00 20.00     0.032 A 
HETATM    4  C4  UNL     1     -33.386   6.798   2.897  1.00 20.00     0.016 A 
HETATM    5  C5  UNL     1     -33.615   5.430   2.808  1.00 20.00    -0.038 A 
HETATM    6  C6  UNL     1     -31.963   5.322   1.074  1.00 20.00     0.034 A 
HETATM    7  C7  UNL     1     -34.264   7.345   3.918  1.00 20.00     0.160 A 
HETATM    8  C8  UNL     1     -35.125   6.244   4.487  1.00 20.00     0.093 A 
HETATM    9  C9  UNL     1     -34.663   4.951   3.772  1.00 20.00     0.023 A 
HETATM   10  C10 UNL     1     -34.123   3.920   4.757  1.00 20.00     0.015 C 
HETATM   11  O11 UNL     1     -34.292   8.519   4.240  1.00 20.00    -0.292 OA
HETATM   12 CL12 UNL     1     -31.063   4.410  -0.077  1.00 20.00    -0.084 Cl
ENDROOT
TORSDOF 0
ENDMDL
MODEL 4
REMARK VINA RESULT:       2.6      1.664      2.387
REMARK  0 active torsions:
REMARK  status: ('A' for Active; 'I' for Inactive)
ROOT
HETATM    1  C1  UNL     1     -31.748   7.575   0.387  1.00 20.00     0.017 A 
HETATM    2  C2  UNL     1     -31.824   8.964   0.302  1.00 20.00     0.025 A 
HETATM    3  C3  UNL     1     -33.135   9.061   2.353  1.00 20.00     0.032 A 
HETATM    4  C4  UNL     1     -32.375   6.970   1.462  1.00 20.00     0.016 A 
HETATM    5  C5  UNL     1     -33.066   7.679   2.437  1.00 20.00    -0.038 A 
HETATM    6  C6  UNL     1     -32.512   9.704   1.278  1.00 20.00     0.034 A 
HETATM    7  C7  UNL     1     -32.439   5.555   1.790  1.00 20.00     0.160 A 
HETATM    8  C8  UNL     1     -33.201   5.370   3.080  1.00 20.00     0.093 A 
HETATM    9  C9  UNL     1     -33.656   6.790   3.495  1.00 20.00     0.023 A 
HETATM   10  C10 UNL     1     -35.176   6.900   3.569  1.00 20.00     0.015 C 
HETATM   11  O11 UNL     1     -31.938   4.672   1.118  1.00 20.00    -0.292 OA
HETATM   12 CL12 UNL     1     -32.587  11.420   1.150  1.00 20.00    -0.084 Cl
ENDROOT
TORSDOF 0
ENDMDL
MODEL 5
REMARK VINA RESULT:       2.8      2.459      3.014
REMARK  0 active torsions:
REMARK  status: ('A' for Active; 'I' for Inactive)
ROOT
HETATM    1  C1  UNL     1     -31.672   7.051   1.916  1.00 20.00     0.017 A 
HETATM    2  C2  UNL     1     -31.720   6.098   0.899  1.00 20.00     0.025 A 
HETATM    3  C3  UNL     1     -33.898   5.324   1.669  1.00 20.00     0.032 A 
HETATM    4  C4  UNL     1     -32.748   7.107   2.783  1.00 20.00     0.016 A 
HETATM    5  C5  UNL     1     -33.850   6.267   2.684  1.00 20.00    -0.038 A 
HETATM    6  C6  UNL     1     -32.825   5.240   0.774  1.00 20.00     0.034 A 
HETATM    7  C7  UNL     1     -32.953   8.003   3.909  1.00 20.00     0.160 A 
HETATM    8  C8  UNL     1     -34.295   7.720   4.542  1.00 20.00     0.093 A 
HETATM    9  C9  UNL     1     -34.881   6.529   3.746  1.00 20.00     0.023 A 
HETATM   10  C10 UNL     1     -35.123   5.315   4.637  1.00 20.00     0.015 C 
HETATM   11  O11 UNL     1     -32.156   8.852   4.264  1.00 20.00    -0.292 OA
HETATM   12 CL12 UNL     1     -32.861   4.075  -0.493  1.00 20.00    -0.084 Cl
ENDROOT
TORSDOF 0
ENDMDL
MODEL 6
REMARK VINA RESULT:       2.8      2.974      4.511
REMARK  0 active torsions:
REMARK  status: ('A' for Active; 'I' for Inactive)
ROOT
HETATM    1  C1  UNL     1     -34.946   5.773   4.388  1.00 20.00     0.017 A 
HETATM    2  C2  UNL     1     -34.781   4.430   4.726  1.00 20.00     0.025 A 
HETATM    3  C3  UNL     1     -32.828   4.262   3.278  1.00 20.00     0.032 A 
HETATM    4  C4  UNL     1     -34.039   6.320   3.499  1.00 20.00     0.016 A 
HETATM    5  C5  UNL     1     -32.994   5.597   2.937  1.00 20.00    -0.038 A 
HETATM    6  C6  UNL     1     -33.729   3.679   4.175  1.00 20.00     0.034 A 
HETATM    7  C7  UNL     1     -33.979   7.681   2.994  1.00 20.00     0.160 A 
HETATM    8  C8  UNL     1     -32.791   7.827   2.073  1.00 20.00     0.093 A 
HETATM    9  C9  UNL     1     -32.152   6.418   2.002  1.00 20.00     0.023 A 
HETATM   10  C10 UNL     1     -32.150   5.867   0.581  1.00 20.00     0.015 C 
HETATM   11  O11 UNL     1     -34.769   8.558   3.292  1.00 20.00    -0.292 OA
HETATM   12 CL12 UNL     1     -33.546   2.023   4.612  1.00 20.00    -0.084 Cl
ENDROOT
TORSDOF 0
ENDMDL
MODEL 7
REMARK VINA RESULT:       3.0      2.416      3.592
REMARK  0 active torsions:
REMARK  status: ('A' for Active; 'I' for Inactive)
ROOT
HETATM    1  C1  UNL     1     -33.595   5.184   2.686  1.00 20.00     0.017 A 
HETATM    2  C2  UNL     1     -32.962   4.347   1.767  1.00 20.00     0.025 A 
HETATM    3  C3  UNL     1     -31.633   6.208   0.924  1.00 20.00     0.032 A 
HETATM    4  C4  UNL     1     -33.224   6.516   2.691  1.00 20.00     0.016 A 
HETATM    5  C5  UNL     1     -32.266   7.043   1.833  1.00 20.00    -0.038 A 
HETATM    6  C6  UNL     1     -31.987   4.855   0.893  1.00 20.00     0.034 A 
HETATM    7  C7  UNL     1     -33.714   7.587   3.544  1.00 20.00     0.160 A 
HETATM    8  C8  UNL     1     -32.988   8.868   3.214  1.00 20.00     0.093 A 
HETATM    9  C9  UNL     1     -32.045   8.515   2.039  1.00 20.00     0.023 A 
HETATM   10  C10 UNL     1     -32.361   9.333   0.791  1.00 20.00     0.015 C 
HETATM   11  O11 UNL     1     -34.572   7.445   4.397  1.00 20.00    -0.292 OA
HETATM   12 CL12 UNL     1     -31.218   3.799  -0.229  1.00 20.00    -0.084 Cl
ENDROOT
TORSDOF 0
ENDMDL
MODEL 8
REMARK VINA RESULT:       3.2      3.019      3.890
REMARK  0 active torsions:
REMARK  status: ('A' for Active; 'I' for Inactive)
ROOT
HETATM    1  C1  UNL     1     -32.214   5.560   1.614  1.00 20.00     0.017 A 
HETATM    2  C2  UNL     1     -32.490   4.333   2.216  1.00 20.00     0.025 A 
HETATM    3  C3  UNL     1     -33.838   5.427   3.926  1.00 20.00     0.032 A 
HETATM    4  C4  UNL     1     -32.762   6.689   2.195  1.00 20.00     0.016 A 
HETATM    5  C5  UNL     1     -33.559   6.650   3.333  1.00 20.00    -0.038 A 
HETATM    6  C6  UNL     1     -33.297   4.266   3.364  1.00 20.00     0.034 A 
HETATM    7  C7  UNL     1     -32.640   8.073   1.768  1.00 20.00     0.160 A 
HETATM    8  C8  UNL     1     -33.445   8.959   2.689  1.00 20.00     0.093 A 
HETATM    9  C9  UNL     1     -34.029   8.010   3.763  1.00 20.00     0.023 A 
HETATM   10  C10 UNL     1     -33.551   8.376   5.164  1.00 20.00     0.015 C 
HETATM   11  O11 UNL     1     -31.993   8.439   0.803  1.00 20.00    -0.292 OA
HETATM   12 CL12 UNL     1     -33.626   2.737   4.085  1.00 20.00    -0.084 Cl
ENDROOT
TORSDOF 0
ENDMDL
MODEL 9
REMARK VINA RESULT:       3.3      1.471      2.658
REMARK  0 active torsions:
REMARK  status: ('A' for Active; 'I' for Inactive)
ROOT
HETATM    1  C1  UNL     1     -33.951   7.877   3.273  1.00 20.00     0.017 A 
HETATM    2  C2  UNL     1     -33.001   8.321   2.354  1.00 20.00     0.025 A 
HETATM    3  C3  UNL     1     -32.301   6.030   1.907  1.00 20.00     0.032 A 
HETATM    4  C4  UNL     1     -34.045   6.513   3.480  1.00 20.00     0.016 A 
HETATM    5  C5  UNL     1     -33.242   5.587   2.825  1.00 20.00    -0.038 A 
HETATM    6  C6  UNL     1     -32.181   7.405   1.675  1.00 20.00     0.034 A 
HETATM    7  C7  UNL     1     -34.947   5.794   4.364  1.00 20.00     0.160 A 
HETATM    8  C8  UNL     1     -34.711   4.309   4.229  1.00 20.00     0.093 A 
HETATM    9  C9  UNL     1     -33.540   4.170   3.226  1.00 20.00     0.023 A 
HETATM   10  C10 UNL     1     -32.336   3.475   3.852  1.00 20.00     0.015 C 
HETATM   11  O11 UNL     1     -35.769   6.329   5.087  1.00 20.00    -0.292 OA
HETATM   12 CL12 UNL     1     -31.018   7.979   0.543  1.00 20.00    -0.084 Cl
ENDROOT
TORSDOF 0
ENDMDL
