MODEL 1
REMARK VINA RESULT:      -2.4      0.000      0.000
REMARK  4 active torsions:
REMARK  status: ('A' for Active; 'I' for Inactive)
REMARK    1  A    between atoms: C1_1  and  C5_5 
REMARK       I    between atoms: C1_1  and  N9_9 
REMARK    2  A    between atoms: C6_6  and  C8_8 
REMARK    3  A    between atoms: C7_7  and  N9_9 
REMARK    4  A    between atoms: C8_8  and  N9_9 
ROOT
HETATM    1  C1  UNL     1     -33.721   7.342   3.666  1.00 20.00     0.219 C 
HETATM    2  N9  UNL     1     -32.985   7.275   2.478  1.00 20.00    -0.353 N 
HETATM    3  O10 UNL     1     -33.313   7.901   4.687  1.00 20.00    -0.273 OA
ENDROOT
BRANCH   2   4
HETATM    4  C7  UNL     1     -33.112   6.164   1.542  1.00 20.00     0.121 C 
HETATM    5  C4  UNL     1     -31.878   5.328   1.530  1.00 20.00     0.026 C 
ENDBRANCH   2   4
BRANCH   2   6
HETATM    6  C8  UNL     1     -32.034   8.312   2.086  1.00 20.00     0.125 C 
BRANCH   6   7
HETATM    7  C6  UNL     1     -32.170   8.700   0.618  1.00 20.00     0.015 C 
HETATM    8  C3  UNL     1     -32.532  10.166   0.429  1.00 20.00     0.006 C 
ENDBRANCH   6   7
ENDBRANCH   2   6
BRANCH   1   9
HETATM    9  C5  UNL     1     -35.088   6.674   3.647  1.00 20.00     0.098 C 
HETATM   10  C2  UNL     1     -35.100   5.339   4.373  1.00 20.00     0.014 C 
ENDBRANCH   1   9
TORSDOF 4
ENDMDL
MODEL 2
REMARK VINA RESULT:      -1.4      2.084      4.036
REMARK  4 active torsions:
REMARK  status: ('A' for Active; 'I' for Inactive)
REMARK    1  A    between atoms: C1_1  and  C5_5 
REMARK       I    between atoms: C1_1  and  N9_9 
REMARK    2  A    between atoms: C6_6  and  C8_8 
REMARK    3  A    between atoms: C7_7  and  N9_9 
REMARK    4  A    between atoms: C8_8  and  N9_9 
ROOT
HETATM    1  C1  UNL     1     -34.571   6.598   3.688  1.00 20.00     0.219 C 
HETATM    2  N9  UNL     1     -33.704   5.823   2.911  1.00 20.00    -0.353 N 
HETATM    3  O10 UNL     1     -35.654   6.187   4.112  1.00 20.00    -0.273 OA
ENDROOT
BRANCH   2   4
HETATM    4  C7  UNL     1     -32.812   6.408   1.917  1.00 20.00     0.121 C 
HETATM    5  C4  UNL     1     -32.136   5.352   1.112  1.00 20.00     0.026 C 
ENDBRANCH   2   4
BRANCH   2   6
HETATM    6  C8  UNL     1     -33.626   4.370   3.037  1.00 20.00     0.125 C 
BRANCH   6   7
HETATM    7  C6  UNL     1     -33.898   3.895   4.459  1.00 20.00     0.015 C 
HETATM    8  C3  UNL     1     -32.979   2.759   4.886  1.00 20.00     0.006 C 
ENDBRANCH   6   7
ENDBRANCH   2   6
BRANCH   1   9
HETATM    9  C5  UNL     1     -34.111   8.015   3.996  1.00 20.00     0.098 C 
HETATM   10  C2  UNL     1     -33.161   8.080   5.181  1.00 20.00     0.014 C 
ENDBRANCH   1   9
TORSDOF 4
ENDMDL
MODEL 3
REMARK VINA RESULT:      -1.3      1.652      4.518
REMARK  4 active torsions:
REMARK  status: ('A' for Active; 'I' for Inactive)
REMARK    1  A    between atoms: C1_1  and  C5_5 
REMARK       I    between atoms: C1_1  and  N9_9 
REMARK    2  A    between atoms: C6_6  and  C8_8 
REMARK    3  A    between atoms: C7_7  and  N9_9 
REMARK    4  A    between atoms: C8_8  and  N9_9 
ROOT
HETATM    1  C1  UNL     1     -32.347   7.715   1.953  1.00 20.00     0.219 C 
HETATM    2  N9  UNL     1     -33.247   7.005   2.754  1.00 20.00    -0.353 N 
HETATM    3  O10 UNL     1     -31.310   7.226   1.497  1.00 20.00    -0.273 OA
ENDROOT
BRANCH   2   4
HETATM    4  C7  UNL     1     -34.064   7.652   3.774  1.00 20.00     0.121 C 
HETATM    5  C4  UNL     1     -33.228   8.121   4.915  1.00 20.00     0.026 C 
ENDBRANCH   2   4
BRANCH   2   6
HETATM    6  C8  UNL     1     -33.435   5.562   2.630  1.00 20.00     0.125 C 
BRANCH   6   7
HETATM    7  C6  UNL     1     -34.268   4.985   3.769  1.00 20.00     0.015 C 
HETATM    8  C3  UNL     1     -33.715   3.668   4.294  1.00 20.00     0.006 C 
ENDBRANCH   6   7
ENDBRANCH   2   6
BRANCH   1   9
HETATM    9  C5  UNL     1     -32.709   9.164   1.658  1.00 20.00     0.098 C 
HETATM   10  C2  UNL     1     -32.322   9.591   0.252  1.00 20.00     0.014 C 
ENDBRANCH   1   9
TORSDOF 4
ENDMDL
MODEL 4
REMARK VINA RESULT:      -1.0      1.504      4.015
REMARK  4 active torsions:
REMARK  status: ('A' for Active; 'I' for Inactive)
REMARK    1  A    between atoms: C1_1  and  C5_5 
REMARK       I    between atoms: C1_1  and  N9_9 
REMARK    2  A    between atoms: C6_6  and  C8_8 
REMARK    3  A    between atoms: C7_7  and  N9_9 
REMARK    4  A    between atoms: C8_8  and  N9_9 
ROOT
HETATM    1  C1  UNL     1     -32.172   8.044   1.821  1.00 20.00     0.219 C 
HETATM    2  N9  UNL     1     -33.001   7.181   2.545  1.00 20.00    -0.353 N 
HETATM    3  O10 UNL     1     -31.050   7.728   1.416  1.00 20.00    -0.273 OA
ENDROOT
BRANCH   2   4
HETATM    4  C7  UNL     1     -33.960   7.664   3.531  1.00 20.00     0.121 C 
HETATM    5  C4  UNL     1     -34.919   6.591   3.919  1.00 20.00     0.026 C 
ENDBRANCH   2   4
BRANCH   2   6
HETATM    6  C8  UNL     1     -32.967   5.731   2.369  1.00 20.00     0.125 C 
BRANCH   6   7
HETATM    7  C6  UNL     1     -33.032   5.323   0.902  1.00 20.00     0.015 C 
HETATM    8  C3  UNL     1     -31.814   4.523   0.460  1.00 20.00     0.006 C 
ENDBRANCH   6   7
ENDBRANCH   2   6
BRANCH   1   9
HETATM    9  C5  UNL     1     -32.726   9.434   1.546  1.00 20.00     0.098 C 
HETATM   10  C2  UNL     1     -32.472   9.896   0.121  1.00 20.00     0.014 C 
ENDBRANCH   1   9
TORSDOF 4
ENDMDL
MODEL 5
REMARK VINA RESULT:      -1.0      1.728      2.530
REMARK  4 active torsions:
REMARK  status: ('A' for Active; 'I' for Inactive)
REMARK    1  A    between atoms: C1_1  and  C5_5 
REMARK       I    between atoms: C1_1  and  N9_9 
REMARK    2  A    between atoms: C6_6  and  C8_8 
REMARK    3  A    between atoms: C7_7  and  N9_9 
REMARK    4  A    between atoms: C8_8  and  N9_9 
ROOT
HETATM    1  C1  UNL     1     -33.461   5.789   2.670  1.00 20.00     0.219 C 
HETATM    2  N9  UNL     1     -33.217   7.126   3.001  1.00 20.00    -0.353 N 
HETATM    3  O10 UNL     1     -33.080   5.269   1.618  1.00 20.00    -0.273 OA
ENDROOT
BRANCH   2   4
HETATM    4  C7  UNL     1     -34.125   7.902   3.837  1.00 20.00     0.121 C 
HETATM    5  C4  UNL     1     -33.486   8.264   5.133  1.00 20.00     0.026 C 
ENDBRANCH   2   4
BRANCH   2   6
HETATM    6  C8  UNL     1     -32.033   7.845   2.535  1.00 20.00     0.125 C 
BRANCH   6   7
HETATM    7  C6  UNL     1     -32.066   8.105   1.034  1.00 20.00     0.015 C 
HETATM    8  C3  UNL     1     -32.377   9.557   0.696  1.00 20.00     0.006 C 
ENDBRANCH   6   7
ENDBRANCH   2   6
BRANCH   1   9
HETATM    9  C5  UNL     1     -34.243   4.976   3.691  1.00 20.00     0.098 C 
HETATM   10  C2  UNL     1     -33.538   3.687   4.080  1.00 20.00     0.014 C 
ENDBRANCH   1   9
TORSDOF 4
ENDMDL
MODEL 6
REMARK VINA RESULT:      -0.9      2.122      4.821
REMARK  4 active torsions:
REMARK  status: ('A' for Active; 'I' for Inactive)
REMARK    1  A    between atoms: C1_1  and  C5_5 
REMARK       I    between atoms: C1_1  and  N9_9 
REMARK    2  A    between atoms: C6_6  and  C8_8 
REMARK    3  A    between atoms: C7_7  and  N9_9 
REMARK    4  A    between atoms: C8_8  and  N9_9 
ROOT
HETATM    1  C1  UNL     1     -32.649   6.102   1.874  1.00 20.00     0.219 C 
HETATM    2  N9  UNL     1     -33.518   5.710   2.898  1.00 20.00    -0.353 N 
HETATM    3  O10 UNL     1     -31.760   5.375   1.422  1.00 20.00    -0.273 OA
ENDROOT
BRANCH   2   4
HETATM    4  C7  UNL     1     -34.092   6.662   3.841  1.00 20.00     0.121 C 
HETATM    5  C4  UNL     1     -35.579   6.571   3.859  1.00 20.00     0.026 C 
ENDBRANCH   2   4
BRANCH   2   6
HETATM    6  C8  UNL     1     -33.916   4.319   3.098  1.00 20.00     0.125 C 
BRANCH   6   7
HETATM    7  C6  UNL     1     -33.892   3.915   4.568  1.00 20.00     0.015 C 
HETATM    8  C3  UNL     1     -32.962   2.740   4.838  1.00 20.00     0.006 C 
ENDBRANCH   6   7
ENDBRANCH   2   6
BRANCH   1   9
HETATM    9  C5  UNL     1     -32.847   7.507   1.325  1.00 20.00     0.098 C 
HETATM   10  C2  UNL     1     -31.653   8.412   1.580  1.00 20.00     0.014 C 
ENDBRANCH   1   9
TORSDOF 4
ENDMDL
MODEL 7
REMARK VINA RESULT:      -0.9      1.608      4.549
REMARK  4 active torsions:
REMARK  status: ('A' for Active; 'I' for Inactive)
REMARK    1  A    between atoms: C1_1  and  C5_5 
REMARK       I    between atoms: C1_1  and  N9_9 
REMARK    2  A    between atoms: C6_6  and  C8_8 
REMARK    3  A    between atoms: C7_7  and  N9_9 
REMARK    4  A    between atoms: C8_8  and  N9_9 
ROOT
HETATM    1  C1  UNL     1     -32.841   6.809   2.051  1.00 20.00     0.219 C 
HETATM    2  N9  UNL     1     -33.543   6.910   3.257  1.00 20.00    -0.353 N 
HETATM    3  O10 UNL     1     -32.992   5.881   1.253  1.00 20.00    -0.273 OA
ENDROOT
BRANCH   2   4
HETATM    4  C7  UNL     1     -32.981   7.560   4.435  1.00 20.00     0.121 C 
HETATM    5  C4  UNL     1     -33.985   8.445   5.091  1.00 20.00     0.026 C 
ENDBRANCH   2   4
BRANCH   2   6
HETATM    6  C8  UNL     1     -34.890   6.373   3.427  1.00 20.00     0.125 C 
BRANCH   6   7
HETATM    7  C6  UNL     1     -34.935   5.223   4.427  1.00 20.00     0.015 C 
HETATM    8  C3  UNL     1     -34.019   4.071   4.039  1.00 20.00     0.006 C 
ENDBRANCH   6   7
ENDBRANCH   2   6
BRANCH   1   9
HETATM    9  C5  UNL     1     -31.850   7.926   1.755  1.00 20.00     0.098 C 
HETATM   10  C2  UNL     1     -32.418   8.982   0.822  1.00 20.00     0.014 C 
ENDBRANCH   1   9
TORSDOF 4
ENDMDL
MODEL 8
REMARK VINA RESULT:      -0.6      1.564      4.210
REMARK  4 active torsions:
REMARK  status: ('A' for Active; 'I' for Inactive)
REMARK    1  A    between atoms: C1_1  and  C5_5 
REMARK       I    between atoms: C1_1  and  N9_9 
REMARK    2  A    between atoms: C6_6  and  C8_8 
REMARK    3  A    between atoms: C7_7  and  N9_9 
REMARK    4  A    between atoms: C8_8  and  N9_9 
ROOT
HETATM    1  C1  UNL     1     -33.346   7.317   3.115  1.00 20.00     0.219 C 
HETATM    2  N9  UNL     1     -33.407   5.935   2.907  1.00 20.00    -0.353 N 
HETATM    3  O10 UNL     1     -34.247   7.962   3.658  1.00 20.00    -0.273 OA
ENDROOT
BRANCH   2   4
HETATM    4  C7  UNL     1     -32.742   5.284   1.784  1.00 20.00     0.121 C 
HETATM    5  C4  UNL     1     -33.553   5.399   0.539  1.00 20.00     0.026 C 
ENDBRANCH   2   4
BRANCH   2   6
HETATM    6  C8  UNL     1     -34.142   5.040   3.798  1.00 20.00     0.125 C 
BRANCH   6   7
HETATM    7  C6  UNL     1     -33.639   3.603   3.720  1.00 20.00     0.015 C 
HETATM    8  C3  UNL     1     -33.072   3.106   5.042  1.00 20.00     0.006 C 
ENDBRANCH   6   7
ENDBRANCH   2   6
BRANCH   1   9
HETATM    9  C5  UNL     1     -32.085   8.014   2.626  1.00 20.00     0.098 C 
HETATM   10  C2  UNL     1     -32.283   8.721   1.296  1.00 20.00     0.014 C 
ENDBRANCH   1   9
TORSDOF 4
ENDMDL
MODEL 9
REMARK VINA RESULT:      -0.2      1.133      3.781
REMARK  4 active torsions:
REMARK  status: ('A' for Active; 'I' for Inactive)
REMARK    1  A    between atoms: C1_1  and  C5_5 
REMARK       I    between atoms: C1_1  and  N9_9 
REMARK    2  A    between atoms: C6_6  and  C8_8 
REMARK    3  A    between atoms: C7_7  and  N9_9 
REMARK    4  A    between atoms: C8_8  and  N9_9 
ROOT
HETATM    1  C1  UNL     1     -32.547   7.631   2.240  1.00 20.00     0.219 C 
HETATM    2  N9  UNL     1     -32.897   6.280   2.146  1.00 20.00    -0.353 N 
HETATM    3  O10 UNL     1     -32.844   8.344   3.202  1.00 20.00    -0.273 OA
ENDROOT
BRANCH   2   4
HETATM    4  C7  UNL     1     -33.135   5.622   0.867  1.00 20.00     0.121 C 
HETATM    5  C4  UNL     1     -32.059   4.638   0.559  1.00 20.00     0.026 C 
ENDBRANCH   2   4
BRANCH   2   6
HETATM    6  C8  UNL     1     -33.050   5.426   3.321  1.00 20.00     0.125 C 
BRANCH   6   7
HETATM    7  C6  UNL     1     -34.509   5.094   3.612  1.00 20.00     0.015 C 
HETATM    8  C3  UNL     1     -35.315   6.312   4.040  1.00 20.00     0.006 C 
ENDBRANCH   6   7
ENDBRANCH   2   6
BRANCH   1   9
HETATM    9  C5  UNL     1     -31.762   8.204   1.070  1.00 20.00     0.098 C 
HETATM   10  C2  UNL     1     -32.355   9.500   0.543  1.00 20.00     0.014 C 
ENDBRANCH   1   9
TORSDOF 4
ENDMDL
