MODEL 1
REMARK VINA RESULT:      -2.6      0.000      0.000
REMARK  2 active torsions:
REMARK  status: ('A' for Active; 'I' for Inactive)
REMARK    1  A    between atoms: C1_1  and  C5_5 
REMARK    2  A    between atoms: C5_5  and  C6_6 
ROOT
HETATM    1  C2  UNL     1     -33.674   8.092   4.324  1.00 20.00     0.019 C 
HETATM    2  C5  UNL     1     -33.395   6.786   3.578  1.00 20.00     0.071 C 
ENDROOT
BRANCH   2   3
HETATM    3  C1  UNL     1     -34.606   5.876   3.788  1.00 20.00     0.223 C 
HETATM    4  O7  UNL     1     -35.757   6.301   3.725  1.00 20.00    -0.279 OA
HETATM    5 CL8  UNL     1     -34.156   4.231   4.140  1.00 20.00    -0.043 Cl
ENDBRANCH   2   3
BRANCH   2   6
HETATM    6  C6  UNL     1     -33.125   6.989   2.065  1.00 20.00    -0.011 C 
HETATM    7  C3  UNL     1     -32.045   8.044   1.803  1.00 20.00     0.010 C 
HETATM    8  C4  UNL     1     -32.703   5.672   1.400  1.00 20.00     0.010 C 
ENDBRANCH   2   6
TORSDOF 2
ENDMDL
MODEL 2
REMARK VINA RESULT:      -1.9      1.341      1.341
REMARK  2 active torsions:
REMARK  status: ('A' for Active; 'I' for Inactive)
REMARK    1  A    between atoms: C1_1  and  C5_5 
REMARK    2  A    between atoms: C5_5  and  C6_6 
ROOT
HETATM    1  C2  UNL     1     -33.736   7.966   4.164  1.00 20.00     0.019 C 
HETATM    2  C5  UNL     1     -33.268   6.682   3.476  1.00 20.00     0.071 C 
ENDROOT
BRANCH   2   3
HETATM    3  C1  UNL     1     -34.346   5.623   3.712  1.00 20.00     0.223 C 
HETATM    4  O7  UNL     1     -34.067   4.443   3.905  1.00 20.00    -0.279 OA
HETATM    5 CL8  UNL     1     -35.957   6.280   3.646  1.00 20.00    -0.043 Cl
ENDBRANCH   2   3
BRANCH   2   6
HETATM    6  C6  UNL     1     -33.004   6.859   1.959  1.00 20.00    -0.011 C 
HETATM    7  C3  UNL     1     -32.016   7.994   1.668  1.00 20.00     0.010 C 
HETATM    8  C4  UNL     1     -32.466   5.562   1.340  1.00 20.00     0.010 C 
ENDBRANCH   2   6
TORSDOF 2
ENDMDL
MODEL 3
REMARK VINA RESULT:      -1.9      2.457      3.619
REMARK  2 active torsions:
REMARK  status: ('A' for Active; 'I' for Inactive)
REMARK    1  A    between atoms: C1_1  and  C5_5 
REMARK    2  A    between atoms: C5_5  and  C6_6 
ROOT
HETATM    1  C2  UNL     1     -33.692   4.474   3.352  1.00 20.00     0.019 C 
HETATM    2  C5  UNL     1     -33.221   5.926   3.241  1.00 20.00     0.071 C 
ENDROOT
BRANCH   2   3
HETATM    3  C1  UNL     1     -32.724   6.132   1.809  1.00 20.00     0.223 C 
HETATM    4  O7  UNL     1     -32.847   5.265   0.947  1.00 20.00    -0.279 OA
HETATM    5 CL8  UNL     1     -31.967   7.683   1.578  1.00 20.00    -0.043 Cl
ENDBRANCH   2   3
BRANCH   2   6
HETATM    6  C6  UNL     1     -34.324   6.958   3.585  1.00 20.00    -0.011 C 
HETATM    7  C3  UNL     1     -35.609   6.290   4.087  1.00 20.00     0.010 C 
HETATM    8  C4  UNL     1     -33.835   7.952   4.647  1.00 20.00     0.010 C 
ENDBRANCH   2   6
TORSDOF 2
ENDMDL
MODEL 4
REMARK VINA RESULT:      -1.7      2.849      3.998
REMARK  2 active torsions:
REMARK  status: ('A' for Active; 'I' for Inactive)
REMARK    1  A    between atoms: C1_1  and  C5_5 
REMARK    2  A    between atoms: C5_5  and  C6_6 
ROOT
HETATM    1  C2  UNL     1     -33.112   6.022   1.520  1.00 20.00     0.019 C 
HETATM    2  C5  UNL     1     -32.813   6.892   2.742  1.00 20.00     0.071 C 
ENDROOT
BRANCH   2   3
HETATM    3  C1  UNL     1     -31.993   8.088   2.257  1.00 20.00     0.223 C 
HETATM    4  O7  UNL     1     -30.993   8.476   2.855  1.00 20.00    -0.279 OA
HETATM    5 CL8  UNL     1     -32.654   8.815   0.819  1.00 20.00    -0.043 Cl
ENDBRANCH   2   3
BRANCH   2   6
HETATM    6  C6  UNL     1     -34.088   7.372   3.481  1.00 20.00    -0.011 C 
HETATM    7  C3  UNL     1     -35.048   6.219   3.795  1.00 20.00     0.010 C 
HETATM    8  C4  UNL     1     -33.729   8.088   4.790  1.00 20.00     0.010 C 
ENDBRANCH   2   6
TORSDOF 2
ENDMDL
MODEL 5
REMARK VINA RESULT:      -1.6      1.574      2.428
REMARK  2 active torsions:
REMARK  status: ('A' for Active; 'I' for Inactive)
REMARK    1  A    between atoms: C1_1  and  C5_5 
REMARK    2  A    between atoms: C5_5  and  C6_6 
ROOT
HETATM    1  C2  UNL     1     -33.087   5.747   1.923  1.00 20.00     0.019 C 
HETATM    2  C5  UNL     1     -33.451   7.204   2.215  1.00 20.00     0.071 C 
ENDROOT
BRANCH   2   3
HETATM    3  C1  UNL     1     -33.933   7.268   3.665  1.00 20.00     0.223 C 
HETATM    4  O7  UNL     1     -33.366   7.958   4.509  1.00 20.00    -0.279 OA
HETATM    5 CL8  UNL     1     -35.317   6.253   3.958  1.00 20.00    -0.043 Cl
ENDBRANCH   2   3
BRANCH   2   6
HETATM    6  C6  UNL     1     -32.275   8.188   1.991  1.00 20.00    -0.011 C 
HETATM    7  C3  UNL     1     -30.985   7.469   1.579  1.00 20.00     0.010 C 
HETATM    8  C4  UNL     1     -32.625   9.229   0.920  1.00 20.00     0.010 C 
ENDBRANCH   2   6
TORSDOF 2
ENDMDL
MODEL 6
REMARK VINA RESULT:      -1.5      2.200      3.168
REMARK  2 active torsions:
REMARK  status: ('A' for Active; 'I' for Inactive)
REMARK    1  A    between atoms: C1_1  and  C5_5 
REMARK    2  A    between atoms: C5_5  and  C6_6 
ROOT
HETATM    1  C2  UNL     1     -32.091   8.146   2.002  1.00 20.00     0.019 C 
HETATM    2  C5  UNL     1     -33.216   7.116   2.114  1.00 20.00     0.071 C 
ENDROOT
BRANCH   2   3
HETATM    3  C1  UNL     1     -32.724   5.834   1.439  1.00 20.00     0.223 C 
HETATM    4  O7  UNL     1     -31.636   5.333   1.711  1.00 20.00    -0.279 OA
HETATM    5 CL8  UNL     1     -33.852   5.219   0.263  1.00 20.00    -0.043 Cl
ENDBRANCH   2   3
BRANCH   2   6
HETATM    6  C6  UNL     1     -33.644   6.829   3.576  1.00 20.00    -0.011 C 
HETATM    7  C3  UNL     1     -33.542   8.072   4.466  1.00 20.00     0.010 C 
HETATM    8  C4  UNL     1     -35.082   6.295   3.633  1.00 20.00     0.010 C 
ENDBRANCH   2   6
TORSDOF 2
ENDMDL
MODEL 7
REMARK VINA RESULT:      -1.5      1.497      2.420
REMARK  2 active torsions:
REMARK  status: ('A' for Active; 'I' for Inactive)
REMARK    1  A    between atoms: C1_1  and  C5_5 
REMARK    2  A    between atoms: C5_5  and  C6_6 
ROOT
HETATM    1  C2  UNL     1     -32.390   5.401   1.556  1.00 20.00     0.019 C 
HETATM    2  C5  UNL     1     -33.536   6.245   2.118  1.00 20.00     0.071 C 
ENDROOT
BRANCH   2   3
HETATM    3  C1  UNL     1     -34.089   5.504   3.336  1.00 20.00     0.223 C 
HETATM    4  O7  UNL     1     -33.563   4.482   3.769  1.00 20.00    -0.279 OA
HETATM    5 CL8  UNL     1     -35.519   6.255   3.986  1.00 20.00    -0.043 Cl
ENDBRANCH   2   3
BRANCH   2   6
HETATM    6  C6  UNL     1     -33.107   7.683   2.506  1.00 20.00    -0.011 C 
HETATM    7  C3  UNL     1     -32.908   7.842   4.018  1.00 20.00     0.010 C 
HETATM    8  C4  UNL     1     -31.809   8.082   1.791  1.00 20.00     0.010 C 
ENDBRANCH   2   6
TORSDOF 2
ENDMDL
MODEL 8
REMARK VINA RESULT:      -1.4      0.709      1.971
REMARK  2 active torsions:
REMARK  status: ('A' for Active; 'I' for Inactive)
REMARK    1  A    between atoms: C1_1  and  C5_5 
REMARK    2  A    between atoms: C5_5  and  C6_6 
ROOT
HETATM    1  C2  UNL     1     -32.709   5.399   1.855  1.00 20.00     0.019 C 
HETATM    2  C5  UNL     1     -33.781   6.381   2.333  1.00 20.00     0.071 C 
ENDROOT
BRANCH   2   3
HETATM    3  C1  UNL     1     -34.485   5.736   3.527  1.00 20.00     0.223 C 
HETATM    4  O7  UNL     1     -35.436   6.272   4.089  1.00 20.00    -0.279 OA
HETATM    5 CL8  UNL     1     -33.772   4.214   3.984  1.00 20.00    -0.043 Cl
ENDBRANCH   2   3
BRANCH   2   6
HETATM    6  C6  UNL     1     -33.212   7.769   2.724  1.00 20.00    -0.011 C 
HETATM    7  C3  UNL     1     -32.941   7.883   4.229  1.00 20.00     0.010 C 
HETATM    8  C4  UNL     1     -31.914   8.066   1.962  1.00 20.00     0.010 C 
ENDBRANCH   2   6
TORSDOF 2
ENDMDL
MODEL 9
REMARK VINA RESULT:      -1.2      2.331      2.975
REMARK  2 active torsions:
REMARK  status: ('A' for Active; 'I' for Inactive)
REMARK    1  A    between atoms: C1_1  and  C5_5 
REMARK    2  A    between atoms: C5_5  and  C6_6 
ROOT
HETATM    1  C2  UNL     1     -35.380   6.227   4.183  1.00 20.00     0.019 C 
HETATM    2  C5  UNL     1     -34.222   6.522   3.228  1.00 20.00     0.071 C 
ENDROOT
BRANCH   2   3
HETATM    3  C1  UNL     1     -33.480   7.740   3.780  1.00 20.00     0.223 C 
HETATM    4  O7  UNL     1     -33.714   8.193   4.897  1.00 20.00    -0.279 OA
HETATM    5 CL8  UNL     1     -32.324   8.390   2.651  1.00 20.00    -0.043 Cl
ENDBRANCH   2   3
BRANCH   2   6
HETATM    6  C6  UNL     1     -33.249   5.327   3.055  1.00 20.00    -0.011 C 
HETATM    7  C3  UNL     1     -33.812   4.029   3.643  1.00 20.00     0.010 C 
HETATM    8  C4  UNL     1     -32.917   5.099   1.574  1.00 20.00     0.010 C 
ENDBRANCH   2   6
TORSDOF 2
ENDMDL
