MODEL 1
REMARK VINA RESULT:      -2.9      0.000      0.000
REMARK  4 active torsions:
REMARK  status: ('A' for Active; 'I' for Inactive)
REMARK    1  A    between atoms: C2_2  and  C7_7 
REMARK    2  A    between atoms: C5_5  and  C6_6 
REMARK    3  A    between atoms: C6_6  and  C7_7 
REMARK    4  A    between atoms: C7_7  and  O8_8 
ROOT
HETATM    1  C7  UNL     1     -33.338   7.174   2.232  1.00 20.00     0.146 C 
ENDROOT
BRANCH   1   2
HETATM    2  C2  UNL     1     -33.976   7.208   3.603  1.00 20.00    -0.065 C 
HETATM    3  C1  UNL     1     -33.527   8.041   4.557  1.00 20.00     0.016 C 
HETATM    4  C3  UNL     1     -35.121   6.273   3.873  1.00 20.00     0.045 C 
ENDBRANCH   1   2
BRANCH   1   5
HETATM    5  C6  UNL     1     -32.094   8.067   2.084  1.00 20.00     0.036 C 
BRANCH   5   6
HETATM    6  C5  UNL     1     -31.858   8.643   0.685  1.00 20.00    -0.002 C 
HETATM    7  C4  UNL     1     -32.551   9.977   0.457  1.00 20.00     0.005 C 
ENDBRANCH   5   6
ENDBRANCH   1   5
BRANCH   1   8
HETATM    8  O8  UNL     1     -32.959   5.824   1.950  1.00 20.00    -0.391 OA
HETATM    9  H22 UNL     1     -33.402   5.275   2.612  1.00 20.00     0.210 HD
ENDBRANCH   1   8
TORSDOF 4
ENDMDL
MODEL 2
REMARK VINA RESULT:      -2.9      0.066      1.240
REMARK  4 active torsions:
REMARK  status: ('A' for Active; 'I' for Inactive)
REMARK    1  A    between atoms: C2_2  and  C7_7 
REMARK    2  A    between atoms: C5_5  and  C6_6 
REMARK    3  A    between atoms: C6_6  and  C7_7 
REMARK    4  A    between atoms: C7_7  and  O8_8 
ROOT
HETATM    1  C7  UNL     1     -33.346   7.122   2.202  1.00 20.00     0.146 C 
ENDROOT
BRANCH   1   2
HETATM    2  C2  UNL     1     -34.001   7.133   3.566  1.00 20.00    -0.065 C 
HETATM    3  C1  UNL     1     -35.032   6.317   3.847  1.00 20.00     0.016 C 
HETATM    4  C3  UNL     1     -33.474   8.093   4.596  1.00 20.00     0.045 C 
ENDBRANCH   1   2
BRANCH   1   5
HETATM    5  C6  UNL     1     -32.115   8.036   2.078  1.00 20.00     0.036 C 
BRANCH   5   6
HETATM    6  C5  UNL     1     -31.872   8.627   0.687  1.00 20.00    -0.002 C 
HETATM    7  C4  UNL     1     -32.538   9.979   0.481  1.00 20.00     0.005 C 
ENDBRANCH   5   6
ENDBRANCH   1   5
BRANCH   1   8
HETATM    8  O8  UNL     1     -32.941   5.781   1.914  1.00 20.00    -0.391 OA
HETATM    9  H22 UNL     1     -33.742   5.305   1.653  1.00 20.00     0.210 HD
ENDBRANCH   1   8
TORSDOF 4
ENDMDL
MODEL 3
REMARK VINA RESULT:      -2.3      2.264      4.341
REMARK  4 active torsions:
REMARK  status: ('A' for Active; 'I' for Inactive)
REMARK    1  A    between atoms: C2_2  and  C7_7 
REMARK    2  A    between atoms: C5_5  and  C6_6 
REMARK    3  A    between atoms: C6_6  and  C7_7 
REMARK    4  A    between atoms: C7_7  and  O8_8 
ROOT
HETATM    1  C7  UNL     1     -34.334   6.215   3.219  1.00 20.00     0.146 C 
ENDROOT
BRANCH   1   2
HETATM    2  C2  UNL     1     -33.475   7.431   3.489  1.00 20.00    -0.065 C 
HETATM    3  C1  UNL     1     -33.594   8.124   4.634  1.00 20.00     0.016 C 
HETATM    4  C3  UNL     1     -32.491   7.850   2.432  1.00 20.00     0.045 C 
ENDBRANCH   1   2
BRANCH   1   5
HETATM    5  C6  UNL     1     -33.592   4.873   3.323  1.00 20.00     0.036 C 
BRANCH   5   6
HETATM    6  C5  UNL     1     -34.072   3.938   4.436  1.00 20.00    -0.002 C 
HETATM    7  C4  UNL     1     -33.081   2.832   4.766  1.00 20.00     0.005 C 
ENDBRANCH   5   6
ENDBRANCH   1   5
BRANCH   1   8
HETATM    8  O8  UNL     1     -35.407   6.210   4.164  1.00 20.00    -0.391 OA
HETATM    9  H22 UNL     1     -35.527   5.287   4.432  1.00 20.00     0.210 HD
ENDBRANCH   1   8
TORSDOF 4
ENDMDL
MODEL 4
REMARK VINA RESULT:      -2.0      1.468      1.964
REMARK  4 active torsions:
REMARK  status: ('A' for Active; 'I' for Inactive)
REMARK    1  A    between atoms: C2_2  and  C7_7 
REMARK    2  A    between atoms: C5_5  and  C6_6 
REMARK    3  A    between atoms: C6_6  and  C7_7 
REMARK    4  A    between atoms: C7_7  and  O8_8 
ROOT
HETATM    1  C7  UNL     1     -33.263   6.766   3.452  1.00 20.00     0.146 C 
ENDROOT
BRANCH   1   2
HETATM    2  C2  UNL     1     -34.382   5.793   3.751  1.00 20.00    -0.065 C 
HETATM    3  C1  UNL     1     -35.649   6.217   3.897  1.00 20.00     0.016 C 
HETATM    4  C3  UNL     1     -34.035   4.338   3.893  1.00 20.00     0.045 C 
ENDBRANCH   1   2
BRANCH   1   5
HETATM    5  C6  UNL     1     -32.954   6.945   1.957  1.00 20.00     0.036 C 
BRANCH   5   6
HETATM    6  C5  UNL     1     -31.843   7.946   1.628  1.00 20.00    -0.002 C 
HETATM    7  C4  UNL     1     -32.316   9.115   0.777  1.00 20.00     0.005 C 
ENDBRANCH   5   6
ENDBRANCH   1   5
BRANCH   1   8
HETATM    8  O8  UNL     1     -33.624   8.040   3.992  1.00 20.00    -0.391 OA
HETATM    9  H22 UNL     1     -34.322   7.871   4.642  1.00 20.00     0.210 HD
ENDBRANCH   1   8
TORSDOF 4
ENDMDL
MODEL 5
REMARK VINA RESULT:      -1.9      1.608      4.071
REMARK  4 active torsions:
REMARK  status: ('A' for Active; 'I' for Inactive)
REMARK    1  A    between atoms: C2_2  and  C7_7 
REMARK    2  A    between atoms: C5_5  and  C6_6 
REMARK    3  A    between atoms: C6_6  and  C7_7 
REMARK    4  A    between atoms: C7_7  and  O8_8 
ROOT
HETATM    1  C7  UNL     1     -33.914   7.494   3.220  1.00 20.00     0.146 C 
ENDROOT
BRANCH   1   2
HETATM    2  C2  UNL     1     -32.820   7.197   2.218  1.00 20.00    -0.065 C 
HETATM    3  C1  UNL     1     -31.904   8.126   1.896  1.00 20.00     0.016 C 
HETATM    4  C3  UNL     1     -32.795   5.835   1.583  1.00 20.00     0.045 C 
ENDBRANCH   1   2
BRANCH   1   5
HETATM    5  C6  UNL     1     -35.030   6.438   3.280  1.00 20.00     0.036 C 
BRANCH   5   6
HETATM    6  C5  UNL     1     -35.011   5.528   4.511  1.00 20.00    -0.002 C 
HETATM    7  C4  UNL     1     -34.238   4.236   4.295  1.00 20.00     0.005 C 
ENDBRANCH   5   6
ENDBRANCH   1   5
BRANCH   1   8
HETATM    8  O8  UNL     1     -33.317   7.590   4.516  1.00 20.00    -0.391 OA
HETATM    9  H22 UNL     1     -33.450   8.504   4.809  1.00 20.00     0.210 HD
ENDBRANCH   1   8
TORSDOF 4
ENDMDL
MODEL 6
REMARK VINA RESULT:      -1.9      1.457      2.235
REMARK  4 active torsions:
REMARK  status: ('A' for Active; 'I' for Inactive)
REMARK    1  A    between atoms: C2_2  and  C7_7 
REMARK    2  A    between atoms: C5_5  and  C6_6 
REMARK    3  A    between atoms: C6_6  and  C7_7 
REMARK    4  A    between atoms: C7_7  and  O8_8 
ROOT
HETATM    1  C7  UNL     1     -31.834   7.594   2.084  1.00 20.00     0.146 C 
ENDROOT
BRANCH   1   2
HETATM    2  C2  UNL     1     -32.903   6.525   2.154  1.00 20.00    -0.065 C 
HETATM    3  C1  UNL     1     -32.927   5.509   1.274  1.00 20.00     0.016 C 
HETATM    4  C3  UNL     1     -33.947   6.639   3.229  1.00 20.00     0.045 C 
ENDBRANCH   1   2
BRANCH   1   5
HETATM    5  C6  UNL     1     -31.784   8.361   0.752  1.00 20.00     0.036 C 
BRANCH   5   6
HETATM    6  C5  UNL     1     -32.404   9.760   0.773  1.00 20.00    -0.002 C 
HETATM    7  C4  UNL     1     -32.842  10.247  -0.600  1.00 20.00     0.005 C 
ENDBRANCH   5   6
ENDBRANCH   1   5
BRANCH   1   8
HETATM    8  O8  UNL     1     -32.076   8.534   3.135  1.00 20.00    -0.391 OA
HETATM    9  H22 UNL     1     -33.018   8.464   3.350  1.00 20.00     0.210 HD
ENDBRANCH   1   8
TORSDOF 4
ENDMDL
MODEL 7
REMARK VINA RESULT:      -1.8      1.484      2.154
REMARK  4 active torsions:
REMARK  status: ('A' for Active; 'I' for Inactive)
REMARK    1  A    between atoms: C2_2  and  C7_7 
REMARK    2  A    between atoms: C5_5  and  C6_6 
REMARK    3  A    between atoms: C6_6  and  C7_7 
REMARK    4  A    between atoms: C7_7  and  O8_8 
ROOT
HETATM    1  C7  UNL     1     -31.835   7.620   2.109  1.00 20.00     0.146 C 
ENDROOT
BRANCH   1   2
HETATM    2  C2  UNL     1     -32.939   6.589   2.196  1.00 20.00    -0.065 C 
HETATM    3  C1  UNL     1     -33.881   6.661   3.152  1.00 20.00     0.016 C 
HETATM    4  C3  UNL     1     -32.944   5.472   1.190  1.00 20.00     0.045 C 
ENDBRANCH   1   2
BRANCH   1   5
HETATM    5  C6  UNL     1     -31.783   8.389   0.778  1.00 20.00     0.036 C 
BRANCH   5   6
HETATM    6  C5  UNL     1     -32.416   9.783   0.797  1.00 20.00    -0.002 C 
HETATM    7  C4  UNL     1     -32.882  10.253  -0.572  1.00 20.00     0.005 C 
ENDBRANCH   5   6
ENDBRANCH   1   5
BRANCH   1   8
HETATM    8  O8  UNL     1     -32.024   8.564   3.167  1.00 20.00    -0.391 OA
HETATM    9  H22 UNL     1     -32.848   9.032   2.969  1.00 20.00     0.210 HD
ENDBRANCH   1   8
TORSDOF 4
ENDMDL
MODEL 8
REMARK VINA RESULT:      -1.7      2.438      4.326
REMARK  4 active torsions:
REMARK  status: ('A' for Active; 'I' for Inactive)
REMARK    1  A    between atoms: C2_2  and  C7_7 
REMARK    2  A    between atoms: C5_5  and  C6_6 
REMARK    3  A    between atoms: C6_6  and  C7_7 
REMARK    4  A    between atoms: C7_7  and  O8_8 
ROOT
HETATM    1  C7  UNL     1     -33.310   5.789   3.116  1.00 20.00     0.146 C 
ENDROOT
BRANCH   1   2
HETATM    2  C2  UNL     1     -34.295   6.761   3.729  1.00 20.00    -0.065 C 
HETATM    3  C1  UNL     1     -35.613   6.496   3.744  1.00 20.00     0.016 C 
HETATM    4  C3  UNL     1     -33.759   8.039   4.310  1.00 20.00     0.045 C 
ENDBRANCH   1   2
BRANCH   1   5
HETATM    5  C6  UNL     1     -33.753   4.318   3.160  1.00 20.00     0.036 C 
BRANCH   5   6
HETATM    6  C5  UNL     1     -33.919   3.721   4.560  1.00 20.00    -0.002 C 
HETATM    7  C4  UNL     1     -32.819   2.738   4.932  1.00 20.00     0.005 C 
ENDBRANCH   5   6
ENDBRANCH   1   5
BRANCH   1   8
HETATM    8  O8  UNL     1     -33.114   6.159   1.748  1.00 20.00    -0.391 OA
HETATM    9  H22 UNL     1     -33.650   5.548   1.222  1.00 20.00     0.210 HD
ENDBRANCH   1   8
TORSDOF 4
ENDMDL
MODEL 9
REMARK VINA RESULT:      -1.6      1.905      4.229
REMARK  4 active torsions:
REMARK  status: ('A' for Active; 'I' for Inactive)
REMARK    1  A    between atoms: C2_2  and  C7_7 
REMARK    2  A    between atoms: C5_5  and  C6_6 
REMARK    3  A    between atoms: C6_6  and  C7_7 
REMARK    4  A    between atoms: C7_7  and  O8_8 
ROOT
HETATM    1  C7  UNL     1     -33.047   5.690   2.828  1.00 20.00     0.146 C 
ENDROOT
BRANCH   1   2
HETATM    2  C2  UNL     1     -33.179   7.182   3.041  1.00 20.00    -0.065 C 
HETATM    3  C1  UNL     1     -34.047   7.681   3.938  1.00 20.00     0.016 C 
HETATM    4  C3  UNL     1     -32.319   8.093   2.210  1.00 20.00     0.045 C 
ENDBRANCH   1   2
BRANCH   1   5
HETATM    5  C6  UNL     1     -34.252   4.866   3.314  1.00 20.00     0.036 C 
BRANCH   5   6
HETATM    6  C5  UNL     1     -34.059   4.140   4.647  1.00 20.00    -0.002 C 
HETATM    7  C4  UNL     1     -33.185   2.900   4.539  1.00 20.00     0.005 C 
ENDBRANCH   5   6
ENDBRANCH   1   5
BRANCH   1   8
HETATM    8  O8  UNL     1     -32.877   5.453   1.428  1.00 20.00    -0.391 OA
HETATM    9  H22 UNL     1     -33.233   4.570   1.257  1.00 20.00     0.210 HD
ENDBRANCH   1   8
TORSDOF 4
ENDMDL
