MODEL 1
REMARK VINA RESULT:      -1.3      0.000      0.000
REMARK  3 active torsions:
REMARK  status: ('A' for Active; 'I' for Inactive)
REMARK    1  A    between atoms: C1_1  and  C2_2 
REMARK    2  A    between atoms: C1_1  and  O10_10 
REMARK    3  A    between atoms: C3_3  and  C7_7 
ROOT
HETATM    1  C2  UNL     1     -33.377   7.167   2.063  1.00 20.00     0.256 A 
HETATM    2  C3  UNL     1     -33.874   7.093   3.493  1.00 20.00     0.093 A 
HETATM    3  C4  UNL     1     -33.231   7.897   4.578  1.00 20.00     0.049 C 
HETATM    4  O9  UNL     1     -33.021   6.084   2.938  1.00 20.00    -0.359 OA
ENDROOT
BRANCH   1   5
HETATM    5  C1  UNL     1     -32.244   8.010   1.684  1.00 20.00     0.290 C 
HETATM    6  O8  UNL     1     -31.083   7.625   1.654  1.00 20.00    -0.262 OA
BRANCH   5   7
HETATM    7  O10 UNL     1     -32.689   9.263   1.379  1.00 20.00    -0.324 OA
HETATM    8  C6  UNL     1     -32.382   9.719   0.058  1.00 20.00     0.213 C 
ENDBRANCH   5   7
ENDBRANCH   1   5
BRANCH   2   9
HETATM    9  C7  UNL     1     -35.274   6.627   3.745  1.00 20.00     0.036 C 
HETATM   10  C5  UNL     1     -35.328   5.296   4.447  1.00 20.00     0.008 C 
ENDBRANCH   2   9
TORSDOF 3
ENDMDL
MODEL 2
REMARK VINA RESULT:      -0.5      1.969      4.631
REMARK  3 active torsions:
REMARK  status: ('A' for Active; 'I' for Inactive)
REMARK    1  A    between atoms: C1_1  and  C2_2 
REMARK    2  A    between atoms: C1_1  and  O10_10 
REMARK    3  A    between atoms: C3_3  and  C7_7 
ROOT
HETATM    1  C2  UNL     1     -33.395   5.374   3.086  1.00 20.00     0.256 A 
HETATM    2  C3  UNL     1     -33.349   6.888   3.143  1.00 20.00     0.093 A 
HETATM    3  C4  UNL     1     -34.225   7.654   4.085  1.00 20.00     0.049 C 
HETATM    4  O9  UNL     1     -34.072   6.194   2.118  1.00 20.00    -0.359 OA
ENDROOT
BRANCH   1   5
HETATM    5  C1  UNL     1     -34.301   4.598   3.932  1.00 20.00     0.290 C 
HETATM    6  O8  UNL     1     -35.307   5.054   4.459  1.00 20.00    -0.262 OA
BRANCH   5   7
HETATM    7  O10 UNL     1     -33.846   3.315   4.030  1.00 20.00    -0.324 OA
HETATM    8  C6  UNL     1     -32.940   3.067   5.109  1.00 20.00     0.213 C 
ENDBRANCH   5   7
ENDBRANCH   1   5
BRANCH   2   9
HETATM    9  C7  UNL     1     -32.125   7.591   2.646  1.00 20.00     0.036 C 
HETATM   10  C5  UNL     1     -32.375   8.382   1.390  1.00 20.00     0.008 C 
ENDBRANCH   2   9
TORSDOF 3
ENDMDL
MODEL 3
REMARK VINA RESULT:      -0.5      1.327      4.164
REMARK  3 active torsions:
REMARK  status: ('A' for Active; 'I' for Inactive)
REMARK    1  A    between atoms: C1_1  and  C2_2 
REMARK    2  A    between atoms: C1_1  and  O10_10 
REMARK    3  A    between atoms: C3_3  and  C7_7 
ROOT
HETATM    1  C2  UNL     1     -33.242   7.649   2.367  1.00 20.00     0.256 A 
HETATM    2  C3  UNL     1     -32.258   8.427   1.517  1.00 20.00     0.093 A 
HETATM    3  C4  UNL     1     -31.259   7.725   0.652  1.00 20.00     0.049 C 
HETATM    4  O9  UNL     1     -32.049   8.228   2.920  1.00 20.00    -0.359 OA
ENDROOT
BRANCH   1   5
HETATM    5  C1  UNL     1     -33.250   6.186   2.394  1.00 20.00     0.290 C 
HETATM    6  O8  UNL     1     -32.753   5.482   1.526  1.00 20.00    -0.262 OA
BRANCH   5   7
HETATM    7  O10 UNL     1     -33.888   5.755   3.520  1.00 20.00    -0.324 OA
HETATM    8  C6  UNL     1     -35.032   6.521   3.910  1.00 20.00     0.213 C 
ENDBRANCH   5   7
ENDBRANCH   1   5
BRANCH   2   9
HETATM    9  C7  UNL     1     -32.584   9.841   1.151  1.00 20.00     0.036 C 
HETATM   10  C5  UNL     1     -32.626  10.063  -0.338  1.00 20.00     0.008 C 
ENDBRANCH   2   9
TORSDOF 3
ENDMDL
MODEL 4
REMARK VINA RESULT:      -0.2      1.403      4.203
REMARK  3 active torsions:
REMARK  status: ('A' for Active; 'I' for Inactive)
REMARK    1  A    between atoms: C1_1  and  C2_2 
REMARK    2  A    between atoms: C1_1  and  O10_10 
REMARK    3  A    between atoms: C3_3  and  C7_7 
ROOT
HETATM    1  C2  UNL     1     -32.981   8.432   2.748  1.00 20.00     0.256 A 
HETATM    2  C3  UNL     1     -32.153   7.788   1.654  1.00 20.00     0.093 A 
HETATM    3  C4  UNL     1     -31.972   6.303   1.594  1.00 20.00     0.049 C 
HETATM    4  O9  UNL     1     -31.545   8.398   2.799  1.00 20.00    -0.359 OA
ENDROOT
BRANCH   1   5
HETATM    5  C1  UNL     1     -33.622   7.640   3.798  1.00 20.00     0.290 C 
HETATM    6  O8  UNL     1     -33.441   7.814   4.995  1.00 20.00    -0.262 OA
BRANCH   5   7
HETATM    7  O10 UNL     1     -34.433   6.702   3.229  1.00 20.00    -0.324 OA
HETATM    8  C6  UNL     1     -35.330   6.040   4.126  1.00 20.00     0.213 C 
ENDBRANCH   5   7
ENDBRANCH   1   5
BRANCH   2   9
HETATM    9  C7  UNL     1     -31.932   8.541   0.380  1.00 20.00     0.036 C 
HETATM   10  C5  UNL     1     -32.483   9.941   0.428  1.00 20.00     0.008 C 
ENDBRANCH   2   9
TORSDOF 3
ENDMDL
MODEL 5
REMARK VINA RESULT:      -0.1      1.487      4.382
REMARK  3 active torsions:
REMARK  status: ('A' for Active; 'I' for Inactive)
REMARK    1  A    between atoms: C1_1  and  C2_2 
REMARK    2  A    between atoms: C1_1  and  O10_10 
REMARK    3  A    between atoms: C3_3  and  C7_7 
ROOT
HETATM    1  C2  UNL     1     -33.746   7.679   3.324  1.00 20.00     0.256 A 
HETATM    2  C3  UNL     1     -32.695   7.766   2.235  1.00 20.00     0.093 A 
HETATM    3  C4  UNL     1     -32.360   6.579   1.388  1.00 20.00     0.049 C 
HETATM    4  O9  UNL     1     -32.339   7.610   3.614  1.00 20.00    -0.359 OA
ENDROOT
BRANCH   1   5
HETATM    5  C1  UNL     1     -34.463   6.437   3.606  1.00 20.00     0.290 C 
HETATM    6  O8  UNL     1     -35.674   6.365   3.767  1.00 20.00    -0.262 OA
BRANCH   5   7
HETATM    7  O10 UNL     1     -33.577   5.400   3.658  1.00 20.00    -0.324 OA
HETATM    8  C6  UNL     1     -34.106   4.165   4.149  1.00 20.00     0.213 C 
ENDBRANCH   5   7
ENDBRANCH   1   5
BRANCH   2   9
HETATM    9  C7  UNL     1     -32.351   9.109   1.671  1.00 20.00     0.036 C 
HETATM   10  C5  UNL     1     -32.315   9.118   0.166  1.00 20.00     0.008 C 
ENDBRANCH   2   9
TORSDOF 3
ENDMDL
MODEL 6
REMARK VINA RESULT:       0.1      1.238      1.684
REMARK  3 active torsions:
REMARK  status: ('A' for Active; 'I' for Inactive)
REMARK    1  A    between atoms: C1_1  and  C2_2 
REMARK    2  A    between atoms: C1_1  and  O10_10 
REMARK    3  A    between atoms: C3_3  and  C7_7 
ROOT
HETATM    1  C2  UNL     1     -32.997   7.521   3.078  1.00 20.00     0.256 A 
HETATM    2  C3  UNL     1     -33.689   6.185   2.898  1.00 20.00     0.093 A 
HETATM    3  C4  UNL     1     -33.495   5.375   1.655  1.00 20.00     0.049 C 
HETATM    4  O9  UNL     1     -34.375   7.424   2.679  1.00 20.00    -0.359 OA
ENDROOT
BRANCH   1   5
HETATM    5  C1  UNL     1     -32.128   8.085   2.045  1.00 20.00     0.290 C 
HETATM    6  O8  UNL     1     -31.085   7.567   1.669  1.00 20.00    -0.262 OA
BRANCH   5   7
HETATM    7  O10 UNL     1     -32.663   9.253   1.587  1.00 20.00    -0.324 OA
HETATM    8  C6  UNL     1     -32.305   9.609   0.248  1.00 20.00     0.213 C 
ENDBRANCH   5   7
ENDBRANCH   1   5
BRANCH   2   9
HETATM    9  C7  UNL     1     -34.153   5.445   4.113  1.00 20.00     0.036 C 
HETATM   10  C5  UNL     1     -33.834   3.975   4.058  1.00 20.00     0.008 C 
ENDBRANCH   2   9
TORSDOF 3
ENDMDL
MODEL 7
REMARK VINA RESULT:       0.2      1.064      1.837
REMARK  3 active torsions:
REMARK  status: ('A' for Active; 'I' for Inactive)
REMARK    1  A    between atoms: C1_1  and  C2_2 
REMARK    2  A    between atoms: C1_1  and  O10_10 
REMARK    3  A    between atoms: C3_3  and  C7_7 
ROOT
HETATM    1  C2  UNL     1     -33.534   6.652   2.263  1.00 20.00     0.256 A 
HETATM    2  C3  UNL     1     -34.099   6.900   3.648  1.00 20.00     0.093 A 
HETATM    3  C4  UNL     1     -33.527   7.959   4.537  1.00 20.00     0.049 C 
HETATM    4  O9  UNL     1     -33.196   5.818   3.384  1.00 20.00    -0.359 OA
ENDROOT
BRANCH   1   5
HETATM    5  C1  UNL     1     -32.403   7.420   1.743  1.00 20.00     0.290 C 
HETATM    6  O8  UNL     1     -32.407   8.634   1.598  1.00 20.00    -0.262 OA
BRANCH   5   7
HETATM    7  O10 UNL     1     -31.373   6.573   1.453  1.00 20.00    -0.324 OA
HETATM    8  C6  UNL     1     -31.753   5.309   0.902  1.00 20.00     0.213 C 
ENDBRANCH   5   7
ENDBRANCH   1   5
BRANCH   2   9
HETATM    9  C7  UNL     1     -35.497   6.459   3.945  1.00 20.00     0.036 C 
HETATM   10  C5  UNL     1     -35.554   5.120   4.631  1.00 20.00     0.008 C 
ENDBRANCH   2   9
TORSDOF 3
ENDMDL
MODEL 8
REMARK VINA RESULT:       0.4      1.937      4.077
REMARK  3 active torsions:
REMARK  status: ('A' for Active; 'I' for Inactive)
REMARK    1  A    between atoms: C1_1  and  C2_2 
REMARK    2  A    between atoms: C1_1  and  O10_10 
REMARK    3  A    between atoms: C3_3  and  C7_7 
ROOT
HETATM    1  C2  UNL     1     -33.509   6.000   2.902  1.00 20.00     0.256 A 
HETATM    2  C3  UNL     1     -32.478   6.486   1.903  1.00 20.00     0.093 A 
HETATM    3  C4  UNL     1     -32.159   7.942   1.768  1.00 20.00     0.049 C 
HETATM    4  O9  UNL     1     -33.812   6.147   1.505  1.00 20.00    -0.359 OA
ENDROOT
BRANCH   1   5
HETATM    5  C1  UNL     1     -34.246   6.925   3.762  1.00 20.00     0.290 C 
HETATM    6  O8  UNL     1     -33.824   8.017   4.116  1.00 20.00    -0.262 OA
BRANCH   5   7
HETATM    7  O10 UNL     1     -35.451   6.377   4.093  1.00 20.00    -0.324 OA
HETATM    8  C6  UNL     1     -35.404   5.025   4.559  1.00 20.00     0.213 C 
ENDBRANCH   5   7
ENDBRANCH   1   5
BRANCH   2   9
HETATM    9  C7  UNL     1     -31.440   5.526   1.414  1.00 20.00     0.036 C 
HETATM   10  C5  UNL     1     -31.974   4.561   0.389  1.00 20.00     0.008 C 
ENDBRANCH   2   9
TORSDOF 3
ENDMDL
MODEL 9
REMARK VINA RESULT:       0.5      1.623      4.368
REMARK  3 active torsions:
REMARK  status: ('A' for Active; 'I' for Inactive)
REMARK    1  A    between atoms: C1_1  and  C2_2 
REMARK    2  A    between atoms: C1_1  and  O10_10 
REMARK    3  A    between atoms: C3_3  and  C7_7 
ROOT
HETATM    1  C2  UNL     1     -33.537   6.504   2.362  1.00 20.00     0.256 A 
HETATM    2  C3  UNL     1     -32.689   7.730   2.638  1.00 20.00     0.093 A 
HETATM    3  C4  UNL     1     -32.384   8.159   4.039  1.00 20.00     0.049 C 
HETATM    4  O9  UNL     1     -34.076   7.835   2.292  1.00 20.00    -0.359 OA
ENDROOT
BRANCH   1   5
HETATM    5  C1  UNL     1     -34.104   5.699   3.443  1.00 20.00     0.290 C 
HETATM    6  O8  UNL     1     -35.106   6.007   4.073  1.00 20.00    -0.262 OA
BRANCH   5   7
HETATM    7  O10 UNL     1     -33.347   4.578   3.622  1.00 20.00    -0.324 OA
HETATM    8  C6  UNL     1     -33.884   3.614   4.532  1.00 20.00     0.213 C 
ENDBRANCH   5   7
ENDBRANCH   1   5
BRANCH   2   9
HETATM    9  C7  UNL     1     -31.762   8.220   1.571  1.00 20.00     0.036 C 
HETATM   10  C5  UNL     1     -32.345   9.351   0.766  1.00 20.00     0.008 C 
ENDBRANCH   2   9
TORSDOF 3
ENDMDL
