MODEL 1
REMARK VINA RESULT:      -0.9      0.000      0.000
REMARK  2 active torsions:
REMARK  status: ('A' for Active; 'I' for Inactive)
REMARK    1  A    between atoms: C2_2  and  C6_6 
REMARK    2  A    between atoms: C6_6  and  N7_7 
ROOT
HETATM    1  C3  UNL     1     -32.364  10.610  -0.301  1.00 20.00     0.060 C 
HETATM    2  C4  UNL     1     -32.760  10.342   1.163  1.00 20.00     0.274 C 
HETATM    3  C5  UNL     1     -31.787   9.182  -0.258  1.00 20.00     0.274 C 
HETATM    4  N7  UNL     1     -32.760   8.893   0.827  1.00 20.00     0.093 N 
ENDROOT
BRANCH   4   5
HETATM    5  C6  UNL     1     -32.129   8.119   1.890  1.00 20.00     0.317 C 
BRANCH   5   6
HETATM    6  C2  UNL     1     -32.924   6.901   2.269  1.00 20.00     0.007 C 
HETATM    7  C1  UNL     1     -32.771   5.710   1.673  1.00 20.00     0.029 C 
HETATM    8 BR8  UNL     1     -34.116   7.125   3.699  1.00 20.00    -0.055 Br
ENDBRANCH   5   6
ENDBRANCH   4   5
TORSDOF 2
ENDMDL
MODEL 2
REMARK VINA RESULT:      -0.6      2.758      4.739
REMARK  2 active torsions:
REMARK  status: ('A' for Active; 'I' for Inactive)
REMARK    1  A    between atoms: C2_2  and  C6_6 
REMARK    2  A    between atoms: C6_6  and  N7_7 
ROOT
HETATM    1  C3  UNL     1     -35.359   5.050   4.494  1.00 20.00     0.060 C 
HETATM    2  C4  UNL     1     -33.899   5.015   4.003  1.00 20.00     0.274 C 
HETATM    3  C5  UNL     1     -35.302   6.542   4.112  1.00 20.00     0.274 C 
HETATM    4  N7  UNL     1     -34.230   6.185   3.147  1.00 20.00     0.093 N 
ENDROOT
BRANCH   4   5
HETATM    5  C6  UNL     1     -33.155   7.171   3.186  1.00 20.00     0.317 C 
BRANCH   5   6
HETATM    6  C2  UNL     1     -32.408   7.266   1.885  1.00 20.00     0.007 C 
HETATM    7  C1  UNL     1     -31.910   8.414   1.408  1.00 20.00     0.029 C 
HETATM    8 BR8  UNL     1     -32.145   5.644   0.983  1.00 20.00    -0.055 Br
ENDBRANCH   5   6
ENDBRANCH   4   5
TORSDOF 2
ENDMDL
MODEL 3
REMARK VINA RESULT:      -0.5      2.926      4.646
REMARK  2 active torsions:
REMARK  status: ('A' for Active; 'I' for Inactive)
REMARK    1  A    between atoms: C2_2  and  C6_6 
REMARK    2  A    between atoms: C6_6  and  N7_7 
ROOT
HETATM    1  C3  UNL     1     -35.347   5.061   4.502  1.00 20.00     0.060 C 
HETATM    2  C4  UNL     1     -33.909   4.976   3.956  1.00 20.00     0.274 C 
HETATM    3  C5  UNL     1     -35.258   6.547   4.105  1.00 20.00     0.274 C 
HETATM    4  N7  UNL     1     -34.236   6.148   3.102  1.00 20.00     0.093 N 
ENDROOT
BRANCH   4   5
HETATM    5  C6  UNL     1     -33.129   7.099   3.091  1.00 20.00     0.317 C 
BRANCH   5   6
HETATM    6  C2  UNL     1     -32.370   7.088   1.794  1.00 20.00     0.007 C 
HETATM    7  C1  UNL     1     -32.013   5.961   1.163  1.00 20.00     0.029 C 
HETATM    8 BR8  UNL     1     -32.003   8.772   1.057  1.00 20.00    -0.055 Br
ENDBRANCH   5   6
ENDBRANCH   4   5
TORSDOF 2
ENDMDL
MODEL 4
REMARK VINA RESULT:      -0.5      1.205      1.428
REMARK  2 active torsions:
REMARK  status: ('A' for Active; 'I' for Inactive)
REMARK    1  A    between atoms: C2_2  and  C6_6 
REMARK    2  A    between atoms: C6_6  and  N7_7 
ROOT
HETATM    1  C3  UNL     1     -32.225  10.413  -0.400  1.00 20.00     0.060 C 
HETATM    2  C4  UNL     1     -32.765  10.384   1.042  1.00 20.00     0.274 C 
HETATM    3  C5  UNL     1     -31.657   9.020  -0.064  1.00 20.00     0.274 C 
HETATM    4  N7  UNL     1     -32.735   8.900   0.952  1.00 20.00     0.093 N 
ENDROOT
BRANCH   4   5
HETATM    5  C6  UNL     1     -32.215   8.321   2.186  1.00 20.00     0.317 C 
BRANCH   5   6
HETATM    6  C2  UNL     1     -33.054   7.179   2.688  1.00 20.00     0.007 C 
HETATM    7  C1  UNL     1     -33.888   7.286   3.731  1.00 20.00     0.029 C 
HETATM    8 BR8  UNL     1     -32.919   5.585   1.711  1.00 20.00    -0.055 Br
ENDBRANCH   5   6
ENDBRANCH   4   5
TORSDOF 2
ENDMDL
MODEL 5
REMARK VINA RESULT:      -0.4      2.579      4.179
REMARK  2 active torsions:
REMARK  status: ('A' for Active; 'I' for Inactive)
REMARK    1  A    between atoms: C2_2  and  C6_6 
REMARK    2  A    between atoms: C6_6  and  N7_7 
ROOT
HETATM    1  C3  UNL     1     -35.095   6.089   4.179  1.00 20.00     0.060 C 
HETATM    2  C4  UNL     1     -33.905   5.906   3.218  1.00 20.00     0.274 C 
HETATM    3  C5  UNL     1     -34.565   7.527   4.334  1.00 20.00     0.274 C 
HETATM    4  N7  UNL     1     -33.951   7.374   2.989  1.00 20.00     0.093 N 
ENDROOT
BRANCH   4   5
HETATM    5  C6  UNL     1     -32.603   7.934   2.974  1.00 20.00     0.317 C 
BRANCH   5   6
HETATM    6  C2  UNL     1     -32.037   8.041   1.586  1.00 20.00     0.007 C 
HETATM    7  C1  UNL     1     -31.342   7.056   0.999  1.00 20.00     0.029 C 
HETATM    8 BR8  UNL     1     -32.423   9.633   0.675  1.00 20.00    -0.055 Br
ENDBRANCH   5   6
ENDBRANCH   4   5
TORSDOF 2
ENDMDL
MODEL 6
REMARK VINA RESULT:      -0.2      2.607      4.382
REMARK  2 active torsions:
REMARK  status: ('A' for Active; 'I' for Inactive)
REMARK    1  A    between atoms: C2_2  and  C6_6 
REMARK    2  A    between atoms: C6_6  and  N7_7 
ROOT
HETATM    1  C3  UNL     1     -35.047   5.598   4.264  1.00 20.00     0.060 C 
HETATM    2  C4  UNL     1     -34.904   6.970   3.578  1.00 20.00     0.274 C 
HETATM    3  C5  UNL     1     -33.911   5.166   3.317  1.00 20.00     0.274 C 
HETATM    4  N7  UNL     1     -33.500   6.593   3.267  1.00 20.00     0.093 N 
ENDROOT
BRANCH   4   5
HETATM    5  C6  UNL     1     -33.154   6.980   1.904  1.00 20.00     0.317 C 
BRANCH   5   6
HETATM    6  C2  UNL     1     -32.203   8.143   1.855  1.00 20.00     0.007 C 
HETATM    7  C1  UNL     1     -31.220   8.325   2.748  1.00 20.00     0.029 C 
HETATM    8 BR8  UNL     1     -32.428   9.312   0.407  1.00 20.00    -0.055 Br
ENDBRANCH   5   6
ENDBRANCH   4   5
TORSDOF 2
ENDMDL
MODEL 7
REMARK VINA RESULT:      -0.1      1.633      2.371
REMARK  2 active torsions:
REMARK  status: ('A' for Active; 'I' for Inactive)
REMARK    1  A    between atoms: C2_2  and  C6_6 
REMARK    2  A    between atoms: C6_6  and  N7_7 
ROOT
HETATM    1  C3  UNL     1     -31.270   8.899   0.563  1.00 20.00     0.060 C 
HETATM    2  C4  UNL     1     -31.275   7.549   1.305  1.00 20.00     0.274 C 
HETATM    3  C5  UNL     1     -32.727   9.012   1.052  1.00 20.00     0.274 C 
HETATM    4  N7  UNL     1     -32.352   8.104   2.167  1.00 20.00     0.093 N 
ENDROOT
BRANCH   4   5
HETATM    5  C6  UNL     1     -33.395   7.109   2.392  1.00 20.00     0.317 C 
BRANCH   5   6
HETATM    6  C2  UNL     1     -33.973   7.179   3.778  1.00 20.00     0.007 C 
HETATM    7  C1  UNL     1     -33.612   8.104   4.677  1.00 20.00     0.029 C 
HETATM    8 BR8  UNL     1     -35.305   5.917   4.163  1.00 20.00    -0.055 Br
ENDBRANCH   5   6
ENDBRANCH   4   5
TORSDOF 2
ENDMDL
MODEL 8
REMARK VINA RESULT:      -0.1      2.112      2.902
REMARK  2 active torsions:
REMARK  status: ('A' for Active; 'I' for Inactive)
REMARK    1  A    between atoms: C2_2  and  C6_6 
REMARK    2  A    between atoms: C6_6  and  N7_7 
ROOT
HETATM    1  C3  UNL     1     -31.657   7.672   0.970  1.00 20.00     0.060 C 
HETATM    2  C4  UNL     1     -32.106   8.391   2.257  1.00 20.00     0.274 C 
HETATM    3  C5  UNL     1     -32.348   6.441   1.587  1.00 20.00     0.274 C 
HETATM    4  N7  UNL     1     -33.197   7.386   2.357  1.00 20.00     0.093 N 
ENDROOT
BRANCH   4   5
HETATM    5  C6  UNL     1     -33.352   6.931   3.735  1.00 20.00     0.317 C 
BRANCH   5   6
HETATM    6  C2  UNL     1     -34.484   5.957   3.899  1.00 20.00     0.007 C 
HETATM    7  C1  UNL     1     -35.774   6.308   3.801  1.00 20.00     0.029 C 
HETATM    8 BR8  UNL     1     -33.982   4.173   4.185  1.00 20.00    -0.055 Br
ENDBRANCH   5   6
ENDBRANCH   4   5
TORSDOF 2
ENDMDL
MODEL 9
REMARK VINA RESULT:       0.1      1.964      2.721
REMARK  2 active torsions:
REMARK  status: ('A' for Active; 'I' for Inactive)
REMARK    1  A    between atoms: C2_2  and  C6_6 
REMARK    2  A    between atoms: C6_6  and  N7_7 
ROOT
HETATM    1  C3  UNL     1     -32.051   8.387   1.417  1.00 20.00     0.060 C 
HETATM    2  C4  UNL     1     -32.392   7.797   2.799  1.00 20.00     0.274 C 
HETATM    3  C5  UNL     1     -32.222   6.940   0.915  1.00 20.00     0.274 C 
HETATM    4  N7  UNL     1     -33.113   6.712   2.082  1.00 20.00     0.093 N 
ENDROOT
BRANCH   4   5
HETATM    5  C6  UNL     1     -32.835   5.418   2.695  1.00 20.00     0.317 C 
BRANCH   5   6
HETATM    6  C2  UNL     1     -33.916   4.982   3.644  1.00 20.00     0.007 C 
HETATM    7  C1  UNL     1     -33.903   3.801   4.277  1.00 20.00     0.029 C 
HETATM    8 BR8  UNL     1     -35.274   6.235   3.955  1.00 20.00    -0.055 Br
ENDBRANCH   5   6
ENDBRANCH   4   5
TORSDOF 2
ENDMDL
