MODEL 1
REMARK VINA RESULT:      -1.9      0.000      0.000
REMARK  4 active torsions:
REMARK  status: ('A' for Active; 'I' for Inactive)
REMARK    1  A    between atoms: C2_2  and  C3_3 
REMARK    2  A    between atoms: C2_2  and  C4_4 
REMARK    3  A    between atoms: C3_3  and  C5_5 
REMARK    4  A    between atoms: C4_4  and  S6_6 
ROOT
HETATM    1  C2  UNL     1     -32.182   6.604   1.474  1.00 20.00     0.011 C 
ENDROOT
BRANCH   1   2
HETATM    2  C3  UNL     1     -32.066   8.102   1.776  1.00 20.00     0.016 C 
BRANCH   2   3
HETATM    3  C5  UNL     1     -31.690   8.938   0.556  1.00 20.00     0.114 C 
HETATM    4 CL7  UNL     1     -32.691  10.401   0.413  1.00 20.00    -0.130 Cl
ENDBRANCH   2   3
ENDBRANCH   1   2
BRANCH   1   5
HETATM    5  C4  UNL     1     -33.284   5.965   2.316  1.00 20.00     0.073 C 
BRANCH   5   6
HETATM    6  S6  UNL     1     -33.936   7.152   3.526  1.00 20.00    -0.173 SA
HETATM    7  C1  UNL     1     -35.339   6.178   4.118  1.00 20.00     0.089 C 
ENDBRANCH   5   6
ENDBRANCH   1   5
TORSDOF 4
ENDMDL
MODEL 2
REMARK VINA RESULT:      -1.8      3.624      5.117
REMARK  4 active torsions:
REMARK  status: ('A' for Active; 'I' for Inactive)
REMARK    1  A    between atoms: C2_2  and  C3_3 
REMARK    2  A    between atoms: C2_2  and  C4_4 
REMARK    3  A    between atoms: C3_3  and  C5_5 
REMARK    4  A    between atoms: C4_4  and  S6_6 
ROOT
HETATM    1  C2  UNL     1     -35.124   6.286   3.766  1.00 20.00     0.011 C 
ENDROOT
BRANCH   1   2
HETATM    2  C3  UNL     1     -34.909   4.983   4.546  1.00 20.00     0.016 C 
BRANCH   2   3
HETATM    3  C5  UNL     1     -33.959   4.012   3.852  1.00 20.00     0.114 C 
HETATM    4 CL7  UNL     1     -33.128   2.947   5.008  1.00 20.00    -0.130 Cl
ENDBRANCH   2   3
ENDBRANCH   1   2
BRANCH   1   5
HETATM    5  C4  UNL     1     -33.802   7.026   3.574  1.00 20.00     0.073 C 
BRANCH   5   6
HETATM    6  S6  UNL     1     -33.070   6.625   1.960  1.00 20.00    -0.173 SA
HETATM    7  C1  UNL     1     -31.969   8.050   1.812  1.00 20.00     0.089 C 
ENDBRANCH   5   6
ENDBRANCH   1   5
TORSDOF 4
ENDMDL
MODEL 3
REMARK VINA RESULT:      -1.7      3.286      4.848
REMARK  4 active torsions:
REMARK  status: ('A' for Active; 'I' for Inactive)
REMARK    1  A    between atoms: C2_2  and  C3_3 
REMARK    2  A    between atoms: C2_2  and  C4_4 
REMARK    3  A    between atoms: C3_3  and  C5_5 
REMARK    4  A    between atoms: C4_4  and  S6_6 
ROOT
HETATM    1  C2  UNL     1     -33.690   6.462   2.975  1.00 20.00     0.011 C 
ENDROOT
BRANCH   1   2
HETATM    2  C3  UNL     1     -34.866   6.489   3.959  1.00 20.00     0.016 C 
BRANCH   2   3
HETATM    3  C5  UNL     1     -35.254   5.107   4.475  1.00 20.00     0.114 C 
HETATM    4 CL7  UNL     1     -33.956   3.914   4.236  1.00 20.00    -0.130 Cl
ENDBRANCH   2   3
ENDBRANCH   1   2
BRANCH   1   5
HETATM    5  C4  UNL     1     -33.040   7.840   2.870  1.00 20.00     0.073 C 
BRANCH   5   6
HETATM    6  S6  UNL     1     -31.808   7.868   1.535  1.00 20.00    -0.173 SA
HETATM    7  C1  UNL     1     -32.347   9.387   0.716  1.00 20.00     0.089 C 
ENDBRANCH   5   6
ENDBRANCH   1   5
TORSDOF 4
ENDMDL
MODEL 4
REMARK VINA RESULT:      -1.7      1.204      1.435
REMARK  4 active torsions:
REMARK  status: ('A' for Active; 'I' for Inactive)
REMARK    1  A    between atoms: C2_2  and  C3_3 
REMARK    2  A    between atoms: C2_2  and  C4_4 
REMARK    3  A    between atoms: C3_3  and  C5_5 
REMARK    4  A    between atoms: C4_4  and  S6_6 
ROOT
HETATM    1  C2  UNL     1     -33.148   6.208   2.126  1.00 20.00     0.011 C 
ENDROOT
BRANCH   1   2
HETATM    2  C3  UNL     1     -32.027   6.984   1.423  1.00 20.00     0.016 C 
BRANCH   2   3
HETATM    3  C5  UNL     1     -32.009   8.469   1.772  1.00 20.00     0.114 C 
HETATM    4 CL7  UNL     1     -32.317   9.494   0.351  1.00 20.00    -0.130 Cl
ENDBRANCH   2   3
ENDBRANCH   1   2
BRANCH   1   5
HETATM    5  C4  UNL     1     -33.756   7.038   3.255  1.00 20.00     0.073 C 
BRANCH   5   6
HETATM    6  S6  UNL     1     -35.113   6.136   4.056  1.00 20.00    -0.173 SA
HETATM    7  C1  UNL     1     -34.332   4.508   4.136  1.00 20.00     0.089 C 
ENDBRANCH   5   6
ENDBRANCH   1   5
TORSDOF 4
ENDMDL
MODEL 5
REMARK VINA RESULT:      -1.6      3.008      4.243
REMARK  4 active torsions:
REMARK  status: ('A' for Active; 'I' for Inactive)
REMARK    1  A    between atoms: C2_2  and  C3_3 
REMARK    2  A    between atoms: C2_2  and  C4_4 
REMARK    3  A    between atoms: C3_3  and  C5_5 
REMARK    4  A    between atoms: C4_4  and  S6_6 
ROOT
HETATM    1  C2  UNL     1     -32.050   6.678   1.624  1.00 20.00     0.011 C 
ENDROOT
BRANCH   1   2
HETATM    2  C3  UNL     1     -33.322   6.078   2.236  1.00 20.00     0.016 C 
BRANCH   2   3
HETATM    3  C5  UNL     1     -33.877   6.894   3.399  1.00 20.00     0.114 C 
HETATM    4 CL7  UNL     1     -35.374   6.194   4.055  1.00 20.00    -0.130 Cl
ENDBRANCH   2   3
ENDBRANCH   1   2
BRANCH   1   5
HETATM    5  C4  UNL     1     -32.054   8.200   1.752  1.00 20.00     0.073 C 
BRANCH   5   6
HETATM    6  S6  UNL     1     -31.916   8.981   0.118  1.00 20.00    -0.173 SA
HETATM    7  C1  UNL     1     -32.716  10.553   0.511  1.00 20.00     0.089 C 
ENDBRANCH   5   6
ENDBRANCH   1   5
TORSDOF 4
ENDMDL
MODEL 6
REMARK VINA RESULT:      -1.6      3.043      4.401
REMARK  4 active torsions:
REMARK  status: ('A' for Active; 'I' for Inactive)
REMARK    1  A    between atoms: C2_2  and  C3_3 
REMARK    2  A    between atoms: C2_2  and  C4_4 
REMARK    3  A    between atoms: C3_3  and  C5_5 
REMARK    4  A    between atoms: C4_4  and  S6_6 
ROOT
HETATM    1  C2  UNL     1     -33.296   5.982   2.275  1.00 20.00     0.011 C 
ENDROOT
BRANCH   1   2
HETATM    2  C3  UNL     1     -33.851   6.940   3.336  1.00 20.00     0.016 C 
BRANCH   2   3
HETATM    3  C5  UNL     1     -35.128   6.433   4.000  1.00 20.00     0.114 C 
HETATM    4 CL7  UNL     1     -34.999   4.726   4.482  1.00 20.00    -0.130 Cl
ENDBRANCH   2   3
ENDBRANCH   1   2
BRANCH   1   5
HETATM    5  C4  UNL     1     -32.282   6.692   1.382  1.00 20.00     0.073 C 
BRANCH   5   6
HETATM    6  S6  UNL     1     -31.921   8.355   2.017  1.00 20.00    -0.173 SA
HETATM    7  C1  UNL     1     -32.275   9.292   0.511  1.00 20.00     0.089 C 
ENDBRANCH   5   6
ENDBRANCH   1   5
TORSDOF 4
ENDMDL
MODEL 7
REMARK VINA RESULT:      -1.5      3.380      4.771
REMARK  4 active torsions:
REMARK  status: ('A' for Active; 'I' for Inactive)
REMARK    1  A    between atoms: C2_2  and  C3_3 
REMARK    2  A    between atoms: C2_2  and  C4_4 
REMARK    3  A    between atoms: C3_3  and  C5_5 
REMARK    4  A    between atoms: C4_4  and  S6_6 
ROOT
HETATM    1  C2  UNL     1     -33.989   6.399   3.043  1.00 20.00     0.011 C 
ENDROOT
BRANCH   1   2
HETATM    2  C3  UNL     1     -35.118   6.323   4.077  1.00 20.00     0.016 C 
BRANCH   2   3
HETATM    3  C5  UNL     1     -35.322   4.924   4.648  1.00 20.00     0.114 C 
HETATM    4 CL7  UNL     1     -33.951   3.849   4.291  1.00 20.00    -0.130 Cl
ENDBRANCH   2   3
ENDBRANCH   1   2
BRANCH   1   5
HETATM    5  C4  UNL     1     -33.220   7.712   3.176  1.00 20.00     0.073 C 
BRANCH   5   6
HETATM    6  S6  UNL     1     -31.994   7.876   1.846  1.00 20.00    -0.173 SA
HETATM    7  C1  UNL     1     -32.003   6.163   1.270  1.00 20.00     0.089 C 
ENDBRANCH   5   6
ENDBRANCH   1   5
TORSDOF 4
ENDMDL
MODEL 8
REMARK VINA RESULT:      -1.4      1.143      1.205
REMARK  4 active torsions:
REMARK  status: ('A' for Active; 'I' for Inactive)
REMARK    1  A    between atoms: C2_2  and  C3_3 
REMARK    2  A    between atoms: C2_2  and  C4_4 
REMARK    3  A    between atoms: C3_3  and  C5_5 
REMARK    4  A    between atoms: C4_4  and  S6_6 
ROOT
HETATM    1  C2  UNL     1     -32.169   7.532   2.263  1.00 20.00     0.011 C 
ENDROOT
BRANCH   1   2
HETATM    2  C3  UNL     1     -31.792   8.239   0.955  1.00 20.00     0.016 C 
BRANCH   2   3
HETATM    3  C5  UNL     1     -32.340   9.660   0.857  1.00 20.00     0.114 C 
HETATM    4 CL7  UNL     1     -32.862  10.064  -0.794  1.00 20.00    -0.130 Cl
ENDBRANCH   2   3
ENDBRANCH   1   2
BRANCH   1   5
HETATM    5  C4  UNL     1     -32.983   6.271   1.981  1.00 20.00     0.073 C 
BRANCH   5   6
HETATM    6  S6  UNL     1     -34.135   5.934   3.345  1.00 20.00    -0.173 SA
HETATM    7  C1  UNL     1     -34.121   7.571   4.110  1.00 20.00     0.089 C 
ENDBRANCH   5   6
ENDBRANCH   1   5
TORSDOF 4
ENDMDL
MODEL 9
REMARK VINA RESULT:      -1.2      1.189      1.260
REMARK  4 active torsions:
REMARK  status: ('A' for Active; 'I' for Inactive)
REMARK    1  A    between atoms: C2_2  and  C3_3 
REMARK    2  A    between atoms: C2_2  and  C4_4 
REMARK    3  A    between atoms: C3_3  and  C5_5 
REMARK    4  A    between atoms: C4_4  and  S6_6 
ROOT
HETATM    1  C2  UNL     1     -33.091   6.251   1.542  1.00 20.00     0.011 C 
ENDROOT
BRANCH   1   2
HETATM    2  C3  UNL     1     -31.856   7.161   1.522  1.00 20.00     0.016 C 
BRANCH   2   3
HETATM    3  C5  UNL     1     -32.193   8.640   1.682  1.00 20.00     0.114 C 
HETATM    4 CL7  UNL     1     -32.263   9.484   0.119  1.00 20.00    -0.130 Cl
ENDBRANCH   2   3
ENDBRANCH   1   2
BRANCH   1   5
HETATM    5  C4  UNL     1     -33.321   5.681   2.940  1.00 20.00     0.073 C 
BRANCH   5   6
HETATM    6  S6  UNL     1     -34.788   6.433   3.705  1.00 20.00    -0.173 SA
HETATM    7  C1  UNL     1     -33.964   7.788   4.571  1.00 20.00     0.089 C 
ENDBRANCH   5   6
ENDBRANCH   1   5
TORSDOF 4
ENDMDL
