MODEL 1
REMARK VINA RESULT:      -1.0      0.000      0.000
REMARK  0 active torsions:
REMARK  status: ('A' for Active; 'I' for Inactive)
ROOT
HETATM    1  C1  UNL     1     -32.131   5.179   0.917  1.00 20.00     0.064 C 
HETATM    2  C2  UNL     1     -34.403   6.441   3.687  1.00 20.00     0.128 C 
HETATM    3  C3  UNL     1     -33.693   7.723   4.056  1.00 20.00     0.078 C 
HETATM    4  C4  UNL     1     -33.615   5.445   2.865  1.00 20.00     0.097 C 
HETATM    5  C5  UNL     1     -33.060   8.357   2.826  1.00 20.00     0.009 C 
HETATM    6  C6  UNL     1     -32.183   7.366   2.062  1.00 20.00     0.020 C 
HETATM    7  C7  UNL     1     -32.989   6.127   1.648  1.00 20.00     0.100 C 
HETATM    8  N8  UNL     1     -31.455   4.432   0.342  1.00 20.00    -0.197 NA
HETATM    9  O9  UNL     1     -35.524   6.178   4.118  1.00 20.00    -0.298 OA
ENDROOT
TORSDOF 0
ENDMDL
MODEL 2
REMARK VINA RESULT:      -0.9      1.900      2.737
REMARK  0 active torsions:
REMARK  status: ('A' for Active; 'I' for Inactive)
ROOT
HETATM    1  C1  UNL     1     -31.957   8.554   0.964  1.00 20.00     0.064 C 
HETATM    2  C2  UNL     1     -33.953   7.465   4.007  1.00 20.00     0.128 C 
HETATM    3  C3  UNL     1     -34.397   6.091   3.562  1.00 20.00     0.078 C 
HETATM    4  C4  UNL     1     -33.435   8.390   2.928  1.00 20.00     0.097 C 
HETATM    5  C5  UNL     1     -33.326   5.436   2.700  1.00 20.00     0.009 C 
HETATM    6  C6  UNL     1     -32.888   6.344   1.552  1.00 20.00     0.020 C 
HETATM    7  C7  UNL     1     -32.373   7.689   2.081  1.00 20.00     0.100 C 
HETATM    8  N8  UNL     1     -31.631   9.236   0.084  1.00 20.00    -0.197 NA
HETATM    9  O9  UNL     1     -34.101   7.846   5.167  1.00 20.00    -0.298 OA
ENDROOT
TORSDOF 0
ENDMDL
MODEL 3
REMARK VINA RESULT:      -0.9      2.048      2.753
REMARK  0 active torsions:
REMARK  status: ('A' for Active; 'I' for Inactive)
ROOT
HETATM    1  C1  UNL     1     -32.493   7.171   2.006  1.00 20.00     0.064 C 
HETATM    2  C2  UNL     1     -33.943   4.252   3.956  1.00 20.00     0.128 C 
HETATM    3  C3  UNL     1     -34.980   4.971   4.788  1.00 20.00     0.078 C 
HETATM    4  C4  UNL     1     -32.886   5.114   3.302  1.00 20.00     0.097 C 
HETATM    5  C5  UNL     1     -35.578   6.134   4.009  1.00 20.00     0.009 C 
HETATM    6  C6  UNL     1     -34.498   7.054   3.442  1.00 20.00     0.020 C 
HETATM    7  C7  UNL     1     -33.530   6.274   2.543  1.00 20.00     0.100 C 
HETATM    8  N8  UNL     1     -31.675   7.878   1.585  1.00 20.00    -0.197 NA
HETATM    9  O9  UNL     1     -33.901   3.024   3.898  1.00 20.00    -0.298 OA
ENDROOT
TORSDOF 0
ENDMDL
MODEL 4
REMARK VINA RESULT:      -0.6      2.792      3.778
REMARK  0 active torsions:
REMARK  status: ('A' for Active; 'I' for Inactive)
ROOT
HETATM    1  C1  UNL     1     -34.841   6.106   3.760  1.00 20.00     0.064 C 
HETATM    2  C2  UNL     1     -32.312   8.149   1.796  1.00 20.00     0.128 C 
HETATM    3  C3  UNL     1     -31.357   7.059   1.369  1.00 20.00     0.078 C 
HETATM    4  C4  UNL     1     -33.273   7.806   2.914  1.00 20.00     0.097 C 
HETATM    5  C5  UNL     1     -32.108   5.761   1.110  1.00 20.00     0.009 C 
HETATM    6  C6  UNL     1     -32.996   5.373   2.292  1.00 20.00     0.020 C 
HETATM    7  C7  UNL     1     -33.995   6.491   2.618  1.00 20.00     0.100 C 
HETATM    8  N8  UNL     1     -35.506   5.802   4.661  1.00 20.00    -0.197 NA
HETATM    9  O9  UNL     1     -32.243   9.286   1.331  1.00 20.00    -0.298 OA
ENDROOT
TORSDOF 0
ENDMDL
MODEL 5
REMARK VINA RESULT:      -0.6      2.790      3.528
REMARK  0 active torsions:
REMARK  status: ('A' for Active; 'I' for Inactive)
ROOT
HETATM    1  C1  UNL     1     -34.889   5.466   4.205  1.00 20.00     0.064 C 
HETATM    2  C2  UNL     1     -32.291   6.139   1.517  1.00 20.00     0.128 C 
HETATM    3  C3  UNL     1     -32.246   7.649   1.556  1.00 20.00     0.078 C 
HETATM    4  C4  UNL     1     -33.478   5.481   2.187  1.00 20.00     0.097 C 
HETATM    5  C5  UNL     1     -32.466   8.153   2.975  1.00 20.00     0.009 C 
HETATM    6  C6  UNL     1     -33.726   7.559   3.601  1.00 20.00     0.020 C 
HETATM    7  C7  UNL     1     -33.667   6.025   3.602  1.00 20.00     0.100 C 
HETATM    8  N8  UNL     1     -35.852   5.026   4.679  1.00 20.00    -0.197 NA
HETATM    9  O9  UNL     1     -31.462   5.485   0.886  1.00 20.00    -0.298 OA
ENDROOT
TORSDOF 0
ENDMDL
MODEL 6
REMARK VINA RESULT:      -0.1      2.522      3.340
REMARK  0 active torsions:
REMARK  status: ('A' for Active; 'I' for Inactive)
ROOT
HETATM    1  C1  UNL     1     -33.511   3.242   4.303  1.00 20.00     0.064 C 
HETATM    2  C2  UNL     1     -33.257   6.524   2.409  1.00 20.00     0.128 C 
HETATM    3  C3  UNL     1     -34.609   7.123   2.723  1.00 20.00     0.078 C 
HETATM    4  C4  UNL     1     -33.095   5.044   2.677  1.00 20.00     0.097 C 
HETATM    5  C5  UNL     1     -35.053   6.734   4.125  1.00 20.00     0.009 C 
HETATM    6  C6  UNL     1     -34.983   5.224   4.346  1.00 20.00     0.020 C 
HETATM    7  C7  UNL     1     -33.564   4.698   4.090  1.00 20.00     0.100 C 
HETATM    8  N8  UNL     1     -33.470   2.094   4.470  1.00 20.00    -0.197 NA
HETATM    9  O9  UNL     1     -32.369   7.183   1.870  1.00 20.00    -0.298 OA
ENDROOT
TORSDOF 0
ENDMDL
MODEL 7
REMARK VINA RESULT:       0.3      2.098      2.765
REMARK  0 active torsions:
REMARK  status: ('A' for Active; 'I' for Inactive)
ROOT
HETATM    1  C1  UNL     1     -33.685   3.696   4.035  1.00 20.00     0.064 C 
HETATM    2  C2  UNL     1     -33.897   7.446   3.471  1.00 20.00     0.128 C 
HETATM    3  C3  UNL     1     -32.833   7.621   2.412  1.00 20.00     0.078 C 
HETATM    4  C4  UNL     1     -33.878   6.143   4.239  1.00 20.00     0.097 C 
HETATM    5  C5  UNL     1     -32.786   6.407   1.496  1.00 20.00     0.009 C 
HETATM    6  C6  UNL     1     -32.662   5.103   2.284  1.00 20.00     0.020 C 
HETATM    7  C7  UNL     1     -33.819   4.953   3.281  1.00 20.00     0.100 C 
HETATM    8  N8  UNL     1     -33.579   2.706   4.631  1.00 20.00    -0.197 NA
HETATM    9  O9  UNL     1     -34.672   8.355   3.762  1.00 20.00    -0.298 OA
ENDROOT
TORSDOF 0
ENDMDL
MODEL 8
REMARK VINA RESULT:       0.4      3.159      4.270
REMARK  0 active torsions:
REMARK  status: ('A' for Active; 'I' for Inactive)
ROOT
HETATM    1  C1  UNL     1     -33.827   7.933   4.546  1.00 20.00     0.064 C 
HETATM    2  C2  UNL     1     -31.848   7.698   1.313  1.00 20.00     0.128 C 
HETATM    3  C3  UNL     1     -31.887   6.205   1.080  1.00 20.00     0.078 C 
HETATM    4  C4  UNL     1     -32.213   8.174   2.702  1.00 20.00     0.097 C 
HETATM    5  C5  UNL     1     -33.207   5.623   1.565  1.00 20.00     0.009 C 
HETATM    6  C6  UNL     1     -33.511   6.029   3.007  1.00 20.00     0.020 C 
HETATM    7  C7  UNL     1     -33.536   7.556   3.153  1.00 20.00     0.100 C 
HETATM    8  N8  UNL     1     -34.055   8.229   5.645  1.00 20.00    -0.197 NA
HETATM    9  O9  UNL     1     -31.442   8.475   0.450  1.00 20.00    -0.298 OA
ENDROOT
TORSDOF 0
ENDMDL
MODEL 9
REMARK VINA RESULT:       0.6      1.305      2.281
REMARK  0 active torsions:
REMARK  status: ('A' for Active; 'I' for Inactive)
ROOT
HETATM    1  C1  UNL     1     -32.201   5.119   1.409  1.00 20.00     0.064 C 
HETATM    2  C2  UNL     1     -34.294   7.116   3.870  1.00 20.00     0.128 C 
HETATM    3  C3  UNL     1     -35.272   6.055   4.317  1.00 20.00     0.078 C 
HETATM    4  C4  UNL     1     -33.511   6.825   2.608  1.00 20.00     0.097 C 
HETATM    5  C5  UNL     1     -34.600   4.689   4.353  1.00 20.00     0.009 C 
HETATM    6  C6  UNL     1     -33.901   4.365   3.033  1.00 20.00     0.020 C 
HETATM    7  C7  UNL     1     -32.865   5.442   2.683  1.00 20.00     0.100 C 
HETATM    8  N8  UNL     1     -31.680   4.865   0.404  1.00 20.00    -0.197 NA
HETATM    9  O9  UNL     1     -34.214   8.202   4.443  1.00 20.00    -0.298 OA
ENDROOT
TORSDOF 0
ENDMDL
