MODEL 1
REMARK VINA RESULT:      -2.6      0.000      0.000
REMARK  3 active torsions:
REMARK  status: ('A' for Active; 'I' for Inactive)
REMARK    1  A    between atoms: C1_1  and  C4_4 
REMARK    2  A    between atoms: C2_2  and  C5_5 
REMARK    3  A    between atoms: C3_3  and  C4_4 
ROOT
HETATM    1  C1  UNL     1     -32.370   8.081   1.872  1.00 20.00    -0.019 C 
HETATM    2  C2  UNL     1     -32.797   6.810   1.835  1.00 20.00    -0.015 C 
ENDROOT
BRANCH   1   3
HETATM    3  C4  UNL     1     -31.597   8.730   0.767  1.00 20.00     0.140 C 
BRANCH   3   4
HETATM    4  C3  UNL     1     -32.451   9.855   0.194  1.00 20.00     0.176 C 
HETATM    5  O6  UNL     1     -32.587  10.862   0.945  1.00 20.00    -0.648 OA
HETATM    6  O7  UNL     1     -32.929   9.636  -0.955  1.00 20.00    -0.648 OA
ENDBRANCH   3   4
ENDBRANCH   1   3
BRANCH   2   7
HETATM    7  C5  UNL     1     -33.554   6.158   2.944  1.00 20.00     0.141 C 
HETATM    8 CL8  UNL     1     -34.215   7.397   4.033  1.00 20.00    -0.126 Cl
ENDBRANCH   2   7
TORSDOF 3
ENDMDL
MODEL 2
REMARK VINA RESULT:      -2.6      0.036      1.144
REMARK  3 active torsions:
REMARK  status: ('A' for Active; 'I' for Inactive)
REMARK    1  A    between atoms: C1_1  and  C4_4 
REMARK    2  A    between atoms: C2_2  and  C5_5 
REMARK    3  A    between atoms: C3_3  and  C4_4 
ROOT
HETATM    1  C1  UNL     1     -32.371   8.074   1.864  1.00 20.00    -0.019 C 
HETATM    2  C2  UNL     1     -32.759   6.791   1.823  1.00 20.00    -0.015 C 
ENDROOT
BRANCH   1   3
HETATM    3  C4  UNL     1     -31.589   8.741   0.776  1.00 20.00     0.140 C 
BRANCH   3   4
HETATM    4  C3  UNL     1     -32.456   9.848   0.188  1.00 20.00     0.176 C 
HETATM    5  O6  UNL     1     -32.919   9.614  -0.964  1.00 20.00    -0.648 OA
HETATM    6  O7  UNL     1     -32.592  10.869   0.919  1.00 20.00    -0.648 OA
ENDBRANCH   3   4
ENDBRANCH   1   3
BRANCH   2   7
HETATM    7  C5  UNL     1     -33.525   6.122   2.916  1.00 20.00     0.141 C 
HETATM    8 CL8  UNL     1     -34.206   7.344   4.011  1.00 20.00    -0.126 Cl
ENDBRANCH   2   7
TORSDOF 3
ENDMDL
MODEL 3
REMARK VINA RESULT:      -2.4      3.262      4.266
REMARK  3 active torsions:
REMARK  status: ('A' for Active; 'I' for Inactive)
REMARK    1  A    between atoms: C1_1  and  C4_4 
REMARK    2  A    between atoms: C2_2  and  C5_5 
REMARK    3  A    between atoms: C3_3  and  C4_4 
ROOT
HETATM    1  C1  UNL     1     -33.061   7.054   1.813  1.00 20.00    -0.019 C 
HETATM    2  C2  UNL     1     -31.960   7.821   1.783  1.00 20.00    -0.015 C 
ENDROOT
BRANCH   1   3
HETATM    3  C4  UNL     1     -33.401   6.136   2.945  1.00 20.00     0.140 C 
BRANCH   3   4
HETATM    4  C3  UNL     1     -34.440   6.831   3.817  1.00 20.00     0.176 C 
HETATM    5  O6  UNL     1     -34.040   7.880   4.396  1.00 20.00    -0.648 OA
HETATM    6  O7  UNL     1     -35.569   6.265   3.862  1.00 20.00    -0.648 OA
ENDBRANCH   3   4
ENDBRANCH   1   3
BRANCH   2   7
HETATM    7  C5  UNL     1     -31.612   8.725   0.646  1.00 20.00     0.141 C 
HETATM    8 CL8  UNL     1     -32.717  10.117   0.622  1.00 20.00    -0.126 Cl
ENDBRANCH   2   7
TORSDOF 3
ENDMDL
MODEL 4
REMARK VINA RESULT:      -2.4      2.269      2.804
REMARK  3 active torsions:
REMARK  status: ('A' for Active; 'I' for Inactive)
REMARK    1  A    between atoms: C1_1  and  C4_4 
REMARK    2  A    between atoms: C2_2  and  C5_5 
REMARK    3  A    between atoms: C3_3  and  C4_4 
ROOT
HETATM    1  C1  UNL     1     -33.530   6.806   3.383  1.00 20.00    -0.019 C 
HETATM    2  C2  UNL     1     -34.730   6.682   3.970  1.00 20.00    -0.015 C 
ENDROOT
BRANCH   1   3
HETATM    3  C4  UNL     1     -32.918   8.122   3.017  1.00 20.00     0.140 C 
BRANCH   3   4
HETATM    4  C3  UNL     1     -32.182   7.944   1.694  1.00 20.00     0.176 C 
HETATM    5  O6  UNL     1     -32.154   8.966   0.953  1.00 20.00    -0.648 OA
HETATM    6  O7  UNL     1     -31.702   6.792   1.497  1.00 20.00    -0.648 OA
ENDBRANCH   3   4
ENDBRANCH   1   3
BRANCH   2   7
HETATM    7  C5  UNL     1     -35.348   5.368   4.321  1.00 20.00     0.141 C 
HETATM    8 CL8  UNL     1     -34.129   4.080   4.213  1.00 20.00    -0.126 Cl
ENDBRANCH   2   7
TORSDOF 3
ENDMDL
MODEL 5
REMARK VINA RESULT:      -2.4      4.183      5.202
REMARK  3 active torsions:
REMARK  status: ('A' for Active; 'I' for Inactive)
REMARK    1  A    between atoms: C1_1  and  C4_4 
REMARK    2  A    between atoms: C2_2  and  C5_5 
REMARK    3  A    between atoms: C3_3  and  C4_4 
ROOT
HETATM    1  C1  UNL     1     -33.564   6.755   2.742  1.00 20.00    -0.019 C 
HETATM    2  C2  UNL     1     -32.807   7.853   2.598  1.00 20.00    -0.015 C 
ENDROOT
BRANCH   1   3
HETATM    3  C4  UNL     1     -34.562   6.574   3.843  1.00 20.00     0.140 C 
BRANCH   3   4
HETATM    4  C3  UNL     1     -34.649   5.085   4.157  1.00 20.00     0.176 C 
HETATM    5  O6  UNL     1     -33.686   4.389   3.727  1.00 20.00    -0.648 OA
HETATM    6  O7  UNL     1     -35.679   4.730   4.796  1.00 20.00    -0.648 OA
ENDBRANCH   3   4
ENDBRANCH   1   3
BRANCH   2   7
HETATM    7  C5  UNL     1     -31.799   8.027   1.509  1.00 20.00     0.141 C 
HETATM    8 CL8  UNL     1     -32.237   9.420   0.498  1.00 20.00    -0.126 Cl
ENDBRANCH   2   7
TORSDOF 3
ENDMDL
MODEL 6
REMARK VINA RESULT:      -2.0      1.891      2.576
REMARK  3 active torsions:
REMARK  status: ('A' for Active; 'I' for Inactive)
REMARK    1  A    between atoms: C1_1  and  C4_4 
REMARK    2  A    between atoms: C2_2  and  C5_5 
REMARK    3  A    between atoms: C3_3  and  C4_4 
ROOT
HETATM    1  C1  UNL     1     -33.354   6.183   2.258  1.00 20.00    -0.019 C 
HETATM    2  C2  UNL     1     -33.918   6.861   3.270  1.00 20.00    -0.015 C 
ENDROOT
BRANCH   1   3
HETATM    3  C4  UNL     1     -32.136   6.649   1.524  1.00 20.00     0.140 C 
BRANCH   3   4
HETATM    4  C3  UNL     1     -31.969   8.141   1.791  1.00 20.00     0.176 C 
HETATM    5  O6  UNL     1     -32.376   8.901   0.869  1.00 20.00    -0.648 OA
HETATM    6  O7  UNL     1     -31.433   8.431   2.898  1.00 20.00    -0.648 OA
ENDBRANCH   3   4
ENDBRANCH   1   3
BRANCH   2   7
HETATM    7  C5  UNL     1     -35.142   6.403   3.992  1.00 20.00     0.141 C 
HETATM    8 CL8  UNL     1     -34.959   4.703   4.474  1.00 20.00    -0.126 Cl
ENDBRANCH   2   7
TORSDOF 3
ENDMDL
MODEL 7
REMARK VINA RESULT:      -2.0      3.814      4.585
REMARK  3 active torsions:
REMARK  status: ('A' for Active; 'I' for Inactive)
REMARK    1  A    between atoms: C1_1  and  C4_4 
REMARK    2  A    between atoms: C2_2  and  C5_5 
REMARK    3  A    between atoms: C3_3  and  C4_4 
ROOT
HETATM    1  C1  UNL     1     -34.834   5.013   4.410  1.00 20.00    -0.019 C 
HETATM    2  C2  UNL     1     -33.892   4.213   3.889  1.00 20.00    -0.015 C 
ENDROOT
BRANCH   1   3
HETATM    3  C4  UNL     1     -35.237   6.323   3.807  1.00 20.00     0.140 C 
BRANCH   3   4
HETATM    4  C3  UNL     1     -34.027   7.249   3.847  1.00 20.00     0.176 C 
HETATM    5  O6  UNL     1     -33.878   7.895   4.922  1.00 20.00    -0.648 OA
HETATM    6  O7  UNL     1     -33.329   7.266   2.793  1.00 20.00    -0.648 OA
ENDBRANCH   3   4
ENDBRANCH   1   3
BRANCH   2   7
HETATM    7  C5  UNL     1     -33.479   2.914   4.500  1.00 20.00     0.141 C 
HETATM    8 CL8  UNL     1     -32.500   3.214   5.952  1.00 20.00    -0.126 Cl
ENDBRANCH   2   7
TORSDOF 3
ENDMDL
MODEL 8
REMARK VINA RESULT:      -1.3      3.106      4.174
REMARK  3 active torsions:
REMARK  status: ('A' for Active; 'I' for Inactive)
REMARK    1  A    between atoms: C1_1  and  C4_4 
REMARK    2  A    between atoms: C2_2  and  C5_5 
REMARK    3  A    between atoms: C3_3  and  C4_4 
ROOT
HETATM    1  C1  UNL     1     -32.127   8.445   1.415  1.00 20.00    -0.019 C 
HETATM    2  C2  UNL     1     -32.110   8.837   0.132  1.00 20.00    -0.015 C 
ENDROOT
BRANCH   1   3
HETATM    3  C4  UNL     1     -31.672   7.096   1.877  1.00 20.00     0.140 C 
BRANCH   3   4
HETATM    4  C3  UNL     1     -32.891   6.181   1.924  1.00 20.00     0.176 C 
HETATM    5  O6  UNL     1     -32.952   5.321   1.002  1.00 20.00    -0.648 OA
HETATM    6  O7  UNL     1     -33.695   6.406   2.873  1.00 20.00    -0.648 OA
ENDBRANCH   3   4
ENDBRANCH   1   3
BRANCH   2   7
HETATM    7  C5  UNL     1     -32.579  10.177  -0.331  1.00 20.00     0.141 C 
HETATM    8 CL8  UNL     1     -32.655  11.298   1.045  1.00 20.00    -0.126 Cl
ENDBRANCH   2   7
TORSDOF 3
ENDMDL
MODEL 9
REMARK VINA RESULT:      -1.3      3.121      4.043
REMARK  3 active torsions:
REMARK  status: ('A' for Active; 'I' for Inactive)
REMARK    1  A    between atoms: C1_1  and  C4_4 
REMARK    2  A    between atoms: C2_2  and  C5_5 
REMARK    3  A    between atoms: C3_3  and  C4_4 
ROOT
HETATM    1  C1  UNL     1     -32.148   8.442   1.429  1.00 20.00    -0.019 C 
HETATM    2  C2  UNL     1     -32.108   8.829   0.145  1.00 20.00    -0.015 C 
ENDROOT
BRANCH   1   3
HETATM    3  C4  UNL     1     -31.680   7.103   1.907  1.00 20.00     0.140 C 
BRANCH   3   4
HETATM    4  C3  UNL     1     -32.880   6.164   1.919  1.00 20.00     0.176 C 
HETATM    5  O6  UNL     1     -33.729   6.388   2.827  1.00 20.00    -0.648 OA
HETATM    6  O7  UNL     1     -32.871   5.269   1.026  1.00 20.00    -0.648 OA
ENDBRANCH   3   4
ENDBRANCH   1   3
BRANCH   2   7
HETATM    7  C5  UNL     1     -32.590  10.159  -0.333  1.00 20.00     0.141 C 
HETATM    8 CL8  UNL     1     -32.658  11.302   1.026  1.00 20.00    -0.126 Cl
ENDBRANCH   2   7
TORSDOF 3
ENDMDL
