MODEL 1
REMARK VINA RESULT:      -3.4      0.000      0.000
REMARK  2 active torsions:
REMARK  status: ('A' for Active; 'I' for Inactive)
REMARK    1  A    between atoms: C2_2  and  C3_3 
REMARK    2  A    between atoms: C3_3  and  C4_4 
ROOT
HETATM    1  C3  UNL     1     -33.118   6.921   2.464  1.00 20.00     0.254 C 
HETATM    2  O5  UNL     1     -33.194   5.853   1.862  1.00 20.00    -0.283 OA
ENDROOT
BRANCH   1   3
HETATM    3  C2  UNL     1     -34.026   7.262   3.592  1.00 20.00     0.049 C 
HETATM    4  C1  UNL     1     -35.026   6.446   3.936  1.00 20.00     0.015 C 
ENDBRANCH   1   3
BRANCH   1   5
HETATM    5  C4  UNL     1     -32.100   7.961   2.099  1.00 20.00     0.455 C 
HETATM    6  F6  UNL     1     -31.551   8.540   3.197  1.00 20.00    -0.163 F 
HETATM    7  F7  UNL     1     -31.078   7.439   1.374  1.00 20.00    -0.163 F 
HETATM    8  F8  UNL     1     -32.637   8.963   1.356  1.00 20.00    -0.163 F 
ENDBRANCH   1   5
TORSDOF 2
ENDMDL
MODEL 2
REMARK VINA RESULT:      -3.0      2.362      3.275
REMARK  2 active torsions:
REMARK  status: ('A' for Active; 'I' for Inactive)
REMARK    1  A    between atoms: C2_2  and  C3_3 
REMARK    2  A    between atoms: C3_3  and  C4_4 
ROOT
HETATM    1  C3  UNL     1     -33.206   6.667   2.418  1.00 20.00     0.254 C 
HETATM    2  O5  UNL     1     -33.064   5.772   1.588  1.00 20.00    -0.283 OA
ENDROOT
BRANCH   1   3
HETATM    3  C2  UNL     1     -32.386   7.907   2.396  1.00 20.00     0.049 C 
HETATM    4  C1  UNL     1     -32.012   8.459   1.238  1.00 20.00     0.015 C 
ENDBRANCH   1   3
BRANCH   1   5
HETATM    5  C4  UNL     1     -34.221   6.567   3.519  1.00 20.00     0.455 C 
HETATM    6  F6  UNL     1     -34.212   5.345   4.108  1.00 20.00    -0.163 F 
HETATM    7  F7  UNL     1     -33.999   7.480   4.499  1.00 20.00    -0.163 F 
HETATM    8  F8  UNL     1     -35.485   6.775   3.069  1.00 20.00    -0.163 F 
ENDBRANCH   1   5
TORSDOF 2
ENDMDL
MODEL 3
REMARK VINA RESULT:      -3.0      2.361      3.312
REMARK  2 active torsions:
REMARK  status: ('A' for Active; 'I' for Inactive)
REMARK    1  A    between atoms: C2_2  and  C3_3 
REMARK    2  A    between atoms: C3_3  and  C4_4 
ROOT
HETATM    1  C3  UNL     1     -33.202   6.668   2.423  1.00 20.00     0.254 C 
HETATM    2  O5  UNL     1     -33.056   5.771   1.597  1.00 20.00    -0.283 OA
ENDROOT
BRANCH   1   3
HETATM    3  C2  UNL     1     -32.384   7.910   2.401  1.00 20.00     0.049 C 
HETATM    4  C1  UNL     1     -32.018   8.466   1.243  1.00 20.00     0.015 C 
ENDBRANCH   1   3
BRANCH   1   5
HETATM    5  C4  UNL     1     -34.222   6.570   3.520  1.00 20.00     0.455 C 
HETATM    6  F6  UNL     1     -35.482   6.775   3.060  1.00 20.00    -0.163 F 
HETATM    7  F7  UNL     1     -34.212   5.351   4.116  1.00 20.00    -0.163 F 
HETATM    8  F8  UNL     1     -34.009   7.487   4.499  1.00 20.00    -0.163 F 
ENDBRANCH   1   5
TORSDOF 2
ENDMDL
MODEL 4
REMARK VINA RESULT:      -3.0      2.361      3.321
REMARK  2 active torsions:
REMARK  status: ('A' for Active; 'I' for Inactive)
REMARK    1  A    between atoms: C2_2  and  C3_3 
REMARK    2  A    between atoms: C3_3  and  C4_4 
ROOT
HETATM    1  C3  UNL     1     -33.204   6.668   2.424  1.00 20.00     0.254 C 
HETATM    2  O5  UNL     1     -33.059   5.771   1.599  1.00 20.00    -0.283 OA
ENDROOT
BRANCH   1   3
HETATM    3  C2  UNL     1     -32.386   7.910   2.401  1.00 20.00     0.049 C 
HETATM    4  C1  UNL     1     -32.018   8.465   1.243  1.00 20.00     0.015 C 
ENDBRANCH   1   3
BRANCH   1   5
HETATM    5  C4  UNL     1     -34.224   6.572   3.522  1.00 20.00     0.455 C 
HETATM    6  F6  UNL     1     -34.006   7.488   4.498  1.00 20.00    -0.163 F 
HETATM    7  F7  UNL     1     -35.485   6.775   3.063  1.00 20.00    -0.163 F 
HETATM    8  F8  UNL     1     -34.216   5.353   4.120  1.00 20.00    -0.163 F 
ENDBRANCH   1   5
TORSDOF 2
ENDMDL
MODEL 5
REMARK VINA RESULT:      -3.0      3.127      3.738
REMARK  2 active torsions:
REMARK  status: ('A' for Active; 'I' for Inactive)
REMARK    1  A    between atoms: C2_2  and  C3_3 
REMARK    2  A    between atoms: C3_3  and  C4_4 
ROOT
HETATM    1  C3  UNL     1     -34.653   4.953   4.197  1.00 20.00     0.254 C 
HETATM    2  O5  UNL     1     -35.628   4.686   4.893  1.00 20.00    -0.283 OA
ENDROOT
BRANCH   1   3
HETATM    3  C2  UNL     1     -33.592   3.955   3.899  1.00 20.00     0.049 C 
HETATM    4  C1  UNL     1     -33.267   3.015   4.791  1.00 20.00     0.015 C 
ENDBRANCH   1   3
BRANCH   1   5
HETATM    5  C4  UNL     1     -34.463   6.316   3.596  1.00 20.00     0.455 C 
HETATM    6  F6  UNL     1     -33.625   6.287   2.529  1.00 20.00    -0.163 F 
HETATM    7  F7  UNL     1     -35.634   6.849   3.166  1.00 20.00    -0.163 F 
HETATM    8  F8  UNL     1     -33.935   7.196   4.485  1.00 20.00    -0.163 F 
ENDBRANCH   1   5
TORSDOF 2
ENDMDL
MODEL 6
REMARK VINA RESULT:      -2.9      2.438      3.254
REMARK  2 active torsions:
REMARK  status: ('A' for Active; 'I' for Inactive)
REMARK    1  A    between atoms: C2_2  and  C3_3 
REMARK    2  A    between atoms: C3_3  and  C4_4 
ROOT
HETATM    1  C3  UNL     1     -32.704   7.279   2.233  1.00 20.00     0.254 C 
HETATM    2  O5  UNL     1     -33.343   7.623   3.224  1.00 20.00    -0.283 OA
ENDROOT
BRANCH   1   3
HETATM    3  C2  UNL     1     -31.809   8.215   1.502  1.00 20.00     0.049 C 
HETATM    4  C1  UNL     1     -32.314   9.191   0.741  1.00 20.00     0.015 C 
ENDBRANCH   1   3
BRANCH   1   5
HETATM    5  C4  UNL     1     -32.786   5.884   1.687  1.00 20.00     0.455 C 
HETATM    6  F6  UNL     1     -33.283   5.011   2.600  1.00 20.00    -0.163 F 
HETATM    7  F7  UNL     1     -33.586   5.812   0.594  1.00 20.00    -0.163 F 
HETATM    8  F8  UNL     1     -31.569   5.409   1.315  1.00 20.00    -0.163 F 
ENDBRANCH   1   5
TORSDOF 2
ENDMDL
MODEL 7
REMARK VINA RESULT:      -2.9      2.117      2.559
REMARK  2 active torsions:
REMARK  status: ('A' for Active; 'I' for Inactive)
REMARK    1  A    between atoms: C2_2  and  C3_3 
REMARK    2  A    between atoms: C3_3  and  C4_4 
ROOT
HETATM    1  C3  UNL     1     -32.825   7.215   2.405  1.00 20.00     0.254 C 
HETATM    2  O5  UNL     1     -32.235   8.180   1.927  1.00 20.00    -0.283 OA
ENDROOT
BRANCH   1   3
HETATM    3  C2  UNL     1     -33.619   7.312   3.659  1.00 20.00     0.049 C 
HETATM    4  C1  UNL     1     -34.863   6.828   3.720  1.00 20.00     0.015 C 
ENDBRANCH   1   3
BRANCH   1   5
HETATM    5  C4  UNL     1     -32.782   5.863   1.755  1.00 20.00     0.455 C 
HETATM    6  F6  UNL     1     -33.628   5.783   0.696  1.00 20.00    -0.163 F 
HETATM    7  F7  UNL     1     -31.542   5.560   1.294  1.00 20.00    -0.163 F 
HETATM    8  F8  UNL     1     -33.135   4.872   2.613  1.00 20.00    -0.163 F 
ENDBRANCH   1   5
TORSDOF 2
ENDMDL
MODEL 8
REMARK VINA RESULT:      -2.9      2.985      3.720
REMARK  2 active torsions:
REMARK  status: ('A' for Active; 'I' for Inactive)
REMARK    1  A    between atoms: C2_2  and  C3_3 
REMARK    2  A    between atoms: C3_3  and  C4_4 
ROOT
HETATM    1  C3  UNL     1     -33.952   5.603   3.302  1.00 20.00     0.254 C 
HETATM    2  O5  UNL     1     -33.690   4.448   3.628  1.00 20.00    -0.283 OA
ENDROOT
BRANCH   1   3
HETATM    3  C2  UNL     1     -33.193   6.321   2.244  1.00 20.00     0.049 C 
HETATM    4  C1  UNL     1     -32.498   5.646   1.323  1.00 20.00     0.015 C 
ENDBRANCH   1   3
BRANCH   1   5
HETATM    5  C4  UNL     1     -35.062   6.373   3.955  1.00 20.00     0.455 C 
HETATM    6  F6  UNL     1     -35.684   5.648   4.918  1.00 20.00    -0.163 F 
HETATM    7  F7  UNL     1     -34.611   7.510   4.545  1.00 20.00    -0.163 F 
HETATM    8  F8  UNL     1     -36.017   6.746   3.066  1.00 20.00    -0.163 F 
ENDBRANCH   1   5
TORSDOF 2
ENDMDL
MODEL 9
REMARK VINA RESULT:      -2.9      2.979      3.760
REMARK  2 active torsions:
REMARK  status: ('A' for Active; 'I' for Inactive)
REMARK    1  A    between atoms: C2_2  and  C3_3 
REMARK    2  A    between atoms: C3_3  and  C4_4 
ROOT
HETATM    1  C3  UNL     1     -33.953   5.611   3.287  1.00 20.00     0.254 C 
HETATM    2  O5  UNL     1     -33.687   4.457   3.612  1.00 20.00    -0.283 OA
ENDROOT
BRANCH   1   3
HETATM    3  C2  UNL     1     -33.201   6.329   2.223  1.00 20.00     0.049 C 
HETATM    4  C1  UNL     1     -32.492   5.656   1.313  1.00 20.00     0.015 C 
ENDBRANCH   1   3
BRANCH   1   5
HETATM    5  C4  UNL     1     -35.061   6.380   3.946  1.00 20.00     0.455 C 
HETATM    6  F6  UNL     1     -34.607   7.513   4.540  1.00 20.00    -0.163 F 
HETATM    7  F7  UNL     1     -36.017   6.755   3.058  1.00 20.00    -0.163 F 
HETATM    8  F8  UNL     1     -35.683   5.655   4.910  1.00 20.00    -0.163 F 
ENDBRANCH   1   5
TORSDOF 2
ENDMDL
