MODEL 1
REMARK VINA RESULT:      -0.6      0.000      0.000
REMARK  1 active torsions:
REMARK  status: ('A' for Active; 'I' for Inactive)
REMARK    1  A    between atoms: C3_3  and  C5_5 
ROOT
HETATM    1  C1  UNL     1     -33.198   5.651   2.295  1.00 20.00    -0.015 C 
HETATM    2  C2  UNL     1     -32.558   6.480   1.465  1.00 20.00    -0.021 C 
HETATM    3  C4  UNL     1     -33.394   7.814   3.241  1.00 20.00     0.032 C 
HETATM    4  C5  UNL     1     -33.611   6.332   3.554  1.00 20.00     0.110 C 
HETATM    5  C6  UNL     1     -32.430   7.867   2.031  1.00 20.00    -0.029 C 
HETATM    6  C7  UNL     1     -30.986   8.129   2.477  1.00 20.00     0.019 C 
HETATM    7  C8  UNL     1     -32.870   8.927   1.020  1.00 20.00     0.019 C 
ENDROOT
BRANCH   4   8
HETATM    8  C3  UNL     1     -35.076   6.046   3.789  1.00 20.00     0.180 C 
HETATM    9  O9  UNL     1     -35.875   6.894   3.303  1.00 20.00    -0.647 OA
HETATM   10  O10 UNL     1     -35.312   4.993   4.446  1.00 20.00    -0.647 OA
ENDBRANCH   4   8
TORSDOF 1
ENDMDL
MODEL 2
REMARK VINA RESULT:      -0.5      0.983      2.082
REMARK  1 active torsions:
REMARK  status: ('A' for Active; 'I' for Inactive)
REMARK    1  A    between atoms: C3_3  and  C5_5 
ROOT
HETATM    1  C1  UNL     1     -33.738   7.615   4.042  1.00 20.00    -0.015 C 
HETATM    2  C2  UNL     1     -32.690   8.225   3.482  1.00 20.00    -0.021 C 
HETATM    3  C4  UNL     1     -33.343   6.498   1.990  1.00 20.00     0.032 C 
HETATM    4  C5  UNL     1     -34.368   6.630   3.119  1.00 20.00     0.110 C 
HETATM    5  C6  UNL     1     -32.436   7.749   2.078  1.00 20.00    -0.029 C 
HETATM    6  C7  UNL     1     -32.863   8.822   1.068  1.00 20.00     0.019 C 
HETATM    7  C8  UNL     1     -30.967   7.382   1.867  1.00 20.00     0.019 C 
ENDROOT
BRANCH   4   8
HETATM    8  C3  UNL     1     -34.520   5.320   3.856  1.00 20.00     0.180 C 
HETATM    9  O9  UNL     1     -33.573   4.500   3.697  1.00 20.00    -0.647 OA
HETATM   10  O10 UNL     1     -35.579   5.214   4.536  1.00 20.00    -0.647 OA
ENDBRANCH   4   8
TORSDOF 1
ENDMDL
MODEL 3
REMARK VINA RESULT:       0.0      2.545      3.971
REMARK  1 active torsions:
REMARK  status: ('A' for Active; 'I' for Inactive)
REMARK    1  A    between atoms: C3_3  and  C5_5 
ROOT
HETATM    1  C1  UNL     1     -32.483   8.179   3.536  1.00 20.00    -0.015 C 
HETATM    2  C2  UNL     1     -33.530   7.628   4.157  1.00 20.00    -0.021 C 
HETATM    3  C4  UNL     1     -33.484   6.713   1.967  1.00 20.00     0.032 C 
HETATM    4  C5  UNL     1     -32.225   7.549   2.211  1.00 20.00     0.110 C 
HETATM    5  C6  UNL     1     -34.156   6.525   3.349  1.00 20.00    -0.029 C 
HETATM    6  C7  UNL     1     -33.813   5.160   3.956  1.00 20.00     0.019 C 
HETATM    7  C8  UNL     1     -35.673   6.693   3.252  1.00 20.00     0.019 C 
ENDROOT
BRANCH   4   8
HETATM    8  C3  UNL     1     -32.106   8.646   1.179  1.00 20.00     0.180 C 
HETATM    9  O9  UNL     1     -32.891   9.621   1.337  1.00 20.00    -0.647 OA
HETATM   10  O10 UNL     1     -31.235   8.443   0.288  1.00 20.00    -0.647 OA
ENDBRANCH   4   8
TORSDOF 1
ENDMDL
MODEL 4
REMARK VINA RESULT:       0.1      3.072      4.331
REMARK  1 active torsions:
REMARK  status: ('A' for Active; 'I' for Inactive)
REMARK    1  A    between atoms: C3_3  and  C5_5 
ROOT
HETATM    1  C1  UNL     1     -31.372   8.720   1.807  1.00 20.00    -0.015 C 
HETATM    2  C2  UNL     1     -31.763   7.751   2.639  1.00 20.00    -0.021 C 
HETATM    3  C4  UNL     1     -33.119   7.564   0.700  1.00 20.00     0.032 C 
HETATM    4  C5  UNL     1     -32.015   8.598   0.468  1.00 20.00     0.110 C 
HETATM    5  C6  UNL     1     -32.741   6.807   1.996  1.00 20.00    -0.029 C 
HETATM    6  C7  UNL     1     -32.061   5.468   1.685  1.00 20.00     0.019 C 
HETATM    7  C8  UNL     1     -33.967   6.582   2.882  1.00 20.00     0.019 C 
ENDROOT
BRANCH   4   8
HETATM    8  C3  UNL     1     -32.609   9.938   0.104  1.00 20.00     0.180 C 
HETATM    9  O9  UNL     1     -32.571  10.810   1.015  1.00 20.00    -0.647 OA
HETATM   10  O10 UNL     1     -33.070  10.012  -1.070  1.00 20.00    -0.647 OA
ENDBRANCH   4   8
TORSDOF 1
ENDMDL
MODEL 5
REMARK VINA RESULT:       0.9      2.697      3.826
REMARK  1 active torsions:
REMARK  status: ('A' for Active; 'I' for Inactive)
REMARK    1  A    between atoms: C3_3  and  C5_5 
ROOT
HETATM    1  C1  UNL     1     -33.305   4.824   2.925  1.00 20.00    -0.015 C 
HETATM    2  C2  UNL     1     -33.949   5.329   3.982  1.00 20.00    -0.021 C 
HETATM    3  C4  UNL     1     -33.735   7.096   2.412  1.00 20.00     0.032 C 
HETATM    4  C5  UNL     1     -33.272   5.780   1.784  1.00 20.00     0.110 C 
HETATM    5  C6  UNL     1     -34.461   6.719   3.726  1.00 20.00    -0.029 C 
HETATM    6  C7  UNL     1     -35.983   6.699   3.539  1.00 20.00     0.019 C 
HETATM    7  C8  UNL     1     -34.082   7.673   4.860  1.00 20.00     0.019 C 
ENDROOT
BRANCH   4   8
HETATM    8  C3  UNL     1     -31.845   5.894   1.302  1.00 20.00     0.180 C 
HETATM    9  O9  UNL     1     -31.347   4.831   0.837  1.00 20.00    -0.647 OA
HETATM   10  O10 UNL     1     -31.332   7.041   1.428  1.00 20.00    -0.647 OA
ENDBRANCH   4   8
TORSDOF 1
ENDMDL
MODEL 6
REMARK VINA RESULT:       0.9      1.798      2.929
REMARK  1 active torsions:
REMARK  status: ('A' for Active; 'I' for Inactive)
REMARK    1  A    between atoms: C3_3  and  C5_5 
ROOT
HETATM    1  C1  UNL     1     -32.534   8.046   2.094  1.00 20.00    -0.015 C 
HETATM    2  C2  UNL     1     -31.933   7.129   1.330  1.00 20.00    -0.021 C 
HETATM    3  C4  UNL     1     -33.475   5.960   2.704  1.00 20.00     0.032 C 
HETATM    4  C5  UNL     1     -33.664   7.469   2.873  1.00 20.00     0.110 C 
HETATM    5  C6  UNL     1     -32.564   5.771   1.468  1.00 20.00    -0.029 C 
HETATM    6  C7  UNL     1     -33.384   5.436   0.215  1.00 20.00     0.019 C 
HETATM    7  C8  UNL     1     -31.514   4.687   1.715  1.00 20.00     0.019 C 
ENDROOT
BRANCH   4   8
HETATM    8  C3  UNL     1     -33.496   7.868   4.320  1.00 20.00     0.180 C 
HETATM    9  O9  UNL     1     -32.391   8.410   4.604  1.00 20.00    -0.647 OA
HETATM   10  O10 UNL     1     -34.484   7.606   5.062  1.00 20.00    -0.647 OA
ENDBRANCH   4   8
TORSDOF 1
ENDMDL
MODEL 7
REMARK VINA RESULT:       1.0      2.684      3.866
REMARK  1 active torsions:
REMARK  status: ('A' for Active; 'I' for Inactive)
REMARK    1  A    between atoms: C3_3  and  C5_5 
ROOT
HETATM    1  C1  UNL     1     -32.769   6.219   2.049  1.00 20.00    -0.015 C 
HETATM    2  C2  UNL     1     -33.301   5.957   3.246  1.00 20.00    -0.021 C 
HETATM    3  C4  UNL     1     -33.869   8.203   2.731  1.00 20.00     0.032 C 
HETATM    4  C5  UNL     1     -33.212   7.538   1.519  1.00 20.00     0.110 C 
HETATM    5  C6  UNL     1     -34.198   7.064   3.726  1.00 20.00    -0.029 C 
HETATM    6  C7  UNL     1     -35.668   6.640   3.625  1.00 20.00     0.019 C 
HETATM    7  C8  UNL     1     -33.864   7.473   5.162  1.00 20.00     0.019 C 
ENDROOT
BRANCH   4   8
HETATM    8  C3  UNL     1     -31.988   8.311   1.087  1.00 20.00     0.180 C 
HETATM    9  O9  UNL     1     -32.216   9.329   0.377  1.00 20.00    -0.647 OA
HETATM   10  O10 UNL     1     -30.890   7.835   1.492  1.00 20.00    -0.647 OA
ENDBRANCH   4   8
TORSDOF 1
ENDMDL
MODEL 8
REMARK VINA RESULT:       1.0      1.846      2.713
REMARK  1 active torsions:
REMARK  status: ('A' for Active; 'I' for Inactive)
REMARK    1  A    between atoms: C3_3  and  C5_5 
ROOT
HETATM    1  C1  UNL     1     -31.257   7.870   1.587  1.00 20.00    -0.015 C 
HETATM    2  C2  UNL     1     -31.185   8.802   0.632  1.00 20.00    -0.021 C 
HETATM    3  C4  UNL     1     -33.409   8.852   1.459  1.00 20.00     0.032 C 
HETATM    4  C5  UNL     1     -32.551   7.926   2.324  1.00 20.00     0.110 C 
HETATM    5  C6  UNL     1     -32.427   9.647   0.565  1.00 20.00    -0.029 C 
HETATM    6  C7  UNL     1     -32.152  11.042   1.139  1.00 20.00     0.019 C 
HETATM    7  C8  UNL     1     -32.952   9.759  -0.867  1.00 20.00     0.019 C 
ENDROOT
BRANCH   4   8
HETATM    8  C3  UNL     1     -33.137   6.534   2.357  1.00 20.00     0.180 C 
HETATM    9  O9  UNL     1     -32.684   5.737   1.489  1.00 20.00    -0.647 OA
HETATM   10  O10 UNL     1     -34.009   6.347   3.251  1.00 20.00    -0.647 OA
ENDBRANCH   4   8
TORSDOF 1
ENDMDL
MODEL 9
REMARK VINA RESULT:       1.1      1.842      2.709
REMARK  1 active torsions:
REMARK  status: ('A' for Active; 'I' for Inactive)
REMARK    1  A    between atoms: C3_3  and  C5_5 
ROOT
HETATM    1  C1  UNL     1     -31.262   7.863   1.593  1.00 20.00    -0.015 C 
HETATM    2  C2  UNL     1     -31.187   8.791   0.636  1.00 20.00    -0.021 C 
HETATM    3  C4  UNL     1     -33.410   8.854   1.465  1.00 20.00     0.032 C 
HETATM    4  C5  UNL     1     -32.555   7.925   2.331  1.00 20.00     0.110 C 
HETATM    5  C6  UNL     1     -32.425   9.642   0.568  1.00 20.00    -0.029 C 
HETATM    6  C7  UNL     1     -32.144  11.038   1.138  1.00 20.00     0.019 C 
HETATM    7  C8  UNL     1     -32.951   9.754  -0.864  1.00 20.00     0.019 C 
ENDROOT
BRANCH   4   8
HETATM    8  C3  UNL     1     -33.147   6.536   2.368  1.00 20.00     0.180 C 
HETATM    9  O9  UNL     1     -34.020   6.347   3.260  1.00 20.00    -0.647 OA
HETATM   10  O10 UNL     1     -32.691   5.742   1.499  1.00 20.00    -0.647 OA
ENDBRANCH   4   8
TORSDOF 1
ENDMDL
