MODEL 1
REMARK VINA RESULT:      -0.1      0.000      0.000
REMARK  0 active torsions:
REMARK  status: ('A' for Active; 'I' for Inactive)
ROOT
HETATM    1  C1  UNL     1     -33.501   7.634   4.012  1.00 20.00     0.050 C 
HETATM    2  C2  UNL     1     -33.444   5.408   2.743  1.00 20.00     0.050 C 
HETATM    3  C3  UNL     1     -35.379   5.881   4.413  1.00 20.00     0.207 A 
HETATM    4  C4  UNL     1     -33.002   8.440   2.818  1.00 20.00     0.077 C 
HETATM    5  C5  UNL     1     -32.938   6.046   1.453  1.00 20.00     0.077 C 
HETATM    6  C6  UNL     1     -34.214   6.380   3.591  1.00 20.00     0.084 A 
HETATM    7  O7  UNL     1     -35.572   6.582   3.175  1.00 20.00    -0.375 OA
HETATM    8  S8  UNL     1     -31.855   7.469   1.790  1.00 20.00    -0.169 SA
ENDROOT
TORSDOF 0
ENDMDL
MODEL 2
REMARK VINA RESULT:       0.3      2.142      3.652
REMARK  0 active torsions:
REMARK  status: ('A' for Active; 'I' for Inactive)
ROOT
HETATM    1  C1  UNL     1     -32.008   6.404   1.501  1.00 20.00     0.050 C 
HETATM    2  C2  UNL     1     -32.668   8.084   3.321  1.00 20.00     0.050 C 
HETATM    3  C3  UNL     1     -31.418   8.918   1.199  1.00 20.00     0.207 A 
HETATM    4  C4  UNL     1     -33.295   5.597   1.643  1.00 20.00     0.077 C 
HETATM    5  C5  UNL     1     -34.003   7.403   3.601  1.00 20.00     0.077 C 
HETATM    6  C6  UNL     1     -32.189   7.836   1.919  1.00 20.00     0.084 A 
HETATM    7  O7  UNL     1     -32.806   8.668   0.927  1.00 20.00    -0.375 OA
HETATM    8  S8  UNL     1     -33.900   5.602   3.360  1.00 20.00    -0.169 SA
ENDROOT
TORSDOF 0
ENDMDL
MODEL 3
REMARK VINA RESULT:       0.3      1.078      2.130
REMARK  0 active torsions:
REMARK  status: ('A' for Active; 'I' for Inactive)
ROOT
HETATM    1  C1  UNL     1     -33.967   5.905   1.965  1.00 20.00     0.050 C 
HETATM    2  C2  UNL     1     -33.997   7.643   3.849  1.00 20.00     0.050 C 
HETATM    3  C3  UNL     1     -35.308   5.416   4.139  1.00 20.00     0.207 A 
HETATM    4  C4  UNL     1     -32.502   6.158   1.624  1.00 20.00     0.077 C 
HETATM    5  C5  UNL     1     -32.536   8.027   3.649  1.00 20.00     0.077 C 
HETATM    6  C6  UNL     1     -34.280   6.238   3.397  1.00 20.00     0.084 A 
HETATM    7  O7  UNL     1     -33.898   5.225   4.338  1.00 20.00    -0.375 OA
HETATM    8  S8  UNL     1     -32.043   7.897   1.902  1.00 20.00    -0.169 SA
ENDROOT
TORSDOF 0
ENDMDL
MODEL 4
REMARK VINA RESULT:       0.4      2.273      3.139
REMARK  0 active torsions:
REMARK  status: ('A' for Active; 'I' for Inactive)
ROOT
HETATM    1  C1  UNL     1     -33.884   8.258   2.953  1.00 20.00     0.050 C 
HETATM    2  C2  UNL     1     -33.078   6.188   1.674  1.00 20.00     0.050 C 
HETATM    3  C3  UNL     1     -31.910   8.477   1.275  1.00 20.00     0.207 A 
HETATM    4  C4  UNL     1     -34.135   7.484   4.243  1.00 20.00     0.077 C 
HETATM    5  C5  UNL     1     -33.270   5.258   2.867  1.00 20.00     0.077 C 
HETATM    6  C6  UNL     1     -32.832   7.609   2.099  1.00 20.00     0.084 A 
HETATM    7  O7  UNL     1     -31.485   7.880   2.510  1.00 20.00    -0.375 OA
HETATM    8  S8  UNL     1     -34.673   5.778   3.902  1.00 20.00    -0.169 SA
ENDROOT
TORSDOF 0
ENDMDL
MODEL 5
REMARK VINA RESULT:       0.7      1.786      3.062
REMARK  0 active torsions:
REMARK  status: ('A' for Active; 'I' for Inactive)
ROOT
HETATM    1  C1  UNL     1     -33.454   5.334   3.008  1.00 20.00     0.050 C 
HETATM    2  C2  UNL     1     -31.947   7.122   1.958  1.00 20.00     0.050 C 
HETATM    3  C3  UNL     1     -32.321   4.870   0.714  1.00 20.00     0.207 A 
HETATM    4  C4  UNL     1     -34.456   6.352   3.540  1.00 20.00     0.077 C 
HETATM    5  C5  UNL     1     -32.835   8.275   2.413  1.00 20.00     0.077 C 
HETATM    6  C6  UNL     1     -32.718   5.842   1.801  1.00 20.00     0.084 A 
HETATM    7  O7  UNL     1     -33.454   5.741   0.573  1.00 20.00    -0.375 OA
HETATM    8  S8  UNL     1     -33.640   7.912   4.004  1.00 20.00    -0.169 SA
ENDROOT
TORSDOF 0
ENDMDL
MODEL 6
REMARK VINA RESULT:       1.1      1.618      2.517
REMARK  0 active torsions:
REMARK  status: ('A' for Active; 'I' for Inactive)
ROOT
HETATM    1  C1  UNL     1     -34.326   6.288   3.491  1.00 20.00     0.050 C 
HETATM    2  C2  UNL     1     -32.954   8.200   2.476  1.00 20.00     0.050 C 
HETATM    3  C3  UNL     1     -33.979   8.478   4.849  1.00 20.00     0.207 A 
HETATM    4  C4  UNL     1     -33.416   5.204   2.923  1.00 20.00     0.077 C 
HETATM    5  C5  UNL     1     -31.942   7.260   1.831  1.00 20.00     0.077 C 
HETATM    6  C6  UNL     1     -33.602   7.590   3.686  1.00 20.00     0.084 A 
HETATM    7  O7  UNL     1     -32.805   7.651   4.878  1.00 20.00    -0.375 OA
HETATM    8  S8  UNL     1     -32.715   5.695   1.317  1.00 20.00    -0.169 SA
ENDROOT
TORSDOF 0
ENDMDL
MODEL 7
REMARK VINA RESULT:       1.3      2.072      3.052
REMARK  0 active torsions:
REMARK  status: ('A' for Active; 'I' for Inactive)
ROOT
HETATM    1  C1  UNL     1     -32.351   7.569   1.666  1.00 20.00     0.050 C 
HETATM    2  C2  UNL     1     -33.992   5.714   2.327  1.00 20.00     0.050 C 
HETATM    3  C3  UNL     1     -32.117   5.210   0.598  1.00 20.00     0.207 A 
HETATM    4  C4  UNL     1     -32.272   8.137   3.078  1.00 20.00     0.077 C 
HETATM    5  C5  UNL     1     -34.038   6.143   3.789  1.00 20.00     0.077 C 
HETATM    6  C6  UNL     1     -32.704   6.108   1.662  1.00 20.00     0.084 A 
HETATM    7  O7  UNL     1     -31.602   5.232   1.939  1.00 20.00    -0.375 OA
HETATM    8  S8  UNL     1     -33.852   7.945   3.964  1.00 20.00    -0.169 SA
ENDROOT
TORSDOF 0
ENDMDL
MODEL 8
REMARK VINA RESULT:       2.5      2.062      2.882
REMARK  0 active torsions:
REMARK  status: ('A' for Active; 'I' for Inactive)
ROOT
HETATM    1  C1  UNL     1     -35.350   6.054   4.090  1.00 20.00     0.050 C 
HETATM    2  C2  UNL     1     -33.371   6.318   2.483  1.00 20.00     0.050 C 
HETATM    3  C3  UNL     1     -34.416   8.427   3.586  1.00 20.00     0.207 A 
HETATM    4  C4  UNL     1     -34.798   4.777   4.715  1.00 20.00     0.077 C 
HETATM    5  C5  UNL     1     -32.671   5.060   2.985  1.00 20.00     0.077 C 
HETATM    6  C6  UNL     1     -34.262   6.925   3.529  1.00 20.00     0.084 A 
HETATM    7  O7  UNL     1     -33.573   7.716   4.507  1.00 20.00    -0.375 OA
HETATM    8  S8  UNL     1     -33.867   3.789   3.502  1.00 20.00    -0.169 SA
ENDROOT
TORSDOF 0
ENDMDL
