MODEL 1
REMARK VINA RESULT:      -0.4      0.000      0.000
REMARK  0 active torsions:
REMARK  status: ('A' for Active; 'I' for Inactive)
ROOT
HETATM    1  C1  UNL     1     -32.379   9.207   0.725  1.00 20.00     0.069 C 
HETATM    2  C2  UNL     1     -34.413   6.195   3.808  1.00 20.00     0.000 C 
HETATM    3  C3  UNL     1     -33.994   5.400   2.577  1.00 20.00     0.000 C 
HETATM    4  C4  UNL     1     -33.775   7.566   3.996  1.00 20.00     0.002 C 
HETATM    5  C5  UNL     1     -32.536   5.569   2.164  1.00 20.00     0.002 C 
HETATM    6  C6  UNL     1     -33.654   8.412   2.726  1.00 20.00     0.024 C 
HETATM    7  C7  UNL     1     -32.323   6.764   1.231  1.00 20.00     0.024 C 
HETATM    8  C8  UNL     1     -32.387   8.170   1.870  1.00 20.00     0.045 C 
HETATM    9  C9  UNL     1     -31.167   8.403   2.681  1.00 20.00     0.031 C 
HETATM   10  N10 UNL     1     -32.373   9.986  -0.135  1.00 20.00    -0.196 NA
ENDROOT
TORSDOF 0
ENDMDL
MODEL 2
REMARK VINA RESULT:       0.9      2.822      4.187
REMARK  0 active torsions:
REMARK  status: ('A' for Active; 'I' for Inactive)
ROOT
HETATM    1  C1  UNL     1     -33.969   4.390   4.133  1.00 20.00     0.069 C 
HETATM    2  C2  UNL     1     -32.193   8.640   2.910  1.00 20.00     0.000 C 
HETATM    3  C3  UNL     1     -31.925   7.669   1.766  1.00 20.00     0.000 C 
HETATM    4  C4  UNL     1     -33.253   8.235   3.927  1.00 20.00     0.002 C 
HETATM    5  C5  UNL     1     -33.149   6.917   1.256  1.00 20.00     0.002 C 
HETATM    6  C6  UNL     1     -33.220   6.767   4.358  1.00 20.00     0.024 C 
HETATM    7  C7  UNL     1     -33.416   5.627   2.038  1.00 20.00     0.024 C 
HETATM    8  C8  UNL     1     -34.003   5.780   3.458  1.00 20.00     0.045 C 
HETATM    9  C9  UNL     1     -35.427   6.187   3.366  1.00 20.00     0.031 C 
HETATM   10  N10 UNL     1     -33.944   3.346   4.639  1.00 20.00    -0.196 NA
ENDROOT
TORSDOF 0
ENDMDL
MODEL 3
REMARK VINA RESULT:       1.2      2.153      3.314
REMARK  0 active torsions:
REMARK  status: ('A' for Active; 'I' for Inactive)
ROOT
HETATM    1  C1  UNL     1     -31.862   4.935   1.002  1.00 20.00     0.069 C 
HETATM    2  C2  UNL     1     -34.042   7.457   4.408  1.00 20.00     0.000 C 
HETATM    3  C3  UNL     1     -32.777   8.205   4.003  1.00 20.00     0.000 C 
HETATM    4  C4  UNL     1     -34.554   6.392   3.447  1.00 20.00     0.002 C 
HETATM    5  C5  UNL     1     -32.633   8.467   2.508  1.00 20.00     0.002 C 
HETATM    6  C6  UNL     1     -33.477   5.495   2.830  1.00 20.00     0.024 C 
HETATM    7  C7  UNL     1     -31.957   7.308   1.770  1.00 20.00     0.024 C 
HETATM    8  C8  UNL     1     -32.803   6.034   1.545  1.00 20.00     0.045 C 
HETATM    9  C9  UNL     1     -33.823   6.294   0.499  1.00 20.00     0.031 C 
HETATM   10  N10 UNL     1     -31.156   4.109   0.595  1.00 20.00    -0.196 NA
ENDROOT
TORSDOF 0
ENDMDL
MODEL 4
REMARK VINA RESULT:       2.0      1.576      2.932
REMARK  0 active torsions:
REMARK  status: ('A' for Active; 'I' for Inactive)
ROOT
HETATM    1  C1  UNL     1     -32.206   7.574   2.012  1.00 20.00     0.069 C 
HETATM    2  C2  UNL     1     -34.230   3.963   4.374  1.00 20.00     0.000 C 
HETATM    3  C3  UNL     1     -34.894   5.257   4.830  1.00 20.00     0.000 C 
HETATM    4  C4  UNL     1     -33.443   4.011   3.070  1.00 20.00     0.002 C 
HETATM    5  C5  UNL     1     -35.431   6.138   3.707  1.00 20.00     0.002 C 
HETATM    6  C6  UNL     1     -32.571   5.254   2.877  1.00 20.00     0.024 C 
HETATM    7  C7  UNL     1     -34.372   7.097   3.155  1.00 20.00     0.024 C 
HETATM    8  C8  UNL     1     -33.275   6.485   2.256  1.00 20.00     0.045 C 
HETATM    9  C9  UNL     1     -33.853   6.134   0.935  1.00 20.00     0.031 C 
HETATM   10  N10 UNL     1     -31.403   8.391   1.829  1.00 20.00    -0.196 NA
ENDROOT
TORSDOF 0
ENDMDL
MODEL 5
REMARK VINA RESULT:       2.5      2.287      4.009
REMARK  0 active torsions:
REMARK  status: ('A' for Active; 'I' for Inactive)
ROOT
HETATM    1  C1  UNL     1     -34.546   6.902   3.595  1.00 20.00     0.069 C 
HETATM    2  C2  UNL     1     -31.430   8.543   0.382  1.00 20.00     0.000 C 
HETATM    3  C3  UNL     1     -32.640   9.471   0.385  1.00 20.00     0.000 C 
HETATM    4  C4  UNL     1     -31.261   7.625   1.586  1.00 20.00     0.002 C 
HETATM    5  C5  UNL     1     -33.036  10.012   1.754  1.00 20.00     0.002 C 
HETATM    6  C6  UNL     1     -32.546   6.963   2.091  1.00 20.00     0.024 C 
HETATM    7  C7  UNL     1     -33.990   9.076   2.503  1.00 20.00     0.024 C 
HETATM    8  C8  UNL     1     -33.380   7.789   3.101  1.00 20.00     0.045 C 
HETATM    9  C9  UNL     1     -32.558   8.133   4.287  1.00 20.00     0.031 C 
HETATM   10  N10 UNL     1     -35.420   6.237   3.965  1.00 20.00    -0.196 NA
ENDROOT
TORSDOF 0
ENDMDL
