MODEL 1
REMARK VINA RESULT:      -1.2      0.000      0.000
REMARK  2 active torsions:
REMARK  status: ('A' for Active; 'I' for Inactive)
REMARK    1  A    between atoms: C1_1  and  C6_6 
REMARK    2  A    between atoms: C6_6  and  N7_7 
ROOT
HETATM    1  C3  UNL     1     -35.087   6.202   4.135  1.00 20.00     0.060 C 
HETATM    2  C4  UNL     1     -33.965   5.691   3.210  1.00 20.00     0.274 C 
HETATM    3  C5  UNL     1     -34.297   7.523   4.131  1.00 20.00     0.274 C 
HETATM    4  N7  UNL     1     -33.738   7.107   2.818  1.00 20.00     0.091 N 
ENDROOT
BRANCH   4   5
HETATM    5  C6  UNL     1     -32.311   7.400   2.751  1.00 20.00     0.300 C 
BRANCH   5   6
HETATM    6  C1  UNL     1     -31.967   8.184   1.521  1.00 20.00     0.010 C 
HETATM    7  C2  UNL     1     -32.708   9.199   1.063  1.00 20.00     0.053 C 
HETATM    8 BR8  UNL     1     -32.302  10.193  -0.449  1.00 20.00    -0.064 Br
ENDBRANCH   5   6
ENDBRANCH   4   5
TORSDOF 2
ENDMDL
MODEL 2
REMARK VINA RESULT:      -0.7      2.797      4.598
REMARK  2 active torsions:
REMARK  status: ('A' for Active; 'I' for Inactive)
REMARK    1  A    between atoms: C1_1  and  C6_6 
REMARK    2  A    between atoms: C6_6  and  N7_7 
ROOT
HETATM    1  C3  UNL     1     -32.355  10.527  -0.301  1.00 20.00     0.060 C 
HETATM    2  C4  UNL     1     -32.769  10.289   1.164  1.00 20.00     0.274 C 
HETATM    3  C5  UNL     1     -31.716   9.129  -0.199  1.00 20.00     0.274 C 
HETATM    4  N7  UNL     1     -32.698   8.833   0.876  1.00 20.00     0.091 N 
ENDROOT
BRANCH   4   5
HETATM    5  C6  UNL     1     -32.056   8.122   1.976  1.00 20.00     0.300 C 
BRANCH   5   6
HETATM    6  C1  UNL     1     -32.953   7.068   2.549  1.00 20.00     0.010 C 
HETATM    7  C2  UNL     1     -33.953   7.332   3.398  1.00 20.00     0.053 C 
HETATM    8 BR8  UNL     1     -35.085   6.050   4.114  1.00 20.00    -0.064 Br
ENDBRANCH   5   6
ENDBRANCH   4   5
TORSDOF 2
ENDMDL
MODEL 3
REMARK VINA RESULT:      -0.1      0.869      1.280
REMARK  2 active torsions:
REMARK  status: ('A' for Active; 'I' for Inactive)
REMARK    1  A    between atoms: C1_1  and  C6_6 
REMARK    2  A    between atoms: C6_6  and  N7_7 
ROOT
HETATM    1  C3  UNL     1     -35.284   5.743   4.255  1.00 20.00     0.060 C 
HETATM    2  C4  UNL     1     -34.871   6.938   3.374  1.00 20.00     0.274 C 
HETATM    3  C5  UNL     1     -34.056   5.046   3.640  1.00 20.00     0.274 C 
HETATM    4  N7  UNL     1     -33.486   6.399   3.414  1.00 20.00     0.091 N 
ENDROOT
BRANCH   4   5
HETATM    5  C6  UNL     1     -32.865   6.481   2.096  1.00 20.00     0.300 C 
BRANCH   5   6
HETATM    6  C1  UNL     1     -32.398   7.872   1.794  1.00 20.00     0.010 C 
HETATM    7  C2  UNL     1     -32.783   8.561   0.714  1.00 20.00     0.053 C 
HETATM    8 BR8  UNL     1     -32.229  10.286   0.320  1.00 20.00    -0.064 Br
ENDBRANCH   5   6
ENDBRANCH   4   5
TORSDOF 2
ENDMDL
MODEL 4
REMARK VINA RESULT:      -0.1      0.876      1.009
REMARK  2 active torsions:
REMARK  status: ('A' for Active; 'I' for Inactive)
REMARK    1  A    between atoms: C1_1  and  C6_6 
REMARK    2  A    between atoms: C6_6  and  N7_7 
ROOT
HETATM    1  C3  UNL     1     -34.962   4.901   4.077  1.00 20.00     0.060 C 
HETATM    2  C4  UNL     1     -33.506   5.043   3.589  1.00 20.00     0.274 C 
HETATM    3  C5  UNL     1     -34.945   6.441   4.129  1.00 20.00     0.274 C 
HETATM    4  N7  UNL     1     -33.875   6.397   3.098  1.00 20.00     0.091 N 
ENDROOT
BRANCH   4   5
HETATM    5  C6  UNL     1     -32.824   7.359   3.408  1.00 20.00     0.300 C 
BRANCH   5   6
HETATM    6  C1  UNL     1     -32.847   8.522   2.463  1.00 20.00     0.010 C 
HETATM    7  C2  UNL     1     -32.357   8.471   1.220  1.00 20.00     0.053 C 
HETATM    8 BR8  UNL     1     -32.381   9.890   0.026  1.00 20.00    -0.064 Br
ENDBRANCH   5   6
ENDBRANCH   4   5
TORSDOF 2
ENDMDL
MODEL 5
REMARK VINA RESULT:       0.0      3.476      4.724
REMARK  2 active torsions:
REMARK  status: ('A' for Active; 'I' for Inactive)
REMARK    1  A    between atoms: C1_1  and  C6_6 
REMARK    2  A    between atoms: C6_6  and  N7_7 
ROOT
HETATM    1  C3  UNL     1     -31.970   7.976   1.531  1.00 20.00     0.060 C 
HETATM    2  C4  UNL     1     -32.714   6.627   1.476  1.00 20.00     0.274 C 
HETATM    3  C5  UNL     1     -32.841   8.244   2.773  1.00 20.00     0.274 C 
HETATM    4  N7  UNL     1     -32.941   6.771   2.938  1.00 20.00     0.091 N 
ENDROOT
BRANCH   4   5
HETATM    5  C6  UNL     1     -34.303   6.384   3.287  1.00 20.00     0.300 C 
BRANCH   5   6
HETATM    6  C1  UNL     1     -34.336   5.068   4.003  1.00 20.00     0.010 C 
HETATM    7  C2  UNL     1     -33.355   4.162   3.926  1.00 20.00     0.053 C 
HETATM    8 BR8  UNL     1     -33.363   2.532   4.809  1.00 20.00    -0.064 Br
ENDBRANCH   5   6
ENDBRANCH   4   5
TORSDOF 2
ENDMDL
MODEL 6
REMARK VINA RESULT:       0.3      2.836      4.461
REMARK  2 active torsions:
REMARK  status: ('A' for Active; 'I' for Inactive)
REMARK    1  A    between atoms: C1_1  and  C6_6 
REMARK    2  A    between atoms: C6_6  and  N7_7 
ROOT
HETATM    1  C3  UNL     1     -31.585   8.787   0.007  1.00 20.00     0.060 C 
HETATM    2  C4  UNL     1     -32.500   9.517   1.010  1.00 20.00     0.274 C 
HETATM    3  C5  UNL     1     -31.338   7.803   1.165  1.00 20.00     0.274 C 
HETATM    4  N7  UNL     1     -32.659   8.214   1.708  1.00 20.00     0.091 N 
ENDROOT
BRANCH   4   5
HETATM    5  C6  UNL     1     -32.587   8.395   3.153  1.00 20.00     0.300 C 
BRANCH   5   6
HETATM    6  C1  UNL     1     -33.661   7.624   3.858  1.00 20.00     0.010 C 
HETATM    7  C2  UNL     1     -34.074   6.412   3.471  1.00 20.00     0.053 C 
HETATM    8 BR8  UNL     1     -35.393   5.431   4.329  1.00 20.00    -0.064 Br
ENDBRANCH   5   6
ENDBRANCH   4   5
TORSDOF 2
ENDMDL
MODEL 7
REMARK VINA RESULT:       0.4      2.809      4.465
REMARK  2 active torsions:
REMARK  status: ('A' for Active; 'I' for Inactive)
REMARK    1  A    between atoms: C1_1  and  C6_6 
REMARK    2  A    between atoms: C6_6  and  N7_7 
ROOT
HETATM    1  C3  UNL     1     -32.330  10.244  -0.209  1.00 20.00     0.060 C 
HETATM    2  C4  UNL     1     -31.370   9.042  -0.110  1.00 20.00     0.274 C 
HETATM    3  C5  UNL     1     -33.057   9.581   0.976  1.00 20.00     0.274 C 
HETATM    4  N7  UNL     1     -31.764   8.933   1.319  1.00 20.00     0.091 N 
ENDROOT
BRANCH   4   5
HETATM    5  C6  UNL     1     -31.971   7.538   1.690  1.00 20.00     0.300 C 
BRANCH   5   6
HETATM    6  C1  UNL     1     -32.994   7.402   2.776  1.00 20.00     0.010 C 
HETATM    7  C2  UNL     1     -33.860   6.386   2.851  1.00 20.00     0.053 C 
HETATM    8 BR8  UNL     1     -35.129   6.187   4.188  1.00 20.00    -0.064 Br
ENDBRANCH   5   6
ENDBRANCH   4   5
TORSDOF 2
ENDMDL
MODEL 8
REMARK VINA RESULT:       0.8      3.506      4.849
REMARK  2 active torsions:
REMARK  status: ('A' for Active; 'I' for Inactive)
REMARK    1  A    between atoms: C1_1  and  C6_6 
REMARK    2  A    between atoms: C6_6  and  N7_7 
ROOT
HETATM    1  C3  UNL     1     -31.917   7.627   1.796  1.00 20.00     0.060 C 
HETATM    2  C4  UNL     1     -32.797   7.991   3.008  1.00 20.00     0.274 C 
HETATM    3  C5  UNL     1     -32.705   6.304   1.800  1.00 20.00     0.274 C 
HETATM    4  N7  UNL     1     -33.807   7.041   2.473  1.00 20.00     0.091 N 
ENDROOT
BRANCH   4   5
HETATM    5  C6  UNL     1     -34.379   6.239   3.549  1.00 20.00     0.300 C 
BRANCH   5   6
HETATM    6  C1  UNL     1     -33.844   4.840   3.536  1.00 20.00     0.010 C 
HETATM    7  C2  UNL     1     -33.842   4.041   4.610  1.00 20.00     0.053 C 
HETATM    8 BR8  UNL     1     -33.197   2.303   4.621  1.00 20.00    -0.064 Br
ENDBRANCH   5   6
ENDBRANCH   4   5
TORSDOF 2
ENDMDL
MODEL 9
REMARK VINA RESULT:       1.4      3.227      4.470
REMARK  2 active torsions:
REMARK  status: ('A' for Active; 'I' for Inactive)
REMARK    1  A    between atoms: C1_1  and  C6_6 
REMARK    2  A    between atoms: C6_6  and  N7_7 
ROOT
HETATM    1  C3  UNL     1     -32.827  10.733  -0.545  1.00 20.00     0.060 C 
HETATM    2  C4  UNL     1     -32.635   9.205  -0.468  1.00 20.00     0.274 C 
HETATM    3  C5  UNL     1     -32.811  10.671   0.994  1.00 20.00     0.274 C 
HETATM    4  N7  UNL     1     -32.019   9.420   0.868  1.00 20.00     0.091 N 
ENDROOT
BRANCH   4   5
HETATM    5  C6  UNL     1     -32.488   8.417   1.817  1.00 20.00     0.300 C 
BRANCH   5   6
HETATM    6  C1  UNL     1     -31.782   7.109   1.630  1.00 20.00     0.010 C 
HETATM    7  C2  UNL     1     -32.406   5.976   1.288  1.00 20.00     0.053 C 
HETATM    8 BR8  UNL     1     -31.557   4.346   1.039  1.00 20.00    -0.064 Br
ENDBRANCH   5   6
ENDBRANCH   4   5
TORSDOF 2
ENDMDL
