MODEL 1
REMARK VINA RESULT:      -0.3      0.000      0.000
REMARK  0 active torsions:
REMARK  status: ('A' for Active; 'I' for Inactive)
ROOT
HETATM    1  C1  UNL     1     -34.228   5.046   4.039  1.00 20.00     0.080 C 
HETATM    2  C2  UNL     1     -33.831   7.418   4.596  1.00 20.00     0.043 C 
HETATM    3  C3  UNL     1     -35.770   6.749   3.135  1.00 20.00     0.043 C 
HETATM    4  C4  UNL     1     -34.335   6.429   3.548  1.00 20.00     0.099 C 
HETATM    5  N5  UNL     1     -34.145   3.957   4.428  1.00 20.00    -0.196 NA
HETATM    6 BR6  UNL     1     -33.196   6.619   1.949  1.00 20.00    -0.070 Br
ENDROOT
TORSDOF 0
ENDMDL
MODEL 2
REMARK VINA RESULT:      -0.1      2.227      2.746
REMARK  0 active torsions:
REMARK  status: ('A' for Active; 'I' for Inactive)
ROOT
HETATM    1  C1  UNL     1     -33.458   6.371   2.441  1.00 20.00     0.080 C 
HETATM    2  C2  UNL     1     -35.796   6.732   3.143  1.00 20.00     0.043 C 
HETATM    3  C3  UNL     1     -33.886   7.433   4.628  1.00 20.00     0.043 C 
HETATM    4  C4  UNL     1     -34.371   6.420   3.593  1.00 20.00     0.099 C 
HETATM    5  N5  UNL     1     -32.738   6.336   1.531  1.00 20.00    -0.196 NA
HETATM    6 BR6  UNL     1     -34.391   4.646   4.455  1.00 20.00    -0.070 Br
ENDROOT
TORSDOF 0
ENDMDL
MODEL 3
REMARK VINA RESULT:      -0.0      1.397      1.882
REMARK  0 active torsions:
REMARK  status: ('A' for Active; 'I' for Inactive)
ROOT
HETATM    1  C1  UNL     1     -34.115   4.948   3.990  1.00 20.00     0.080 C 
HETATM    2  C2  UNL     1     -35.722   6.673   3.257  1.00 20.00     0.043 C 
HETATM    3  C3  UNL     1     -33.469   6.462   2.150  1.00 20.00     0.043 C 
HETATM    4  C4  UNL     1     -34.251   6.311   3.453  1.00 20.00     0.099 C 
HETATM    5  N5  UNL     1     -34.009   3.872   4.412  1.00 20.00    -0.196 NA
HETATM    6 BR6  UNL     1     -33.491   7.580   4.758  1.00 20.00    -0.070 Br
ENDROOT
TORSDOF 0
ENDMDL
MODEL 4
REMARK VINA RESULT:       0.0      4.208      4.538
REMARK  0 active torsions:
REMARK  status: ('A' for Active; 'I' for Inactive)
ROOT
HETATM    1  C1  UNL     1     -32.457   8.989   1.019  1.00 20.00     0.080 C 
HETATM    2  C2  UNL     1     -31.017   8.317   2.908  1.00 20.00     0.043 C 
HETATM    3  C3  UNL     1     -31.977   6.590   1.346  1.00 20.00     0.043 C 
HETATM    4  C4  UNL     1     -32.201   7.942   2.020  1.00 20.00     0.099 C 
HETATM    5  N5  UNL     1     -32.655   9.815   0.229  1.00 20.00    -0.196 NA
HETATM    6 BR6  UNL     1     -33.789   7.777   3.178  1.00 20.00    -0.070 Br
ENDROOT
TORSDOF 0
ENDMDL
MODEL 5
REMARK VINA RESULT:       0.0      2.104      2.389
REMARK  0 active torsions:
REMARK  status: ('A' for Active; 'I' for Inactive)
ROOT
HETATM    1  C1  UNL     1     -33.513   6.144   2.427  1.00 20.00     0.080 C 
HETATM    2  C2  UNL     1     -34.481   5.030   4.405  1.00 20.00     0.043 C 
HETATM    3  C3  UNL     1     -35.797   6.760   3.133  1.00 20.00     0.043 C 
HETATM    4  C4  UNL     1     -34.407   6.314   3.583  1.00 20.00     0.099 C 
HETATM    5  N5  UNL     1     -32.809   6.008   1.514  1.00 20.00    -0.196 NA
HETATM    6 BR6  UNL     1     -33.672   7.728   4.745  1.00 20.00    -0.070 Br
ENDROOT
TORSDOF 0
ENDMDL
MODEL 6
REMARK VINA RESULT:       0.2      2.489      3.087
REMARK  0 active torsions:
REMARK  status: ('A' for Active; 'I' for Inactive)
ROOT
HETATM    1  C1  UNL     1     -33.757   6.259   2.862  1.00 20.00     0.080 C 
HETATM    2  C2  UNL     1     -33.701   6.149   0.397  1.00 20.00     0.043 C 
HETATM    3  C3  UNL     1     -31.816   5.194   1.768  1.00 20.00     0.043 C 
HETATM    4  C4  UNL     1     -32.883   6.284   1.679  1.00 20.00     0.099 C 
HETATM    5  N5  UNL     1     -34.447   6.236   3.794  1.00 20.00    -0.196 NA
HETATM    6 BR6  UNL     1     -31.957   8.024   1.618  1.00 20.00    -0.070 Br
ENDROOT
TORSDOF 0
ENDMDL
MODEL 7
REMARK VINA RESULT:       0.2      3.067      3.660
REMARK  0 active torsions:
REMARK  status: ('A' for Active; 'I' for Inactive)
ROOT
HETATM    1  C1  UNL     1     -33.312   7.688   3.041  1.00 20.00     0.080 C 
HETATM    2  C2  UNL     1     -31.977   6.560   1.297  1.00 20.00     0.043 C 
HETATM    3  C3  UNL     1     -30.936   8.307   2.784  1.00 20.00     0.043 C 
HETATM    4  C4  UNL     1     -32.211   7.851   2.078  1.00 20.00     0.099 C 
HETATM    5  N5  UNL     1     -34.178   7.557   3.801  1.00 20.00    -0.196 NA
HETATM    6 BR6  UNL     1     -32.711   9.252   0.783  1.00 20.00    -0.070 Br
ENDROOT
TORSDOF 0
ENDMDL
MODEL 8
REMARK VINA RESULT:       0.2      4.008      4.488
REMARK  0 active torsions:
REMARK  status: ('A' for Active; 'I' for Inactive)
ROOT
HETATM    1  C1  UNL     1     -32.442   8.931   0.951  1.00 20.00     0.080 C 
HETATM    2  C2  UNL     1     -33.489   7.984   2.976  1.00 20.00     0.043 C 
HETATM    3  C3  UNL     1     -30.986   8.210   2.810  1.00 20.00     0.043 C 
HETATM    4  C4  UNL     1     -32.282   7.957   2.042  1.00 20.00     0.099 C 
HETATM    5  N5  UNL     1     -32.569   9.701   0.093  1.00 20.00    -0.196 NA
HETATM    6 BR6  UNL     1     -32.170   6.149   1.260  1.00 20.00    -0.070 Br
ENDROOT
TORSDOF 0
ENDMDL
MODEL 9
REMARK VINA RESULT:       0.3      2.927      3.180
REMARK  0 active torsions:
REMARK  status: ('A' for Active; 'I' for Inactive)
ROOT
HETATM    1  C1  UNL     1     -33.387   7.666   3.173  1.00 20.00     0.080 C 
HETATM    2  C2  UNL     1     -31.011   8.172   2.735  1.00 20.00     0.043 C 
HETATM    3  C3  UNL     1     -32.783   8.760   1.044  1.00 20.00     0.043 C 
HETATM    4  C4  UNL     1     -32.355   7.774   2.130  1.00 20.00     0.099 C 
HETATM    5  N5  UNL     1     -34.199   7.583   3.997  1.00 20.00    -0.196 NA
HETATM    6 BR6  UNL     1     -32.131   6.009   1.280  1.00 20.00    -0.070 Br
ENDROOT
TORSDOF 0
ENDMDL
