MODEL 1
REMARK VINA RESULT:      -3.1      0.000      0.000
REMARK  2 active torsions:
REMARK  status: ('A' for Active; 'I' for Inactive)
REMARK    1  A    between atoms: C3_3  and  C5_5 
REMARK    2  A    between atoms: C4_4  and  C5_5 
ROOT
HETATM    1  C1  UNL     1     -32.418   9.818   0.251  1.00 20.00     0.012 C 
HETATM    2  C2  UNL     1     -32.209   8.925   1.026  1.00 20.00    -0.117 C 
HETATM    3  C4  UNL     1     -31.951   7.832   1.976  1.00 20.00     0.101 C 
ENDROOT
BRANCH   3   4
HETATM    4  C5  UNL     1     -33.209   7.015   2.260  1.00 20.00     0.108 C 
BRANCH   4   5
HETATM    5  C3  UNL     1     -33.803   7.271   3.638  1.00 20.00     0.219 C 
HETATM    6  O6  UNL     1     -33.279   8.010   4.465  1.00 20.00    -0.280 OA
HETATM    7 CL7  UNL     1     -35.273   6.367   3.878  1.00 20.00    -0.044 Cl
ENDBRANCH   4   5
ENDBRANCH   3   4
TORSDOF 2
ENDMDL
MODEL 2
REMARK VINA RESULT:      -3.0      1.554      1.598
REMARK  2 active torsions:
REMARK  status: ('A' for Active; 'I' for Inactive)
REMARK    1  A    between atoms: C3_3  and  C5_5 
REMARK    2  A    between atoms: C4_4  and  C5_5 
ROOT
HETATM    1  C1  UNL     1     -32.661  10.263  -0.001  1.00 20.00     0.012 C 
HETATM    2  C2  UNL     1     -32.241   9.325   0.621  1.00 20.00    -0.117 C 
HETATM    3  C4  UNL     1     -31.724   8.177   1.380  1.00 20.00     0.101 C 
ENDROOT
BRANCH   3   4
HETATM    4  C5  UNL     1     -32.572   7.882   2.615  1.00 20.00     0.108 C 
BRANCH   4   5
HETATM    5  C3  UNL     1     -33.314   6.556   2.543  1.00 20.00     0.219 C 
HETATM    6  O6  UNL     1     -33.039   5.679   1.729  1.00 20.00    -0.280 OA
HETATM    7 CL7  UNL     1     -34.591   6.471   3.724  1.00 20.00    -0.044 Cl
ENDBRANCH   4   5
ENDBRANCH   3   4
TORSDOF 2
ENDMDL
MODEL 3
REMARK VINA RESULT:      -2.9      1.664      1.704
REMARK  2 active torsions:
REMARK  status: ('A' for Active; 'I' for Inactive)
REMARK    1  A    between atoms: C3_3  and  C5_5 
REMARK    2  A    between atoms: C4_4  and  C5_5 
ROOT
HETATM    1  C1  UNL     1     -32.596  10.202   0.006  1.00 20.00     0.012 C 
HETATM    2  C2  UNL     1     -32.236   9.272   0.676  1.00 20.00    -0.117 C 
HETATM    3  C4  UNL     1     -31.792   8.134   1.494  1.00 20.00     0.101 C 
ENDROOT
BRANCH   3   4
HETATM    4  C5  UNL     1     -32.668   7.945   2.730  1.00 20.00     0.108 C 
BRANCH   4   5
HETATM    5  C3  UNL     1     -33.424   6.624   2.745  1.00 20.00     0.219 C 
HETATM    6  O6  UNL     1     -34.307   6.368   3.558  1.00 20.00    -0.280 OA
HETATM    7 CL7  UNL     1     -32.855   5.546   1.501  1.00 20.00    -0.044 Cl
ENDBRANCH   4   5
ENDBRANCH   3   4
TORSDOF 2
ENDMDL
MODEL 4
REMARK VINA RESULT:      -2.9      1.436      1.436
REMARK  2 active torsions:
REMARK  status: ('A' for Active; 'I' for Inactive)
REMARK    1  A    between atoms: C3_3  and  C5_5 
REMARK    2  A    between atoms: C4_4  and  C5_5 
ROOT
HETATM    1  C1  UNL     1     -32.460   9.783   0.226  1.00 20.00     0.012 C 
HETATM    2  C2  UNL     1     -32.230   8.874   0.977  1.00 20.00    -0.117 C 
HETATM    3  C4  UNL     1     -31.945   7.764   1.898  1.00 20.00     0.101 C 
ENDROOT
BRANCH   3   4
HETATM    4  C5  UNL     1     -32.994   6.658   1.798  1.00 20.00     0.108 C 
BRANCH   4   5
HETATM    5  C3  UNL     1     -33.652   6.321   3.128  1.00 20.00     0.219 C 
HETATM    6  O6  UNL     1     -33.882   5.170   3.487  1.00 20.00    -0.280 OA
HETATM    7 CL7  UNL     1     -34.052   7.757   4.027  1.00 20.00    -0.044 Cl
ENDBRANCH   4   5
ENDBRANCH   3   4
TORSDOF 2
ENDMDL
MODEL 5
REMARK VINA RESULT:      -2.7      2.796      4.478
REMARK  2 active torsions:
REMARK  status: ('A' for Active; 'I' for Inactive)
REMARK    1  A    between atoms: C3_3  and  C5_5 
REMARK    2  A    between atoms: C4_4  and  C5_5 
ROOT
HETATM    1  C1  UNL     1     -33.826   3.654   4.444  1.00 20.00     0.012 C 
HETATM    2  C2  UNL     1     -34.308   4.712   4.141  1.00 20.00    -0.117 C 
HETATM    3  C4  UNL     1     -34.900   6.006   3.770  1.00 20.00     0.101 C 
ENDROOT
BRANCH   3   4
HETATM    4  C5  UNL     1     -33.834   7.074   3.535  1.00 20.00     0.108 C 
BRANCH   4   5
HETATM    5  C3  UNL     1     -33.020   6.853   2.269  1.00 20.00     0.219 C 
HETATM    6  O6  UNL     1     -33.079   5.821   1.607  1.00 20.00    -0.280 OA
HETATM    7 CL7  UNL     1     -31.998   8.219   1.918  1.00 20.00    -0.044 Cl
ENDBRANCH   4   5
ENDBRANCH   3   4
TORSDOF 2
ENDMDL
MODEL 6
REMARK VINA RESULT:      -2.7      2.840      4.558
REMARK  2 active torsions:
REMARK  status: ('A' for Active; 'I' for Inactive)
REMARK    1  A    between atoms: C3_3  and  C5_5 
REMARK    2  A    between atoms: C4_4  and  C5_5 
ROOT
HETATM    1  C1  UNL     1     -33.188   2.828   4.706  1.00 20.00     0.012 C 
HETATM    2  C2  UNL     1     -33.815   3.808   4.408  1.00 20.00    -0.117 C 
HETATM    3  C4  UNL     1     -34.584   5.007   4.045  1.00 20.00     0.101 C 
ENDROOT
BRANCH   3   4
HETATM    4  C5  UNL     1     -33.897   5.814   2.946  1.00 20.00     0.108 C 
BRANCH   4   5
HETATM    5  C3  UNL     1     -33.562   7.241   3.357  1.00 20.00     0.219 C 
HETATM    6  O6  UNL     1     -34.105   7.810   4.300  1.00 20.00    -0.280 OA
HETATM    7 CL7  UNL     1     -32.358   7.942   2.313  1.00 20.00    -0.044 Cl
ENDBRANCH   4   5
ENDBRANCH   3   4
TORSDOF 2
ENDMDL
MODEL 7
REMARK VINA RESULT:      -2.7      2.346      3.939
REMARK  2 active torsions:
REMARK  status: ('A' for Active; 'I' for Inactive)
REMARK    1  A    between atoms: C3_3  and  C5_5 
REMARK    2  A    between atoms: C4_4  and  C5_5 
ROOT
HETATM    1  C1  UNL     1     -35.345   5.327   4.343  1.00 20.00     0.012 C 
HETATM    2  C2  UNL     1     -34.889   6.393   4.031  1.00 20.00    -0.117 C 
HETATM    3  C4  UNL     1     -34.334   7.700   3.648  1.00 20.00     0.101 C 
ENDROOT
BRANCH   3   4
HETATM    4  C5  UNL     1     -32.826   7.634   3.421  1.00 20.00     0.108 C 
BRANCH   4   5
HETATM    5  C3  UNL     1     -32.435   7.478   1.959  1.00 20.00     0.219 C 
HETATM    6  O6  UNL     1     -32.077   8.420   1.258  1.00 20.00    -0.280 OA
HETATM    7 CL7  UNL     1     -32.593   5.827   1.426  1.00 20.00    -0.044 Cl
ENDBRANCH   4   5
ENDBRANCH   3   4
TORSDOF 2
ENDMDL
MODEL 8
REMARK VINA RESULT:      -2.6      1.826      2.162
REMARK  2 active torsions:
REMARK  status: ('A' for Active; 'I' for Inactive)
REMARK    1  A    between atoms: C3_3  and  C5_5 
REMARK    2  A    between atoms: C4_4  and  C5_5 
ROOT
HETATM    1  C1  UNL     1     -31.728   8.173   1.635  1.00 20.00     0.012 C 
HETATM    2  C2  UNL     1     -32.354   7.151   1.706  1.00 20.00    -0.117 C 
HETATM    3  C4  UNL     1     -33.119   5.898   1.791  1.00 20.00     0.101 C 
ENDROOT
BRANCH   3   4
HETATM    4  C5  UNL     1     -33.520   5.571   3.228  1.00 20.00     0.108 C 
BRANCH   4   5
HETATM    5  C3  UNL     1     -34.568   6.516   3.798  1.00 20.00     0.219 C 
HETATM    6  O6  UNL     1     -35.774   6.322   3.686  1.00 20.00    -0.280 OA
HETATM    7 CL7  UNL     1     -33.834   7.886   4.583  1.00 20.00    -0.044 Cl
ENDBRANCH   4   5
ENDBRANCH   3   4
TORSDOF 2
ENDMDL
MODEL 9
REMARK VINA RESULT:      -2.5      2.542      2.942
REMARK  2 active torsions:
REMARK  status: ('A' for Active; 'I' for Inactive)
REMARK    1  A    between atoms: C3_3  and  C5_5 
REMARK    2  A    between atoms: C4_4  and  C5_5 
ROOT
HETATM    1  C1  UNL     1     -31.961   7.999   1.742  1.00 20.00     0.012 C 
HETATM    2  C2  UNL     1     -32.779   7.394   2.379  1.00 20.00    -0.117 C 
HETATM    3  C4  UNL     1     -33.783   6.656   3.161  1.00 20.00     0.101 C 
ENDROOT
BRANCH   3   4
HETATM    4  C5  UNL     1     -33.553   5.148   3.102  1.00 20.00     0.108 C 
BRANCH   4   5
HETATM    5  C3  UNL     1     -34.264   4.380   4.208  1.00 20.00     0.219 C 
HETATM    6  O6  UNL     1     -35.355   4.714   4.659  1.00 20.00    -0.280 OA
HETATM    7 CL7  UNL     1     -33.322   3.018   4.748  1.00 20.00    -0.044 Cl
ENDBRANCH   4   5
ENDBRANCH   3   4
TORSDOF 2
ENDMDL
