MODEL 1
REMARK VINA RESULT:       2.7      0.000      0.000
REMARK  0 active torsions:
REMARK  status: ('A' for Active; 'I' for Inactive)
ROOT
HETATM    1  C1  UNL     1     -33.341   8.294   4.159  1.00 20.00    -0.023 C 
HETATM    2  C2  UNL     1     -32.735   8.761   3.057  1.00 20.00    -0.014 C 
HETATM    3  C3  UNL     1     -33.079   6.538   1.886  1.00 20.00     0.144 C 
HETATM    4  C4  UNL     1     -33.646   6.884   4.391  1.00 20.00     0.028 A 
HETATM    5  C5  UNL     1     -33.461   5.967   3.207  1.00 20.00     0.073 A 
HETATM    6  C6  UNL     1     -32.342   7.892   1.881  1.00 20.00     0.031 C 
HETATM    7  C7  UNL     1     -34.850   6.191   3.783  1.00 20.00    -0.029 A 
HETATM    8  C8  UNL     1     -32.699   8.633   0.582  1.00 20.00     0.027 C 
HETATM    9  C9  UNL     1     -30.834   7.615   1.924  1.00 20.00     0.027 C 
HETATM   10  C10 UNL     1     -35.457   5.057   4.571  1.00 20.00     0.016 C 
HETATM   11  C11 UNL     1     -35.875   6.982   3.005  1.00 20.00     0.016 C 
HETATM   12  O12 UNL     1     -33.305   5.889   0.870  1.00 20.00    -0.296 OA
ENDROOT
TORSDOF 0
ENDMDL
MODEL 2
REMARK VINA RESULT:       2.9      1.635      3.254
REMARK  0 active torsions:
REMARK  status: ('A' for Active; 'I' for Inactive)
ROOT
HETATM    1  C1  UNL     1     -34.085   5.251   3.342  1.00 20.00    -0.023 C 
HETATM    2  C2  UNL     1     -34.487   6.441   3.811  1.00 20.00    -0.014 C 
HETATM    3  C3  UNL     1     -32.714   7.620   2.435  1.00 20.00     0.144 C 
HETATM    4  C4  UNL     1     -32.839   5.038   2.609  1.00 20.00     0.028 A 
HETATM    5  C5  UNL     1     -32.106   6.285   2.180  1.00 20.00     0.073 A 
HETATM    6  C6  UNL     1     -33.729   7.733   3.588  1.00 20.00     0.031 C 
HETATM    7  C7  UNL     1     -32.688   5.349   1.133  1.00 20.00    -0.029 A 
HETATM    8  C8  UNL     1     -34.737   8.840   3.241  1.00 20.00     0.027 C 
HETATM    9  C9  UNL     1     -32.963   8.108   4.863  1.00 20.00     0.027 C 
HETATM   10  C10 UNL     1     -31.713   4.502   0.352  1.00 20.00     0.016 C 
HETATM   11  C11 UNL     1     -33.884   5.774   0.316  1.00 20.00     0.016 C 
HETATM   12  O12 UNL     1     -32.340   8.579   1.768  1.00 20.00    -0.296 OA
ENDROOT
TORSDOF 0
ENDMDL
MODEL 3
REMARK VINA RESULT:       3.6      1.581      2.616
REMARK  0 active torsions:
REMARK  status: ('A' for Active; 'I' for Inactive)
ROOT
HETATM    1  C1  UNL     1     -33.270   5.744   1.365  1.00 20.00    -0.023 C 
HETATM    2  C2  UNL     1     -32.259   6.615   1.233  1.00 20.00    -0.014 C 
HETATM    3  C3  UNL     1     -32.920   7.763   3.394  1.00 20.00     0.144 C 
HETATM    4  C4  UNL     1     -34.366   5.900   2.320  1.00 20.00     0.028 A 
HETATM    5  C5  UNL     1     -34.192   6.990   3.349  1.00 20.00     0.073 A 
HETATM    6  C6  UNL     1     -32.088   7.845   2.100  1.00 20.00     0.031 C 
HETATM    7  C7  UNL     1     -34.238   5.535   3.786  1.00 20.00    -0.029 A 
HETATM    8  C8  UNL     1     -30.605   7.973   2.484  1.00 20.00     0.027 C 
HETATM    9  C9  UNL     1     -32.534   9.090   1.324  1.00 20.00     0.027 C 
HETATM   10  C10 UNL     1     -35.490   5.068   4.486  1.00 20.00     0.016 C 
HETATM   11  C11 UNL     1     -32.989   4.857   4.299  1.00 20.00     0.016 C 
HETATM   12  O12 UNL     1     -32.620   8.351   4.428  1.00 20.00    -0.296 OA
ENDROOT
TORSDOF 0
ENDMDL
MODEL 4
REMARK VINA RESULT:       3.8      1.617      4.071
REMARK  0 active torsions:
REMARK  status: ('A' for Active; 'I' for Inactive)
ROOT
HETATM    1  C1  UNL     1     -32.952   5.756   1.192  1.00 20.00    -0.023 C 
HETATM    2  C2  UNL     1     -33.996   5.420   1.963  1.00 20.00    -0.014 C 
HETATM    3  C3  UNL     1     -33.441   7.286   3.587  1.00 20.00     0.144 C 
HETATM    4  C4  UNL     1     -31.889   6.671   1.605  1.00 20.00     0.028 A 
HETATM    5  C5  UNL     1     -32.136   7.431   2.885  1.00 20.00     0.073 A 
HETATM    6  C6  UNL     1     -34.242   5.993   3.343  1.00 20.00     0.031 C 
HETATM    7  C7  UNL     1     -32.038   8.178   1.565  1.00 20.00    -0.029 A 
HETATM    8  C8  UNL     1     -35.739   6.316   3.480  1.00 20.00     0.027 C 
HETATM    9  C9  UNL     1     -33.832   4.968   4.408  1.00 20.00     0.027 C 
HETATM   10  C10 UNL     1     -30.785   8.984   1.323  1.00 20.00     0.016 C 
HETATM   11  C11 UNL     1     -33.269   8.809   0.956  1.00 20.00     0.016 C 
HETATM   12  O12 UNL     1     -33.793   8.160   4.372  1.00 20.00    -0.296 OA
ENDROOT
TORSDOF 0
ENDMDL
MODEL 5
REMARK VINA RESULT:       3.8      0.806      3.822
REMARK  0 active torsions:
REMARK  status: ('A' for Active; 'I' for Inactive)
ROOT
HETATM    1  C1  UNL     1     -33.089   8.368   3.950  1.00 20.00    -0.023 C 
HETATM    2  C2  UNL     1     -33.529   7.189   4.412  1.00 20.00    -0.014 C 
HETATM    3  C3  UNL     1     -33.627   6.263   2.054  1.00 20.00     0.144 C 
HETATM    4  C4  UNL     1     -33.110   8.755   2.540  1.00 20.00     0.028 A 
HETATM    5  C5  UNL     1     -33.438   7.655   1.561  1.00 20.00     0.073 A 
HETATM    6  C6  UNL     1     -34.049   6.078   3.524  1.00 20.00     0.031 C 
HETATM    7  C7  UNL     1     -32.061   8.298   1.546  1.00 20.00    -0.029 A 
HETATM    8  C8  UNL     1     -33.482   4.741   4.028  1.00 20.00     0.027 C 
HETATM    9  C9  UNL     1     -35.582   6.047   3.581  1.00 20.00     0.027 C 
HETATM   10  C10 UNL     1     -31.752   9.231   0.401  1.00 20.00     0.016 C 
HETATM   11  C11 UNL     1     -30.854   7.519   2.012  1.00 20.00     0.016 C 
HETATM   12  O12 UNL     1     -33.504   5.332   1.265  1.00 20.00    -0.296 OA
ENDROOT
TORSDOF 0
ENDMDL
MODEL 6
REMARK VINA RESULT:       3.8      1.684      3.527
REMARK  0 active torsions:
REMARK  status: ('A' for Active; 'I' for Inactive)
ROOT
HETATM    1  C1  UNL     1     -31.928   7.868   1.642  1.00 20.00    -0.023 C 
HETATM    2  C2  UNL     1     -32.319   8.333   2.838  1.00 20.00    -0.014 C 
HETATM    3  C3  UNL     1     -33.858   6.342   3.147  1.00 20.00     0.144 C 
HETATM    4  C4  UNL     1     -32.597   6.783   0.926  1.00 20.00     0.028 A 
HETATM    5  C5  UNL     1     -33.638   6.022   1.709  1.00 20.00     0.073 A 
HETATM    6  C6  UNL     1     -33.472   7.753   3.630  1.00 20.00     0.031 C 
HETATM    7  C7  UNL     1     -32.370   5.320   1.250  1.00 20.00    -0.029 A 
HETATM    8  C8  UNL     1     -33.055   7.662   5.108  1.00 20.00     0.027 C 
HETATM    9  C9  UNL     1     -34.702   8.659   3.492  1.00 20.00     0.027 C 
HETATM   10  C10 UNL     1     -32.503   4.339   0.111  1.00 20.00     0.016 C 
HETATM   11  C11 UNL     1     -31.321   4.914   2.257  1.00 20.00     0.016 C 
HETATM   12  O12 UNL     1     -34.391   5.504   3.867  1.00 20.00    -0.296 OA
ENDROOT
TORSDOF 0
ENDMDL
MODEL 7
REMARK VINA RESULT:       4.3      1.552      2.486
REMARK  0 active torsions:
REMARK  status: ('A' for Active; 'I' for Inactive)
ROOT
HETATM    1  C1  UNL     1     -32.389   8.126   1.803  1.00 20.00    -0.023 C 
HETATM    2  C2  UNL     1     -32.453   7.111   0.928  1.00 20.00    -0.014 C 
HETATM    3  C3  UNL     1     -33.247   5.543   2.755  1.00 20.00     0.144 C 
HETATM    4  C4  UNL     1     -32.469   7.964   3.253  1.00 20.00     0.028 A 
HETATM    5  C5  UNL     1     -32.875   6.595   3.741  1.00 20.00     0.073 A 
HETATM    6  C6  UNL     1     -32.678   5.669   1.329  1.00 20.00     0.031 C 
HETATM    7  C7  UNL     1     -33.782   7.789   3.990  1.00 20.00    -0.029 A 
HETATM    8  C8  UNL     1     -33.681   5.038   0.349  1.00 20.00     0.027 C 
HETATM    9  C9  UNL     1     -31.349   4.905   1.275  1.00 20.00     0.027 C 
HETATM   10  C10 UNL     1     -33.849   8.316   5.403  1.00 20.00     0.016 C 
HETATM   11  C11 UNL     1     -35.095   7.911   3.254  1.00 20.00     0.016 C 
HETATM   12  O12 UNL     1     -33.931   4.596   3.128  1.00 20.00    -0.296 OA
ENDROOT
TORSDOF 0
ENDMDL
MODEL 8
REMARK VINA RESULT:       5.0      1.501      3.008
REMARK  0 active torsions:
REMARK  status: ('A' for Active; 'I' for Inactive)
ROOT
HETATM    1  C1  UNL     1     -34.269   5.303   3.737  1.00 20.00    -0.023 C 
HETATM    2  C2  UNL     1     -33.438   4.777   2.826  1.00 20.00    -0.014 C 
HETATM    3  C3  UNL     1     -32.870   7.092   1.960  1.00 20.00     0.144 C 
HETATM    4  C4  UNL     1     -34.721   6.693   3.729  1.00 20.00     0.028 A 
HETATM    5  C5  UNL     1     -34.013   7.609   2.762  1.00 20.00     0.073 A 
HETATM    6  C6  UNL     1     -32.810   5.574   1.701  1.00 20.00     0.031 C 
HETATM    7  C7  UNL     1     -33.878   7.835   4.259  1.00 20.00    -0.029 A 
HETATM    8  C8  UNL     1     -31.334   5.162   1.572  1.00 20.00     0.027 C 
HETATM    9  C9  UNL     1     -33.547   5.283   0.388  1.00 20.00     0.027 C 
HETATM   10  C10 UNL     1     -34.615   9.016   4.844  1.00 20.00     0.016 C 
HETATM   11  C11 UNL     1     -32.565   7.559   4.952  1.00 20.00     0.016 C 
HETATM   12  O12 UNL     1     -32.067   7.889   1.488  1.00 20.00    -0.296 OA
ENDROOT
TORSDOF 0
ENDMDL
