MODEL 1
REMARK VINA RESULT:      -2.7      0.000      0.000
REMARK  2 active torsions:
REMARK  status: ('A' for Active; 'I' for Inactive)
REMARK    1  A    between atoms: C5_5  and  C6_6 
REMARK    2  A    between atoms: C6_6  and  N7_7 
ROOT
HETATM    1  C1  UNL     1     -35.419   6.110   4.101  1.00 20.00     0.012 C 
HETATM    2  C2  UNL     1     -34.451   6.731   3.760  1.00 20.00    -0.115 C 
HETATM    3  C5  UNL     1     -33.263   7.497   3.349  1.00 20.00     0.128 C 
ENDROOT
BRANCH   3   4
HETATM    4  C6  UNL     1     -32.905   7.263   1.874  1.00 20.00     0.227 C 
HETATM    5  C3  UNL     1     -32.540   5.806   1.588  1.00 20.00     0.043 C 
BRANCH   4   6
HETATM    6  N7  UNL     1     -31.761   8.107   1.521  1.00 20.00     0.084 N 
HETATM    7  C4  UNL     1     -32.188   9.238   0.714  1.00 20.00     0.307 C 
HETATM    8  H18 UNL     1     -31.326   8.444   2.376  1.00 20.00     0.315 HD
ENDBRANCH   4   6
ENDBRANCH   3   4
TORSDOF 2
ENDMDL
MODEL 2
REMARK VINA RESULT:      -2.3      2.213      2.934
REMARK  2 active torsions:
REMARK  status: ('A' for Active; 'I' for Inactive)
REMARK    1  A    between atoms: C5_5  and  C6_6 
REMARK    2  A    between atoms: C6_6  and  N7_7 
ROOT
HETATM    1  C1  UNL     1     -33.173   2.858   4.652  1.00 20.00     0.012 C 
HETATM    2  C2  UNL     1     -33.779   3.819   4.268  1.00 20.00    -0.115 C 
HETATM    3  C5  UNL     1     -34.529   4.995   3.797  1.00 20.00     0.128 C 
ENDROOT
BRANCH   3   4
HETATM    4  C6  UNL     1     -33.613   6.197   3.530  1.00 20.00     0.227 C 
HETATM    5  C3  UNL     1     -34.263   7.524   3.924  1.00 20.00     0.043 C 
BRANCH   4   6
HETATM    6  N7  UNL     1     -33.290   6.243   2.101  1.00 20.00     0.084 N 
HETATM    7  C4  UNL     1     -32.288   7.261   1.834  1.00 20.00     0.307 C 
HETATM    8  H18 UNL     1     -32.938   5.333   1.815  1.00 20.00     0.315 HD
ENDBRANCH   4   6
ENDBRANCH   3   4
TORSDOF 2
ENDMDL
MODEL 3
REMARK VINA RESULT:      -2.2      2.261      4.113
REMARK  2 active torsions:
REMARK  status: ('A' for Active; 'I' for Inactive)
REMARK    1  A    between atoms: C5_5  and  C6_6 
REMARK    2  A    between atoms: C6_6  and  N7_7 
ROOT
HETATM    1  C1  UNL     1     -31.931   7.987   1.635  1.00 20.00     0.012 C 
HETATM    2  C2  UNL     1     -32.651   7.141   2.088  1.00 20.00    -0.115 C 
HETATM    3  C5  UNL     1     -33.530   6.097   2.639  1.00 20.00     0.128 C 
ENDROOT
BRANCH   3   4
HETATM    4  C6  UNL     1     -34.622   6.681   3.547  1.00 20.00     0.227 C 
HETATM    5  C3  UNL     1     -34.071   7.715   4.530  1.00 20.00     0.043 C 
BRANCH   4   6
HETATM    6  N7  UNL     1     -35.237   5.593   4.313  1.00 20.00     0.084 N 
HETATM    7  C4  UNL     1     -34.415   4.396   4.256  1.00 20.00     0.307 C 
HETATM    8  H18 UNL     1     -35.339   5.891   5.280  1.00 20.00     0.315 HD
ENDBRANCH   4   6
ENDBRANCH   3   4
TORSDOF 2
ENDMDL
MODEL 4
REMARK VINA RESULT:      -2.2      1.072      2.022
REMARK  2 active torsions:
REMARK  status: ('A' for Active; 'I' for Inactive)
REMARK    1  A    between atoms: C5_5  and  C6_6 
REMARK    2  A    between atoms: C6_6  and  N7_7 
ROOT
HETATM    1  C1  UNL     1     -35.338   6.023   4.132  1.00 20.00     0.012 C 
HETATM    2  C2  UNL     1     -34.502   6.837   3.853  1.00 20.00    -0.115 C 
HETATM    3  C5  UNL     1     -33.480   7.840   3.515  1.00 20.00     0.128 C 
ENDROOT
BRANCH   3   4
HETATM    4  C6  UNL     1     -32.485   7.322   2.466  1.00 20.00     0.227 C 
HETATM    5  C3  UNL     1     -32.072   8.406   1.470  1.00 20.00     0.043 C 
BRANCH   4   6
HETATM    6  N7  UNL     1     -33.105   6.220   1.724  1.00 20.00     0.084 N 
HETATM    7  C4  UNL     1     -32.090   5.336   1.176  1.00 20.00     0.307 C 
HETATM    8  H18 UNL     1     -33.707   5.699   2.355  1.00 20.00     0.315 HD
ENDBRANCH   4   6
ENDBRANCH   3   4
TORSDOF 2
ENDMDL
MODEL 5
REMARK VINA RESULT:      -2.2      1.503      3.638
REMARK  2 active torsions:
REMARK  status: ('A' for Active; 'I' for Inactive)
REMARK    1  A    between atoms: C5_5  and  C6_6 
REMARK    2  A    between atoms: C6_6  and  N7_7 
ROOT
HETATM    1  C1  UNL     1     -32.453   9.907   0.175  1.00 20.00     0.012 C 
HETATM    2  C2  UNL     1     -32.267   9.036   0.978  1.00 20.00    -0.115 C 
HETATM    3  C5  UNL     1     -32.034   7.967   1.963  1.00 20.00     0.128 C 
ENDROOT
BRANCH   3   4
HETATM    4  C6  UNL     1     -33.338   7.286   2.399  1.00 20.00     0.227 C 
HETATM    5  C3  UNL     1     -33.736   7.650   3.830  1.00 20.00     0.043 C 
BRANCH   4   6
HETATM    6  N7  UNL     1     -33.168   5.832   2.320  1.00 20.00     0.084 N 
HETATM    7  C4  UNL     1     -32.372   5.472   1.158  1.00 20.00     0.307 C 
HETATM    8  H18 UNL     1     -32.702   5.511   3.165  1.00 20.00     0.315 HD
ENDBRANCH   4   6
ENDBRANCH   3   4
TORSDOF 2
ENDMDL
MODEL 6
REMARK VINA RESULT:      -2.0      1.548      3.959
REMARK  2 active torsions:
REMARK  status: ('A' for Active; 'I' for Inactive)
REMARK    1  A    between atoms: C5_5  and  C6_6 
REMARK    2  A    between atoms: C6_6  and  N7_7 
ROOT
HETATM    1  C1  UNL     1     -32.319   9.689   0.361  1.00 20.00     0.012 C 
HETATM    2  C2  UNL     1     -32.272   8.798   1.163  1.00 20.00    -0.115 C 
HETATM    3  C5  UNL     1     -32.210   7.703   2.144  1.00 20.00     0.128 C 
ENDROOT
BRANCH   3   4
HETATM    4  C6  UNL     1     -33.442   7.674   3.059  1.00 20.00     0.227 C 
HETATM    5  C3  UNL     1     -33.124   8.144   4.479  1.00 20.00     0.043 C 
BRANCH   4   6
HETATM    6  N7  UNL     1     -33.955   6.303   3.126  1.00 20.00     0.084 N 
HETATM    7  C4  UNL     1     -35.141   6.239   3.964  1.00 20.00     0.307 C 
HETATM    8  H18 UNL     1     -34.185   5.993   2.186  1.00 20.00     0.315 HD
ENDBRANCH   4   6
ENDBRANCH   3   4
TORSDOF 2
ENDMDL
MODEL 7
REMARK VINA RESULT:      -1.9      1.201      3.524
REMARK  2 active torsions:
REMARK  status: ('A' for Active; 'I' for Inactive)
REMARK    1  A    between atoms: C5_5  and  C6_6 
REMARK    2  A    between atoms: C6_6  and  N7_7 
ROOT
HETATM    1  C1  UNL     1     -32.651   9.784   0.250  1.00 20.00     0.012 C 
HETATM    2  C2  UNL     1     -32.112   8.960   0.936  1.00 20.00    -0.115 C 
HETATM    3  C5  UNL     1     -31.444   7.952   1.775  1.00 20.00     0.128 C 
ENDROOT
BRANCH   3   4
HETATM    4  C6  UNL     1     -32.437   6.940   2.364  1.00 20.00     0.227 C 
HETATM    5  C3  UNL     1     -33.005   5.996   1.304  1.00 20.00     0.043 C 
BRANCH   4   6
HETATM    6  N7  UNL     1     -33.549   7.667   2.983  1.00 20.00     0.084 N 
HETATM    7  C4  UNL     1     -34.412   6.757   3.717  1.00 20.00     0.307 C 
HETATM    8  H18 UNL     1     -33.171   8.366   3.618  1.00 20.00     0.315 HD
ENDBRANCH   4   6
ENDBRANCH   3   4
TORSDOF 2
ENDMDL
MODEL 8
REMARK VINA RESULT:      -1.7      1.633      1.807
REMARK  2 active torsions:
REMARK  status: ('A' for Active; 'I' for Inactive)
REMARK    1  A    between atoms: C5_5  and  C6_6 
REMARK    2  A    between atoms: C6_6  and  N7_7 
ROOT
HETATM    1  C1  UNL     1     -33.781   3.683   4.308  1.00 20.00     0.012 C 
HETATM    2  C2  UNL     1     -34.098   4.799   4.000  1.00 20.00    -0.115 C 
HETATM    3  C5  UNL     1     -34.492   6.167   3.627  1.00 20.00     0.128 C 
ENDROOT
BRANCH   3   4
HETATM    4  C6  UNL     1     -33.702   6.688   2.418  1.00 20.00     0.227 C 
HETATM    5  C3  UNL     1     -32.902   5.583   1.725  1.00 20.00     0.043 C 
BRANCH   4   6
HETATM    6  N7  UNL     1     -32.769   7.724   2.869  1.00 20.00     0.084 N 
HETATM    7  C4  UNL     1     -31.873   8.112   1.791  1.00 20.00     0.307 C 
HETATM    8  H18 UNL     1     -33.302   8.533   3.177  1.00 20.00     0.315 HD
ENDBRANCH   4   6
ENDBRANCH   3   4
TORSDOF 2
ENDMDL
MODEL 9
REMARK VINA RESULT:      -1.6      2.005      3.564
REMARK  2 active torsions:
REMARK  status: ('A' for Active; 'I' for Inactive)
REMARK    1  A    between atoms: C5_5  and  C6_6 
REMARK    2  A    between atoms: C6_6  and  N7_7 
ROOT
HETATM    1  C1  UNL     1     -31.793   7.964   1.508  1.00 20.00     0.012 C 
HETATM    2  C2  UNL     1     -32.398   6.950   1.723  1.00 20.00    -0.115 C 
HETATM    3  C5  UNL     1     -33.140   5.705   1.981  1.00 20.00     0.128 C 
ENDROOT
BRANCH   3   4
HETATM    4  C6  UNL     1     -33.579   5.585   3.447  1.00 20.00     0.227 C 
HETATM    5  C3  UNL     1     -34.007   4.163   3.813  1.00 20.00     0.043 C 
BRANCH   4   6
HETATM    6  N7  UNL     1     -34.711   6.486   3.681  1.00 20.00     0.084 N 
HETATM    7  C4  UNL     1     -34.284   7.666   4.415  1.00 20.00     0.307 C 
HETATM    8  H18 UNL     1     -35.099   6.764   2.783  1.00 20.00     0.315 HD
ENDBRANCH   4   6
ENDBRANCH   3   4
TORSDOF 2
ENDMDL
