MODEL 1
REMARK VINA RESULT:      -2.2      0.000      0.000
REMARK  3 active torsions:
REMARK  status: ('A' for Active; 'I' for Inactive)
REMARK    1  A    between atoms: C2_2  and  C3_3 
REMARK    2  A    between atoms: C3_3  and  C4_4 
REMARK    3  A    between atoms: C3_3  and  O5_5 
ROOT
HETATM    1  C3  UNL     1     -32.655   7.477   2.325  1.00 20.00     0.362 C 
HETATM    2  F8  UNL     1     -31.388   7.813   2.688  1.00 20.00    -0.195 F 
ENDROOT
BRANCH   1   3
HETATM    3  C2  UNL     1     -32.655   6.069   1.747  1.00 20.00     0.429 C 
HETATM    4  F6  UNL     1     -31.429   5.768   1.250  1.00 20.00    -0.208 F 
HETATM    5  F7  UNL     1     -33.513   5.992   0.701  1.00 20.00    -0.208 F 
ENDBRANCH   1   3
BRANCH   1   6
HETATM    6  C4  UNL     1     -33.527   7.568   3.563  1.00 20.00     0.455 C 
HETATM    7  F9  UNL     1     -34.101   6.380   3.852  1.00 20.00    -0.165 F 
HETATM    8  F10 UNL     1     -34.522   8.467   3.388  1.00 20.00    -0.165 F 
HETATM    9  F11 UNL     1     -32.812   7.952   4.642  1.00 20.00    -0.165 F 
ENDBRANCH   1   6
BRANCH   1  10
HETATM   10  O5  UNL     1     -33.139   8.458   1.406  1.00 20.00    -0.345 OA
HETATM   11  C1  UNL     1     -32.133   9.186   0.720  1.00 20.00     0.206 C 
ENDBRANCH   1  10
TORSDOF 3
ENDMDL
MODEL 2
REMARK VINA RESULT:      -2.2      0.012      1.138
REMARK  3 active torsions:
REMARK  status: ('A' for Active; 'I' for Inactive)
REMARK    1  A    between atoms: C2_2  and  C3_3 
REMARK    2  A    between atoms: C3_3  and  C4_4 
REMARK    3  A    between atoms: C3_3  and  O5_5 
ROOT
HETATM    1  C3  UNL     1     -32.653   7.479   2.328  1.00 20.00     0.362 C 
HETATM    2  F8  UNL     1     -31.387   7.816   2.694  1.00 20.00    -0.195 F 
ENDROOT
BRANCH   1   3
HETATM    3  C2  UNL     1     -32.651   6.069   1.756  1.00 20.00     0.429 C 
HETATM    4  F6  UNL     1     -31.431   5.776   1.238  1.00 20.00    -0.208 F 
HETATM    5  F7  UNL     1     -33.527   5.982   0.724  1.00 20.00    -0.208 F 
ENDBRANCH   1   3
BRANCH   1   6
HETATM    6  C4  UNL     1     -33.529   7.575   3.564  1.00 20.00     0.455 C 
HETATM    7  F9  UNL     1     -32.814   7.949   4.648  1.00 20.00    -0.165 F 
HETATM    8  F10 UNL     1     -34.097   6.381   3.846  1.00 20.00    -0.165 F 
HETATM    9  F11 UNL     1     -34.522   8.474   3.395  1.00 20.00    -0.165 F 
ENDBRANCH   1   6
BRANCH   1  10
HETATM   10  O5  UNL     1     -33.135   8.456   1.405  1.00 20.00    -0.345 OA
HETATM   11  C1  UNL     1     -32.126   9.187   0.724  1.00 20.00     0.206 C 
ENDBRANCH   1  10
TORSDOF 3
ENDMDL
MODEL 3
REMARK VINA RESULT:      -2.2      0.023      1.140
REMARK  3 active torsions:
REMARK  status: ('A' for Active; 'I' for Inactive)
REMARK    1  A    between atoms: C2_2  and  C3_3 
REMARK    2  A    between atoms: C3_3  and  C4_4 
REMARK    3  A    between atoms: C3_3  and  O5_5 
ROOT
HETATM    1  C3  UNL     1     -32.658   7.464   2.321  1.00 20.00     0.362 C 
HETATM    2  F8  UNL     1     -31.395   7.812   2.688  1.00 20.00    -0.195 F 
ENDROOT
BRANCH   1   3
HETATM    3  C2  UNL     1     -32.645   6.049   1.759  1.00 20.00     0.429 C 
HETATM    4  F6  UNL     1     -31.421   5.760   1.249  1.00 20.00    -0.208 F 
HETATM    5  F7  UNL     1     -33.516   5.949   0.725  1.00 20.00    -0.208 F 
ENDBRANCH   1   3
BRANCH   1   6
HETATM    6  C4  UNL     1     -33.538   7.564   3.553  1.00 20.00     0.455 C 
HETATM    7  F9  UNL     1     -34.526   8.468   3.382  1.00 20.00    -0.165 F 
HETATM    8  F10 UNL     1     -32.818   7.950   4.630  1.00 20.00    -0.165 F 
HETATM    9  F11 UNL     1     -34.112   6.378   3.846  1.00 20.00    -0.165 F 
ENDBRANCH   1   6
BRANCH   1  10
HETATM   10  O5  UNL     1     -33.143   8.431   1.388  1.00 20.00    -0.345 OA
HETATM   11  C1  UNL     1     -32.139   9.201   0.745  1.00 20.00     0.206 C 
ENDBRANCH   1  10
TORSDOF 3
ENDMDL
MODEL 4
REMARK VINA RESULT:      -1.8      1.544      2.693
REMARK  3 active torsions:
REMARK  status: ('A' for Active; 'I' for Inactive)
REMARK    1  A    between atoms: C2_2  and  C3_3 
REMARK    2  A    between atoms: C3_3  and  C4_4 
REMARK    3  A    between atoms: C3_3  and  O5_5 
ROOT
HETATM    1  C3  UNL     1     -33.095   6.661   2.040  1.00 20.00     0.362 C 
HETATM    2  F8  UNL     1     -33.910   6.599   0.953  1.00 20.00    -0.195 F 
ENDROOT
BRANCH   1   3
HETATM    3  C2  UNL     1     -32.329   7.976   2.019  1.00 20.00     0.429 C 
HETATM    4  F6  UNL     1     -32.508   8.601   0.828  1.00 20.00    -0.208 F 
HETATM    5  F7  UNL     1     -30.997   7.743   2.124  1.00 20.00    -0.208 F 
ENDBRANCH   1   3
BRANCH   1   6
HETATM    6  C4  UNL     1     -33.968   6.547   3.276  1.00 20.00     0.455 C 
HETATM    7  F9  UNL     1     -35.265   6.792   2.988  1.00 20.00    -0.165 F 
HETATM    8  F10 UNL     1     -33.588   7.438   4.219  1.00 20.00    -0.165 F 
HETATM    9  F11 UNL     1     -33.893   5.314   3.821  1.00 20.00    -0.165 F 
ENDBRANCH   1   6
BRANCH   1  10
HETATM   10  O5  UNL     1     -32.240   5.516   2.033  1.00 20.00    -0.345 OA
HETATM   11  C1  UNL     1     -32.093   4.885   0.770  1.00 20.00     0.206 C 
ENDBRANCH   1  10
TORSDOF 3
ENDMDL
MODEL 5
REMARK VINA RESULT:      -1.8      1.522      2.976
REMARK  3 active torsions:
REMARK  status: ('A' for Active; 'I' for Inactive)
REMARK    1  A    between atoms: C2_2  and  C3_3 
REMARK    2  A    between atoms: C3_3  and  C4_4 
REMARK    3  A    between atoms: C3_3  and  O5_5 
ROOT
HETATM    1  C3  UNL     1     -32.367   7.650   1.952  1.00 20.00     0.362 C 
HETATM    2  F8  UNL     1     -31.140   7.686   2.539  1.00 20.00    -0.195 F 
ENDROOT
BRANCH   1   3
HETATM    3  C2  UNL     1     -32.369   8.567   0.737  1.00 20.00     0.429 C 
HETATM    4  F6  UNL     1     -31.123   8.640   0.205  1.00 20.00    -0.208 F 
HETATM    5  F7  UNL     1     -32.695   9.830   1.105  1.00 20.00    -0.208 F 
ENDBRANCH   1   3
BRANCH   1   6
HETATM    6  C4  UNL     1     -32.647   6.211   1.562  1.00 20.00     0.455 C 
HETATM    7  F9  UNL     1     -33.430   6.140   0.464  1.00 20.00    -0.165 F 
HETATM    8  F10 UNL     1     -33.286   5.557   2.558  1.00 20.00    -0.165 F 
HETATM    9  F11 UNL     1     -31.506   5.541   1.297  1.00 20.00    -0.165 F 
ENDBRANCH   1   6
BRANCH   1  10
HETATM   10  O5  UNL     1     -33.347   8.012   2.927  1.00 20.00    -0.345 OA
HETATM   11  C1  UNL     1     -32.863   8.108   4.257  1.00 20.00     0.206 C 
ENDBRANCH   1  10
TORSDOF 3
ENDMDL
MODEL 6
REMARK VINA RESULT:      -1.7      1.843      3.464
REMARK  3 active torsions:
REMARK  status: ('A' for Active; 'I' for Inactive)
REMARK    1  A    between atoms: C2_2  and  C3_3 
REMARK    2  A    between atoms: C3_3  and  C4_4 
REMARK    3  A    between atoms: C3_3  and  O5_5 
ROOT
HETATM    1  C3  UNL     1     -32.158   7.933   1.684  1.00 20.00     0.362 C 
HETATM    2  F8  UNL     1     -30.888   7.460   1.808  1.00 20.00    -0.195 F 
ENDROOT
BRANCH   1   3
HETATM    3  C2  UNL     1     -32.610   8.513   3.016  1.00 20.00     0.429 C 
HETATM    4  F6  UNL     1     -31.544   8.682   3.838  1.00 20.00    -0.208 F 
HETATM    5  F7  UNL     1     -33.437   7.643   3.648  1.00 20.00    -0.208 F 
ENDBRANCH   1   3
BRANCH   1   6
HETATM    6  C4  UNL     1     -32.150   8.989   0.594  1.00 20.00     0.455 C 
HETATM    7  F9  UNL     1     -33.068   8.721  -0.360  1.00 20.00    -0.165 F 
HETATM    8  F10 UNL     1     -30.942   9.048  -0.012  1.00 20.00    -0.165 F 
HETATM    9  F11 UNL     1     -32.420  10.214   1.092  1.00 20.00    -0.165 F 
ENDBRANCH   1   6
BRANCH   1  10
HETATM   10  O5  UNL     1     -32.995   6.871   1.223  1.00 20.00    -0.345 OA
HETATM   11  C1  UNL     1     -32.445   5.570   1.360  1.00 20.00     0.206 C 
ENDBRANCH   1  10
TORSDOF 3
ENDMDL
MODEL 7
REMARK VINA RESULT:      -1.6      1.253      3.200
REMARK  3 active torsions:
REMARK  status: ('A' for Active; 'I' for Inactive)
REMARK    1  A    between atoms: C2_2  and  C3_3 
REMARK    2  A    between atoms: C3_3  and  C4_4 
REMARK    3  A    between atoms: C3_3  and  O5_5 
ROOT
HETATM    1  C3  UNL     1     -33.091   6.781   2.139  1.00 20.00     0.362 C 
HETATM    2  F8  UNL     1     -33.985   7.249   1.227  1.00 20.00    -0.195 F 
ENDROOT
BRANCH   1   3
HETATM    3  C2  UNL     1     -33.758   6.708   3.505  1.00 20.00     0.429 C 
HETATM    4  F6  UNL     1     -35.095   6.524   3.362  1.00 20.00    -0.208 F 
HETATM    5  F7  UNL     1     -33.609   7.885   4.162  1.00 20.00    -0.208 F 
ENDBRANCH   1   3
BRANCH   1   6
HETATM    6  C4  UNL     1     -32.632   5.412   1.672  1.00 20.00     0.455 C 
HETATM    7  F9  UNL     1     -33.240   5.055   0.519  1.00 20.00    -0.165 F 
HETATM    8  F10 UNL     1     -32.922   4.465   2.593  1.00 20.00    -0.165 F 
HETATM    9  F11 UNL     1     -31.300   5.384   1.460  1.00 20.00    -0.165 F 
ENDBRANCH   1   6
BRANCH   1  10
HETATM   10  O5  UNL     1     -31.940   7.628   2.124  1.00 20.00    -0.345 OA
HETATM   11  C1  UNL     1     -31.983   8.681   1.173  1.00 20.00     0.206 C 
ENDBRANCH   1  10
TORSDOF 3
ENDMDL
MODEL 8
REMARK VINA RESULT:      -1.6      2.049      3.103
REMARK  3 active torsions:
REMARK  status: ('A' for Active; 'I' for Inactive)
REMARK    1  A    between atoms: C2_2  and  C3_3 
REMARK    2  A    between atoms: C3_3  and  C4_4 
REMARK    3  A    between atoms: C3_3  and  O5_5 
ROOT
HETATM    1  C3  UNL     1     -33.986   6.404   3.495  1.00 20.00     0.362 C 
HETATM    2  F8  UNL     1     -33.096   5.511   4.007  1.00 20.00    -0.195 F 
ENDROOT
BRANCH   1   3
HETATM    3  C2  UNL     1     -35.347   6.179   4.135  1.00 20.00     0.429 C 
HETATM    4  F6  UNL     1     -35.500   4.871   4.461  1.00 20.00    -0.208 F 
HETATM    5  F7  UNL     1     -36.333   6.463   3.248  1.00 20.00    -0.208 F 
ENDBRANCH   1   3
BRANCH   1   6
HETATM    6  C4  UNL     1     -33.458   7.796   3.787  1.00 20.00     0.455 C 
HETATM    7  F9  UNL     1     -32.412   8.106   2.989  1.00 20.00    -0.165 F 
HETATM    8  F10 UNL     1     -33.032   7.892   5.067  1.00 20.00    -0.165 F 
HETATM    9  F11 UNL     1     -34.410   8.734   3.599  1.00 20.00    -0.165 F 
ENDBRANCH   1   6
BRANCH   1  10
HETATM   10  O5  UNL     1     -34.006   6.261   2.073  1.00 20.00    -0.345 OA
HETATM   11  C1  UNL     1     -32.874   5.608   1.520  1.00 20.00     0.206 C 
ENDBRANCH   1  10
TORSDOF 3
ENDMDL
MODEL 9
REMARK VINA RESULT:      -1.6      1.741      2.914
REMARK  3 active torsions:
REMARK  status: ('A' for Active; 'I' for Inactive)
REMARK    1  A    between atoms: C2_2  and  C3_3 
REMARK    2  A    between atoms: C3_3  and  C4_4 
REMARK    3  A    between atoms: C3_3  and  O5_5 
ROOT
HETATM    1  C3  UNL     1     -33.103   6.857   2.272  1.00 20.00     0.362 C 
HETATM    2  F8  UNL     1     -34.138   7.025   1.405  1.00 20.00    -0.195 F 
ENDROOT
BRANCH   1   3
HETATM    3  C2  UNL     1     -32.508   5.469   2.081  1.00 20.00     0.429 C 
HETATM    4  F6  UNL     1     -32.700   5.050   0.805  1.00 20.00    -0.208 F 
HETATM    5  F7  UNL     1     -33.150   4.573   2.871  1.00 20.00    -0.208 F 
ENDBRANCH   1   3
BRANCH   1   6
HETATM    6  C4  UNL     1     -32.083   7.943   1.984  1.00 20.00     0.455 C 
HETATM    7  F9  UNL     1     -31.023   7.456   1.302  1.00 20.00    -0.165 F 
HETATM    8  F10 UNL     1     -31.613   8.480   3.132  1.00 20.00    -0.165 F 
HETATM    9  F11 UNL     1     -32.620   8.941   1.251  1.00 20.00    -0.165 F 
ENDBRANCH   1   6
BRANCH   1  10
HETATM   10  O5  UNL     1     -33.581   7.082   3.599  1.00 20.00    -0.345 OA
HETATM   11  C1  UNL     1     -34.937   6.725   3.817  1.00 20.00     0.206 C 
ENDBRANCH   1  10
TORSDOF 3
ENDMDL
