MODEL 1
REMARK VINA RESULT:       0.1      0.000      0.000
REMARK  1 active torsions:
REMARK  status: ('A' for Active; 'I' for Inactive)
REMARK    1  A    between atoms: C3_3  and  C7_7 
ROOT
HETATM    1  C1  UNL     1     -34.818   5.587   4.059  1.00 20.00     0.220 A 
HETATM    2  C2  UNL     1     -34.435   7.036   3.711  1.00 20.00     0.128 A 
HETATM    3  C3  UNL     1     -33.068   6.447   3.284  1.00 20.00     0.100 A 
HETATM    4  N8  UNL     1     -33.602   5.138   3.647  1.00 20.00    -0.355 N 
HETATM    5  O9  UNL     1     -35.787   5.021   4.511  1.00 20.00    -0.274 OA
HETATM    6  H22 UNL     1     -33.222   4.202   3.633  1.00 20.00     0.162 HD
ENDROOT
BRANCH   3   7
HETATM    7  C7  UNL     1     -32.710   6.513   1.793  1.00 20.00    -0.030 C 
HETATM    8  C4  UNL     1     -33.991   6.421   0.953  1.00 20.00     0.016 C 
HETATM    9  C5  UNL     1     -31.780   5.343   1.439  1.00 20.00     0.016 C 
HETATM   10  C6  UNL     1     -31.997   7.840   1.496  1.00 20.00     0.016 C 
ENDBRANCH   3   7
TORSDOF 1
ENDMDL
MODEL 2
REMARK VINA RESULT:       0.1      0.001      1.448
REMARK  1 active torsions:
REMARK  status: ('A' for Active; 'I' for Inactive)
REMARK    1  A    between atoms: C3_3  and  C7_7 
ROOT
HETATM    1  C1  UNL     1     -34.818   5.586   4.059  1.00 20.00     0.220 A 
HETATM    2  C2  UNL     1     -34.435   7.035   3.710  1.00 20.00     0.128 A 
HETATM    3  C3  UNL     1     -33.069   6.446   3.284  1.00 20.00     0.100 A 
HETATM    4  N8  UNL     1     -33.602   5.138   3.648  1.00 20.00    -0.355 N 
HETATM    5  O9  UNL     1     -35.786   5.020   4.511  1.00 20.00    -0.274 OA
HETATM    6  H22 UNL     1     -33.221   4.202   3.635  1.00 20.00     0.162 HD
ENDROOT
BRANCH   3   7
HETATM    7  C7  UNL     1     -32.710   6.512   1.793  1.00 20.00    -0.030 C 
HETATM    8  C4  UNL     1     -31.781   5.342   1.438  1.00 20.00     0.016 C 
HETATM    9  C5  UNL     1     -31.997   7.840   1.497  1.00 20.00     0.016 C 
HETATM   10  C6  UNL     1     -33.992   6.421   0.953  1.00 20.00     0.016 C 
ENDBRANCH   3   7
TORSDOF 1
ENDMDL
MODEL 3
REMARK VINA RESULT:       0.1      2.524      3.847
REMARK  1 active torsions:
REMARK  status: ('A' for Active; 'I' for Inactive)
REMARK    1  A    between atoms: C3_3  and  C7_7 
ROOT
HETATM    1  C1  UNL     1     -32.394   7.933   1.513  1.00 20.00     0.220 A 
HETATM    2  C2  UNL     1     -33.117   6.584   1.349  1.00 20.00     0.128 A 
HETATM    3  C3  UNL     1     -33.008   6.473   2.889  1.00 20.00     0.100 A 
HETATM    4  N8  UNL     1     -32.352   7.777   2.863  1.00 20.00    -0.355 N 
HETATM    5  O9  UNL     1     -32.003   8.813   0.781  1.00 20.00    -0.274 OA
HETATM    6  H22 UNL     1     -31.966   8.377   3.579  1.00 20.00     0.162 HD
ENDROOT
BRANCH   3   7
HETATM    7  C7  UNL     1     -34.316   6.519   3.690  1.00 20.00    -0.030 C 
HETATM    8  C4  UNL     1     -35.477   6.890   2.756  1.00 20.00     0.016 C 
HETATM    9  C5  UNL     1     -34.198   7.571   4.803  1.00 20.00     0.016 C 
HETATM   10  C6  UNL     1     -34.582   5.142   4.315  1.00 20.00     0.016 C 
ENDBRANCH   3   7
TORSDOF 1
ENDMDL
MODEL 4
REMARK VINA RESULT:       0.1      2.520      3.809
REMARK  1 active torsions:
REMARK  status: ('A' for Active; 'I' for Inactive)
REMARK    1  A    between atoms: C3_3  and  C7_7 
ROOT
HETATM    1  C1  UNL     1     -32.387   7.916   1.515  1.00 20.00     0.220 A 
HETATM    2  C2  UNL     1     -33.131   6.578   1.357  1.00 20.00     0.128 A 
HETATM    3  C3  UNL     1     -33.021   6.471   2.898  1.00 20.00     0.100 A 
HETATM    4  N8  UNL     1     -32.345   7.764   2.866  1.00 20.00    -0.355 N 
HETATM    5  O9  UNL     1     -31.984   8.787   0.779  1.00 20.00    -0.274 OA
HETATM    6  H22 UNL     1     -31.948   8.361   3.578  1.00 20.00     0.162 HD
ENDROOT
BRANCH   3   7
HETATM    7  C7  UNL     1     -34.327   6.539   3.702  1.00 20.00    -0.030 C 
HETATM    8  C4  UNL     1     -34.184   7.579   4.823  1.00 20.00     0.016 C 
HETATM    9  C5  UNL     1     -34.622   5.162   4.315  1.00 20.00     0.016 C 
HETATM   10  C6  UNL     1     -35.480   6.944   2.772  1.00 20.00     0.016 C 
ENDBRANCH   3   7
TORSDOF 1
ENDMDL
MODEL 5
REMARK VINA RESULT:       0.3      2.261      3.566
REMARK  1 active torsions:
REMARK  status: ('A' for Active; 'I' for Inactive)
REMARK    1  A    between atoms: C3_3  and  C7_7 
ROOT
HETATM    1  C1  UNL     1     -32.067   5.690   1.353  1.00 20.00     0.220 A 
HETATM    2  C2  UNL     1     -32.161   7.058   2.050  1.00 20.00     0.128 A 
HETATM    3  C3  UNL     1     -33.682   6.781   2.129  1.00 20.00     0.100 A 
HETATM    4  N8  UNL     1     -33.410   5.506   1.474  1.00 20.00    -0.355 N 
HETATM    5  O9  UNL     1     -31.191   5.007   0.876  1.00 20.00    -0.274 OA
HETATM    6  H22 UNL     1     -33.993   4.736   1.176  1.00 20.00     0.162 HD
ENDROOT
BRANCH   3   7
HETATM    7  C7  UNL     1     -34.289   6.578   3.524  1.00 20.00    -0.030 C 
HETATM    8  C4  UNL     1     -33.735   7.642   4.482  1.00 20.00     0.016 C 
HETATM    9  C5  UNL     1     -33.921   5.180   4.042  1.00 20.00     0.016 C 
HETATM   10  C6  UNL     1     -35.817   6.708   3.442  1.00 20.00     0.016 C 
ENDBRANCH   3   7
TORSDOF 1
ENDMDL
MODEL 6
REMARK VINA RESULT:       0.3      3.010      4.004
REMARK  1 active torsions:
REMARK  status: ('A' for Active; 'I' for Inactive)
REMARK    1  A    between atoms: C3_3  and  C7_7 
ROOT
HETATM    1  C1  UNL     1     -32.336   9.382   0.696  1.00 20.00     0.220 A 
HETATM    2  C2  UNL     1     -31.393   8.201   0.405  1.00 20.00     0.128 A 
HETATM    3  C3  UNL     1     -31.892   7.625   1.753  1.00 20.00     0.100 A 
HETATM    4  N8  UNL     1     -32.742   8.806   1.859  1.00 20.00    -0.355 N 
HETATM    5  O9  UNL     1     -32.636  10.419   0.151  1.00 20.00    -0.274 OA
HETATM    6  H22 UNL     1     -33.401   9.130   2.553  1.00 20.00     0.162 HD
ENDROOT
BRANCH   3   7
HETATM    7  C7  UNL     1     -32.723   6.336   1.701  1.00 20.00    -0.030 C 
HETATM    8  C4  UNL     1     -33.586   6.233   2.967  1.00 20.00     0.016 C 
HETATM    9  C5  UNL     1     -31.783   5.124   1.622  1.00 20.00     0.016 C 
HETATM   10  C6  UNL     1     -33.631   6.361   0.463  1.00 20.00     0.016 C 
ENDBRANCH   3   7
TORSDOF 1
ENDMDL
MODEL 7
REMARK VINA RESULT:       0.3      2.271      3.565
REMARK  1 active torsions:
REMARK  status: ('A' for Active; 'I' for Inactive)
REMARK    1  A    between atoms: C3_3  and  C7_7 
ROOT
HETATM    1  C1  UNL     1     -32.116   5.609   1.249  1.00 20.00     0.220 A 
HETATM    2  C2  UNL     1     -32.148   6.983   1.939  1.00 20.00     0.128 A 
HETATM    3  C3  UNL     1     -33.670   6.743   2.086  1.00 20.00     0.100 A 
HETATM    4  N8  UNL     1     -33.456   5.457   1.431  1.00 20.00    -0.355 N 
HETATM    5  O9  UNL     1     -31.277   4.903   0.739  1.00 20.00    -0.274 OA
HETATM    6  H22 UNL     1     -34.069   4.699   1.165  1.00 20.00     0.162 HD
ENDROOT
BRANCH   3   7
HETATM    7  C7  UNL     1     -34.219   6.563   3.508  1.00 20.00    -0.030 C 
HETATM    8  C4  UNL     1     -35.752   6.646   3.480  1.00 20.00     0.016 C 
HETATM    9  C5  UNL     1     -33.663   7.672   4.414  1.00 20.00     0.016 C 
HETATM   10  C6  UNL     1     -33.790   5.193   4.054  1.00 20.00     0.016 C 
ENDBRANCH   3   7
TORSDOF 1
ENDMDL
MODEL 8
REMARK VINA RESULT:       0.4      1.455      2.094
REMARK  1 active torsions:
REMARK  status: ('A' for Active; 'I' for Inactive)
REMARK    1  A    between atoms: C3_3  and  C7_7 
ROOT
HETATM    1  C1  UNL     1     -33.721   5.347   3.146  1.00 20.00     0.220 A 
HETATM    2  C2  UNL     1     -33.166   5.509   1.720  1.00 20.00     0.128 A 
HETATM    3  C3  UNL     1     -33.475   7.016   1.898  1.00 20.00     0.100 A 
HETATM    4  N8  UNL     1     -33.947   6.685   3.239  1.00 20.00    -0.355 N 
HETATM    5  O9  UNL     1     -33.903   4.434   3.918  1.00 20.00    -0.274 OA
HETATM    6  H22 UNL     1     -34.337   7.231   3.995  1.00 20.00     0.162 HD
ENDROOT
BRANCH   3   7
HETATM    7  C7  UNL     1     -32.280   7.977   1.946  1.00 20.00    -0.030 C 
HETATM    8  C4  UNL     1     -32.532   9.156   0.994  1.00 20.00     0.016 C 
HETATM    9  C5  UNL     1     -31.008   7.233   1.512  1.00 20.00     0.016 C 
HETATM   10  C6  UNL     1     -32.102   8.504   3.377  1.00 20.00     0.016 C 
ENDBRANCH   3   7
TORSDOF 1
ENDMDL
MODEL 9
REMARK VINA RESULT:       0.4      1.457      2.410
REMARK  1 active torsions:
REMARK  status: ('A' for Active; 'I' for Inactive)
REMARK    1  A    between atoms: C3_3  and  C7_7 
ROOT
HETATM    1  C1  UNL     1     -33.713   5.347   3.139  1.00 20.00     0.220 A 
HETATM    2  C2  UNL     1     -33.158   5.512   1.713  1.00 20.00     0.128 A 
HETATM    3  C3  UNL     1     -33.470   7.018   1.894  1.00 20.00     0.100 A 
HETATM    4  N8  UNL     1     -33.941   6.684   3.234  1.00 20.00    -0.355 N 
HETATM    5  O9  UNL     1     -33.893   4.432   3.909  1.00 20.00    -0.274 OA
HETATM    6  H22 UNL     1     -34.332   7.228   3.991  1.00 20.00     0.162 HD
ENDROOT
BRANCH   3   7
HETATM    7  C7  UNL     1     -32.276   7.981   1.942  1.00 20.00    -0.030 C 
HETATM    8  C4  UNL     1     -32.102   8.509   3.373  1.00 20.00     0.016 C 
HETATM    9  C5  UNL     1     -32.530   9.158   0.989  1.00 20.00     0.016 C 
HETATM   10  C6  UNL     1     -31.002   7.240   1.511  1.00 20.00     0.016 C 
ENDBRANCH   3   7
TORSDOF 1
ENDMDL
