MODEL 1
REMARK VINA RESULT:      -1.7      0.000      0.000
REMARK  0 active torsions:
REMARK  status: ('A' for Active; 'I' for Inactive)
ROOT
HETATM    1  C1  UNL     1     -33.219   6.074   2.292  1.00 20.00    -0.032 A 
HETATM    2  C2  UNL     1     -32.975   7.325   2.692  1.00 20.00     0.056 A 
HETATM    3  C3  UNL     1     -34.323   5.592   3.171  1.00 20.00     0.157 A 
HETATM    4  C4  UNL     1     -32.622   5.252   1.213  1.00 20.00     0.048 C 
HETATM    5  C5  UNL     1     -31.979   8.296   2.164  1.00 20.00     0.072 C 
HETATM    6  C6  UNL     1     -33.954   4.399   4.039  1.00 20.00     0.041 C 
HETATM    7  N7  UNL     1     -33.788   7.709   3.731  1.00 20.00    -0.160 NA
HETATM    8  N8  UNL     1     -34.573   6.770   4.046  1.00 20.00    -0.183 NA
ENDROOT
TORSDOF 0
ENDMDL
MODEL 2
REMARK VINA RESULT:      -1.5      1.091      2.898
REMARK  0 active torsions:
REMARK  status: ('A' for Active; 'I' for Inactive)
ROOT
HETATM    1  C1  UNL     1     -33.079   6.605   2.292  1.00 20.00    -0.032 A 
HETATM    2  C2  UNL     1     -33.858   6.826   3.354  1.00 20.00     0.056 A 
HETATM    3  C3  UNL     1     -32.071   7.704   2.312  1.00 20.00     0.157 A 
HETATM    4  C4  UNL     1     -33.090   5.531   1.270  1.00 20.00     0.048 C 
HETATM    5  C5  UNL     1     -35.025   6.040   3.835  1.00 20.00     0.072 C 
HETATM    6  C6  UNL     1     -32.116   8.615   1.096  1.00 20.00     0.041 C 
HETATM    7  N7  UNL     1     -33.476   7.943   4.058  1.00 20.00    -0.160 NA
HETATM    8  N8  UNL     1     -32.470   8.482   3.517  1.00 20.00    -0.183 NA
ENDROOT
TORSDOF 0
ENDMDL
MODEL 3
REMARK VINA RESULT:      -1.4      1.732      2.352
REMARK  0 active torsions:
REMARK  status: ('A' for Active; 'I' for Inactive)
ROOT
HETATM    1  C1  UNL     1     -33.295   7.353   3.555  1.00 20.00    -0.032 A 
HETATM    2  C2  UNL     1     -32.732   7.333   2.345  1.00 20.00     0.056 A 
HETATM    3  C3  UNL     1     -33.974   6.032   3.692  1.00 20.00     0.157 A 
HETATM    4  C4  UNL     1     -33.292   8.379   4.626  1.00 20.00     0.048 C 
HETATM    5  C5  UNL     1     -31.916   8.383   1.678  1.00 20.00     0.072 C 
HETATM    6  C6  UNL     1     -35.483   6.121   3.859  1.00 20.00     0.041 C 
HETATM    7  N7  UNL     1     -32.970   6.155   1.677  1.00 20.00    -0.160 NA
HETATM    8  N8  UNL     1     -33.668   5.380   2.389  1.00 20.00    -0.183 NA
ENDROOT
TORSDOF 0
ENDMDL
MODEL 4
REMARK VINA RESULT:      -1.4      1.884      3.496
REMARK  0 active torsions:
REMARK  status: ('A' for Active; 'I' for Inactive)
ROOT
HETATM    1  C1  UNL     1     -33.738   6.584   3.181  1.00 20.00    -0.032 A 
HETATM    2  C2  UNL     1     -33.591   5.257   3.139  1.00 20.00     0.056 A 
HETATM    3  C3  UNL     1     -33.095   7.087   1.933  1.00 20.00     0.157 A 
HETATM    4  C4  UNL     1     -34.398   7.470   4.170  1.00 20.00     0.048 C 
HETATM    5  C5  UNL     1     -34.048   4.236   4.120  1.00 20.00     0.072 C 
HETATM    6  C6  UNL     1     -31.907   8.006   2.170  1.00 20.00     0.041 C 
HETATM    7  N7  UNL     1     -32.923   4.841   2.012  1.00 20.00    -0.160 NA
HETATM    8  N8  UNL     1     -32.617   5.831   1.291  1.00 20.00    -0.183 NA
ENDROOT
TORSDOF 0
ENDMDL
MODEL 5
REMARK VINA RESULT:      -1.1      1.664      2.820
REMARK  0 active torsions:
REMARK  status: ('A' for Active; 'I' for Inactive)
ROOT
HETATM    1  C1  UNL     1     -33.746   6.600   3.083  1.00 20.00    -0.032 A 
HETATM    2  C2  UNL     1     -32.894   6.375   2.080  1.00 20.00     0.056 A 
HETATM    3  C3  UNL     1     -33.502   8.013   3.494  1.00 20.00     0.157 A 
HETATM    4  C4  UNL     1     -34.772   5.737   3.715  1.00 20.00     0.048 C 
HETATM    5  C5  UNL     1     -32.702   5.137   1.279  1.00 20.00     0.072 C 
HETATM    6  C6  UNL     1     -33.012   8.171   4.924  1.00 20.00     0.041 C 
HETATM    7  N7  UNL     1     -32.122   7.476   1.794  1.00 20.00    -0.160 NA
HETATM    8  N8  UNL     1     -32.420   8.434   2.561  1.00 20.00    -0.183 NA
ENDROOT
TORSDOF 0
ENDMDL
MODEL 6
REMARK VINA RESULT:      -1.0      1.518      2.578
REMARK  0 active torsions:
REMARK  status: ('A' for Active; 'I' for Inactive)
ROOT
HETATM    1  C1  UNL     1     -33.446   5.923   2.982  1.00 20.00    -0.032 A 
HETATM    2  C2  UNL     1     -33.409   7.219   3.303  1.00 20.00     0.056 A 
HETATM    3  C3  UNL     1     -32.565   5.792   1.787  1.00 20.00     0.157 A 
HETATM    4  C4  UNL     1     -34.140   4.773   3.610  1.00 20.00     0.048 C 
HETATM    5  C5  UNL     1     -34.095   7.924   4.420  1.00 20.00     0.072 C 
HETATM    6  C6  UNL     1     -33.279   5.309   0.534  1.00 20.00     0.041 C 
HETATM    7  N7  UNL     1     -32.610   7.945   2.452  1.00 20.00    -0.160 NA
HETATM    8  N8  UNL     1     -32.105   7.193   1.573  1.00 20.00    -0.183 NA
ENDROOT
TORSDOF 0
ENDMDL
MODEL 7
REMARK VINA RESULT:      -1.0      1.493      2.412
REMARK  0 active torsions:
REMARK  status: ('A' for Active; 'I' for Inactive)
ROOT
HETATM    1  C1  UNL     1     -32.801   7.297   2.269  1.00 20.00    -0.032 A 
HETATM    2  C2  UNL     1     -33.473   7.200   3.419  1.00 20.00     0.056 A 
HETATM    3  C3  UNL     1     -33.012   5.991   1.582  1.00 20.00     0.157 A 
HETATM    4  C4  UNL     1     -32.014   8.407   1.680  1.00 20.00     0.048 C 
HETATM    5  C5  UNL     1     -33.622   8.210   4.502  1.00 20.00     0.072 C 
HETATM    6  C6  UNL     1     -31.737   5.198   1.344  1.00 20.00     0.041 C 
HETATM    7  N7  UNL     1     -34.091   5.980   3.561  1.00 20.00    -0.160 NA
HETATM    8  N8  UNL     1     -33.867   5.253   2.554  1.00 20.00    -0.183 NA
ENDROOT
TORSDOF 0
ENDMDL
MODEL 8
REMARK VINA RESULT:      -0.2      1.471      2.575
REMARK  0 active torsions:
REMARK  status: ('A' for Active; 'I' for Inactive)
ROOT
HETATM    1  C1  UNL     1     -32.745   7.066   2.319  1.00 20.00    -0.032 A 
HETATM    2  C2  UNL     1     -32.922   5.812   1.894  1.00 20.00     0.056 A 
HETATM    3  C3  UNL     1     -33.476   7.145   3.616  1.00 20.00     0.157 A 
HETATM    4  C4  UNL     1     -31.991   8.203   1.741  1.00 20.00     0.048 C 
HETATM    5  C5  UNL     1     -32.409   5.164   0.657  1.00 20.00     0.072 C 
HETATM    6  C6  UNL     1     -34.622   8.144   3.628  1.00 20.00     0.041 C 
HETATM    7  N7  UNL     1     -33.687   5.070   2.763  1.00 20.00    -0.160 NA
HETATM    8  N8  UNL     1     -34.029   5.770   3.756  1.00 20.00    -0.183 NA
ENDROOT
TORSDOF 0
ENDMDL
MODEL 9
REMARK VINA RESULT:       1.1      1.677      3.078
REMARK  0 active torsions:
REMARK  status: ('A' for Active; 'I' for Inactive)
ROOT
HETATM    1  C1  UNL     1     -33.898   5.534   3.275  1.00 20.00    -0.032 A 
HETATM    2  C2  UNL     1     -34.063   4.401   3.964  1.00 20.00     0.056 A 
HETATM    3  C3  UNL     1     -34.922   6.473   3.817  1.00 20.00     0.157 A 
HETATM    4  C4  UNL     1     -32.933   5.908   2.214  1.00 20.00     0.048 C 
HETATM    5  C5  UNL     1     -33.310   3.123   3.853  1.00 20.00     0.072 C 
HETATM    6  C6  UNL     1     -35.950   6.932   2.794  1.00 20.00     0.041 C 
HETATM    7  N7  UNL     1     -35.079   4.494   4.885  1.00 20.00    -0.160 NA
HETATM    8  N8  UNL     1     -35.603   5.643   4.849  1.00 20.00    -0.183 NA
ENDROOT
TORSDOF 0
ENDMDL
