MODEL 1
REMARK VINA RESULT:      -1.5      0.000      0.000
REMARK  0 active torsions:
REMARK  status: ('A' for Active; 'I' for Inactive)
ROOT
HETATM    1  C1  UNL     1     -33.884   7.935   3.750  1.00 20.00    -0.008 C 
HETATM    2  C2  UNL     1     -33.185   7.541   2.692  1.00 20.00    -0.037 C 
HETATM    3  C3  UNL     1     -33.135   6.096   2.425  1.00 20.00     0.044 C 
HETATM    4  C4  UNL     1     -34.666   5.528   4.041  1.00 20.00     0.246 C 
HETATM    5  C5  UNL     1     -34.636   6.957   4.589  1.00 20.00     0.133 C 
HETATM    6  C6  UNL     1     -32.315   8.242   1.714  1.00 20.00     0.040 C 
HETATM    7  C7  UNL     1     -32.179   5.821   1.303  1.00 20.00     0.060 C 
HETATM    8  C8  UNL     1     -31.373   7.123   1.256  1.00 20.00     0.011 C 
HETATM    9  N9  UNL     1     -33.797   5.170   3.026  1.00 20.00    -0.218 NA
HETATM   10  O10 UNL     1     -35.441   4.716   4.550  1.00 20.00    -0.271 OA
ENDROOT
TORSDOF 0
ENDMDL
MODEL 2
REMARK VINA RESULT:      -1.0      1.942      3.492
REMARK  0 active torsions:
REMARK  status: ('A' for Active; 'I' for Inactive)
ROOT
HETATM    1  C1  UNL     1     -32.454   7.912   2.318  1.00 20.00    -0.008 C 
HETATM    2  C2  UNL     1     -33.295   7.301   3.144  1.00 20.00    -0.037 C 
HETATM    3  C3  UNL     1     -33.587   5.886   2.873  1.00 20.00     0.044 C 
HETATM    4  C4  UNL     1     -32.023   5.661   1.206  1.00 20.00     0.246 C 
HETATM    5  C5  UNL     1     -31.786   7.173   1.206  1.00 20.00     0.133 C 
HETATM    6  C6  UNL     1     -34.133   7.756   4.282  1.00 20.00     0.040 C 
HETATM    7  C7  UNL     1     -34.670   5.407   3.792  1.00 20.00     0.060 C 
HETATM    8  C8  UNL     1     -35.271   6.729   4.280  1.00 20.00     0.011 C 
HETATM    9  N9  UNL     1     -33.022   5.128   1.999  1.00 20.00    -0.218 NA
HETATM   10  O10 UNL     1     -31.337   4.957   0.462  1.00 20.00    -0.271 OA
ENDROOT
TORSDOF 0
ENDMDL
MODEL 3
REMARK VINA RESULT:      -0.7      2.327      4.057
REMARK  0 active torsions:
REMARK  status: ('A' for Active; 'I' for Inactive)
ROOT
HETATM    1  C1  UNL     1     -32.286   5.462   1.814  1.00 20.00    -0.008 C 
HETATM    2  C2  UNL     1     -33.342   5.445   2.619  1.00 20.00    -0.037 C 
HETATM    3  C3  UNL     1     -33.840   6.743   3.095  1.00 20.00     0.044 C 
HETATM    4  C4  UNL     1     -32.456   8.003   1.763  1.00 20.00     0.246 C 
HETATM    5  C5  UNL     1     -31.678   6.747   1.362  1.00 20.00     0.133 C 
HETATM    6  C6  UNL     1     -34.125   4.362   3.267  1.00 20.00     0.040 C 
HETATM    7  C7  UNL     1     -34.920   6.530   4.113  1.00 20.00     0.060 C 
HETATM    8  C8  UNL     1     -34.693   5.066   4.504  1.00 20.00     0.011 C 
HETATM    9  N9  UNL     1     -33.451   7.911   2.719  1.00 20.00    -0.218 NA
HETATM   10  O10 UNL     1     -32.145   9.079   1.248  1.00 20.00    -0.271 OA
ENDROOT
TORSDOF 0
ENDMDL
MODEL 4
REMARK VINA RESULT:       0.2      1.183      2.211
REMARK  0 active torsions:
REMARK  status: ('A' for Active; 'I' for Inactive)
ROOT
HETATM    1  C1  UNL     1     -32.742   5.541   1.831  1.00 20.00    -0.008 C 
HETATM    2  C2  UNL     1     -32.366   6.814   1.799  1.00 20.00    -0.037 C 
HETATM    3  C3  UNL     1     -33.158   7.764   2.593  1.00 20.00     0.044 C 
HETATM    4  C4  UNL     1     -34.444   6.162   3.622  1.00 20.00     0.246 C 
HETATM    5  C5  UNL     1     -33.877   5.090   2.688  1.00 20.00     0.133 C 
HETATM    6  C6  UNL     1     -31.337   7.565   1.035  1.00 20.00     0.040 C 
HETATM    7  C7  UNL     1     -32.701   9.164   2.313  1.00 20.00     0.060 C 
HETATM    8  C8  UNL     1     -31.924   8.981   1.005  1.00 20.00     0.011 C 
HETATM    9  N9  UNL     1     -34.103   7.487   3.422  1.00 20.00    -0.218 NA
HETATM   10  O10 UNL     1     -35.226   5.817   4.509  1.00 20.00    -0.271 OA
ENDROOT
TORSDOF 0
ENDMDL
MODEL 5
REMARK VINA RESULT:       0.4      1.735      2.344
REMARK  0 active torsions:
REMARK  status: ('A' for Active; 'I' for Inactive)
ROOT
HETATM    1  C1  UNL     1     -34.226   5.654   3.095  1.00 20.00    -0.008 C 
HETATM    2  C2  UNL     1     -33.196   6.070   2.368  1.00 20.00    -0.037 C 
HETATM    3  C3  UNL     1     -32.675   7.414   2.657  1.00 20.00     0.044 C 
HETATM    4  C4  UNL     1     -33.982   7.754   4.515  1.00 20.00     0.246 C 
HETATM    5  C5  UNL     1     -34.783   6.489   4.198  1.00 20.00     0.133 C 
HETATM    6  C6  UNL     1     -32.465   5.510   1.203  1.00 20.00     0.040 C 
HETATM    7  C7  UNL     1     -31.633   7.782   1.644  1.00 20.00     0.060 C 
HETATM    8  C8  UNL     1     -31.914   6.771   0.527  1.00 20.00     0.011 C 
HETATM    9  N9  UNL     1     -33.019   8.191   3.624  1.00 20.00    -0.218 NA
HETATM   10  O10 UNL     1     -34.245   8.377   5.546  1.00 20.00    -0.271 OA
ENDROOT
TORSDOF 0
ENDMDL
MODEL 6
REMARK VINA RESULT:       0.7      2.242      3.588
REMARK  0 active torsions:
REMARK  status: ('A' for Active; 'I' for Inactive)
ROOT
HETATM    1  C1  UNL     1     -33.741   8.377   3.345  1.00 20.00    -0.008 C 
HETATM    2  C2  UNL     1     -34.044   7.139   3.718  1.00 20.00    -0.037 C 
HETATM    3  C3  UNL     1     -33.452   6.043   2.939  1.00 20.00     0.044 C 
HETATM    4  C4  UNL     1     -32.087   7.393   1.676  1.00 20.00     0.246 C 
HETATM    5  C5  UNL     1     -32.788   8.637   2.227  1.00 20.00     0.133 C 
HETATM    6  C6  UNL     1     -34.967   6.566   4.731  1.00 20.00     0.040 C 
HETATM    7  C7  UNL     1     -34.026   4.733   3.388  1.00 20.00     0.060 C 
HETATM    8  C8  UNL     1     -35.281   5.186   4.141  1.00 20.00     0.011 C 
HETATM    9  N9  UNL     1     -32.565   6.139   2.010  1.00 20.00    -0.218 NA
HETATM   10  O10 UNL     1     -31.133   7.543   0.911  1.00 20.00    -0.271 OA
ENDROOT
TORSDOF 0
ENDMDL
