MODEL 1
REMARK VINA RESULT:       2.3      0.000      0.000
REMARK  2 active torsions:
REMARK  status: ('A' for Active; 'I' for Inactive)
REMARK    1  A    between atoms: C1_1  and  C7_7 
REMARK    2  A    between atoms: C7_7  and  C10_10 
ROOT
HETATM    1  C2  UNL     1     -34.478   6.220   3.595  1.00 20.00     0.000 C 
HETATM    2  C3  UNL     1     -34.120   7.622   4.074  1.00 20.00     0.001 C 
HETATM    3  C4  UNL     1     -33.414   5.660   2.658  1.00 20.00     0.001 C 
HETATM    4  C5  UNL     1     -33.871   8.574   2.904  1.00 20.00     0.021 C 
HETATM    5  C6  UNL     1     -33.156   6.593   1.473  1.00 20.00     0.021 C 
HETATM    6  C7  UNL     1     -32.848   8.029   1.903  1.00 20.00     0.051 C 
ENDROOT
BRANCH   6   7
HETATM    7  C1  UNL     1     -31.450   8.089   2.517  1.00 20.00     0.182 C 
HETATM    8  O11 UNL     1     -31.316   8.900   3.475  1.00 20.00    -0.647 OA
HETATM    9  O12 UNL     1     -30.604   7.317   1.984  1.00 20.00    -0.647 OA
ENDBRANCH   6   7
BRANCH   6  10
HETATM   10  C10 UNL     1     -32.720   8.951   0.690  1.00 20.00    -0.004 C 
HETATM   11  C8  UNL     1     -32.885  10.408   1.109  1.00 20.00     0.011 C 
HETATM   12  C9  UNL     1     -31.378   8.736  -0.002  1.00 20.00     0.011 C 
ENDBRANCH   6  10
TORSDOF 2
ENDMDL
MODEL 2
REMARK VINA RESULT:       2.6      1.949      2.940
REMARK  2 active torsions:
REMARK  status: ('A' for Active; 'I' for Inactive)
REMARK    1  A    between atoms: C1_1  and  C7_7 
REMARK    2  A    between atoms: C7_7  and  C10_10 
ROOT
HETATM    1  C2  UNL     1     -35.361   5.349   4.400  1.00 20.00     0.000 C 
HETATM    2  C3  UNL     1     -34.095   4.574   4.052  1.00 20.00     0.001 C 
HETATM    3  C4  UNL     1     -35.707   6.368   3.320  1.00 20.00     0.001 C 
HETATM    4  C5  UNL     1     -32.914   5.507   3.787  1.00 20.00     0.021 C 
HETATM    5  C6  UNL     1     -34.541   7.320   3.046  1.00 20.00     0.021 C 
HETATM    6  C7  UNL     1     -33.232   6.586   2.747  1.00 20.00     0.051 C 
ENDROOT
BRANCH   6   7
HETATM    7  C1  UNL     1     -33.307   5.952   1.359  1.00 20.00     0.182 C 
HETATM    8  O11 UNL     1     -34.285   6.318   0.651  1.00 20.00    -0.647 OA
HETATM    9  O12 UNL     1     -32.376   5.139   1.098  1.00 20.00    -0.647 OA
ENDBRANCH   6   7
BRANCH   6  10
HETATM   10  C10 UNL     1     -32.070   7.570   2.602  1.00 20.00    -0.004 C 
HETATM   11  C8  UNL     1     -32.202   8.361   1.305  1.00 20.00     0.011 C 
HETATM   12  C9  UNL     1     -32.016   8.508   3.804  1.00 20.00     0.011 C 
ENDBRANCH   6  10
TORSDOF 2
ENDMDL
MODEL 3
REMARK VINA RESULT:       2.7      1.518      3.296
REMARK  2 active torsions:
REMARK  status: ('A' for Active; 'I' for Inactive)
REMARK    1  A    between atoms: C1_1  and  C7_7 
REMARK    2  A    between atoms: C7_7  and  C10_10 
ROOT
HETATM    1  C2  UNL     1     -32.713   4.523   0.446  1.00 20.00     0.000 C 
HETATM    2  C3  UNL     1     -31.710   4.922   1.521  1.00 20.00     0.001 C 
HETATM    3  C4  UNL     1     -33.514   5.723  -0.046  1.00 20.00     0.001 C 
HETATM    4  C5  UNL     1     -32.386   5.640   2.689  1.00 20.00     0.021 C 
HETATM    5  C6  UNL     1     -34.209   6.450   1.107  1.00 20.00     0.021 C 
HETATM    6  C7  UNL     1     -33.249   6.822   2.239  1.00 20.00     0.051 C 
ENDROOT
BRANCH   6   7
HETATM    7  C1  UNL     1     -32.348   7.970   1.789  1.00 20.00     0.182 C 
HETATM    8  O11 UNL     1     -32.928   8.896   1.157  1.00 20.00    -0.647 OA
HETATM    9  O12 UNL     1     -31.131   7.845   2.107  1.00 20.00    -0.647 OA
ENDBRANCH   6   7
BRANCH   6  10
HETATM   10  C10 UNL     1     -34.003   7.434   3.421  1.00 20.00    -0.004 C 
HETATM   11  C8  UNL     1     -35.031   6.446   3.963  1.00 20.00     0.011 C 
HETATM   12  C9  UNL     1     -33.027   7.853   4.515  1.00 20.00     0.011 C 
ENDBRANCH   6  10
TORSDOF 2
ENDMDL
MODEL 4
REMARK VINA RESULT:       2.7      0.940      3.487
REMARK  2 active torsions:
REMARK  status: ('A' for Active; 'I' for Inactive)
REMARK    1  A    between atoms: C1_1  and  C7_7 
REMARK    2  A    between atoms: C7_7  and  C10_10 
ROOT
HETATM    1  C2  UNL     1     -32.433   9.954  -0.197  1.00 20.00     0.000 C 
HETATM    2  C3  UNL     1     -31.349   8.888  -0.081  1.00 20.00     0.001 C 
HETATM    3  C4  UNL     1     -32.957  10.370   1.173  1.00 20.00     0.001 C 
HETATM    4  C5  UNL     1     -31.833   7.672   0.709  1.00 20.00     0.021 C 
HETATM    5  C6  UNL     1     -33.457   9.168   1.976  1.00 20.00     0.021 C 
HETATM    6  C7  UNL     1     -32.421   8.045   2.072  1.00 20.00     0.051 C 
ENDROOT
BRANCH   6   7
HETATM    7  C1  UNL     1     -31.296   8.467   3.016  1.00 20.00     0.182 C 
HETATM    8  O11 UNL     1     -31.670   8.996   4.099  1.00 20.00    -0.647 OA
HETATM    9  O12 UNL     1     -30.131   8.231   2.589  1.00 20.00    -0.647 OA
ENDBRANCH   6   7
BRANCH   6  10
HETATM   10  C10 UNL     1     -33.004   6.818   2.775  1.00 20.00    -0.004 C 
HETATM   11  C8  UNL     1     -34.292   7.186   3.505  1.00 20.00     0.011 C 
HETATM   12  C9  UNL     1     -33.254   5.699   1.769  1.00 20.00     0.011 C 
ENDBRANCH   6  10
TORSDOF 2
ENDMDL
MODEL 5
REMARK VINA RESULT:       2.9      1.574      3.691
REMARK  2 active torsions:
REMARK  status: ('A' for Active; 'I' for Inactive)
REMARK    1  A    between atoms: C1_1  and  C7_7 
REMARK    2  A    between atoms: C7_7  and  C10_10 
ROOT
HETATM    1  C2  UNL     1     -31.811   9.703   0.398  1.00 20.00     0.000 C 
HETATM    2  C3  UNL     1     -33.224   9.141   0.291  1.00 20.00     0.001 C 
HETATM    3  C4  UNL     1     -30.837   8.667   0.949  1.00 20.00     0.001 C 
HETATM    4  C5  UNL     1     -33.717   8.589   1.628  1.00 20.00     0.021 C 
HETATM    5  C6  UNL     1     -31.306   8.109   2.294  1.00 20.00     0.021 C 
HETATM    6  C7  UNL     1     -32.744   7.584   2.250  1.00 20.00     0.051 C 
ENDROOT
BRANCH   6   7
HETATM    7  C1  UNL     1     -32.786   6.276   1.462  1.00 20.00     0.182 C 
HETATM    8  O11 UNL     1     -33.793   6.128   0.716  1.00 20.00    -0.647 OA
HETATM    9  O12 UNL     1     -31.803   5.507   1.659  1.00 20.00    -0.647 OA
ENDBRANCH   6   7
BRANCH   6  10
HETATM   10  C10 UNL     1     -33.213   7.151   3.640  1.00 20.00    -0.004 C 
HETATM   11  C8  UNL     1     -32.982   8.270   4.651  1.00 20.00     0.011 C 
HETATM   12  C9  UNL     1     -34.684   6.751   3.604  1.00 20.00     0.011 C 
ENDBRANCH   6  10
TORSDOF 2
ENDMDL
MODEL 6
REMARK VINA RESULT:       3.0      1.998      3.085
REMARK  2 active torsions:
REMARK  status: ('A' for Active; 'I' for Inactive)
REMARK    1  A    between atoms: C1_1  and  C7_7 
REMARK    2  A    between atoms: C7_7  and  C10_10 
ROOT
HETATM    1  C2  UNL     1     -32.554   4.412   0.129  1.00 20.00     0.000 C 
HETATM    2  C3  UNL     1     -33.870   5.177   0.211  1.00 20.00     0.001 C 
HETATM    3  C4  UNL     1     -31.741   4.557   1.410  1.00 20.00     0.001 C 
HETATM    4  C5  UNL     1     -33.647   6.651   0.550  1.00 20.00     0.021 C 
HETATM    5  C6  UNL     1     -31.497   6.025   1.762  1.00 20.00     0.021 C 
HETATM    6  C7  UNL     1     -32.787   6.849   1.801  1.00 20.00     0.051 C 
ENDROOT
BRANCH   6   7
HETATM    7  C1  UNL     1     -33.595   6.475   3.042  1.00 20.00     0.182 C 
HETATM    8  O11 UNL     1     -33.624   5.243   3.316  1.00 20.00    -0.647 OA
HETATM    9  O12 UNL     1     -34.134   7.450   3.637  1.00 20.00    -0.647 OA
ENDBRANCH   6   7
BRANCH   6  10
HETATM   10  C10 UNL     1     -32.486   8.331   2.033  1.00 20.00    -0.004 C 
HETATM   11  C8  UNL     1     -31.177   8.493   2.799  1.00 20.00     0.011 C 
HETATM   12  C9  UNL     1     -32.431   9.076   0.704  1.00 20.00     0.011 C 
ENDBRANCH   6  10
TORSDOF 2
ENDMDL
MODEL 7
REMARK VINA RESULT:       3.0      2.013      2.740
REMARK  2 active torsions:
REMARK  status: ('A' for Active; 'I' for Inactive)
REMARK    1  A    between atoms: C1_1  and  C7_7 
REMARK    2  A    between atoms: C7_7  and  C10_10 
ROOT
HETATM    1  C2  UNL     1     -35.426   5.150   4.530  1.00 20.00     0.000 C 
HETATM    2  C3  UNL     1     -35.706   6.472   3.824  1.00 20.00     0.001 C 
HETATM    3  C4  UNL     1     -33.930   4.886   4.650  1.00 20.00     0.001 C 
HETATM    4  C5  UNL     1     -35.030   6.537   2.455  1.00 20.00     0.021 C 
HETATM    5  C6  UNL     1     -33.235   4.936   3.289  1.00 20.00     0.021 C 
HETATM    6  C7  UNL     1     -33.533   6.223   2.516  1.00 20.00     0.051 C 
ENDROOT
BRANCH   6   7
HETATM    7  C1  UNL     1     -32.792   7.391   3.165  1.00 20.00     0.182 C 
HETATM    8  O11 UNL     1     -33.095   7.620   4.369  1.00 20.00    -0.647 OA
HETATM    9  O12 UNL     1     -31.968   7.980   2.410  1.00 20.00    -0.647 OA
ENDBRANCH   6   7
BRANCH   6  10
HETATM   10  C10 UNL     1     -32.922   6.177   1.115  1.00 20.00    -0.004 C 
HETATM   11  C8  UNL     1     -31.771   5.177   1.070  1.00 20.00     0.011 C 
HETATM   12  C9  UNL     1     -33.987   5.822   0.083  1.00 20.00     0.011 C 
ENDBRANCH   6  10
TORSDOF 2
ENDMDL
MODEL 8
REMARK VINA RESULT:       3.5      2.264      4.330
REMARK  2 active torsions:
REMARK  status: ('A' for Active; 'I' for Inactive)
REMARK    1  A    between atoms: C1_1  and  C7_7 
REMARK    2  A    between atoms: C7_7  and  C10_10 
ROOT
HETATM    1  C2  UNL     1     -31.925   7.575   1.494  1.00 20.00     0.000 C 
HETATM    2  C3  UNL     1     -32.214   8.201   2.853  1.00 20.00     0.001 C 
HETATM    3  C4  UNL     1     -33.103   6.745   0.998  1.00 20.00     0.001 C 
HETATM    4  C5  UNL     1     -32.612   7.149   3.888  1.00 20.00     0.021 C 
HETATM    5  C6  UNL     1     -33.511   5.677   2.015  1.00 20.00     0.021 C 
HETATM    6  C7  UNL     1     -33.758   6.251   3.412  1.00 20.00     0.051 C 
ENDROOT
BRANCH   6   7
HETATM    7  C1  UNL     1     -35.063   7.044   3.415  1.00 20.00     0.182 C 
HETATM    8  O11 UNL     1     -36.041   6.477   2.852  1.00 20.00    -0.647 OA
HETATM    9  O12 UNL     1     -34.998   8.171   3.983  1.00 20.00    -0.647 OA
ENDBRANCH   6   7
BRANCH   6  10
HETATM   10  C10 UNL     1     -34.041   5.138   4.421  1.00 20.00    -0.004 C 
HETATM   11  C8  UNL     1     -35.530   5.083   4.749  1.00 20.00     0.011 C 
HETATM   12  C9  UNL     1     -33.556   3.796   3.882  1.00 20.00     0.011 C 
ENDBRANCH   6  10
TORSDOF 2
ENDMDL
MODEL 9
REMARK VINA RESULT:       3.6      1.306      2.039
REMARK  2 active torsions:
REMARK  status: ('A' for Active; 'I' for Inactive)
REMARK    1  A    between atoms: C1_1  and  C7_7 
REMARK    2  A    between atoms: C7_7  and  C10_10 
ROOT
HETATM    1  C2  UNL     1     -33.925   7.924   4.744  1.00 20.00     0.000 C 
HETATM    2  C3  UNL     1     -32.406   8.009   4.639  1.00 20.00     0.001 C 
HETATM    3  C4  UNL     1     -34.541   7.338   3.479  1.00 20.00     0.001 C 
HETATM    4  C5  UNL     1     -31.968   8.797   3.405  1.00 20.00     0.021 C 
HETATM    5  C6  UNL     1     -34.123   8.119   2.232  1.00 20.00     0.021 C 
HETATM    6  C7  UNL     1     -32.606   8.280   2.112  1.00 20.00     0.051 C 
ENDROOT
BRANCH   6   7
HETATM    7  C1  UNL     1     -31.978   6.941   1.733  1.00 20.00     0.182 C 
HETATM    8  O11 UNL     1     -32.789   5.982   1.600  1.00 20.00    -0.647 OA
HETATM    9  O12 UNL     1     -30.722   6.963   1.599  1.00 20.00    -0.647 OA
ENDBRANCH   6   7
BRANCH   6  10
HETATM   10  C10 UNL     1     -32.239   9.170   0.923  1.00 20.00    -0.004 C 
HETATM   11  C8  UNL     1     -32.779   8.573  -0.373  1.00 20.00     0.011 C 
HETATM   12  C9  UNL     1     -32.775  10.582   1.132  1.00 20.00     0.011 C 
ENDBRANCH   6  10
TORSDOF 2
ENDMDL
