MODEL 1
REMARK VINA RESULT:      -2.8      0.000      0.000
REMARK  0 active torsions:
REMARK  status: ('A' for Active; 'I' for Inactive)
ROOT
HETATM    1  C1  UNL     1     -33.662   6.628   2.753  1.00 20.00     0.158 C 
HETATM    2  C2  UNL     1     -34.408   6.849   3.833  1.00 20.00     0.277 C 
HETATM    3  F3  UNL     1     -35.383   5.973   4.160  1.00 20.00    -0.172 F 
HETATM    4  F4  UNL     1     -34.203   7.937   4.605  1.00 20.00    -0.172 F 
HETATM    5 CL5  UNL     1     -32.401   7.667   2.244  1.00 20.00    -0.091 Cl
ENDROOT
TORSDOF 0
ENDMDL
MODEL 2
REMARK VINA RESULT:      -2.7      0.933      1.719
REMARK  0 active torsions:
REMARK  status: ('A' for Active; 'I' for Inactive)
ROOT
HETATM    1  C1  UNL     1     -33.142   7.224   2.965  1.00 20.00     0.158 C 
HETATM    2  C2  UNL     1     -34.139   7.196   3.847  1.00 20.00     0.277 C 
HETATM    3  F3  UNL     1     -34.180   8.115   4.835  1.00 20.00    -0.172 F 
HETATM    4  F4  UNL     1     -35.110   6.261   3.765  1.00 20.00    -0.172 F 
HETATM    5 CL5  UNL     1     -32.989   6.112   1.673  1.00 20.00    -0.091 Cl
ENDROOT
TORSDOF 0
ENDMDL
MODEL 3
REMARK VINA RESULT:      -2.6      2.550      3.061
REMARK  0 active torsions:
REMARK  status: ('A' for Active; 'I' for Inactive)
ROOT
HETATM    1  C1  UNL     1     -34.065   7.337   3.736  1.00 20.00     0.158 C 
HETATM    2  C2  UNL     1     -33.171   7.170   2.764  1.00 20.00     0.277 C 
HETATM    3  F3  UNL     1     -32.208   8.098   2.577  1.00 20.00    -0.172 F 
HETATM    4  F4  UNL     1     -33.215   6.084   1.962  1.00 20.00    -0.172 F 
HETATM    5 CL5  UNL     1     -35.326   6.227   4.064  1.00 20.00    -0.091 Cl
ENDROOT
TORSDOF 0
ENDMDL
MODEL 4
REMARK VINA RESULT:      -2.6      2.336      2.564
REMARK  0 active torsions:
REMARK  status: ('A' for Active; 'I' for Inactive)
ROOT
HETATM    1  C1  UNL     1     -34.307   6.199   3.414  1.00 20.00     0.158 C 
HETATM    2  C2  UNL     1     -33.745   7.377   3.674  1.00 20.00     0.277 C 
HETATM    3  F3  UNL     1     -32.841   7.889   2.811  1.00 20.00    -0.172 F 
HETATM    4  F4  UNL     1     -34.068   8.068   4.789  1.00 20.00    -0.172 F 
HETATM    5 CL5  UNL     1     -35.464   5.456   4.434  1.00 20.00    -0.091 Cl
ENDROOT
TORSDOF 0
ENDMDL
MODEL 5
REMARK VINA RESULT:      -2.5      2.711      2.869
REMARK  0 active torsions:
REMARK  status: ('A' for Active; 'I' for Inactive)
ROOT
HETATM    1  C1  UNL     1     -33.778   6.246   2.994  1.00 20.00     0.158 C 
HETATM    2  C2  UNL     1     -32.926   6.365   1.978  1.00 20.00     0.277 C 
HETATM    3  F3  UNL     1     -32.685   5.300   1.182  1.00 20.00    -0.172 F 
HETATM    4  F4  UNL     1     -32.299   7.535   1.733  1.00 20.00    -0.172 F 
HETATM    5 CL5  UNL     1     -34.159   7.526   4.064  1.00 20.00    -0.091 Cl
ENDROOT
TORSDOF 0
ENDMDL
MODEL 6
REMARK VINA RESULT:      -2.4      1.283      1.556
REMARK  0 active torsions:
REMARK  status: ('A' for Active; 'I' for Inactive)
ROOT
HETATM    1  C1  UNL     1     -34.058   7.425   3.566  1.00 20.00     0.158 C 
HETATM    2  C2  UNL     1     -34.492   6.185   3.777  1.00 20.00     0.277 C 
HETATM    3  F3  UNL     1     -35.639   5.988   4.462  1.00 20.00    -0.172 F 
HETATM    4  F4  UNL     1     -33.799   5.121   3.316  1.00 20.00    -0.172 F 
HETATM    5 CL5  UNL     1     -32.621   7.794   2.712  1.00 20.00    -0.091 Cl
ENDROOT
TORSDOF 0
ENDMDL
MODEL 7
REMARK VINA RESULT:      -2.3      2.644      2.810
REMARK  0 active torsions:
REMARK  status: ('A' for Active; 'I' for Inactive)
ROOT
HETATM    1  C1  UNL     1     -34.721   4.811   4.367  1.00 20.00     0.158 C 
HETATM    2  C2  UNL     1     -34.578   5.927   3.655  1.00 20.00     0.277 C 
HETATM    3  F3  UNL     1     -35.462   6.935   3.812  1.00 20.00    -0.172 F 
HETATM    4  F4  UNL     1     -33.562   6.062   2.776  1.00 20.00    -0.172 F 
HETATM    5 CL5  UNL     1     -33.662   3.471   4.251  1.00 20.00    -0.091 Cl
ENDROOT
TORSDOF 0
ENDMDL
MODEL 8
REMARK VINA RESULT:      -2.3      3.181      3.483
REMARK  0 active torsions:
REMARK  status: ('A' for Active; 'I' for Inactive)
ROOT
HETATM    1  C1  UNL     1     -31.927   8.737   0.643  1.00 20.00     0.158 C 
HETATM    2  C2  UNL     1     -32.087   7.856   1.628  1.00 20.00     0.277 C 
HETATM    3  F3  UNL     1     -31.490   6.648   1.545  1.00 20.00    -0.172 F 
HETATM    4  F4  UNL     1     -32.839   8.156   2.709  1.00 20.00    -0.172 F 
HETATM    5 CL5  UNL     1     -32.635  10.296   0.641  1.00 20.00    -0.091 Cl
ENDROOT
TORSDOF 0
ENDMDL
MODEL 9
REMARK VINA RESULT:      -2.2      2.109      2.513
REMARK  0 active torsions:
REMARK  status: ('A' for Active; 'I' for Inactive)
ROOT
HETATM    1  C1  UNL     1     -33.862   5.817   3.628  1.00 20.00     0.158 C 
HETATM    2  C2  UNL     1     -34.498   4.765   4.139  1.00 20.00     0.277 C 
HETATM    3  F3  UNL     1     -34.002   3.525   3.939  1.00 20.00    -0.172 F 
HETATM    4  F4  UNL     1     -35.634   4.922   4.853  1.00 20.00    -0.172 F 
HETATM    5 CL5  UNL     1     -34.398   7.431   3.818  1.00 20.00    -0.091 Cl
ENDROOT
TORSDOF 0
ENDMDL
