MODEL 1
REMARK VINA RESULT:      -0.2      0.000      0.000
REMARK  2 active torsions:
REMARK  status: ('A' for Active; 'I' for Inactive)
REMARK    1  A    between atoms: C3_3  and  C8_8 
REMARK    2  A    between atoms: C7_7  and  C8_8 
ROOT
HETATM    1  C1  UNL     1     -33.671   8.252   3.725  1.00 20.00     0.018 A 
HETATM    2  C2  UNL     1     -34.453   7.314   4.461  1.00 20.00     0.032 A 
HETATM    3  C3  UNL     1     -33.026   7.663   2.659  1.00 20.00     0.003 A 
HETATM    4  C4  UNL     1     -34.374   6.045   3.929  1.00 20.00     0.075 A 
HETATM    5  S9  UNL     1     -33.361   5.988   2.549  1.00 20.00    -0.081 SA
HETATM    6 CL10 UNL     1     -35.145   4.622   4.490  1.00 20.00    -0.076 Cl
ENDROOT
BRANCH   3   7
HETATM    7  C8  UNL     1     -32.101   8.313   1.634  1.00 20.00     0.126 C 
HETATM    8 CL11 UNL     1     -31.148   7.013   0.830  1.00 20.00    -0.119 Cl
BRANCH   7   9
HETATM    9  C7  UNL     1     -32.784   9.174   0.627  1.00 20.00     0.009 A 
HETATM   10  C5  UNL     1     -32.740  10.671   0.758  1.00 20.00     0.007 A 
HETATM   11  C6  UNL     1     -31.974   9.990  -0.342  1.00 20.00     0.007 A 
ENDBRANCH   7   9
ENDBRANCH   3   7
TORSDOF 2
ENDMDL
MODEL 2
REMARK VINA RESULT:      -0.1      2.179      5.524
REMARK  2 active torsions:
REMARK  status: ('A' for Active; 'I' for Inactive)
REMARK    1  A    between atoms: C3_3  and  C8_8 
REMARK    2  A    between atoms: C7_7  and  C8_8 
ROOT
HETATM    1  C1  UNL     1     -32.694   5.621   1.805  1.00 20.00     0.018 A 
HETATM    2  C2  UNL     1     -32.202   6.675   0.981  1.00 20.00     0.032 A 
HETATM    3  C3  UNL     1     -33.286   6.096   2.955  1.00 20.00     0.003 A 
HETATM    4  C4  UNL     1     -32.437   7.915   1.534  1.00 20.00     0.075 A 
HETATM    5  S9  UNL     1     -33.246   7.806   3.039  1.00 20.00    -0.081 SA
HETATM    6 CL10 UNL     1     -32.017   9.447   0.892  1.00 20.00    -0.076 Cl
ENDROOT
BRANCH   3   7
HETATM    7  C8  UNL     1     -33.930   5.303   4.088  1.00 20.00     0.126 C 
HETATM    8 CL11 UNL     1     -35.656   5.804   4.217  1.00 20.00    -0.119 Cl
BRANCH   7   9
HETATM    9  C7  UNL     1     -33.812   3.823   3.967  1.00 20.00     0.009 A 
HETATM   10  C5  UNL     1     -32.465   3.162   4.051  1.00 20.00     0.007 A 
HETATM   11  C6  UNL     1     -33.455   2.992   5.169  1.00 20.00     0.007 A 
ENDBRANCH   7   9
ENDBRANCH   3   7
TORSDOF 2
ENDMDL
MODEL 3
REMARK VINA RESULT:       0.1      1.192      1.579
REMARK  2 active torsions:
REMARK  status: ('A' for Active; 'I' for Inactive)
REMARK    1  A    between atoms: C3_3  and  C8_8 
REMARK    2  A    between atoms: C7_7  and  C8_8 
ROOT
HETATM    1  C1  UNL     1     -32.664   6.125   1.643  1.00 20.00     0.018 A 
HETATM    2  C2  UNL     1     -33.508   5.269   2.410  1.00 20.00     0.032 A 
HETATM    3  C3  UNL     1     -32.740   7.436   2.061  1.00 20.00     0.003 A 
HETATM    4  C4  UNL     1     -34.195   5.959   3.385  1.00 20.00     0.075 A 
HETATM    5  S9  UNL     1     -33.824   7.630   3.373  1.00 20.00    -0.081 SA
HETATM    6 CL10 UNL     1     -35.311   5.333   4.524  1.00 20.00    -0.076 Cl
ENDROOT
BRANCH   3   7
HETATM    7  C8  UNL     1     -32.002   8.652   1.509  1.00 20.00     0.126 C 
HETATM    8 CL11 UNL     1     -30.799   8.080   0.296  1.00 20.00    -0.119 Cl
BRANCH   7   9
HETATM    9  C7  UNL     1     -32.878   9.711   0.933  1.00 20.00     0.009 A 
HETATM   10  C5  UNL     1     -32.280  10.991   0.421  1.00 20.00     0.007 A 
HETATM   11  C6  UNL     1     -32.853   9.991  -0.544  1.00 20.00     0.007 A 
ENDBRANCH   7   9
ENDBRANCH   3   7
TORSDOF 2
ENDMDL
MODEL 4
REMARK VINA RESULT:       0.7      2.182      5.186
REMARK  2 active torsions:
REMARK  status: ('A' for Active; 'I' for Inactive)
REMARK    1  A    between atoms: C3_3  and  C8_8 
REMARK    2  A    between atoms: C7_7  and  C8_8 
ROOT
HETATM    1  C1  UNL     1     -31.808   7.237   1.448  1.00 20.00     0.018 A 
HETATM    2  C2  UNL     1     -31.531   8.212   0.445  1.00 20.00     0.032 A 
HETATM    3  C3  UNL     1     -32.708   7.700   2.384  1.00 20.00     0.003 A 
HETATM    4  C4  UNL     1     -32.230   9.381   0.652  1.00 20.00     0.075 A 
HETATM    5  S9  UNL     1     -33.214   9.302   2.052  1.00 20.00    -0.081 SA
HETATM    6 CL10 UNL     1     -32.200  10.805  -0.299  1.00 20.00    -0.076 Cl
ENDROOT
BRANCH   3   7
HETATM    7  C8  UNL     1     -33.262   6.975   3.607  1.00 20.00     0.126 C 
HETATM    8 CL11 UNL     1     -33.823   8.213   4.790  1.00 20.00    -0.119 Cl
BRANCH   7   9
HETATM    9  C7  UNL     1     -34.339   5.987   3.318  1.00 20.00     0.009 A 
HETATM   10  C5  UNL     1     -34.321   4.635   3.975  1.00 20.00     0.007 A 
HETATM   11  C6  UNL     1     -35.357   5.649   4.372  1.00 20.00     0.007 A 
ENDBRANCH   7   9
ENDBRANCH   3   7
TORSDOF 2
ENDMDL
MODEL 5
REMARK VINA RESULT:       0.9      1.797      2.415
REMARK  2 active torsions:
REMARK  status: ('A' for Active; 'I' for Inactive)
REMARK    1  A    between atoms: C3_3  and  C8_8 
REMARK    2  A    between atoms: C7_7  and  C8_8 
ROOT
HETATM    1  C1  UNL     1     -35.060   6.087   4.160  1.00 20.00     0.018 A 
HETATM    2  C2  UNL     1     -35.094   4.717   4.552  1.00 20.00     0.032 A 
HETATM    3  C3  UNL     1     -33.889   6.410   3.510  1.00 20.00     0.003 A 
HETATM    4  C4  UNL     1     -33.947   4.046   4.187  1.00 20.00     0.075 A 
HETATM    5  S9  UNL     1     -32.836   5.066   3.375  1.00 20.00    -0.081 SA
HETATM    6 CL10 UNL     1     -33.562   2.399   4.456  1.00 20.00    -0.076 Cl
ENDROOT
BRANCH   3   7
HETATM    7  C8  UNL     1     -33.464   7.758   2.936  1.00 20.00     0.126 C 
HETATM    8 CL11 UNL     1     -32.458   8.605   4.168  1.00 20.00    -0.119 Cl
BRANCH   7   9
HETATM    9  C7  UNL     1     -32.757   7.690   1.626  1.00 20.00     0.009 A 
HETATM   10  C5  UNL     1     -32.293   8.950   0.950  1.00 20.00     0.007 A 
HETATM   11  C6  UNL     1     -31.288   8.002   1.543  1.00 20.00     0.007 A 
ENDBRANCH   7   9
ENDBRANCH   3   7
TORSDOF 2
ENDMDL
MODEL 6
REMARK VINA RESULT:       2.1      1.988      4.715
REMARK  2 active torsions:
REMARK  status: ('A' for Active; 'I' for Inactive)
REMARK    1  A    between atoms: C3_3  and  C8_8 
REMARK    2  A    between atoms: C7_7  and  C8_8 
ROOT
HETATM    1  C1  UNL     1     -31.596   7.996   2.217  1.00 20.00     0.018 A 
HETATM    2  C2  UNL     1     -31.235   9.210   1.562  1.00 20.00     0.032 A 
HETATM    3  C3  UNL     1     -32.707   7.412   1.647  1.00 20.00     0.003 A 
HETATM    4  C4  UNL     1     -32.083   9.506   0.517  1.00 20.00     0.075 A 
HETATM    5  S9  UNL     1     -33.309   8.325   0.329  1.00 20.00    -0.081 SA
HETATM    6 CL10 UNL     1     -32.022  10.858  -0.534  1.00 20.00    -0.076 Cl
ENDROOT
BRANCH   3   7
HETATM    7  C8  UNL     1     -33.408   6.118   2.047  1.00 20.00     0.126 C 
HETATM    8 CL11 UNL     1     -32.323   4.739   1.641  1.00 20.00    -0.119 Cl
BRANCH   7   9
HETATM    9  C7  UNL     1     -33.844   6.052   3.470  1.00 20.00     0.009 A 
HETATM   10  C5  UNL     1     -34.319   7.292   4.174  1.00 20.00     0.007 A 
HETATM   11  C6  UNL     1     -35.298   6.206   3.824  1.00 20.00     0.007 A 
ENDBRANCH   7   9
ENDBRANCH   3   7
TORSDOF 2
ENDMDL
MODEL 7
REMARK VINA RESULT:       2.3      1.920      2.421
REMARK  2 active torsions:
REMARK  status: ('A' for Active; 'I' for Inactive)
REMARK    1  A    between atoms: C3_3  and  C8_8 
REMARK    2  A    between atoms: C7_7  and  C8_8 
ROOT
HETATM    1  C1  UNL     1     -34.397   5.786   3.426  1.00 20.00     0.018 A 
HETATM    2  C2  UNL     1     -34.532   4.736   4.381  1.00 20.00     0.032 A 
HETATM    3  C3  UNL     1     -33.331   5.579   2.577  1.00 20.00     0.003 A 
HETATM    4  C4  UNL     1     -33.564   3.767   4.225  1.00 20.00     0.075 A 
HETATM    5  S9  UNL     1     -32.499   4.125   2.932  1.00 20.00    -0.081 SA
HETATM    6 CL10 UNL     1     -33.349   2.340   5.147  1.00 20.00    -0.076 Cl
ENDROOT
BRANCH   3   7
HETATM    7  C8  UNL     1     -32.849   6.458   1.427  1.00 20.00     0.126 C 
HETATM    8 CL11 UNL     1     -33.912   6.157   0.003  1.00 20.00    -0.119 Cl
BRANCH   7   9
HETATM    9  C7  UNL     1     -32.773   7.914   1.737  1.00 20.00     0.009 A 
HETATM   10  C5  UNL     1     -31.519   8.497   2.326  1.00 20.00     0.007 A 
HETATM   11  C6  UNL     1     -31.903   8.818   0.908  1.00 20.00     0.007 A 
ENDBRANCH   7   9
ENDBRANCH   3   7
TORSDOF 2
ENDMDL
MODEL 8
REMARK VINA RESULT:       2.6      2.679      4.024
REMARK  2 active torsions:
REMARK  status: ('A' for Active; 'I' for Inactive)
REMARK    1  A    between atoms: C3_3  and  C8_8 
REMARK    2  A    between atoms: C7_7  and  C8_8 
ROOT
HETATM    1  C1  UNL     1     -31.546   5.494   1.471  1.00 20.00     0.018 A 
HETATM    2  C2  UNL     1     -31.931   4.397   0.646  1.00 20.00     0.032 A 
HETATM    3  C3  UNL     1     -32.547   6.436   1.578  1.00 20.00     0.003 A 
HETATM    4  C4  UNL     1     -33.211   4.542   0.155  1.00 20.00     0.075 A 
HETATM    5  S9  UNL     1     -33.942   5.996   0.688  1.00 20.00    -0.081 SA
HETATM    6 CL10 UNL     1     -34.071   3.472  -0.869  1.00 20.00    -0.076 Cl
ENDROOT
BRANCH   3   7
HETATM    7  C8  UNL     1     -32.536   7.746   2.360  1.00 20.00     0.126 C 
HETATM    8 CL11 UNL     1     -32.279   9.096   1.196  1.00 20.00    -0.119 Cl
BRANCH   7   9
HETATM    9  C7  UNL     1     -33.744   7.988   3.199  1.00 20.00     0.009 A 
HETATM   10  C5  UNL     1     -34.394   6.850   3.936  1.00 20.00     0.007 A 
HETATM   11  C6  UNL     1     -33.650   7.912   4.698  1.00 20.00     0.007 A 
ENDBRANCH   7   9
ENDBRANCH   3   7
TORSDOF 2
ENDMDL
MODEL 9
REMARK VINA RESULT:       2.7      1.920      2.054
REMARK  2 active torsions:
REMARK  status: ('A' for Active; 'I' for Inactive)
REMARK    1  A    between atoms: C3_3  and  C8_8 
REMARK    2  A    between atoms: C7_7  and  C8_8 
ROOT
HETATM    1  C1  UNL     1     -33.956   6.794   2.941  1.00 20.00     0.018 A 
HETATM    2  C2  UNL     1     -34.499   7.146   4.212  1.00 20.00     0.032 A 
HETATM    3  C3  UNL     1     -32.783   7.467   2.675  1.00 20.00     0.003 A 
HETATM    4  C4  UNL     1     -33.720   8.076   4.867  1.00 20.00     0.075 A 
HETATM    5  S9  UNL     1     -32.342   8.520   3.952  1.00 20.00    -0.081 SA
HETATM    6 CL10 UNL     1     -33.994   8.776   6.406  1.00 20.00    -0.076 Cl
ENDROOT
BRANCH   3   7
HETATM    7  C8  UNL     1     -31.897   7.376   1.437  1.00 20.00     0.126 C 
HETATM    8 CL11 UNL     1     -31.852   5.656   0.900  1.00 20.00    -0.119 Cl
BRANCH   7   9
HETATM    9  C7  UNL     1     -32.288   8.274   0.315  1.00 20.00     0.009 A 
HETATM   10  C5  UNL     1     -32.566   9.729   0.571  1.00 20.00     0.007 A 
HETATM   11  C6  UNL     1     -31.331   9.322  -0.184  1.00 20.00     0.007 A 
ENDBRANCH   7   9
ENDBRANCH   3   7
TORSDOF 2
ENDMDL
