MODEL 1
REMARK VINA RESULT:       0.8      0.000      0.000
REMARK  2 active torsions:
REMARK  status: ('A' for Active; 'I' for Inactive)
REMARK    1  A    between atoms: C3_3  and  C8_8 
REMARK    2  A    between atoms: C7_7  and  C8_8 
ROOT
HETATM    1  C1  UNL     1     -33.863   7.993   3.503  1.00 20.00     0.018 A 
HETATM    2  C2  UNL     1     -34.418   6.827   4.105  1.00 20.00     0.032 A 
HETATM    3  C3  UNL     1     -32.952   7.683   2.518  1.00 20.00    -0.001 A 
HETATM    4  C4  UNL     1     -33.911   5.670   3.556  1.00 20.00     0.075 A 
HETATM    5  S9  UNL     1     -32.769   5.991   2.321  1.00 20.00    -0.081 SA
HETATM    6 CL10 UNL     1     -34.296   4.053   3.975  1.00 20.00    -0.076 Cl
ENDROOT
BRANCH   3   7
HETATM    7  C8  UNL     1     -32.149   8.623   1.648  1.00 20.00     0.102 C 
HETATM    8 BR11 UNL     1     -31.137   7.579   0.334  1.00 20.00    -0.085 Br
BRANCH   7   9
HETATM    9  C7  UNL     1     -32.978   9.650   0.957  1.00 20.00     0.005 A 
HETATM   10  C5  UNL     1     -32.368  10.956   0.532  1.00 20.00     0.006 A 
HETATM   11  C6  UNL     1     -32.765   9.939  -0.502  1.00 20.00     0.006 A 
ENDBRANCH   7   9
ENDBRANCH   3   7
TORSDOF 2
ENDMDL
MODEL 2
REMARK VINA RESULT:       1.0      1.147      1.469
REMARK  2 active torsions:
REMARK  status: ('A' for Active; 'I' for Inactive)
REMARK    1  A    between atoms: C3_3  and  C8_8 
REMARK    2  A    between atoms: C7_7  and  C8_8 
ROOT
HETATM    1  C1  UNL     1     -32.624   6.190   1.648  1.00 20.00     0.018 A 
HETATM    2  C2  UNL     1     -33.475   5.344   2.417  1.00 20.00     0.032 A 
HETATM    3  C3  UNL     1     -32.710   7.506   2.043  1.00 20.00    -0.001 A 
HETATM    4  C4  UNL     1     -34.178   6.047   3.370  1.00 20.00     0.075 A 
HETATM    5  S9  UNL     1     -33.812   7.719   3.337  1.00 20.00    -0.081 SA
HETATM    6 CL10 UNL     1     -35.307   5.435   4.505  1.00 20.00    -0.076 Cl
ENDROOT
BRANCH   3   7
HETATM    7  C8  UNL     1     -31.976   8.705   1.487  1.00 20.00     0.102 C 
HETATM    8 BR11 UNL     1     -30.792   8.122   0.039  1.00 20.00    -0.085 Br
BRANCH   7   9
HETATM    9  C7  UNL     1     -32.880   9.787   1.006  1.00 20.00     0.005 A 
HETATM   10  C5  UNL     1     -32.310  11.070   0.470  1.00 20.00     0.006 A 
HETATM   11  C6  UNL     1     -32.977  10.097  -0.461  1.00 20.00     0.006 A 
ENDBRANCH   7   9
ENDBRANCH   3   7
TORSDOF 2
ENDMDL
MODEL 3
REMARK VINA RESULT:       1.0      3.315      5.589
REMARK  2 active torsions:
REMARK  status: ('A' for Active; 'I' for Inactive)
REMARK    1  A    between atoms: C3_3  and  C8_8 
REMARK    2  A    between atoms: C7_7  and  C8_8 
ROOT
HETATM    1  C1  UNL     1     -32.540   5.638   1.747  1.00 20.00     0.018 A 
HETATM    2  C2  UNL     1     -32.088   6.696   0.906  1.00 20.00     0.032 A 
HETATM    3  C3  UNL     1     -33.161   6.109   2.882  1.00 20.00    -0.001 A 
HETATM    4  C4  UNL     1     -32.382   7.935   1.431  1.00 20.00     0.075 A 
HETATM    5  S9  UNL     1     -33.199   7.821   2.931  1.00 20.00    -0.081 SA
HETATM    6 CL10 UNL     1     -32.025   9.471   0.759  1.00 20.00    -0.076 Cl
ENDROOT
BRANCH   3   7
HETATM    7  C8  UNL     1     -33.775   5.320   4.017  1.00 20.00     0.102 C 
HETATM    8 BR11 UNL     1     -35.646   5.856   4.237  1.00 20.00    -0.085 Br
BRANCH   7   9
HETATM    9  C7  UNL     1     -33.683   3.844   3.833  1.00 20.00     0.005 A 
HETATM   10  C5  UNL     1     -32.383   3.130   4.077  1.00 20.00     0.006 A 
HETATM   11  C6  UNL     1     -33.534   2.941   5.025  1.00 20.00     0.006 A 
ENDBRANCH   7   9
ENDBRANCH   3   7
TORSDOF 2
ENDMDL
MODEL 4
REMARK VINA RESULT:       1.1      3.272      5.161
REMARK  2 active torsions:
REMARK  status: ('A' for Active; 'I' for Inactive)
REMARK    1  A    between atoms: C3_3  and  C8_8 
REMARK    2  A    between atoms: C7_7  and  C8_8 
ROOT
HETATM    1  C1  UNL     1     -31.638   7.347   1.399  1.00 20.00     0.018 A 
HETATM    2  C2  UNL     1     -31.434   8.345   0.402  1.00 20.00     0.032 A 
HETATM    3  C3  UNL     1     -32.579   7.731   2.329  1.00 20.00    -0.001 A 
HETATM    4  C4  UNL     1     -32.226   9.453   0.609  1.00 20.00     0.075 A 
HETATM    5  S9  UNL     1     -33.211   9.288   1.999  1.00 20.00    -0.081 SA
HETATM    6 CL10 UNL     1     -32.303  10.879  -0.338  1.00 20.00    -0.076 Cl
ENDROOT
BRANCH   3   7
HETATM    7  C8  UNL     1     -33.078   6.966   3.533  1.00 20.00     0.102 C 
HETATM    8 BR11 UNL     1     -33.562   8.233   4.947  1.00 20.00    -0.085 Br
BRANCH   7   9
HETATM    9  C7  UNL     1     -34.229   6.068   3.234  1.00 20.00     0.005 A 
HETATM   10  C5  UNL     1     -34.534   4.902   4.131  1.00 20.00     0.006 A 
HETATM   11  C6  UNL     1     -35.454   6.091   4.104  1.00 20.00     0.006 A 
ENDBRANCH   7   9
ENDBRANCH   3   7
TORSDOF 2
ENDMDL
MODEL 5
REMARK VINA RESULT:       1.2      1.815      2.456
REMARK  2 active torsions:
REMARK  status: ('A' for Active; 'I' for Inactive)
REMARK    1  A    between atoms: C3_3  and  C8_8 
REMARK    2  A    between atoms: C7_7  and  C8_8 
ROOT
HETATM    1  C1  UNL     1     -35.089   6.033   4.171  1.00 20.00     0.018 A 
HETATM    2  C2  UNL     1     -35.102   4.663   4.562  1.00 20.00     0.032 A 
HETATM    3  C3  UNL     1     -33.925   6.374   3.519  1.00 20.00    -0.001 A 
HETATM    4  C4  UNL     1     -33.947   4.009   4.193  1.00 20.00     0.075 A 
HETATM    5  S9  UNL     1     -32.853   5.044   3.379  1.00 20.00    -0.081 SA
HETATM    6 CL10 UNL     1     -33.541   2.365   4.460  1.00 20.00    -0.076 Cl
ENDROOT
BRANCH   3   7
HETATM    7  C8  UNL     1     -33.522   7.715   2.949  1.00 20.00     0.102 C 
HETATM    8 BR11 UNL     1     -32.473   8.693   4.284  1.00 20.00    -0.085 Br
BRANCH   7   9
HETATM    9  C7  UNL     1     -32.763   7.616   1.671  1.00 20.00     0.005 A 
HETATM   10  C5  UNL     1     -32.335   8.861   0.946  1.00 20.00     0.006 A 
HETATM   11  C6  UNL     1     -31.310   7.995   1.623  1.00 20.00     0.006 A 
ENDBRANCH   7   9
ENDBRANCH   3   7
TORSDOF 2
ENDMDL
MODEL 6
REMARK VINA RESULT:       2.2      1.599      2.021
REMARK  2 active torsions:
REMARK  status: ('A' for Active; 'I' for Inactive)
REMARK    1  A    between atoms: C3_3  and  C8_8 
REMARK    2  A    between atoms: C7_7  and  C8_8 
ROOT
HETATM    1  C1  UNL     1     -32.452   6.182   1.316  1.00 20.00     0.018 A 
HETATM    2  C2  UNL     1     -32.841   4.911   1.828  1.00 20.00     0.032 A 
HETATM    3  C3  UNL     1     -32.812   7.211   2.158  1.00 20.00    -0.001 A 
HETATM    4  C4  UNL     1     -33.484   5.016   3.042  1.00 20.00     0.075 A 
HETATM    5  S9  UNL     1     -33.617   6.642   3.560  1.00 20.00    -0.081 SA
HETATM    6 CL10 UNL     1     -34.117   3.750   4.008  1.00 20.00    -0.076 Cl
ENDROOT
BRANCH   3   7
HETATM    7  C8  UNL     1     -32.585   8.695   1.983  1.00 20.00     0.102 C 
HETATM    8 BR11 UNL     1     -31.431   9.345   3.427  1.00 20.00    -0.085 Br
BRANCH   7   9
HETATM    9  C7  UNL     1     -32.003   9.056   0.659  1.00 20.00     0.005 A 
HETATM   10  C5  UNL     1     -32.902   9.377  -0.501  1.00 20.00     0.006 A 
HETATM   11  C6  UNL     1     -32.097  10.467   0.150  1.00 20.00     0.006 A 
ENDBRANCH   7   9
ENDBRANCH   3   7
TORSDOF 2
ENDMDL
MODEL 7
REMARK VINA RESULT:       2.8      3.044      4.733
REMARK  2 active torsions:
REMARK  status: ('A' for Active; 'I' for Inactive)
REMARK    1  A    between atoms: C3_3  and  C8_8 
REMARK    2  A    between atoms: C7_7  and  C8_8 
ROOT
HETATM    1  C1  UNL     1     -31.596   8.044   2.213  1.00 20.00     0.018 A 
HETATM    2  C2  UNL     1     -31.257   9.272   1.574  1.00 20.00     0.032 A 
HETATM    3  C3  UNL     1     -32.680   7.436   1.620  1.00 20.00    -0.001 A 
HETATM    4  C4  UNL     1     -32.094   9.555   0.518  1.00 20.00     0.075 A 
HETATM    5  S9  UNL     1     -33.284   8.344   0.298  1.00 20.00    -0.081 SA
HETATM    6 CL10 UNL     1     -32.051  10.918  -0.520  1.00 20.00    -0.076 Cl
ENDROOT
BRANCH   3   7
HETATM    7  C8  UNL     1     -33.348   6.131   1.992  1.00 20.00     0.102 C 
HETATM    8 BR11 UNL     1     -32.134   4.648   1.587  1.00 20.00    -0.085 Br
BRANCH   7   9
HETATM    9  C7  UNL     1     -33.779   6.068   3.416  1.00 20.00     0.005 A 
HETATM   10  C5  UNL     1     -34.249   7.308   4.122  1.00 20.00     0.006 A 
HETATM   11  C6  UNL     1     -35.230   6.222   3.776  1.00 20.00     0.006 A 
ENDBRANCH   7   9
ENDBRANCH   3   7
TORSDOF 2
ENDMDL
MODEL 8
REMARK VINA RESULT:       3.0      2.540      3.788
REMARK  2 active torsions:
REMARK  status: ('A' for Active; 'I' for Inactive)
REMARK    1  A    between atoms: C3_3  and  C8_8 
REMARK    2  A    between atoms: C7_7  and  C8_8 
ROOT
HETATM    1  C1  UNL     1     -31.550   5.525   1.528  1.00 20.00     0.018 A 
HETATM    2  C2  UNL     1     -31.945   4.411   0.731  1.00 20.00     0.032 A 
HETATM    3  C3  UNL     1     -32.513   6.509   1.554  1.00 20.00    -0.001 A 
HETATM    4  C4  UNL     1     -33.194   4.587   0.179  1.00 20.00     0.075 A 
HETATM    5  S9  UNL     1     -33.887   6.090   0.621  1.00 20.00    -0.081 SA
HETATM    6 CL10 UNL     1     -34.053   3.509  -0.840  1.00 20.00    -0.076 Cl
ENDROOT
BRANCH   3   7
HETATM    7  C8  UNL     1     -32.483   7.837   2.277  1.00 20.00     0.102 C 
HETATM    8 BR11 UNL     1     -32.320   9.282   0.964  1.00 20.00    -0.085 Br
BRANCH   7   9
HETATM    9  C7  UNL     1     -33.668   8.067   3.149  1.00 20.00     0.005 A 
HETATM   10  C5  UNL     1     -34.319   6.915   3.862  1.00 20.00     0.006 A 
HETATM   11  C6  UNL     1     -33.546   7.942   4.642  1.00 20.00     0.006 A 
ENDBRANCH   7   9
ENDBRANCH   3   7
TORSDOF 2
ENDMDL
MODEL 9
REMARK VINA RESULT:       3.0      3.320      4.884
REMARK  2 active torsions:
REMARK  status: ('A' for Active; 'I' for Inactive)
REMARK    1  A    between atoms: C3_3  and  C8_8 
REMARK    2  A    between atoms: C7_7  and  C8_8 
ROOT
HETATM    1  C1  UNL     1     -32.465   4.986   1.515  1.00 20.00     0.018 A 
HETATM    2  C2  UNL     1     -31.752   6.049   0.888  1.00 20.00     0.032 A 
HETATM    3  C3  UNL     1     -33.255   5.433   2.550  1.00 20.00    -0.001 A 
HETATM    4  C4  UNL     1     -32.025   7.268   1.469  1.00 20.00     0.075 A 
HETATM    5  S9  UNL     1     -33.137   7.129   2.763  1.00 20.00    -0.081 SA
HETATM    6 CL10 UNL     1     -31.393   8.801   1.037  1.00 20.00    -0.076 Cl
ENDROOT
BRANCH   3   7
HETATM    7  C8  UNL     1     -34.160   4.631   3.458  1.00 20.00     0.102 C 
HETATM    8 BR11 UNL     1     -33.068   3.441   4.567  1.00 20.00    -0.085 Br
BRANCH   7   9
HETATM    9  C7  UNL     1     -35.038   5.473   4.319  1.00 20.00     0.005 A 
HETATM   10  C5  UNL     1     -34.799   6.953   4.426  1.00 20.00     0.006 A 
HETATM   11  C6  UNL     1     -36.008   6.437   3.697  1.00 20.00     0.006 A 
ENDBRANCH   7   9
ENDBRANCH   3   7
TORSDOF 2
ENDMDL
