MODEL 1
REMARK VINA RESULT:       1.0      0.000      0.000
REMARK  2 active torsions:
REMARK  status: ('A' for Active; 'I' for Inactive)
REMARK    1  A    between atoms: C4_4  and  C9_9 
REMARK    2  A    between atoms: C7_7  and  C9_9 
ROOT
HETATM    1  C1  UNL     1     -34.503   7.419   4.562  1.00 20.00     0.015 A 
HETATM    2  C2  UNL     1     -33.610   8.210   3.784  1.00 20.00     0.017 A 
HETATM    3  C3  UNL     1     -34.623   6.137   4.071  1.00 20.00    -0.021 A 
HETATM    4  C4  UNL     1     -33.081   7.503   2.726  1.00 20.00    -0.002 A 
HETATM    5  C8  UNL     1     -35.445   5.024   4.593  1.00 20.00     0.056 C 
HETATM    6  S10 UNL     1     -33.661   5.893   2.676  1.00 20.00    -0.099 SA
ENDROOT
BRANCH   4   7
HETATM    7  C9  UNL     1     -32.103   7.975   1.674  1.00 20.00     0.102 C 
HETATM    8 BR11 UNL     1     -31.313   6.419   0.785  1.00 20.00    -0.085 Br
BRANCH   7   9
HETATM    9  C7  UNL     1     -32.708   8.889   0.666  1.00 20.00     0.005 A 
HETATM   10  C5  UNL     1     -32.716  10.375   0.897  1.00 20.00     0.006 A 
HETATM   11  C6  UNL     1     -31.832   9.785  -0.167  1.00 20.00     0.006 A 
ENDBRANCH   7   9
ENDBRANCH   4   7
TORSDOF 2
ENDMDL
MODEL 2
REMARK VINA RESULT:       1.0      2.560      5.376
REMARK  2 active torsions:
REMARK  status: ('A' for Active; 'I' for Inactive)
REMARK    1  A    between atoms: C4_4  and  C9_9 
REMARK    2  A    between atoms: C7_7  and  C9_9 
ROOT
HETATM    1  C1  UNL     1     -32.027   6.653   0.906  1.00 20.00     0.015 A 
HETATM    2  C2  UNL     1     -32.530   5.616   1.743  1.00 20.00     0.017 A 
HETATM    3  C3  UNL     1     -32.268   7.905   1.430  1.00 20.00    -0.021 A 
HETATM    4  C4  UNL     1     -33.137   6.114   2.875  1.00 20.00    -0.002 A 
HETATM    5  C8  UNL     1     -31.905   9.224   0.869  1.00 20.00     0.056 C 
HETATM    6  S10 UNL     1     -33.099   7.824   2.926  1.00 20.00    -0.099 SA
ENDROOT
BRANCH   4   7
HETATM    7  C9  UNL     1     -33.792   5.350   4.004  1.00 20.00     0.102 C 
HETATM    8 BR11 UNL     1     -35.654   5.932   4.180  1.00 20.00    -0.085 Br
BRANCH   7   9
HETATM    9  C7  UNL     1     -33.730   3.871   3.839  1.00 20.00     0.005 A 
HETATM   10  C5  UNL     1     -32.422   3.146   3.988  1.00 20.00     0.006 A 
HETATM   11  C6  UNL     1     -33.494   2.984   5.030  1.00 20.00     0.006 A 
ENDBRANCH   7   9
ENDBRANCH   4   7
TORSDOF 2
ENDMDL
MODEL 3
REMARK VINA RESULT:       1.6      2.089      5.054
REMARK  2 active torsions:
REMARK  status: ('A' for Active; 'I' for Inactive)
REMARK    1  A    between atoms: C4_4  and  C9_9 
REMARK    2  A    between atoms: C7_7  and  C9_9 
ROOT
HETATM    1  C1  UNL     1     -31.481   8.402   0.376  1.00 20.00     0.015 A 
HETATM    2  C2  UNL     1     -31.658   7.401   1.374  1.00 20.00     0.017 A 
HETATM    3  C3  UNL     1     -32.300   9.491   0.584  1.00 20.00    -0.021 A 
HETATM    4  C4  UNL     1     -32.605   7.762   2.307  1.00 20.00    -0.002 A 
HETATM    5  C8  UNL     1     -32.412  10.726  -0.222  1.00 20.00     0.056 C 
HETATM    6  S10 UNL     1     -33.276   9.303   1.978  1.00 20.00    -0.099 SA
ENDROOT
BRANCH   4   7
HETATM    7  C9  UNL     1     -33.081   6.985   3.514  1.00 20.00     0.102 C 
HETATM    8 BR11 UNL     1     -33.554   8.241   4.942  1.00 20.00    -0.085 Br
BRANCH   7   9
HETATM    9  C7  UNL     1     -34.229   6.081   3.226  1.00 20.00     0.005 A 
HETATM   10  C5  UNL     1     -34.480   4.876   4.089  1.00 20.00     0.006 A 
HETATM   11  C6  UNL     1     -35.418   6.049   4.146  1.00 20.00     0.006 A 
ENDBRANCH   7   9
ENDBRANCH   4   7
TORSDOF 2
ENDMDL
MODEL 4
REMARK VINA RESULT:       1.7      1.356      1.716
REMARK  2 active torsions:
REMARK  status: ('A' for Active; 'I' for Inactive)
REMARK    1  A    between atoms: C4_4  and  C9_9 
REMARK    2  A    between atoms: C7_7  and  C9_9 
ROOT
HETATM    1  C1  UNL     1     -33.537   5.374   2.435  1.00 20.00     0.015 A 
HETATM    2  C2  UNL     1     -32.677   6.196   1.651  1.00 20.00     0.017 A 
HETATM    3  C3  UNL     1     -34.212   6.096   3.394  1.00 20.00    -0.021 A 
HETATM    4  C4  UNL     1     -32.728   7.517   2.042  1.00 20.00    -0.002 A 
HETATM    5  C8  UNL     1     -35.187   5.611   4.395  1.00 20.00     0.056 C 
HETATM    6  S10 UNL     1     -33.808   7.759   3.348  1.00 20.00    -0.099 SA
ENDROOT
BRANCH   4   7
HETATM    7  C9  UNL     1     -31.975   8.697   1.471  1.00 20.00     0.102 C 
HETATM    8 BR11 UNL     1     -30.851   8.086  -0.013  1.00 20.00    -0.085 Br
BRANCH   7   9
HETATM    9  C7  UNL     1     -32.859   9.807   1.020  1.00 20.00     0.005 A 
HETATM   10  C5  UNL     1     -32.266  11.069   0.458  1.00 20.00     0.006 A 
HETATM   11  C6  UNL     1     -33.000  10.117  -0.445  1.00 20.00     0.006 A 
ENDBRANCH   7   9
ENDBRANCH   4   7
TORSDOF 2
ENDMDL
MODEL 5
REMARK VINA RESULT:       2.0      1.824      2.487
REMARK  2 active torsions:
REMARK  status: ('A' for Active; 'I' for Inactive)
REMARK    1  A    between atoms: C4_4  and  C9_9 
REMARK    2  A    between atoms: C7_7  and  C9_9 
ROOT
HETATM    1  C1  UNL     1     -35.085   4.663   4.560  1.00 20.00     0.015 A 
HETATM    2  C2  UNL     1     -35.089   6.027   4.151  1.00 20.00     0.017 A 
HETATM    3  C3  UNL     1     -33.917   4.021   4.210  1.00 20.00    -0.021 A 
HETATM    4  C4  UNL     1     -33.924   6.377   3.503  1.00 20.00    -0.002 A 
HETATM    5  C8  UNL     1     -33.531   2.615   4.455  1.00 20.00     0.056 C 
HETATM    6  S10 UNL     1     -32.833   5.063   3.391  1.00 20.00    -0.099 SA
ENDROOT
BRANCH   4   7
HETATM    7  C9  UNL     1     -33.538   7.717   2.919  1.00 20.00     0.102 C 
HETATM    8 BR11 UNL     1     -32.494   8.718   4.240  1.00 20.00    -0.085 Br
BRANCH   7   9
HETATM    9  C7  UNL     1     -32.782   7.614   1.640  1.00 20.00     0.005 A 
HETATM   10  C5  UNL     1     -32.315   8.856   0.933  1.00 20.00     0.006 A 
HETATM   11  C6  UNL     1     -31.316   7.950   1.596  1.00 20.00     0.006 A 
ENDBRANCH   7   9
ENDBRANCH   4   7
TORSDOF 2
ENDMDL
MODEL 6
REMARK VINA RESULT:       2.4      1.866      2.233
REMARK  2 active torsions:
REMARK  status: ('A' for Active; 'I' for Inactive)
REMARK    1  A    between atoms: C4_4  and  C9_9 
REMARK    2  A    between atoms: C7_7  and  C9_9 
ROOT
HETATM    1  C1  UNL     1     -33.005   4.930   1.904  1.00 20.00     0.015 A 
HETATM    2  C2  UNL     1     -32.557   6.176   1.379  1.00 20.00     0.017 A 
HETATM    3  C3  UNL     1     -33.644   5.079   3.116  1.00 20.00    -0.021 A 
HETATM    4  C4  UNL     1     -32.871   7.230   2.208  1.00 20.00    -0.002 A 
HETATM    5  C8  UNL     1     -34.247   4.035   3.973  1.00 20.00     0.056 C 
HETATM    6  S10 UNL     1     -33.703   6.716   3.614  1.00 20.00    -0.099 SA
ENDROOT
BRANCH   4   7
HETATM    7  C9  UNL     1     -32.575   8.701   2.015  1.00 20.00     0.102 C 
HETATM    8 BR11 UNL     1     -31.381   9.310   3.443  1.00 20.00    -0.085 Br
BRANCH   7   9
HETATM    9  C7  UNL     1     -31.987   9.020   0.684  1.00 20.00     0.005 A 
HETATM   10  C5  UNL     1     -32.880   9.268  -0.499  1.00 20.00     0.006 A 
HETATM   11  C6  UNL     1     -32.113  10.406   0.114  1.00 20.00     0.006 A 
ENDBRANCH   7   9
ENDBRANCH   4   7
TORSDOF 2
ENDMDL
MODEL 7
REMARK VINA RESULT:       2.7      1.619      4.678
REMARK  2 active torsions:
REMARK  status: ('A' for Active; 'I' for Inactive)
REMARK    1  A    between atoms: C4_4  and  C9_9 
REMARK    2  A    between atoms: C7_7  and  C9_9 
ROOT
HETATM    1  C1  UNL     1     -31.943   9.432   1.914  1.00 20.00     0.015 A 
HETATM    2  C2  UNL     1     -32.172   8.168   2.528  1.00 20.00     0.017 A 
HETATM    3  C3  UNL     1     -32.315   9.439   0.587  1.00 20.00    -0.021 A 
HETATM    4  C4  UNL     1     -32.712   7.256   1.648  1.00 20.00    -0.002 A 
HETATM    5  C8  UNL     1     -32.237  10.550  -0.386  1.00 20.00     0.056 C 
HETATM    6  S10 UNL     1     -32.939   7.924   0.089  1.00 20.00    -0.099 SA
ENDROOT
BRANCH   4   7
HETATM    7  C9  UNL     1     -33.099   5.816   1.905  1.00 20.00     0.102 C 
HETATM    8 BR11 UNL     1     -31.717   4.638   1.170  1.00 20.00    -0.085 Br
BRANCH   7   9
HETATM    9  C7  UNL     1     -33.324   5.507   3.344  1.00 20.00     0.005 A 
HETATM   10  C5  UNL     1     -34.654   5.797   3.983  1.00 20.00     0.006 A 
HETATM   11  C6  UNL     1     -34.230   4.374   3.743  1.00 20.00     0.006 A 
ENDBRANCH   7   9
ENDBRANCH   4   7
TORSDOF 2
ENDMDL
MODEL 8
REMARK VINA RESULT:       3.1      2.148      4.750
REMARK  2 active torsions:
REMARK  status: ('A' for Active; 'I' for Inactive)
REMARK    1  A    between atoms: C4_4  and  C9_9 
REMARK    2  A    between atoms: C7_7  and  C9_9 
ROOT
HETATM    1  C1  UNL     1     -31.717   6.187   0.922  1.00 20.00     0.015 A 
HETATM    2  C2  UNL     1     -32.431   5.099   1.503  1.00 20.00     0.017 A 
HETATM    3  C3  UNL     1     -31.998   7.383   1.546  1.00 20.00    -0.021 A 
HETATM    4  C4  UNL     1     -33.231   5.506   2.548  1.00 20.00    -0.002 A 
HETATM    5  C8  UNL     1     -31.463   8.728   1.242  1.00 20.00     0.056 C 
HETATM    6  S10 UNL     1     -33.119   7.191   2.826  1.00 20.00    -0.099 SA
ENDROOT
BRANCH   4   7
HETATM    7  C9  UNL     1     -34.139   4.667   3.419  1.00 20.00     0.102 C 
HETATM    8 BR11 UNL     1     -33.052   3.422   4.471  1.00 20.00    -0.085 Br
BRANCH   7   9
HETATM    9  C7  UNL     1     -35.012   5.471   4.319  1.00 20.00     0.005 A 
HETATM   10  C5  UNL     1     -34.877   6.967   4.368  1.00 20.00     0.006 A 
HETATM   11  C6  UNL     1     -36.094   6.343   3.743  1.00 20.00     0.006 A 
ENDBRANCH   7   9
ENDBRANCH   4   7
TORSDOF 2
ENDMDL
MODEL 9
REMARK VINA RESULT:       3.2      1.926      2.458
REMARK  2 active torsions:
REMARK  status: ('A' for Active; 'I' for Inactive)
REMARK    1  A    between atoms: C4_4  and  C9_9 
REMARK    2  A    between atoms: C7_7  and  C9_9 
ROOT
HETATM    1  C1  UNL     1     -34.530   4.655   4.469  1.00 20.00     0.015 A 
HETATM    2  C2  UNL     1     -34.413   5.679   3.486  1.00 20.00     0.017 A 
HETATM    3  C3  UNL     1     -33.537   3.707   4.350  1.00 20.00    -0.021 A 
HETATM    4  C4  UNL     1     -33.335   5.476   2.653  1.00 20.00    -0.002 A 
HETATM    5  C8  UNL     1     -33.313   2.499   5.173  1.00 20.00     0.056 C 
HETATM    6  S10 UNL     1     -32.469   4.055   3.057  1.00 20.00    -0.099 SA
ENDROOT
BRANCH   4   7
HETATM    7  C9  UNL     1     -32.868   6.327   1.493  1.00 20.00     0.102 C 
HETATM    8 BR11 UNL     1     -34.021   5.991  -0.055  1.00 20.00    -0.085 Br
BRANCH   7   9
HETATM    9  C7  UNL     1     -32.832   7.784   1.799  1.00 20.00     0.005 A 
HETATM   10  C5  UNL     1     -31.614   8.396   2.432  1.00 20.00     0.006 A 
HETATM   11  C6  UNL     1     -31.951   8.704   0.999  1.00 20.00     0.006 A 
ENDBRANCH   7   9
ENDBRANCH   4   7
TORSDOF 2
ENDMDL
