MODEL 1
REMARK VINA RESULT:       0.9      0.000      0.000
REMARK  2 active torsions:
REMARK  status: ('A' for Active; 'I' for Inactive)
REMARK    1  A    between atoms: C4_4  and  C10_10 
REMARK    2  A    between atoms: C7_7  and  C10_10 
ROOT
HETATM    1  C1  UNL     1     -34.374   7.588   4.401  1.00 20.00     0.015 A 
HETATM    2  C2  UNL     1     -33.273   8.137   3.681  1.00 20.00     0.017 A 
HETATM    3  C3  UNL     1     -34.654   6.297   4.014  1.00 20.00    -0.021 A 
HETATM    4  C4  UNL     1     -32.755   7.244   2.771  1.00 20.00     0.002 A 
HETATM    5  C8  UNL     1     -35.709   5.393   4.519  1.00 20.00     0.056 C 
HETATM    6  S11 UNL     1     -33.593   5.750   2.787  1.00 20.00    -0.098 SA
ENDROOT
BRANCH   4   7
HETATM    7  C10 UNL     1     -31.583   7.436   1.811  1.00 20.00     0.126 C 
HETATM    8 CL12 UNL     1     -31.686   6.171   0.533  1.00 20.00    -0.119 Cl
BRANCH   7   9
HETATM    9  C7  UNL     1     -31.479   8.795   1.210  1.00 20.00     0.013 A 
HETATM   10  C5  UNL     1     -31.204   8.952  -0.262  1.00 20.00     0.011 A 
HETATM   11  C6  UNL     1     -32.561   9.300   0.291  1.00 20.00    -0.012 A 
HETATM   12  C9  UNL     1     -32.999  10.722   0.363  1.00 20.00     0.010 C 
ENDBRANCH   7   9
ENDBRANCH   4   7
TORSDOF 2
ENDMDL
MODEL 2
REMARK VINA RESULT:       1.2      1.868      2.255
REMARK  2 active torsions:
REMARK  status: ('A' for Active; 'I' for Inactive)
REMARK    1  A    between atoms: C4_4  and  C10_10 
REMARK    2  A    between atoms: C7_7  and  C10_10 
ROOT
HETATM    1  C1  UNL     1     -34.521   4.804   4.400  1.00 20.00     0.015 A 
HETATM    2  C2  UNL     1     -34.391   5.824   3.412  1.00 20.00     0.017 A 
HETATM    3  C3  UNL     1     -33.564   3.824   4.262  1.00 20.00    -0.021 A 
HETATM    4  C4  UNL     1     -33.339   5.582   2.557  1.00 20.00     0.002 A 
HETATM    5  C8  UNL     1     -33.364   2.610   5.082  1.00 20.00     0.056 C 
HETATM    6  S11 UNL     1     -32.513   4.133   2.945  1.00 20.00    -0.098 SA
ENDROOT
BRANCH   4   7
HETATM    7  C10 UNL     1     -32.864   6.423   1.374  1.00 20.00     0.126 C 
HETATM    8 CL12 UNL     1     -33.911   6.047  -0.043  1.00 20.00    -0.119 Cl
BRANCH   7   9
HETATM    9  C7  UNL     1     -32.812   7.890   1.625  1.00 20.00     0.013 A 
HETATM   10  C5  UNL     1     -31.561   8.518   2.182  1.00 20.00     0.011 A 
HETATM   11  C6  UNL     1     -31.961   8.776   0.753  1.00 20.00    -0.012 A 
HETATM   12  C9  UNL     1     -32.456  10.120   0.345  1.00 20.00     0.010 C 
ENDBRANCH   7   9
ENDBRANCH   4   7
TORSDOF 2
ENDMDL
MODEL 3
REMARK VINA RESULT:       1.3      1.898      5.047
REMARK  2 active torsions:
REMARK  status: ('A' for Active; 'I' for Inactive)
REMARK    1  A    between atoms: C4_4  and  C10_10 
REMARK    2  A    between atoms: C7_7  and  C10_10 
ROOT
HETATM    1  C1  UNL     1     -31.959   9.329   2.004  1.00 20.00     0.015 A 
HETATM    2  C2  UNL     1     -32.169   8.044   2.585  1.00 20.00     0.017 A 
HETATM    3  C3  UNL     1     -32.335   9.366   0.680  1.00 20.00    -0.021 A 
HETATM    4  C4  UNL     1     -32.697   7.149   1.682  1.00 20.00     0.002 A 
HETATM    5  C8  UNL     1     -32.276  10.504  -0.262  1.00 20.00     0.056 C 
HETATM    6  S11 UNL     1     -32.939   7.857   0.141  1.00 20.00    -0.098 SA
ENDROOT
BRANCH   4   7
HETATM    7  C10 UNL     1     -33.066   5.684   1.901  1.00 20.00     0.126 C 
HETATM    8 CL12 UNL     1     -31.851   4.661   1.051  1.00 20.00    -0.119 Cl
BRANCH   7   9
HETATM    9  C7  UNL     1     -33.203   5.276   3.326  1.00 20.00     0.013 A 
HETATM   10  C5  UNL     1     -34.548   5.327   4.002  1.00 20.00     0.011 A 
HETATM   11  C6  UNL     1     -33.917   3.997   3.682  1.00 20.00    -0.012 A 
HETATM   12  C9  UNL     1     -33.398   3.131   4.776  1.00 20.00     0.010 C 
ENDBRANCH   7   9
ENDBRANCH   4   7
TORSDOF 2
ENDMDL
MODEL 4
REMARK VINA RESULT:       1.3      0.877      1.192
REMARK  2 active torsions:
REMARK  status: ('A' for Active; 'I' for Inactive)
REMARK    1  A    between atoms: C4_4  and  C10_10 
REMARK    2  A    between atoms: C7_7  and  C10_10 
ROOT
HETATM    1  C1  UNL     1     -34.609   7.127   4.624  1.00 20.00     0.015 A 
HETATM    2  C2  UNL     1     -33.796   8.057   3.913  1.00 20.00     0.017 A 
HETATM    3  C3  UNL     1     -34.518   5.856   4.102  1.00 20.00    -0.021 A 
HETATM    4  C4  UNL     1     -33.116   7.461   2.875  1.00 20.00     0.002 A 
HETATM    5  C8  UNL     1     -35.200   4.624   4.555  1.00 20.00     0.056 C 
HETATM    6  S11 UNL     1     -33.457   5.786   2.760  1.00 20.00    -0.098 SA
ENDROOT
BRANCH   4   7
HETATM    7  C10 UNL     1     -32.150   8.100   1.880  1.00 20.00     0.126 C 
HETATM    8 CL12 UNL     1     -31.242   6.784   1.049  1.00 20.00    -0.119 Cl
BRANCH   7   9
HETATM    9  C7  UNL     1     -32.780   9.019   0.893  1.00 20.00     0.013 A 
HETATM   10  C5  UNL     1     -32.804  10.503   1.149  1.00 20.00     0.011 A 
HETATM   11  C6  UNL     1     -31.924   9.941   0.064  1.00 20.00    -0.012 A 
HETATM   12  C9  UNL     1     -32.253  10.181  -1.368  1.00 20.00     0.010 C 
ENDBRANCH   7   9
ENDBRANCH   4   7
TORSDOF 2
ENDMDL
MODEL 5
REMARK VINA RESULT:       1.7      2.124      2.773
REMARK  2 active torsions:
REMARK  status: ('A' for Active; 'I' for Inactive)
REMARK    1  A    between atoms: C4_4  and  C10_10 
REMARK    2  A    between atoms: C7_7  and  C10_10 
ROOT
HETATM    1  C1  UNL     1     -35.142   4.518   4.464  1.00 20.00     0.015 A 
HETATM    2  C2  UNL     1     -35.143   5.923   4.224  1.00 20.00     0.017 A 
HETATM    3  C3  UNL     1     -33.917   3.948   4.200  1.00 20.00    -0.021 A 
HETATM    4  C4  UNL     1     -33.917   6.372   3.784  1.00 20.00     0.002 A 
HETATM    5  C8  UNL     1     -33.515   2.530   4.326  1.00 20.00     0.056 C 
HETATM    6  S11 UNL     1     -32.773   5.104   3.664  1.00 20.00    -0.098 SA
ENDROOT
BRANCH   4   7
HETATM    7  C10 UNL     1     -33.502   7.795   3.419  1.00 20.00     0.126 C 
HETATM    8 CL12 UNL     1     -33.070   8.665   4.935  1.00 20.00    -0.119 Cl
BRANCH   7   9
HETATM    9  C7  UNL     1     -32.405   7.892   2.416  1.00 20.00     0.013 A 
HETATM   10  C5  UNL     1     -32.398   6.988   1.212  1.00 20.00     0.011 A 
HETATM   11  C6  UNL     1     -32.679   8.458   1.047  1.00 20.00    -0.012 A 
HETATM   12  C9  UNL     1     -31.679   9.344   0.391  1.00 20.00     0.010 C 
ENDBRANCH   7   9
ENDBRANCH   4   7
TORSDOF 2
ENDMDL
MODEL 6
REMARK VINA RESULT:       2.0      1.379      1.871
REMARK  2 active torsions:
REMARK  status: ('A' for Active; 'I' for Inactive)
REMARK    1  A    between atoms: C4_4  and  C10_10 
REMARK    2  A    between atoms: C7_7  and  C10_10 
ROOT
HETATM    1  C1  UNL     1     -33.850   5.067   2.808  1.00 20.00     0.015 A 
HETATM    2  C2  UNL     1     -32.967   5.950   2.122  1.00 20.00     0.017 A 
HETATM    3  C3  UNL     1     -34.534   5.701   3.821  1.00 20.00    -0.021 A 
HETATM    4  C4  UNL     1     -33.009   7.226   2.638  1.00 20.00     0.002 A 
HETATM    5  C8  UNL     1     -35.532   5.135   4.753  1.00 20.00     0.056 C 
HETATM    6  S11 UNL     1     -34.110   7.356   3.943  1.00 20.00    -0.098 SA
ENDROOT
BRANCH   4   7
HETATM    7  C10 UNL     1     -32.225   8.458   2.193  1.00 20.00     0.126 C 
HETATM    8 CL12 UNL     1     -30.650   7.910   1.511  1.00 20.00    -0.119 Cl
BRANCH   7   9
HETATM    9  C7  UNL     1     -32.940   9.347   1.235  1.00 20.00     0.013 A 
HETATM   10  C5  UNL     1     -32.677  10.830   1.238  1.00 20.00     0.011 A 
HETATM   11  C6  UNL     1     -32.194   9.982   0.091  1.00 20.00    -0.012 A 
HETATM   12  C9  UNL     1     -32.835  10.096  -1.248  1.00 20.00     0.010 C 
ENDBRANCH   7   9
ENDBRANCH   4   7
TORSDOF 2
ENDMDL
MODEL 7
REMARK VINA RESULT:       2.1      2.286      5.133
REMARK  2 active torsions:
REMARK  status: ('A' for Active; 'I' for Inactive)
REMARK    1  A    between atoms: C4_4  and  C10_10 
REMARK    2  A    between atoms: C7_7  and  C10_10 
ROOT
HETATM    1  C1  UNL     1     -31.459   8.528   0.431  1.00 20.00     0.015 A 
HETATM    2  C2  UNL     1     -31.592   7.607   1.510  1.00 20.00     0.017 A 
HETATM    3  C3  UNL     1     -32.348   9.574   0.531  1.00 20.00    -0.021 A 
HETATM    4  C4  UNL     1     -32.579   7.985   2.393  1.00 20.00     0.002 A 
HETATM    5  C8  UNL     1     -32.522  10.725  -0.382  1.00 20.00     0.056 C 
HETATM    6  S11 UNL     1     -33.339   9.445   1.921  1.00 20.00    -0.098 SA
ENDROOT
BRANCH   4   7
HETATM    7  C10 UNL     1     -33.033   7.280   3.669  1.00 20.00     0.126 C 
HETATM    8 CL12 UNL     1     -33.925   8.471   4.685  1.00 20.00    -0.119 Cl
BRANCH   7   9
HETATM    9  C7  UNL     1     -33.843   6.049   3.454  1.00 20.00     0.013 A 
HETATM   10  C5  UNL     1     -33.601   5.186   2.244  1.00 20.00     0.011 A 
HETATM   11  C6  UNL     1     -33.212   4.691   3.612  1.00 20.00    -0.012 A 
HETATM   12  C9  UNL     1     -33.973   3.583   4.253  1.00 20.00     0.010 C 
ENDBRANCH   7   9
ENDBRANCH   4   7
TORSDOF 2
ENDMDL
MODEL 8
REMARK VINA RESULT:       2.1      2.382      5.176
REMARK  2 active torsions:
REMARK  status: ('A' for Active; 'I' for Inactive)
REMARK    1  A    between atoms: C4_4  and  C10_10 
REMARK    2  A    between atoms: C7_7  and  C10_10 
ROOT
HETATM    1  C1  UNL     1     -32.013   8.537   3.156  1.00 20.00     0.015 A 
HETATM    2  C2  UNL     1     -32.906   7.910   4.073  1.00 20.00     0.017 A 
HETATM    3  C3  UNL     1     -32.151   8.042   1.879  1.00 20.00    -0.021 A 
HETATM    4  C4  UNL     1     -33.693   6.960   3.461  1.00 20.00     0.002 A 
HETATM    5  C8  UNL     1     -31.415   8.430   0.657  1.00 20.00     0.056 C 
HETATM    6  S11 UNL     1     -33.354   6.827   1.787  1.00 20.00    -0.098 SA
ENDROOT
BRANCH   4   7
HETATM    7  C10 UNL     1     -34.767   6.072   4.082  1.00 20.00     0.126 C 
HETATM    8 CL12 UNL     1     -36.354   6.508   3.349  1.00 20.00    -0.119 Cl
BRANCH   7   9
HETATM    9  C7  UNL     1     -34.514   4.608   3.974  1.00 20.00     0.013 A 
HETATM   10  C5  UNL     1     -33.530   4.083   2.962  1.00 20.00     0.011 A 
HETATM   11  C6  UNL     1     -33.198   4.033   4.430  1.00 20.00    -0.012 A 
HETATM   12  C9  UNL     1     -33.161   2.728   5.146  1.00 20.00     0.010 C 
ENDBRANCH   7   9
ENDBRANCH   4   7
TORSDOF 2
ENDMDL
MODEL 9
REMARK VINA RESULT:       2.2      2.047      5.083
REMARK  2 active torsions:
REMARK  status: ('A' for Active; 'I' for Inactive)
REMARK    1  A    between atoms: C4_4  and  C10_10 
REMARK    2  A    between atoms: C7_7  and  C10_10 
ROOT
HETATM    1  C1  UNL     1     -31.591   8.390   0.339  1.00 20.00     0.015 A 
HETATM    2  C2  UNL     1     -31.664   7.564   1.498  1.00 20.00     0.017 A 
HETATM    3  C3  UNL     1     -32.330   9.544   0.477  1.00 20.00    -0.021 A 
HETATM    4  C4  UNL     1     -32.457   8.119   2.478  1.00 20.00     0.002 A 
HETATM    5  C8  UNL     1     -32.507  10.645  -0.492  1.00 20.00     0.056 C 
HETATM    6  S11 UNL     1     -33.108   9.629   2.000  1.00 20.00    -0.098 SA
ENDROOT
BRANCH   4   7
HETATM    7  C10 UNL     1     -32.791   7.560   3.859  1.00 20.00     0.126 C 
HETATM    8 CL12 UNL     1     -32.342   8.795   5.092  1.00 20.00    -0.119 Cl
BRANCH   7   9
HETATM    9  C7  UNL     1     -34.202   7.120   4.035  1.00 20.00     0.013 A 
HETATM   10  C5  UNL     1     -35.021   6.706   2.840  1.00 20.00     0.011 A 
HETATM   11  C6  UNL     1     -34.573   5.672   3.840  1.00 20.00    -0.012 A 
HETATM   12  C9  UNL     1     -35.564   5.026   4.745  1.00 20.00     0.010 C 
ENDBRANCH   7   9
ENDBRANCH   4   7
TORSDOF 2
ENDMDL
