MODEL 1
REMARK VINA RESULT:       2.3      0.000      0.000
REMARK  2 active torsions:
REMARK  status: ('A' for Active; 'I' for Inactive)
REMARK    1  A    between atoms: C4_4  and  C10_10 
REMARK    2  A    between atoms: C7_7  and  C10_10 
ROOT
HETATM    1  C1  UNL     1     -34.709   7.134   4.391  1.00 20.00     0.015 A 
HETATM    2  C2  UNL     1     -33.910   7.736   3.376  1.00 20.00     0.017 A 
HETATM    3  C3  UNL     1     -34.826   5.772   4.218  1.00 20.00    -0.021 A 
HETATM    4  C4  UNL     1     -33.449   6.811   2.465  1.00 20.00    -0.002 A 
HETATM    5  C8  UNL     1     -35.565   4.799   5.051  1.00 20.00     0.056 C 
HETATM    6  S11 UNL     1     -33.978   5.225   2.835  1.00 20.00    -0.099 SA
ENDROOT
BRANCH   4   7
HETATM    7  C10 UNL     1     -32.578   7.041   1.250  1.00 20.00     0.102 C 
HETATM    8 BR12 UNL     1     -31.203   5.647   1.178  1.00 20.00    -0.085 Br
BRANCH   7   9
HETATM    9  C7  UNL     1     -31.954   8.393   1.213  1.00 20.00     0.009 A 
HETATM   10  C5  UNL     1     -31.154   8.824   0.011  1.00 20.00     0.011 A 
HETATM   11  C6  UNL     1     -32.496   9.451   0.288  1.00 20.00    -0.013 A 
HETATM   12  C9  UNL     1     -32.582  10.866   0.740  1.00 20.00     0.010 C 
ENDBRANCH   7   9
ENDBRANCH   4   7
TORSDOF 2
ENDMDL
MODEL 2
REMARK VINA RESULT:       2.4      1.396      1.738
REMARK  2 active torsions:
REMARK  status: ('A' for Active; 'I' for Inactive)
REMARK    1  A    between atoms: C4_4  and  C10_10 
REMARK    2  A    between atoms: C7_7  and  C10_10 
ROOT
HETATM    1  C1  UNL     1     -34.690   4.851   4.574  1.00 20.00     0.015 A 
HETATM    2  C2  UNL     1     -34.620   5.866   3.577  1.00 20.00     0.017 A 
HETATM    3  C3  UNL     1     -33.718   3.890   4.405  1.00 20.00    -0.021 A 
HETATM    4  C4  UNL     1     -33.597   5.642   2.682  1.00 20.00    -0.002 A 
HETATM    5  C8  UNL     1     -33.463   2.686   5.223  1.00 20.00     0.056 C 
HETATM    6  S11 UNL     1     -32.727   4.212   3.046  1.00 20.00    -0.099 SA
ENDROOT
BRANCH   4   7
HETATM    7  C10 UNL     1     -33.190   6.477   1.489  1.00 20.00     0.102 C 
HETATM    8 BR12 UNL     1     -31.636   5.648   0.629  1.00 20.00    -0.085 Br
BRANCH   7   9
HETATM    9  C7  UNL     1     -32.902   7.898   1.828  1.00 20.00     0.009 A 
HETATM   10  C5  UNL     1     -31.496   8.327   2.161  1.00 20.00     0.011 A 
HETATM   11  C6  UNL     1     -32.131   8.764   0.867  1.00 20.00    -0.013 A 
HETATM   12  C9  UNL     1     -32.519  10.188   0.667  1.00 20.00     0.010 C 
ENDBRANCH   7   9
ENDBRANCH   4   7
TORSDOF 2
ENDMDL
MODEL 3
REMARK VINA RESULT:       2.4      1.680      4.778
REMARK  2 active torsions:
REMARK  status: ('A' for Active; 'I' for Inactive)
REMARK    1  A    between atoms: C4_4  and  C10_10 
REMARK    2  A    between atoms: C7_7  and  C10_10 
ROOT
HETATM    1  C1  UNL     1     -31.963   9.474   1.862  1.00 20.00     0.015 A 
HETATM    2  C2  UNL     1     -31.920   8.219   2.536  1.00 20.00     0.017 A 
HETATM    3  C3  UNL     1     -32.409   9.350   0.565  1.00 20.00    -0.021 A 
HETATM    4  C4  UNL     1     -32.332   7.183   1.726  1.00 20.00    -0.002 A 
HETATM    5  C8  UNL     1     -32.592  10.409  -0.451  1.00 20.00     0.056 C 
HETATM    6  S11 UNL     1     -32.770   7.725   0.162  1.00 20.00    -0.099 SA
ENDROOT
BRANCH   4   7
HETATM    7  C10 UNL     1     -32.433   5.711   2.059  1.00 20.00     0.102 C 
HETATM    8 BR12 UNL     1     -32.000   4.664   0.460  1.00 20.00    -0.085 Br
BRANCH   7   9
HETATM    9  C7  UNL     1     -33.762   5.314   2.600  1.00 20.00     0.009 A 
HETATM   10  C5  UNL     1     -33.850   4.470   3.846  1.00 20.00     0.011 A 
HETATM   11  C6  UNL     1     -34.267   5.917   3.885  1.00 20.00    -0.013 A 
HETATM   12  C9  UNL     1     -35.705   6.279   4.026  1.00 20.00     0.010 C 
ENDBRANCH   7   9
ENDBRANCH   4   7
TORSDOF 2
ENDMDL
MODEL 4
REMARK VINA RESULT:       2.9      2.651      5.596
REMARK  2 active torsions:
REMARK  status: ('A' for Active; 'I' for Inactive)
REMARK    1  A    between atoms: C4_4  and  C10_10 
REMARK    2  A    between atoms: C7_7  and  C10_10 
ROOT
HETATM    1  C1  UNL     1     -32.721   8.343   2.955  1.00 20.00     0.015 A 
HETATM    2  C2  UNL     1     -33.478   7.348   3.638  1.00 20.00     0.017 A 
HETATM    3  C3  UNL     1     -32.204   7.875   1.767  1.00 20.00    -0.021 A 
HETATM    4  C4  UNL     1     -33.509   6.157   2.947  1.00 20.00    -0.002 A 
HETATM    5  C8  UNL     1     -31.370   8.594   0.780  1.00 20.00     0.056 C 
HETATM    6  S11 UNL     1     -32.629   6.241   1.481  1.00 20.00    -0.099 SA
ENDROOT
BRANCH   4   7
HETATM    7  C10 UNL     1     -34.200   4.866   3.328  1.00 20.00     0.102 C 
HETATM    8 BR12 UNL     1     -35.414   5.209   4.827  1.00 20.00    -0.085 Br
BRANCH   7   9
HETATM    9  C7  UNL     1     -33.256   3.764   3.663  1.00 20.00     0.009 A 
HETATM   10  C5  UNL     1     -32.473   3.802   4.950  1.00 20.00     0.011 A 
HETATM   11  C6  UNL     1     -33.583   2.799   4.772  1.00 20.00    -0.013 A 
HETATM   12  C9  UNL     1     -33.266   1.352   4.621  1.00 20.00     0.010 C 
ENDBRANCH   7   9
ENDBRANCH   4   7
TORSDOF 2
ENDMDL
MODEL 5
REMARK VINA RESULT:       3.0      2.213      5.484
REMARK  2 active torsions:
REMARK  status: ('A' for Active; 'I' for Inactive)
REMARK    1  A    between atoms: C4_4  and  C10_10 
REMARK    2  A    between atoms: C7_7  and  C10_10 
ROOT
HETATM    1  C1  UNL     1     -31.995   6.363   0.862  1.00 20.00     0.015 A 
HETATM    2  C2  UNL     1     -32.902   5.916   1.865  1.00 20.00     0.017 A 
HETATM    3  C3  UNL     1     -31.740   7.713   0.958  1.00 20.00    -0.021 A 
HETATM    4  C4  UNL     1     -33.307   6.942   2.690  1.00 20.00    -0.002 A 
HETATM    5  C8  UNL     1     -30.863   8.547   0.109  1.00 20.00     0.056 C 
HETATM    6  S11 UNL     1     -32.595   8.437   2.254  1.00 20.00    -0.099 SA
ENDROOT
BRANCH   4   7
HETATM    7  C10 UNL     1     -34.256   6.885   3.867  1.00 20.00     0.102 C 
HETATM    8 BR12 UNL     1     -33.881   8.392   5.063  1.00 20.00    -0.085 Br
BRANCH   7   9
HETATM    9  C7  UNL     1     -34.198   5.598   4.615  1.00 20.00     0.009 A 
HETATM   10  C5  UNL     1     -35.423   4.728   4.719  1.00 20.00     0.011 A 
HETATM   11  C6  UNL     1     -34.257   4.289   3.873  1.00 20.00    -0.013 A 
HETATM   12  C9  UNL     1     -33.406   3.146   4.305  1.00 20.00     0.010 C 
ENDBRANCH   7   9
ENDBRANCH   4   7
TORSDOF 2
ENDMDL
MODEL 6
REMARK VINA RESULT:       3.2      1.685      2.134
REMARK  2 active torsions:
REMARK  status: ('A' for Active; 'I' for Inactive)
REMARK    1  A    between atoms: C4_4  and  C10_10 
REMARK    2  A    between atoms: C7_7  and  C10_10 
ROOT
HETATM    1  C1  UNL     1     -33.773   4.827   2.658  1.00 20.00     0.015 A 
HETATM    2  C2  UNL     1     -32.867   5.645   1.924  1.00 20.00     0.017 A 
HETATM    3  C3  UNL     1     -34.415   5.530   3.654  1.00 20.00    -0.021 A 
HETATM    4  C4  UNL     1     -32.849   6.942   2.388  1.00 20.00    -0.002 A 
HETATM    5  C8  UNL     1     -35.419   5.042   4.623  1.00 20.00     0.056 C 
HETATM    6  S11 UNL     1     -33.922   7.169   3.702  1.00 20.00    -0.099 SA
ENDROOT
BRANCH   4   7
HETATM    7  C10 UNL     1     -32.031   8.110   1.884  1.00 20.00     0.102 C 
HETATM    8 BR12 UNL     1     -31.312   9.095   3.419  1.00 20.00    -0.085 Br
BRANCH   7   9
HETATM    9  C7  UNL     1     -32.790   9.025   0.987  1.00 20.00     0.009 A 
HETATM   10  C5  UNL     1     -32.778  10.511   1.236  1.00 20.00     0.011 A 
HETATM   11  C6  UNL     1     -32.055   9.941   0.044  1.00 20.00    -0.013 A 
HETATM   12  C9  UNL     1     -32.577  10.174  -1.331  1.00 20.00     0.010 C 
ENDBRANCH   7   9
ENDBRANCH   4   7
TORSDOF 2
ENDMDL
MODEL 7
REMARK VINA RESULT:       3.4      2.331      5.244
REMARK  2 active torsions:
REMARK  status: ('A' for Active; 'I' for Inactive)
REMARK    1  A    between atoms: C4_4  and  C10_10 
REMARK    2  A    between atoms: C7_7  and  C10_10 
ROOT
HETATM    1  C1  UNL     1     -31.743   7.730   1.045  1.00 20.00     0.015 A 
HETATM    2  C2  UNL     1     -32.257   7.251   2.285  1.00 20.00     0.017 A 
HETATM    3  C3  UNL     1     -32.242   8.974   0.724  1.00 20.00    -0.021 A 
HETATM    4  C4  UNL     1     -33.129   8.146   2.863  1.00 20.00    -0.002 A 
HETATM    5  C8  UNL     1     -31.956   9.800  -0.468  1.00 20.00     0.056 C 
HETATM    6  S11 UNL     1     -33.327   9.557   1.914  1.00 20.00    -0.099 SA
ENDROOT
BRANCH   4   7
HETATM    7  C10 UNL     1     -33.882   8.016   4.169  1.00 20.00     0.102 C 
HETATM    8 BR12 UNL     1     -32.727   8.620   5.634  1.00 20.00    -0.085 Br
BRANCH   7   9
HETATM    9  C7  UNL     1     -34.382   6.638   4.433  1.00 20.00     0.009 A 
HETATM   10  C5  UNL     1     -35.626   6.140   3.744  1.00 20.00     0.011 A 
HETATM   11  C6  UNL     1     -34.280   5.580   3.366  1.00 20.00    -0.013 A 
HETATM   12  C9  UNL     1     -33.921   4.182   3.733  1.00 20.00     0.010 C 
ENDBRANCH   7   9
ENDBRANCH   4   7
TORSDOF 2
ENDMDL
MODEL 8
REMARK VINA RESULT:       3.7      1.234      1.750
REMARK  2 active torsions:
REMARK  status: ('A' for Active; 'I' for Inactive)
REMARK    1  A    between atoms: C4_4  and  C10_10 
REMARK    2  A    between atoms: C7_7  and  C10_10 
ROOT
HETATM    1  C1  UNL     1     -33.999   4.003   4.332  1.00 20.00     0.015 A 
HETATM    2  C2  UNL     1     -33.256   4.390   3.180  1.00 20.00     0.017 A 
HETATM    3  C3  UNL     1     -34.935   4.949   4.686  1.00 20.00    -0.021 A 
HETATM    4  C4  UNL     1     -33.651   5.618   2.698  1.00 20.00    -0.002 A 
HETATM    5  C8  UNL     1     -35.893   4.920   5.812  1.00 20.00     0.056 C 
HETATM    6  S11 UNL     1     -34.914   6.299   3.632  1.00 20.00    -0.099 SA
ENDROOT
BRANCH   4   7
HETATM    7  C10 UNL     1     -33.117   6.376   1.503  1.00 20.00     0.102 C 
HETATM    8 BR12 UNL     1     -31.529   5.454   0.819  1.00 20.00    -0.085 Br
BRANCH   7   9
HETATM    9  C7  UNL     1     -32.807   7.804   1.794  1.00 20.00     0.009 A 
HETATM   10  C5  UNL     1     -31.389   8.228   2.075  1.00 20.00     0.011 A 
HETATM   11  C6  UNL     1     -32.056   8.635   0.788  1.00 20.00    -0.013 A 
HETATM   12  C9  UNL     1     -32.438  10.057   0.559  1.00 20.00     0.010 C 
ENDBRANCH   7   9
ENDBRANCH   4   7
TORSDOF 2
ENDMDL
MODEL 9
REMARK VINA RESULT:       3.7      2.447      4.903
REMARK  2 active torsions:
REMARK  status: ('A' for Active; 'I' for Inactive)
REMARK    1  A    between atoms: C4_4  and  C10_10 
REMARK    2  A    between atoms: C7_7  and  C10_10 
ROOT
HETATM    1  C1  UNL     1     -33.010   4.117  -0.330  1.00 20.00     0.015 A 
HETATM    2  C2  UNL     1     -33.724   5.137   0.362  1.00 20.00     0.017 A 
HETATM    3  C3  UNL     1     -31.671   4.113  -0.008  1.00 20.00    -0.021 A 
HETATM    4  C4  UNL     1     -32.903   5.875   1.187  1.00 20.00    -0.002 A 
HETATM    5  C8  UNL     1     -30.606   3.218  -0.510  1.00 20.00     0.056 C 
HETATM    6  S11 UNL     1     -31.278   5.337   1.124  1.00 20.00    -0.099 SA
ENDROOT
BRANCH   4   7
HETATM    7  C10 UNL     1     -33.268   7.036   2.085  1.00 20.00     0.102 C 
HETATM    8 BR12 UNL     1     -31.772   8.300   2.134  1.00 20.00    -0.085 Br
BRANCH   7   9
HETATM    9  C7  UNL     1     -33.649   6.624   3.464  1.00 20.00     0.009 A 
HETATM   10  C5  UNL     1     -34.448   7.555   4.339  1.00 20.00     0.011 A 
HETATM   11  C6  UNL     1     -35.085   6.306   3.789  1.00 20.00    -0.013 A 
HETATM   12  C9  UNL     1     -35.413   5.171   4.696  1.00 20.00     0.010 C 
ENDBRANCH   7   9
ENDBRANCH   4   7
TORSDOF 2
ENDMDL
