MODEL 1
REMARK VINA RESULT:      -2.1      0.000      0.000
REMARK  1 active torsions:
REMARK  status: ('A' for Active; 'I' for Inactive)
REMARK    1  A    between atoms: C1_1  and  C2_2 
ROOT
HETATM    1  C1  UNL     1     -33.108   6.332   1.985  1.00 20.00     0.384 C 
HETATM    2  F3  UNL     1     -33.853   6.211   0.854  1.00 20.00    -0.181 F 
HETATM    3  F4  UNL     1     -32.297   5.241   2.017  1.00 20.00    -0.181 F 
HETATM    4 CL6  UNL     1     -32.105   7.793   1.860  1.00 20.00    -0.042 Cl
ENDROOT
BRANCH   1   5
HETATM    5  C2  UNL     1     -34.031   6.306   3.198  1.00 20.00     0.336 C 
HETATM    6  F5  UNL     1     -35.301   6.527   2.752  1.00 20.00    -0.199 F 
HETATM    7 CL7  UNL     1     -33.633   7.597   4.361  1.00 20.00    -0.058 Cl
HETATM    8 CL8  UNL     1     -34.010   4.724   4.016  1.00 20.00    -0.058 Cl
ENDBRANCH   1   5
TORSDOF 1
ENDMDL
MODEL 2
REMARK VINA RESULT:      -2.0      2.238      3.364
REMARK  1 active torsions:
REMARK  status: ('A' for Active; 'I' for Inactive)
REMARK    1  A    between atoms: C1_1  and  C2_2 
ROOT
HETATM    1  C1  UNL     1     -33.408   7.690   3.353  1.00 20.00     0.384 C 
HETATM    2  F3  UNL     1     -34.325   8.673   3.147  1.00 20.00    -0.181 F 
HETATM    3  F4  UNL     1     -32.812   7.978   4.541  1.00 20.00    -0.181 F 
HETATM    4 CL6  UNL     1     -34.255   6.135   3.496  1.00 20.00    -0.042 Cl
ENDROOT
BRANCH   1   5
HETATM    5  C2  UNL     1     -32.365   7.736   2.244  1.00 20.00     0.336 C 
HETATM    6  F5  UNL     1     -31.168   8.048   2.819  1.00 20.00    -0.199 F 
HETATM    7 CL7  UNL     1     -32.732   8.998   1.040  1.00 20.00    -0.058 Cl
HETATM    8 CL8  UNL     1     -32.184   6.159   1.435  1.00 20.00    -0.058 Cl
ENDBRANCH   1   5
TORSDOF 1
ENDMDL
MODEL 3
REMARK VINA RESULT:      -2.0      2.112      2.605
REMARK  1 active torsions:
REMARK  status: ('A' for Active; 'I' for Inactive)
REMARK    1  A    between atoms: C1_1  and  C2_2 
ROOT
HETATM    1  C1  UNL     1     -32.079   7.829   1.901  1.00 20.00     0.384 C 
HETATM    2  F3  UNL     1     -30.759   7.534   1.762  1.00 20.00    -0.181 F 
HETATM    3  F4  UNL     1     -32.223   8.310   3.165  1.00 20.00    -0.181 F 
HETATM    4 CL6  UNL     1     -32.508   9.108   0.745  1.00 20.00    -0.042 Cl
ENDROOT
BRANCH   1   5
HETATM    5  C2  UNL     1     -32.896   6.551   1.755  1.00 20.00     0.336 C 
HETATM    6  F5  UNL     1     -33.718   6.711   0.678  1.00 20.00    -0.199 F 
HETATM    7 CL7  UNL     1     -33.923   6.253   3.180  1.00 20.00    -0.058 Cl
HETATM    8 CL8  UNL     1     -31.863   5.134   1.443  1.00 20.00    -0.058 Cl
ENDBRANCH   1   5
TORSDOF 1
ENDMDL
MODEL 4
REMARK VINA RESULT:      -1.8      1.544      3.095
REMARK  1 active torsions:
REMARK  status: ('A' for Active; 'I' for Inactive)
REMARK    1  A    between atoms: C1_1  and  C2_2 
ROOT
HETATM    1  C1  UNL     1     -32.748   6.202   1.662  1.00 20.00     0.384 C 
HETATM    2  F3  UNL     1     -31.654   5.465   1.330  1.00 20.00    -0.181 F 
HETATM    3  F4  UNL     1     -33.515   6.258   0.540  1.00 20.00    -0.181 F 
HETATM    4 CL6  UNL     1     -33.650   5.352   2.934  1.00 20.00    -0.042 Cl
ENDROOT
BRANCH   1   5
HETATM    5  C2  UNL     1     -32.308   7.611   2.040  1.00 20.00     0.336 C 
HETATM    6  F5  UNL     1     -30.954   7.586   2.209  1.00 20.00    -0.199 F 
HETATM    7 CL7  UNL     1     -33.036   8.143   3.577  1.00 20.00    -0.058 Cl
HETATM    8 CL8  UNL     1     -32.672   8.789   0.754  1.00 20.00    -0.058 Cl
ENDBRANCH   1   5
TORSDOF 1
ENDMDL
MODEL 5
REMARK VINA RESULT:      -1.8      2.006      2.273
REMARK  1 active torsions:
REMARK  status: ('A' for Active; 'I' for Inactive)
REMARK    1  A    between atoms: C1_1  and  C2_2 
ROOT
HETATM    1  C1  UNL     1     -32.573   7.725   2.374  1.00 20.00     0.384 C 
HETATM    2  F3  UNL     1     -31.395   8.160   2.897  1.00 20.00    -0.181 F 
HETATM    3  F4  UNL     1     -32.955   8.670   1.474  1.00 20.00    -0.181 F 
HETATM    4 CL6  UNL     1     -32.292   6.194   1.519  1.00 20.00    -0.042 Cl
ENDROOT
BRANCH   1   5
HETATM    5  C2  UNL     1     -33.613   7.641   3.485  1.00 20.00     0.336 C 
HETATM    6  F5  UNL     1     -34.620   8.505   3.170  1.00 20.00    -0.199 F 
HETATM    7 CL7  UNL     1     -32.943   8.140   5.060  1.00 20.00    -0.058 Cl
HETATM    8 CL8  UNL     1     -34.317   6.009   3.614  1.00 20.00    -0.058 Cl
ENDBRANCH   1   5
TORSDOF 1
ENDMDL
MODEL 6
REMARK VINA RESULT:      -1.8      1.334      3.118
REMARK  1 active torsions:
REMARK  status: ('A' for Active; 'I' for Inactive)
REMARK    1  A    between atoms: C1_1  and  C2_2 
ROOT
HETATM    1  C1  UNL     1     -33.851   6.271   3.159  1.00 20.00     0.384 C 
HETATM    2  F3  UNL     1     -35.143   6.610   2.904  1.00 20.00    -0.181 F 
HETATM    3  F4  UNL     1     -33.415   7.144   4.107  1.00 20.00    -0.181 F 
HETATM    4 CL6  UNL     1     -33.809   4.626   3.827  1.00 20.00    -0.042 Cl
ENDROOT
BRANCH   1   5
HETATM    5  C2  UNL     1     -33.026   6.454   1.891  1.00 20.00     0.336 C 
HETATM    6  F5  UNL     1     -33.890   6.459   0.836  1.00 20.00    -0.199 F 
HETATM    7 CL7  UNL     1     -31.879   5.112   1.646  1.00 20.00    -0.058 Cl
HETATM    8 CL8  UNL     1     -32.153   8.008   1.885  1.00 20.00    -0.058 Cl
ENDBRANCH   1   5
TORSDOF 1
ENDMDL
MODEL 7
REMARK VINA RESULT:      -1.7      1.325      3.041
REMARK  1 active torsions:
REMARK  status: ('A' for Active; 'I' for Inactive)
REMARK    1  A    between atoms: C1_1  and  C2_2 
ROOT
HETATM    1  C1  UNL     1     -33.872   6.406   3.139  1.00 20.00     0.384 C 
HETATM    2  F3  UNL     1     -33.679   5.187   3.711  1.00 20.00    -0.181 F 
HETATM    3  F4  UNL     1     -35.192   6.462   2.814  1.00 20.00    -0.181 F 
HETATM    4 CL6  UNL     1     -33.520   7.668   4.339  1.00 20.00    -0.042 Cl
ENDROOT
BRANCH   1   5
HETATM    5  C2  UNL     1     -33.038   6.501   1.867  1.00 20.00     0.336 C 
HETATM    6  F5  UNL     1     -33.898   6.476   0.809  1.00 20.00    -0.199 F 
HETATM    7 CL7  UNL     1     -31.930   5.115   1.697  1.00 20.00    -0.058 Cl
HETATM    8 CL8  UNL     1     -32.120   8.026   1.786  1.00 20.00    -0.058 Cl
ENDBRANCH   1   5
TORSDOF 1
ENDMDL
MODEL 8
REMARK VINA RESULT:      -1.7      1.259      1.711
REMARK  1 active torsions:
REMARK  status: ('A' for Active; 'I' for Inactive)
REMARK    1  A    between atoms: C1_1  and  C2_2 
ROOT
HETATM    1  C1  UNL     1     -33.067   6.349   1.965  1.00 20.00     0.384 C 
HETATM    2  F3  UNL     1     -33.932   6.267   0.919  1.00 20.00    -0.181 F 
HETATM    3  F4  UNL     1     -32.222   5.291   1.836  1.00 20.00    -0.181 F 
HETATM    4 CL6  UNL     1     -32.132   7.853   1.822  1.00 20.00    -0.042 Cl
ENDROOT
BRANCH   1   5
HETATM    5  C2  UNL     1     -33.844   6.215   3.269  1.00 20.00     0.336 C 
HETATM    6  F5  UNL     1     -33.247   7.028   4.188  1.00 20.00    -0.199 F 
HETATM    7 CL7  UNL     1     -33.793   4.551   3.904  1.00 20.00    -0.058 Cl
HETATM    8 CL8  UNL     1     -35.535   6.747   3.092  1.00 20.00    -0.058 Cl
ENDBRANCH   1   5
TORSDOF 1
ENDMDL
MODEL 9
REMARK VINA RESULT:      -1.6      2.148      3.198
REMARK  1 active torsions:
REMARK  status: ('A' for Active; 'I' for Inactive)
REMARK    1  A    between atoms: C1_1  and  C2_2 
ROOT
HETATM    1  C1  UNL     1     -34.988   6.328   3.986  1.00 20.00     0.384 C 
HETATM    2  F3  UNL     1     -36.066   6.425   3.162  1.00 20.00    -0.181 F 
HETATM    3  F4  UNL     1     -35.465   6.505   5.247  1.00 20.00    -0.181 F 
HETATM    4 CL6  UNL     1     -34.307   4.693   3.852  1.00 20.00    -0.042 Cl
ENDROOT
BRANCH   1   5
HETATM    5  C2  UNL     1     -34.005   7.446   3.659  1.00 20.00     0.336 C 
HETATM    6  F5  UNL     1     -34.730   8.510   3.211  1.00 20.00    -0.199 F 
HETATM    7 CL7  UNL     1     -32.874   6.976   2.365  1.00 20.00    -0.058 Cl
HETATM    8 CL8  UNL     1     -33.097   7.974   5.098  1.00 20.00    -0.058 Cl
ENDBRANCH   1   5
TORSDOF 1
ENDMDL
