MODEL 1
REMARK VINA RESULT:      -0.6      0.000      0.000
REMARK  0 active torsions:
REMARK  status: ('A' for Active; 'I' for Inactive)
ROOT
HETATM    1  C1  UNL     1     -34.027   6.912   3.873  1.00 20.00     0.149 A 
HETATM    2  C2  UNL     1     -33.707   5.678   3.346  1.00 20.00     0.094 A 
HETATM    3  C3  UNL     1     -32.833   7.584   2.160  1.00 20.00     0.145 A 
HETATM    4  N4  UNL     1     -33.526   8.006   3.195  1.00 20.00    -0.244 NA
HETATM    5  S5  UNL     1     -32.742   5.884   1.944  1.00 20.00    -0.049 SA
HETATM    6 CL6  UNL     1     -34.140   4.124   3.902  1.00 20.00    -0.075 Cl
HETATM    7 BR7  UNL     1     -31.972   8.798   0.962  1.00 20.00    -0.021 Br
ENDROOT
TORSDOF 0
ENDMDL
MODEL 2
REMARK VINA RESULT:      -0.6      1.618      1.774
REMARK  0 active torsions:
REMARK  status: ('A' for Active; 'I' for Inactive)
ROOT
HETATM    1  C1  UNL     1     -33.599   5.289   2.430  1.00 20.00     0.149 A 
HETATM    2  C2  UNL     1     -34.265   5.937   3.449  1.00 20.00     0.094 A 
HETATM    3  C3  UNL     1     -32.786   7.304   2.128  1.00 20.00     0.145 A 
HETATM    4  N4  UNL     1     -32.751   6.072   1.671  1.00 20.00    -0.244 NA
HETATM    5  S5  UNL     1     -33.818   7.592   3.468  1.00 20.00    -0.049 SA
HETATM    6 CL6  UNL     1     -35.378   5.306   4.578  1.00 20.00    -0.075 Cl
HETATM    7 BR7  UNL     1     -31.745   8.700   1.343  1.00 20.00    -0.021 Br
ENDROOT
TORSDOF 0
ENDMDL
MODEL 3
REMARK VINA RESULT:      -0.4      3.237      3.505
REMARK  0 active torsions:
REMARK  status: ('A' for Active; 'I' for Inactive)
ROOT
HETATM    1  C1  UNL     1     -33.328   8.115   3.093  1.00 20.00     0.149 A 
HETATM    2  C2  UNL     1     -32.642   7.723   1.963  1.00 20.00     0.094 A 
HETATM    3  C3  UNL     1     -33.610   5.947   3.271  1.00 20.00     0.145 A 
HETATM    4  N4  UNL     1     -33.885   7.099   3.844  1.00 20.00    -0.244 NA
HETATM    5  S5  UNL     1     -32.688   6.014   1.826  1.00 20.00    -0.049 SA
HETATM    6 CL6  UNL     1     -31.833   8.683   0.807  1.00 20.00    -0.075 Cl
HETATM    7 BR7  UNL     1     -34.207   4.289   4.007  1.00 20.00    -0.021 Br
ENDROOT
TORSDOF 0
ENDMDL
MODEL 4
REMARK VINA RESULT:      -0.3      3.517      3.843
REMARK  0 active torsions:
REMARK  status: ('A' for Active; 'I' for Inactive)
ROOT
HETATM    1  C1  UNL     1     -32.565   6.189   1.530  1.00 20.00     0.149 A 
HETATM    2  C2  UNL     1     -32.532   7.514   1.911  1.00 20.00     0.094 A 
HETATM    3  C3  UNL     1     -33.955   6.080   3.223  1.00 20.00     0.145 A 
HETATM    4  N4  UNL     1     -33.380   5.365   2.281  1.00 20.00    -0.244 NA
HETATM    5  S5  UNL     1     -33.561   7.749   3.263  1.00 20.00    -0.049 SA
HETATM    6 CL6  UNL     1     -31.654   8.810   1.230  1.00 20.00    -0.075 Cl
HETATM    7 BR7  UNL     1     -35.165   5.302   4.480  1.00 20.00    -0.021 Br
ENDROOT
TORSDOF 0
ENDMDL
MODEL 5
REMARK VINA RESULT:       0.3      2.592      2.768
REMARK  0 active torsions:
REMARK  status: ('A' for Active; 'I' for Inactive)
ROOT
HETATM    1  C1  UNL     1     -32.456   8.017   2.600  1.00 20.00     0.149 A 
HETATM    2  C2  UNL     1     -33.344   7.444   3.487  1.00 20.00     0.094 A 
HETATM    3  C3  UNL     1     -32.597   6.028   1.687  1.00 20.00     0.145 A 
HETATM    4  N4  UNL     1     -32.026   7.206   1.568  1.00 20.00    -0.244 NA
HETATM    5  S5  UNL     1     -33.662   5.826   3.018  1.00 20.00    -0.049 SA
HETATM    6 CL6  UNL     1     -34.081   8.128   4.865  1.00 20.00    -0.075 Cl
HETATM    7 BR7  UNL     1     -32.260   4.615   0.446  1.00 20.00    -0.021 Br
ENDROOT
TORSDOF 0
ENDMDL
MODEL 6
REMARK VINA RESULT:       0.3      2.512      2.788
REMARK  0 active torsions:
REMARK  status: ('A' for Active; 'I' for Inactive)
ROOT
HETATM    1  C1  UNL     1     -32.042   7.161   1.441  1.00 20.00     0.149 A 
HETATM    2  C2  UNL     1     -32.645   5.922   1.471  1.00 20.00     0.094 A 
HETATM    3  C3  UNL     1     -33.159   7.384   3.315  1.00 20.00     0.145 A 
HETATM    4  N4  UNL     1     -32.336   8.002   2.497  1.00 20.00    -0.244 NA
HETATM    5  S5  UNL     1     -33.621   5.791   2.875  1.00 20.00    -0.049 SA
HETATM    6 CL6  UNL     1     -32.521   4.636   0.355  1.00 20.00    -0.075 Cl
HETATM    7 BR7  UNL     1     -33.808   8.214   4.908  1.00 20.00    -0.021 Br
ENDROOT
TORSDOF 0
ENDMDL
MODEL 7
REMARK VINA RESULT:       0.7      3.675      3.923
REMARK  0 active torsions:
REMARK  status: ('A' for Active; 'I' for Inactive)
ROOT
HETATM    1  C1  UNL     1     -35.343   6.021   4.246  1.00 20.00     0.149 A 
HETATM    2  C2  UNL     1     -34.331   6.620   3.524  1.00 20.00     0.094 A 
HETATM    3  C3  UNL     1     -33.965   4.318   4.132  1.00 20.00     0.145 A 
HETATM    4  N4  UNL     1     -35.135   4.701   4.595  1.00 20.00    -0.244 NA
HETATM    5  S5  UNL     1     -33.063   5.495   3.268  1.00 20.00    -0.049 SA
HETATM    6 CL6  UNL     1     -34.235   8.215   2.926  1.00 20.00    -0.075 Cl
HETATM    7 BR7  UNL     1     -33.304   2.547   4.407  1.00 20.00    -0.021 Br
ENDROOT
TORSDOF 0
ENDMDL
MODEL 8
REMARK VINA RESULT:       1.1      2.674      2.744
REMARK  0 active torsions:
REMARK  status: ('A' for Active; 'I' for Inactive)
ROOT
HETATM    1  C1  UNL     1     -34.451   6.217   3.820  1.00 20.00     0.149 A 
HETATM    2  C2  UNL     1     -33.770   7.410   3.938  1.00 20.00     0.094 A 
HETATM    3  C3  UNL     1     -33.067   5.975   2.136  1.00 20.00     0.145 A 
HETATM    4  N4  UNL     1     -34.050   5.392   2.787  1.00 20.00    -0.244 NA
HETATM    5  S5  UNL     1     -32.576   7.515   2.712  1.00 20.00    -0.049 SA
HETATM    6 CL6  UNL     1     -33.984   8.664   5.076  1.00 20.00    -0.075 Cl
HETATM    7 BR7  UNL     1     -32.230   5.151   0.629  1.00 20.00    -0.021 Br
ENDROOT
TORSDOF 0
ENDMDL
MODEL 9
REMARK VINA RESULT:       1.4      2.616      2.775
REMARK  0 active torsions:
REMARK  status: ('A' for Active; 'I' for Inactive)
ROOT
HETATM    1  C1  UNL     1     -33.663   5.154   2.542  1.00 20.00     0.149 A 
HETATM    2  C2  UNL     1     -32.698   5.697   1.718  1.00 20.00     0.094 A 
HETATM    3  C3  UNL     1     -33.481   7.121   3.497  1.00 20.00     0.145 A 
HETATM    4  N4  UNL     1     -34.112   5.969   3.563  1.00 20.00    -0.244 NA
HETATM    5  S5  UNL     1     -32.333   7.291   2.233  1.00 20.00    -0.049 SA
HETATM    6 CL6  UNL     1     -31.916   4.999   0.372  1.00 20.00    -0.075 Cl
HETATM    7 BR7  UNL     1     -33.822   8.529   4.742  1.00 20.00    -0.021 Br
ENDROOT
TORSDOF 0
ENDMDL
