MODEL 1
REMARK VINA RESULT:      -1.7      0.000      0.000
REMARK  2 active torsions:
REMARK  status: ('A' for Active; 'I' for Inactive)
REMARK    1  A    between atoms: C3_3  and  C5_5 
REMARK    2  A    between atoms: C5_5  and  S6_6 
ROOT
HETATM    1  C1  UNL     1     -34.672   5.516   4.248  1.00 20.00     0.010 A 
HETATM    2  C2  UNL     1     -35.591   6.452   3.514  1.00 20.00     0.010 A 
HETATM    3  C3  UNL     1     -34.103   6.716   3.528  1.00 20.00    -0.036 A 
HETATM    4  C4  UNL     1     -33.600   7.864   4.360  1.00 20.00     0.016 C 
ENDROOT
BRANCH   3   5
HETATM    5  C5  UNL     1     -33.332   6.479   2.259  1.00 20.00     0.079 C 
BRANCH   5   6
HETATM    6  S6  UNL     1     -32.156   7.831   1.952  1.00 20.00    -0.181 SA
HETATM    7  H16 UNL     1     -32.013   7.595   0.641  1.00 20.00     0.101 HD
ENDBRANCH   5   6
ENDBRANCH   3   5
TORSDOF 2
ENDMDL
MODEL 2
REMARK VINA RESULT:      -1.4      2.142      3.433
REMARK  2 active torsions:
REMARK  status: ('A' for Active; 'I' for Inactive)
REMARK    1  A    between atoms: C3_3  and  C5_5 
REMARK    2  A    between atoms: C5_5  and  S6_6 
ROOT
HETATM    1  C1  UNL     1     -31.383   7.988   1.986  1.00 20.00     0.010 A 
HETATM    2  C2  UNL     1     -32.596   8.471   1.241  1.00 20.00     0.010 A 
HETATM    3  C3  UNL     1     -32.722   7.330   2.223  1.00 20.00    -0.036 A 
HETATM    4  C4  UNL     1     -32.933   5.946   1.672  1.00 20.00     0.016 C 
ENDROOT
BRANCH   3   5
HETATM    5  C5  UNL     1     -33.418   7.596   3.528  1.00 20.00     0.079 C 
BRANCH   5   6
HETATM    6  S6  UNL     1     -34.778   6.417   3.790  1.00 20.00    -0.181 SA
HETATM    7  H16 UNL     1     -35.748   7.221   3.335  1.00 20.00     0.101 HD
ENDBRANCH   5   6
ENDBRANCH   3   5
TORSDOF 2
ENDMDL
MODEL 3
REMARK VINA RESULT:      -1.0      1.818      3.034
REMARK  2 active torsions:
REMARK  status: ('A' for Active; 'I' for Inactive)
REMARK    1  A    between atoms: C3_3  and  C5_5 
REMARK    2  A    between atoms: C5_5  and  S6_6 
ROOT
HETATM    1  C1  UNL     1     -33.098   5.648   0.652  1.00 20.00     0.010 A 
HETATM    2  C2  UNL     1     -31.947   5.238   1.527  1.00 20.00     0.010 A 
HETATM    3  C3  UNL     1     -32.857   6.364   1.959  1.00 20.00    -0.036 A 
HETATM    4  C4  UNL     1     -32.316   7.767   1.905  1.00 20.00     0.016 C 
ENDROOT
BRANCH   3   5
HETATM    5  C5  UNL     1     -33.810   6.105   3.092  1.00 20.00     0.079 C 
BRANCH   5   6
HETATM    6  S6  UNL     1     -34.037   7.599   4.105  1.00 20.00    -0.181 SA
HETATM    7  H16 UNL     1     -34.619   6.977   5.140  1.00 20.00     0.101 HD
ENDBRANCH   5   6
ENDBRANCH   3   5
TORSDOF 2
ENDMDL
MODEL 4
REMARK VINA RESULT:      -0.8      2.210      2.850
REMARK  2 active torsions:
REMARK  status: ('A' for Active; 'I' for Inactive)
REMARK    1  A    between atoms: C3_3  and  C5_5 
REMARK    2  A    between atoms: C5_5  and  S6_6 
ROOT
HETATM    1  C1  UNL     1     -34.200   7.289   4.280  1.00 20.00     0.010 A 
HETATM    2  C2  UNL     1     -35.377   7.036   3.382  1.00 20.00     0.010 A 
HETATM    3  C3  UNL     1     -34.339   5.957   3.582  1.00 20.00    -0.036 A 
HETATM    4  C4  UNL     1     -33.405   5.658   2.442  1.00 20.00     0.016 C 
ENDROOT
BRANCH   3   5
HETATM    5  C5  UNL     1     -34.715   4.761   4.412  1.00 20.00     0.079 C 
BRANCH   5   6
HETATM    6  S6  UNL     1     -33.460   3.453   4.273  1.00 20.00    -0.181 SA
HETATM    7  H16 UNL     1     -32.635   3.953   5.203  1.00 20.00     0.101 HD
ENDBRANCH   5   6
ENDBRANCH   3   5
TORSDOF 2
ENDMDL
MODEL 5
REMARK VINA RESULT:      -0.8      0.672      1.766
REMARK  2 active torsions:
REMARK  status: ('A' for Active; 'I' for Inactive)
REMARK    1  A    between atoms: C3_3  and  C5_5 
REMARK    2  A    between atoms: C5_5  and  S6_6 
ROOT
HETATM    1  C1  UNL     1     -35.353   6.530   3.431  1.00 20.00     0.010 A 
HETATM    2  C2  UNL     1     -34.436   5.710   4.294  1.00 20.00     0.010 A 
HETATM    3  C3  UNL     1     -33.880   6.457   3.104  1.00 20.00    -0.036 A 
HETATM    4  C4  UNL     1     -33.465   5.656   1.901  1.00 20.00     0.016 C 
ENDROOT
BRANCH   3   5
HETATM    5  C5  UNL     1     -33.037   7.674   3.366  1.00 20.00     0.079 C 
BRANCH   5   6
HETATM    6  S6  UNL     1     -31.986   8.057   1.933  1.00 20.00    -0.181 SA
HETATM    7  H16 UNL     1     -32.371   9.335   1.816  1.00 20.00     0.101 HD
ENDBRANCH   5   6
ENDBRANCH   3   5
TORSDOF 2
ENDMDL
MODEL 6
REMARK VINA RESULT:      -0.7      1.256      1.939
REMARK  2 active torsions:
REMARK  status: ('A' for Active; 'I' for Inactive)
REMARK    1  A    between atoms: C3_3  and  C5_5 
REMARK    2  A    between atoms: C5_5  and  S6_6 
ROOT
HETATM    1  C1  UNL     1     -35.380   6.859   3.518  1.00 20.00     0.010 A 
HETATM    2  C2  UNL     1     -34.257   7.269   4.428  1.00 20.00     0.010 A 
HETATM    3  C3  UNL     1     -33.996   6.294   3.304  1.00 20.00    -0.036 A 
HETATM    4  C4  UNL     1     -33.761   4.852   3.663  1.00 20.00     0.016 C 
ENDROOT
BRANCH   3   5
HETATM    5  C5  UNL     1     -33.211   6.779   2.117  1.00 20.00     0.079 C 
BRANCH   5   6
HETATM    6  S6  UNL     1     -32.406   5.391   1.261  1.00 20.00    -0.181 SA
HETATM    7  H16 UNL     1     -31.953   6.112   0.226  1.00 20.00     0.101 HD
ENDBRANCH   5   6
ENDBRANCH   3   5
TORSDOF 2
ENDMDL
MODEL 7
REMARK VINA RESULT:      -0.7      0.581      1.966
REMARK  2 active torsions:
REMARK  status: ('A' for Active; 'I' for Inactive)
REMARK    1  A    between atoms: C3_3  and  C5_5 
REMARK    2  A    between atoms: C5_5  and  S6_6 
ROOT
HETATM    1  C1  UNL     1     -34.263   8.455   3.733  1.00 20.00     0.010 A 
HETATM    2  C2  UNL     1     -33.509   7.719   4.804  1.00 20.00     0.010 A 
HETATM    3  C3  UNL     1     -34.120   6.953   3.655  1.00 20.00    -0.036 A 
HETATM    4  C4  UNL     1     -35.337   6.115   3.935  1.00 20.00     0.016 C 
ENDROOT
BRANCH   3   5
HETATM    5  C5  UNL     1     -33.195   6.385   2.615  1.00 20.00     0.079 C 
BRANCH   5   6
HETATM    6  S6  UNL     1     -32.218   7.700   1.827  1.00 20.00    -0.181 SA
HETATM    7  H16 UNL     1     -31.362   7.866   2.845  1.00 20.00     0.101 HD
ENDBRANCH   5   6
ENDBRANCH   3   5
TORSDOF 2
ENDMDL
MODEL 8
REMARK VINA RESULT:      -0.5      1.734      2.595
REMARK  2 active torsions:
REMARK  status: ('A' for Active; 'I' for Inactive)
REMARK    1  A    between atoms: C3_3  and  C5_5 
REMARK    2  A    between atoms: C5_5  and  S6_6 
ROOT
HETATM    1  C1  UNL     1     -32.246   5.515   1.856  1.00 20.00     0.010 A 
HETATM    2  C2  UNL     1     -33.214   6.089   0.861  1.00 20.00     0.010 A 
HETATM    3  C3  UNL     1     -32.678   6.957   1.975  1.00 20.00    -0.036 A 
HETATM    4  C4  UNL     1     -33.612   7.322   3.097  1.00 20.00     0.016 C 
ENDROOT
BRANCH   3   5
HETATM    5  C5  UNL     1     -31.681   8.025   1.620  1.00 20.00     0.079 C 
BRANCH   5   6
HETATM    6  S6  UNL     1     -32.478   9.377   0.702  1.00 20.00    -0.181 SA
HETATM    7  H16 UNL     1     -31.625  10.333   1.096  1.00 20.00     0.101 HD
ENDBRANCH   5   6
ENDBRANCH   3   5
TORSDOF 2
ENDMDL
MODEL 9
REMARK VINA RESULT:      -0.4      2.111      3.214
REMARK  2 active torsions:
REMARK  status: ('A' for Active; 'I' for Inactive)
REMARK    1  A    between atoms: C3_3  and  C5_5 
REMARK    2  A    between atoms: C5_5  and  S6_6 
ROOT
HETATM    1  C1  UNL     1     -32.529   8.542   1.357  1.00 20.00     0.010 A 
HETATM    2  C2  UNL     1     -31.389   7.634   1.724  1.00 20.00     0.010 A 
HETATM    3  C3  UNL     1     -32.648   7.636   2.559  1.00 20.00    -0.036 A 
HETATM    4  C4  UNL     1     -32.587   8.264   3.924  1.00 20.00     0.016 C 
ENDROOT
BRANCH   3   5
HETATM    5  C5  UNL     1     -33.563   6.447   2.459  1.00 20.00     0.079 C 
BRANCH   5   6
HETATM    6  S6  UNL     1     -34.744   6.417   3.842  1.00 20.00    -0.181 SA
HETATM    7  H16 UNL     1     -34.704   7.735   4.086  1.00 20.00     0.101 HD
ENDBRANCH   5   6
ENDBRANCH   3   5
TORSDOF 2
ENDMDL
