MODEL 1
REMARK VINA RESULT:      -0.8      0.000      0.000
REMARK  1 active torsions:
REMARK  status: ('A' for Active; 'I' for Inactive)
REMARK    1  A    between atoms: C2_2  and  C6_6 
ROOT
HETATM    1  C1  UNL     1     -32.008   6.705   1.178  1.00 20.00     0.080 A 
HETATM    2  C2  UNL     1     -32.431   7.934   1.638  1.00 20.00     0.047 A 
HETATM    3  C3  UNL     1     -33.703   6.657   2.891  1.00 20.00     0.144 A 
HETATM    4  N7  UNL     1     -33.404   7.908   2.620  1.00 20.00    -0.238 NA
HETATM    5  S8  UNL     1     -32.853   5.459   2.003  1.00 20.00    -0.073 SA
HETATM    6 BR9  UNL     1     -35.013   6.198   4.203  1.00 20.00    -0.021 Br
ENDROOT
BRANCH   2   7
HETATM    7  C6  UNL     1     -31.864   9.257   1.098  1.00 20.00     0.038 A 
HETATM    8  C4  UNL     1     -32.815  10.405   0.852  1.00 20.00     0.011 A 
HETATM    9  C5  UNL     1     -32.218   9.674  -0.310  1.00 20.00     0.011 A 
ENDBRANCH   2   7
TORSDOF 1
ENDMDL
MODEL 2
REMARK VINA RESULT:      -0.0      2.529      3.172
REMARK  1 active torsions:
REMARK  status: ('A' for Active; 'I' for Inactive)
REMARK    1  A    between atoms: C2_2  and  C6_6 
ROOT
HETATM    1  C1  UNL     1     -34.983   6.588   3.728  1.00 20.00     0.080 A 
HETATM    2  C2  UNL     1     -33.795   6.436   3.044  1.00 20.00     0.047 A 
HETATM    3  C3  UNL     1     -33.857   4.479   4.036  1.00 20.00     0.144 A 
HETATM    4  N7  UNL     1     -33.148   5.227   3.220  1.00 20.00    -0.238 NA
HETATM    5  S8  UNL     1     -35.314   5.165   4.629  1.00 20.00    -0.073 SA
HETATM    6 BR9  UNL     1     -33.295   2.722   4.531  1.00 20.00    -0.021 Br
ENDROOT
BRANCH   2   7
HETATM    7  C6  UNL     1     -33.217   7.537   2.141  1.00 20.00     0.038 A 
HETATM    8  C4  UNL     1     -31.959   7.245   1.358  1.00 20.00     0.011 A 
HETATM    9  C5  UNL     1     -31.904   8.176   2.528  1.00 20.00     0.011 A 
ENDBRANCH   2   7
TORSDOF 1
ENDMDL
MODEL 3
REMARK VINA RESULT:       0.0      3.153      5.339
REMARK  1 active torsions:
REMARK  status: ('A' for Active; 'I' for Inactive)
REMARK    1  A    between atoms: C2_2  and  C6_6 
ROOT
HETATM    1  C1  UNL     1     -34.926   5.935   4.303  1.00 20.00     0.080 A 
HETATM    2  C2  UNL     1     -33.991   5.033   3.839  1.00 20.00     0.047 A 
HETATM    3  C3  UNL     1     -33.263   6.825   2.803  1.00 20.00     0.144 A 
HETATM    4  N7  UNL     1     -33.037   5.542   2.979  1.00 20.00    -0.238 NA
HETATM    5  S8  UNL     1     -34.605   7.487   3.643  1.00 20.00    -0.073 SA
HETATM    6 BR9  UNL     1     -32.154   7.895   1.674  1.00 20.00    -0.021 Br
ENDROOT
BRANCH   2   7
HETATM    7  C6  UNL     1     -34.002   3.551   4.248  1.00 20.00     0.038 A 
HETATM    8  C4  UNL     1     -33.163   3.120   5.428  1.00 20.00     0.011 A 
HETATM    9  C5  UNL     1     -32.747   2.735   4.043  1.00 20.00     0.011 A 
ENDBRANCH   2   7
TORSDOF 1
ENDMDL
MODEL 4
REMARK VINA RESULT:       0.6      2.781      4.191
REMARK  1 active torsions:
REMARK  status: ('A' for Active; 'I' for Inactive)
REMARK    1  A    between atoms: C2_2  and  C6_6 
ROOT
HETATM    1  C1  UNL     1     -32.759   7.918   2.620  1.00 20.00     0.080 A 
HETATM    2  C2  UNL     1     -33.518   6.815   2.951  1.00 20.00     0.047 A 
HETATM    3  C3  UNL     1     -32.193   5.875   1.476  1.00 20.00     0.144 A 
HETATM    4  N7  UNL     1     -33.195   5.643   2.295  1.00 20.00    -0.238 NA
HETATM    5  S8  UNL     1     -31.589   7.481   1.443  1.00 20.00    -0.073 SA
HETATM    6 BR9  UNL     1     -31.450   4.496   0.382  1.00 20.00    -0.021 Br
ENDROOT
BRANCH   2   7
HETATM    7  C6  UNL     1     -34.655   6.877   3.983  1.00 20.00     0.038 A 
HETATM    8  C4  UNL     1     -35.297   5.584   4.430  1.00 20.00     0.011 A 
HETATM    9  C5  UNL     1     -36.055   6.519   3.539  1.00 20.00     0.011 A 
ENDBRANCH   2   7
TORSDOF 1
ENDMDL
MODEL 5
REMARK VINA RESULT:       0.7      2.447      4.242
REMARK  1 active torsions:
REMARK  status: ('A' for Active; 'I' for Inactive)
REMARK    1  A    between atoms: C2_2  and  C6_6 
ROOT
HETATM    1  C1  UNL     1     -32.828   5.720   2.220  1.00 20.00     0.080 A 
HETATM    2  C2  UNL     1     -33.442   6.718   2.947  1.00 20.00     0.047 A 
HETATM    3  C3  UNL     1     -32.452   7.969   1.439  1.00 20.00     0.144 A 
HETATM    4  N7  UNL     1     -33.227   8.008   2.501  1.00 20.00    -0.238 NA
HETATM    5  S8  UNL     1     -31.946   6.413   0.921  1.00 20.00    -0.073 SA
HETATM    6 BR9  UNL     1     -31.922   9.558   0.523  1.00 20.00    -0.021 Br
ENDROOT
BRANCH   2   7
HETATM    7  C6  UNL     1     -34.312   6.424   4.180  1.00 20.00     0.038 A 
HETATM    8  C4  UNL     1     -34.885   5.036   4.346  1.00 20.00     0.011 A 
HETATM    9  C5  UNL     1     -35.788   6.172   3.980  1.00 20.00     0.011 A 
ENDBRANCH   2   7
TORSDOF 1
ENDMDL
MODEL 6
REMARK VINA RESULT:       0.7      1.638      1.817
REMARK  1 active torsions:
REMARK  status: ('A' for Active; 'I' for Inactive)
REMARK    1  A    between atoms: C2_2  and  C6_6 
ROOT
HETATM    1  C1  UNL     1     -33.447   8.466   3.118  1.00 20.00     0.080 A 
HETATM    2  C2  UNL     1     -32.739   7.814   2.130  1.00 20.00     0.047 A 
HETATM    3  C3  UNL     1     -33.559   6.059   3.163  1.00 20.00     0.144 A 
HETATM    4  N7  UNL     1     -32.802   6.433   2.155  1.00 20.00    -0.238 NA
HETATM    5  S8  UNL     1     -34.229   7.315   4.122  1.00 20.00    -0.073 SA
HETATM    6 BR9  UNL     1     -33.895   4.217   3.536  1.00 20.00    -0.021 Br
ENDROOT
BRANCH   2   7
HETATM    7  C6  UNL     1     -31.926   8.567   1.064  1.00 20.00     0.038 A 
HETATM    8  C4  UNL     1     -32.363   9.959   0.671  1.00 20.00     0.011 A 
HETATM    9  C5  UNL     1     -32.562   8.822  -0.283  1.00 20.00     0.011 A 
ENDBRANCH   2   7
TORSDOF 1
ENDMDL
MODEL 7
REMARK VINA RESULT:       1.4      1.931      2.100
REMARK  1 active torsions:
REMARK  status: ('A' for Active; 'I' for Inactive)
REMARK    1  A    between atoms: C2_2  and  C6_6 
ROOT
HETATM    1  C1  UNL     1     -33.169   8.157   2.749  1.00 20.00     0.080 A 
HETATM    2  C2  UNL     1     -32.402   8.346   1.618  1.00 20.00     0.047 A 
HETATM    3  C3  UNL     1     -32.439   6.152   1.628  1.00 20.00     0.144 A 
HETATM    4  N7  UNL     1     -31.982   7.197   0.975  1.00 20.00    -0.238 NA
HETATM    5  S8  UNL     1     -33.382   6.477   3.025  1.00 20.00    -0.073 SA
HETATM    6 BR9  UNL     1     -32.073   4.368   1.051  1.00 20.00    -0.021 Br
ENDROOT
BRANCH   2   7
HETATM    7  C6  UNL     1     -32.031   9.745   1.099  1.00 20.00     0.038 A 
HETATM    8  C4  UNL     1     -33.134  10.644   0.591  1.00 20.00     0.011 A 
HETATM    9  C5  UNL     1     -32.173  10.029  -0.378  1.00 20.00     0.011 A 
ENDBRANCH   2   7
TORSDOF 1
ENDMDL
