MODEL 1
REMARK VINA RESULT:      -2.3      0.000      0.000
REMARK  3 active torsions:
REMARK  status: ('A' for Active; 'I' for Inactive)
REMARK    1  A    between atoms: C4_4  and  C7_7 
REMARK    2  A    between atoms: C6_6  and  N9_9 
REMARK    3  A    between atoms: C7_7  and  N9_9 
ROOT
HETATM    1  C1  UNL     1     -32.415   5.849   1.416  1.00 20.00     0.095 C 
HETATM    2  C7  UNL     1     -33.111   6.979   2.074  1.00 20.00     0.330 C 
HETATM    3  N8  UNL     1     -31.850   4.978   0.898  1.00 20.00    -0.195 NA
ENDROOT
BRANCH   2   4
HETATM    4  C4  UNL     1     -33.583   6.631   3.442  1.00 20.00     0.033 A 
HETATM    5  C2  UNL     1     -34.198   7.684   4.322  1.00 20.00     0.008 A 
HETATM    6  C3  UNL     1     -35.055   6.590   3.747  1.00 20.00     0.008 A 
ENDBRANCH   2   4
BRANCH   2   7
HETATM    7  N9  UNL     1     -32.220   8.128   2.086  1.00 20.00     0.101 N 
HETATM    8  H21 UNL     1     -32.658   8.890   2.604  1.00 20.00     0.317 HD
BRANCH   7   9
HETATM    9  C6  UNL     1     -31.929   8.580   0.730  1.00 20.00     0.267 C 
HETATM   10  C5  UNL     1     -32.529   9.920   0.470  1.00 20.00     0.037 C 
ENDBRANCH   7   9
ENDBRANCH   2   7
TORSDOF 3
ENDMDL
MODEL 2
REMARK VINA RESULT:      -1.1      1.003      3.503
REMARK  3 active torsions:
REMARK  status: ('A' for Active; 'I' for Inactive)
REMARK    1  A    between atoms: C4_4  and  C7_7 
REMARK    2  A    between atoms: C6_6  and  N9_9 
REMARK    3  A    between atoms: C7_7  and  N9_9 
ROOT
HETATM    1  C1  UNL     1     -32.195   6.539   1.383  1.00 20.00     0.095 C 
HETATM    2  C7  UNL     1     -31.972   7.978   1.651  1.00 20.00     0.330 C 
HETATM    3  N8  UNL     1     -32.377   5.408   1.195  1.00 20.00    -0.195 NA
ENDROOT
BRANCH   2   4
HETATM    4  C4  UNL     1     -32.718   8.850   0.703  1.00 20.00     0.033 A 
HETATM    5  C2  UNL     1     -32.693  10.344   0.868  1.00 20.00     0.008 A 
HETATM    6  C3  UNL     1     -31.974   9.704  -0.286  1.00 20.00     0.008 A 
ENDBRANCH   2   4
BRANCH   2   7
HETATM    7  N9  UNL     1     -32.330   8.252   3.033  1.00 20.00     0.101 N 
HETATM    8  H21 UNL     1     -31.571   7.953   3.645  1.00 20.00     0.317 HD
BRANCH   7   9
HETATM    9  C6  UNL     1     -33.550   7.548   3.409  1.00 20.00     0.267 C 
HETATM   10  C5  UNL     1     -33.928   7.843   4.820  1.00 20.00     0.037 C 
ENDBRANCH   7   9
ENDBRANCH   2   7
TORSDOF 3
ENDMDL
MODEL 3
REMARK VINA RESULT:      -1.0      1.210      2.939
REMARK  3 active torsions:
REMARK  status: ('A' for Active; 'I' for Inactive)
REMARK    1  A    between atoms: C4_4  and  C7_7 
REMARK    2  A    between atoms: C6_6  and  N9_9 
REMARK    3  A    between atoms: C7_7  and  N9_9 
ROOT
HETATM    1  C1  UNL     1     -32.379   8.389   1.472  1.00 20.00     0.095 C 
HETATM    2  C7  UNL     1     -32.783   7.309   2.401  1.00 20.00     0.330 C 
HETATM    3  N8  UNL     1     -32.064   9.220   0.726  1.00 20.00    -0.195 NA
ENDROOT
BRANCH   2   4
HETATM    4  C4  UNL     1     -33.997   7.665   3.186  1.00 20.00     0.033 A 
HETATM    5  C2  UNL     1     -34.767   6.600   3.916  1.00 20.00     0.008 A 
HETATM    6  C3  UNL     1     -33.969   7.614   4.689  1.00 20.00     0.008 A 
ENDBRANCH   2   4
BRANCH   2   7
HETATM    7  N9  UNL     1     -32.973   6.087   1.637  1.00 20.00     0.101 N 
HETATM    8  H21 UNL     1     -33.643   5.488   2.119  1.00 20.00     0.317 HD
BRANCH   7   9
HETATM    9  C6  UNL     1     -31.716   5.366   1.479  1.00 20.00     0.267 C 
HETATM   10  C5  UNL     1     -31.784   4.412   0.336  1.00 20.00     0.037 C 
ENDBRANCH   7   9
ENDBRANCH   2   7
TORSDOF 3
ENDMDL
MODEL 4
REMARK VINA RESULT:      -1.0      2.495      4.721
REMARK  3 active torsions:
REMARK  status: ('A' for Active; 'I' for Inactive)
REMARK    1  A    between atoms: C4_4  and  C7_7 
REMARK    2  A    between atoms: C6_6  and  N9_9 
REMARK    3  A    between atoms: C7_7  and  N9_9 
ROOT
HETATM    1  C1  UNL     1     -34.075   7.226   4.094  1.00 20.00     0.095 C 
HETATM    2  C7  UNL     1     -34.174   5.995   3.277  1.00 20.00     0.330 C 
HETATM    3  N8  UNL     1     -34.002   8.179   4.753  1.00 20.00    -0.195 NA
ENDROOT
BRANCH   2   4
HETATM    4  C4  UNL     1     -32.940   5.743   2.484  1.00 20.00     0.033 A 
HETATM    5  C2  UNL     1     -33.013   5.623   0.987  1.00 20.00     0.008 A 
HETATM    6  C3  UNL     1     -32.366   6.827   1.613  1.00 20.00     0.008 A 
ENDBRANCH   2   4
BRANCH   2   7
HETATM    7  N9  UNL     1     -34.487   4.880   4.156  1.00 20.00     0.101 N 
HETATM    8  H21 UNL     1     -34.282   5.141   5.121  1.00 20.00     0.317 HD
BRANCH   7   9
HETATM    9  C6  UNL     1     -33.706   3.700   3.805  1.00 20.00     0.267 C 
HETATM   10  C5  UNL     1     -33.146   3.045   5.022  1.00 20.00     0.037 C 
ENDBRANCH   7   9
ENDBRANCH   2   7
TORSDOF 3
ENDMDL
MODEL 5
REMARK VINA RESULT:      -0.9      2.346      3.640
REMARK  3 active torsions:
REMARK  status: ('A' for Active; 'I' for Inactive)
REMARK    1  A    between atoms: C4_4  and  C7_7 
REMARK    2  A    between atoms: C6_6  and  N9_9 
REMARK    3  A    between atoms: C7_7  and  N9_9 
ROOT
HETATM    1  C1  UNL     1     -33.719   4.347   3.911  1.00 20.00     0.095 C 
HETATM    2  C7  UNL     1     -33.600   5.735   3.407  1.00 20.00     0.330 C 
HETATM    3  N8  UNL     1     -33.834   3.265   4.315  1.00 20.00    -0.195 NA
ENDROOT
BRANCH   2   4
HETATM    4  C4  UNL     1     -33.312   5.781   1.947  1.00 20.00     0.033 A 
HETATM    5  C2  UNL     1     -32.370   6.813   1.393  1.00 20.00     0.008 A 
HETATM    6  C3  UNL     1     -31.963   5.367   1.428  1.00 20.00     0.008 A 
ENDBRANCH   2   4
BRANCH   2   7
HETATM    7  N9  UNL     1     -34.819   6.455   3.740  1.00 20.00     0.101 N 
HETATM    8  H21 UNL     1     -35.458   6.423   2.946  1.00 20.00     0.317 HD
BRANCH   7   9
HETATM    9  C6  UNL     1     -34.533   7.847   4.065  1.00 20.00     0.267 C 
HETATM   10  C5  UNL     1     -33.303   7.962   4.900  1.00 20.00     0.037 C 
ENDBRANCH   7   9
ENDBRANCH   2   7
TORSDOF 3
ENDMDL
MODEL 6
REMARK VINA RESULT:      -0.9      2.202      2.824
REMARK  3 active torsions:
REMARK  status: ('A' for Active; 'I' for Inactive)
REMARK    1  A    between atoms: C4_4  and  C7_7 
REMARK    2  A    between atoms: C6_6  and  N9_9 
REMARK    3  A    between atoms: C7_7  and  N9_9 
ROOT
HETATM    1  C1  UNL     1     -33.684   3.642   4.139  1.00 20.00     0.095 C 
HETATM    2  C7  UNL     1     -33.972   4.879   3.378  1.00 20.00     0.330 C 
HETATM    3  N8  UNL     1     -33.435   2.675   4.732  1.00 20.00    -0.195 NA
ENDROOT
BRANCH   2   4
HETATM    4  C4  UNL     1     -34.775   5.853   4.168  1.00 20.00     0.033 A 
HETATM    5  C2  UNL     1     -34.425   7.315   4.150  1.00 20.00     0.008 A 
HETATM    6  C3  UNL     1     -35.676   6.833   3.469  1.00 20.00     0.008 A 
ENDBRANCH   2   4
BRANCH   2   7
HETATM    7  N9  UNL     1     -32.712   5.453   2.934  1.00 20.00     0.101 N 
HETATM    8  H21 UNL     1     -32.478   6.252   3.523  1.00 20.00     0.317 HD
BRANCH   7   9
HETATM    9  C6  UNL     1     -32.797   5.893   1.546  1.00 20.00     0.267 C 
HETATM   10  C5  UNL     1     -32.079   7.184   1.347  1.00 20.00     0.037 C 
ENDBRANCH   7   9
ENDBRANCH   2   7
TORSDOF 3
ENDMDL
MODEL 7
REMARK VINA RESULT:      -0.9      0.866      3.548
REMARK  3 active torsions:
REMARK  status: ('A' for Active; 'I' for Inactive)
REMARK    1  A    between atoms: C4_4  and  C7_7 
REMARK    2  A    between atoms: C6_6  and  N9_9 
REMARK    3  A    between atoms: C7_7  and  N9_9 
ROOT
HETATM    1  C1  UNL     1     -32.078   6.541   1.523  1.00 20.00     0.095 C 
HETATM    2  C7  UNL     1     -32.125   7.942   1.999  1.00 20.00     0.330 C 
HETATM    3  N8  UNL     1     -32.063   5.439   1.156  1.00 20.00    -0.195 NA
ENDROOT
BRANCH   2   4
HETATM    4  C4  UNL     1     -31.777   8.914   0.926  1.00 20.00     0.033 A 
HETATM    5  C2  UNL     1     -32.700   9.116  -0.243  1.00 20.00     0.008 A 
HETATM    6  C3  UNL     1     -32.546  10.198   0.789  1.00 20.00     0.008 A 
ENDBRANCH   2   4
BRANCH   2   7
HETATM    7  N9  UNL     1     -33.444   8.200   2.553  1.00 20.00     0.101 N 
HETATM    8  H21 UNL     1     -33.561   9.203   2.696  1.00 20.00     0.317 HD
BRANCH   7   9
HETATM    9  C6  UNL     1     -33.621   7.512   3.827  1.00 20.00     0.267 C 
HETATM   10  C5  UNL     1     -34.872   6.702   3.830  1.00 20.00     0.037 C 
ENDBRANCH   7   9
ENDBRANCH   2   7
TORSDOF 3
ENDMDL
MODEL 8
REMARK VINA RESULT:      -0.9      1.718      2.784
REMARK  3 active torsions:
REMARK  status: ('A' for Active; 'I' for Inactive)
REMARK    1  A    between atoms: C4_4  and  C7_7 
REMARK    2  A    between atoms: C6_6  and  N9_9 
REMARK    3  A    between atoms: C7_7  and  N9_9 
ROOT
HETATM    1  C1  UNL     1     -33.425   7.535   3.396  1.00 20.00     0.095 C 
HETATM    2  C7  UNL     1     -32.329   7.622   2.403  1.00 20.00     0.330 C 
HETATM    3  N8  UNL     1     -34.288   7.489   4.170  1.00 20.00    -0.195 NA
ENDROOT
BRANCH   2   4
HETATM    4  C4  UNL     1     -32.498   6.649   1.289  1.00 20.00     0.033 A 
HETATM    5  C2  UNL     1     -31.733   5.355   1.292  1.00 20.00     0.008 A 
HETATM    6  C3  UNL     1     -33.218   5.350   1.522  1.00 20.00     0.008 A 
ENDBRANCH   2   4
BRANCH   2   7
HETATM    7  N9  UNL     1     -32.252   8.991   1.918  1.00 20.00     0.101 N 
HETATM    8  H21 UNL     1     -33.131   9.469   2.113  1.00 20.00     0.317 HD
BRANCH   7   9
HETATM    9  C6  UNL     1     -32.000   9.024   0.482  1.00 20.00     0.267 C 
HETATM   10  C5  UNL     1     -32.652  10.206  -0.151  1.00 20.00     0.037 C 
ENDBRANCH   7   9
ENDBRANCH   2   7
TORSDOF 3
ENDMDL
MODEL 9
REMARK VINA RESULT:      -0.8      2.302      4.654
REMARK  3 active torsions:
REMARK  status: ('A' for Active; 'I' for Inactive)
REMARK    1  A    between atoms: C4_4  and  C7_7 
REMARK    2  A    between atoms: C6_6  and  N9_9 
REMARK    3  A    between atoms: C7_7  and  N9_9 
ROOT
HETATM    1  C1  UNL     1     -34.103   6.982   3.812  1.00 20.00     0.095 C 
HETATM    2  C7  UNL     1     -33.898   5.877   2.848  1.00 20.00     0.330 C 
HETATM    3  N8  UNL     1     -34.252   7.837   4.584  1.00 20.00    -0.195 NA
ENDROOT
BRANCH   2   4
HETATM    4  C4  UNL     1     -33.244   6.338   1.592  1.00 20.00     0.033 A 
HETATM    5  C2  UNL     1     -32.030   7.221   1.650  1.00 20.00     0.008 A 
HETATM    6  C3  UNL     1     -31.900   5.794   1.195  1.00 20.00     0.008 A 
ENDBRANCH   2   4
BRANCH   2   7
HETATM    7  N9  UNL     1     -33.132   4.828   3.502  1.00 20.00     0.101 N 
HETATM    8  H21 UNL     1     -32.632   4.285   2.798  1.00 20.00     0.317 HD
BRANCH   7   9
HETATM    9  C6  UNL     1     -34.002   3.938   4.261  1.00 20.00     0.267 C 
HETATM   10  C5  UNL     1     -33.235   2.794   4.831  1.00 20.00     0.037 C 
ENDBRANCH   7   9
ENDBRANCH   2   7
TORSDOF 3
ENDMDL
