MODEL 1
REMARK VINA RESULT:      -1.6      0.000      0.000
REMARK  3 active torsions:
REMARK  status: ('A' for Active; 'I' for Inactive)
REMARK    1  A    between atoms: C6_6  and  C8_8 
REMARK    2  A    between atoms: C7_7  and  N10_10 
REMARK    3  A    between atoms: C8_8  and  N10_10 
ROOT
HETATM    1  C1  UNL     1     -32.412   5.840   1.419  1.00 20.00     0.095 C 
HETATM    2  C8  UNL     1     -33.045   7.065   1.959  1.00 20.00     0.330 C 
HETATM    3  N9  UNL     1     -31.896   4.893   0.990  1.00 20.00    -0.195 NA
ENDROOT
BRANCH   2   4
HETATM    4  C6  UNL     1     -33.356   6.947   3.411  1.00 20.00     0.033 A 
HETATM    5  C2  UNL     1     -34.503   7.717   4.006  1.00 20.00     0.008 A 
HETATM    6  C3  UNL     1     -34.594   6.223   3.863  1.00 20.00     0.008 A 
ENDBRANCH   2   4
BRANCH   2   7
HETATM    7  N10 UNL     1     -32.175   8.197   1.685  1.00 20.00     0.106 N 
HETATM    8  H22 UNL     1     -31.264   7.855   1.376  1.00 20.00     0.318 HD
BRANCH   7   9
HETATM    9  C7  UNL     1     -32.740   9.052   0.648  1.00 20.00     0.222 A 
HETATM   10  C4  UNL     1     -32.681  10.549   0.783  1.00 20.00     0.038 A 
HETATM   11  C5  UNL     1     -31.840   9.857  -0.250  1.00 20.00     0.038 A 
ENDBRANCH   7   9
ENDBRANCH   2   7
TORSDOF 3
ENDMDL
MODEL 2
REMARK VINA RESULT:      -1.2      1.577      2.602
REMARK  3 active torsions:
REMARK  status: ('A' for Active; 'I' for Inactive)
REMARK    1  A    between atoms: C6_6  and  C8_8 
REMARK    2  A    between atoms: C7_7  and  N10_10 
REMARK    3  A    between atoms: C8_8  and  N10_10 
ROOT
HETATM    1  C1  UNL     1     -33.207   7.580   3.242  1.00 20.00     0.095 C 
HETATM    2  C8  UNL     1     -32.090   7.421   2.281  1.00 20.00     0.330 C 
HETATM    3  N9  UNL     1     -34.082   7.729   3.989  1.00 20.00    -0.195 NA
ENDROOT
BRANCH   2   4
HETATM    4  C6  UNL     1     -32.430   6.487   1.171  1.00 20.00     0.033 A 
HETATM    5  C2  UNL     1     -31.827   5.110   1.128  1.00 20.00     0.008 A 
HETATM    6  C3  UNL     1     -33.290   5.282   1.432  1.00 20.00     0.008 A 
ENDBRANCH   2   4
BRANCH   2   7
HETATM    7  N10 UNL     1     -31.714   8.734   1.785  1.00 20.00     0.106 N 
HETATM    8  H22 UNL     1     -30.811   8.671   1.312  1.00 20.00     0.318 HD
BRANCH   7   9
HETATM    9  C7  UNL     1     -32.708   9.245   0.849  1.00 20.00     0.222 A 
HETATM   10  C4  UNL     1     -32.795  10.719   0.562  1.00 20.00     0.038 A 
HETATM   11  C5  UNL     1     -32.289   9.779  -0.493  1.00 20.00     0.038 A 
ENDBRANCH   7   9
ENDBRANCH   2   7
TORSDOF 3
ENDMDL
MODEL 3
REMARK VINA RESULT:      -1.2      0.882      3.795
REMARK  3 active torsions:
REMARK  status: ('A' for Active; 'I' for Inactive)
REMARK    1  A    between atoms: C6_6  and  C8_8 
REMARK    2  A    between atoms: C7_7  and  N10_10 
REMARK    3  A    between atoms: C8_8  and  N10_10 
ROOT
HETATM    1  C1  UNL     1     -31.968   6.579   1.297  1.00 20.00     0.095 C 
HETATM    2  C8  UNL     1     -31.935   7.996   1.728  1.00 20.00     0.330 C 
HETATM    3  N9  UNL     1     -32.003   5.463   0.982  1.00 20.00    -0.195 NA
ENDROOT
BRANCH   2   4
HETATM    4  C6  UNL     1     -32.790   8.866   0.872  1.00 20.00     0.033 A 
HETATM    5  C2  UNL     1     -32.429  10.310   0.659  1.00 20.00     0.008 A 
HETATM    6  C3  UNL     1     -32.296   9.327  -0.471  1.00 20.00     0.008 A 
ENDBRANCH   2   4
BRANCH   2   7
HETATM    7  N10 UNL     1     -32.324   8.065   3.126  1.00 20.00     0.106 N 
HETATM    8  H22 UNL     1     -32.094   8.989   3.496  1.00 20.00     0.318 HD
BRANCH   7   9
HETATM    9  C7  UNL     1     -33.754   7.831   3.285  1.00 20.00     0.222 A 
HETATM   10  C4  UNL     1     -34.268   6.452   3.596  1.00 20.00     0.038 A 
HETATM   11  C5  UNL     1     -34.332   7.529   4.640  1.00 20.00     0.038 A 
ENDBRANCH   7   9
ENDBRANCH   2   7
TORSDOF 3
ENDMDL
MODEL 4
REMARK VINA RESULT:      -1.0      2.687      5.416
REMARK  3 active torsions:
REMARK  status: ('A' for Active; 'I' for Inactive)
REMARK    1  A    between atoms: C6_6  and  C8_8 
REMARK    2  A    between atoms: C7_7  and  N10_10 
REMARK    3  A    between atoms: C8_8  and  N10_10 
ROOT
HETATM    1  C1  UNL     1     -34.174   7.021   3.973  1.00 20.00     0.095 C 
HETATM    2  C8  UNL     1     -34.163   5.776   3.170  1.00 20.00     0.330 C 
HETATM    3  N9  UNL     1     -34.184   7.982   4.621  1.00 20.00    -0.195 NA
ENDROOT
BRANCH   2   4
HETATM    4  C6  UNL     1     -32.899   5.611   2.401  1.00 20.00     0.033 A 
HETATM    5  C2  UNL     1     -32.919   5.620   0.897  1.00 20.00     0.008 A 
HETATM    6  C3  UNL     1     -32.314   6.773   1.647  1.00 20.00     0.008 A 
ENDBRANCH   2   4
BRANCH   2   7
HETATM    7  N10 UNL     1     -34.406   4.650   4.056  1.00 20.00     0.106 N 
HETATM    8  H22 UNL     1     -35.224   4.133   3.730  1.00 20.00     0.318 HD
BRANCH   7   9
HETATM    9  C7  UNL     1     -33.258   3.754   4.092  1.00 20.00     0.222 A 
HETATM   10  C4  UNL     1     -32.736   3.238   5.406  1.00 20.00     0.038 A 
HETATM   11  C5  UNL     1     -33.432   2.305   4.457  1.00 20.00     0.038 A 
ENDBRANCH   7   9
ENDBRANCH   2   7
TORSDOF 3
ENDMDL
MODEL 5
REMARK VINA RESULT:      -0.4      1.785      2.840
REMARK  3 active torsions:
REMARK  status: ('A' for Active; 'I' for Inactive)
REMARK    1  A    between atoms: C6_6  and  C8_8 
REMARK    2  A    between atoms: C7_7  and  N10_10 
REMARK    3  A    between atoms: C8_8  and  N10_10 
ROOT
HETATM    1  C1  UNL     1     -33.784   7.365   3.963  1.00 20.00     0.095 C 
HETATM    2  C8  UNL     1     -33.220   6.231   3.194  1.00 20.00     0.330 C 
HETATM    3  N9  UNL     1     -34.226   8.266   4.544  1.00 20.00    -0.195 NA
ENDROOT
BRANCH   2   4
HETATM    4  C6  UNL     1     -34.100   5.030   3.232  1.00 20.00     0.033 A 
HETATM    5  C2  UNL     1     -33.766   3.874   4.134  1.00 20.00     0.008 A 
HETATM    6  C3  UNL     1     -34.948   4.751   4.442  1.00 20.00     0.008 A 
ENDBRANCH   2   4
BRANCH   2   7
HETATM    7  N10 UNL     1     -32.969   6.673   1.833  1.00 20.00     0.106 N 
HETATM    8  H22 UNL     1     -33.856   6.895   1.380  1.00 20.00     0.318 HD
BRANCH   7   9
HETATM    9  C7  UNL     1     -32.115   7.854   1.814  1.00 20.00     0.222 A 
HETATM   10  C4  UNL     1     -31.359   8.226   0.568  1.00 20.00     0.038 A 
HETATM   11  C5  UNL     1     -32.513   9.071   1.024  1.00 20.00     0.038 A 
ENDBRANCH   7   9
ENDBRANCH   2   7
TORSDOF 3
ENDMDL
MODEL 6
REMARK VINA RESULT:      -0.1      1.980      4.795
REMARK  3 active torsions:
REMARK  status: ('A' for Active; 'I' for Inactive)
REMARK    1  A    between atoms: C6_6  and  C8_8 
REMARK    2  A    between atoms: C7_7  and  N10_10 
REMARK    3  A    between atoms: C8_8  and  N10_10 
ROOT
HETATM    1  C1  UNL     1     -33.787   7.365   3.501  1.00 20.00     0.095 C 
HETATM    2  C8  UNL     1     -33.423   6.739   2.209  1.00 20.00     0.330 C 
HETATM    3  N9  UNL     1     -34.073   7.834   4.523  1.00 20.00    -0.195 NA
ENDROOT
BRANCH   2   4
HETATM    4  C6  UNL     1     -32.084   7.180   1.725  1.00 20.00     0.033 A 
HETATM    5  C2  UNL     1     -31.955   8.414   0.875  1.00 20.00     0.008 A 
HETATM    6  C3  UNL     1     -31.446   8.418   2.290  1.00 20.00     0.008 A 
ENDBRANCH   2   4
BRANCH   2   7
HETATM    7  N10 UNL     1     -33.494   5.295   2.357  1.00 20.00     0.106 N 
HETATM    8  H22 UNL     1     -32.703   4.866   1.873  1.00 20.00     0.318 HD
BRANCH   7   9
HETATM    9  C7  UNL     1     -33.458   4.910   3.763  1.00 20.00     0.222 A 
HETATM   10  C4  UNL     1     -34.694   4.382   4.438  1.00 20.00     0.038 A 
HETATM   11  C5  UNL     1     -33.541   3.461   4.159  1.00 20.00     0.038 A 
ENDBRANCH   7   9
ENDBRANCH   2   7
TORSDOF 3
ENDMDL
MODEL 7
REMARK VINA RESULT:      -0.1      1.951      2.637
REMARK  3 active torsions:
REMARK  status: ('A' for Active; 'I' for Inactive)
REMARK    1  A    between atoms: C6_6  and  C8_8 
REMARK    2  A    between atoms: C7_7  and  N10_10 
REMARK    3  A    between atoms: C8_8  and  N10_10 
ROOT
HETATM    1  C1  UNL     1     -33.483   3.977   3.832  1.00 20.00     0.095 C 
HETATM    2  C8  UNL     1     -33.799   5.119   2.944  1.00 20.00     0.330 C 
HETATM    3  N9  UNL     1     -33.212   3.085   4.523  1.00 20.00    -0.195 NA
ENDROOT
BRANCH   2   4
HETATM    4  C6  UNL     1     -34.420   6.254   3.682  1.00 20.00     0.033 A 
HETATM    5  C2  UNL     1     -35.814   6.706   3.343  1.00 20.00     0.008 A 
HETATM    6  C3  UNL     1     -35.547   6.003   4.645  1.00 20.00     0.008 A 
ENDBRANCH   2   4
BRANCH   2   7
HETATM    7  N10 UNL     1     -32.583   5.523   2.258  1.00 20.00     0.106 N 
HETATM    8  H22 UNL     1     -32.380   4.860   1.509  1.00 20.00     0.318 HD
BRANCH   7   9
HETATM    9  C7  UNL     1     -32.721   6.858   1.688  1.00 20.00     0.222 A 
HETATM   10  C4  UNL     1     -32.116   8.047   2.382  1.00 20.00     0.038 A 
HETATM   11  C5  UNL     1     -31.533   7.558   1.088  1.00 20.00     0.038 A 
ENDBRANCH   7   9
ENDBRANCH   2   7
TORSDOF 3
ENDMDL
MODEL 8
REMARK VINA RESULT:      -0.0      2.555      4.970
REMARK  3 active torsions:
REMARK  status: ('A' for Active; 'I' for Inactive)
REMARK    1  A    between atoms: C6_6  and  C8_8 
REMARK    2  A    between atoms: C7_7  and  N10_10 
REMARK    3  A    between atoms: C8_8  and  N10_10 
ROOT
HETATM    1  C1  UNL     1     -33.125   5.600   1.974  1.00 20.00     0.095 C 
HETATM    2  C8  UNL     1     -33.490   5.634   3.409  1.00 20.00     0.330 C 
HETATM    3  N9  UNL     1     -32.848   5.550   0.848  1.00 20.00    -0.195 NA
ENDROOT
BRANCH   2   4
HETATM    4  C6  UNL     1     -34.403   6.767   3.732  1.00 20.00     0.033 A 
HETATM    5  C2  UNL     1     -34.019   7.773   4.782  1.00 20.00     0.008 A 
HETATM    6  C3  UNL     1     -34.038   8.170   3.332  1.00 20.00     0.008 A 
ENDBRANCH   2   4
BRANCH   2   7
HETATM    7  N10 UNL     1     -34.073   4.353   3.770  1.00 20.00     0.106 N 
HETATM    8  H22 UNL     1     -34.615   3.994   2.983  1.00 20.00     0.318 HD
BRANCH   7   9
HETATM    9  C7  UNL     1     -33.039   3.386   4.118  1.00 20.00     0.222 A 
HETATM   10  C4  UNL     1     -32.781   3.033   5.557  1.00 20.00     0.038 A 
HETATM   11  C5  UNL     1     -33.411   2.025   4.640  1.00 20.00     0.038 A 
ENDBRANCH   7   9
ENDBRANCH   2   7
TORSDOF 3
ENDMDL
MODEL 9
REMARK VINA RESULT:      -0.0      1.370      3.637
REMARK  3 active torsions:
REMARK  status: ('A' for Active; 'I' for Inactive)
REMARK    1  A    between atoms: C6_6  and  C8_8 
REMARK    2  A    between atoms: C7_7  and  N10_10 
REMARK    3  A    between atoms: C8_8  and  N10_10 
ROOT
HETATM    1  C1  UNL     1     -31.876   5.089   0.890  1.00 20.00     0.095 C 
HETATM    2  C8  UNL     1     -32.153   6.186   1.846  1.00 20.00     0.330 C 
HETATM    3  N9  UNL     1     -31.683   4.227   0.138  1.00 20.00    -0.195 NA
ENDROOT
BRANCH   2   4
HETATM    4  C6  UNL     1     -31.569   7.483   1.402  1.00 20.00     0.033 A 
HETATM    5  C2  UNL     1     -32.454   8.683   1.202  1.00 20.00     0.008 A 
HETATM    6  C3  UNL     1     -31.490   8.643   2.355  1.00 20.00     0.008 A 
ENDBRANCH   2   4
BRANCH   2   7
HETATM    7  N10 UNL     1     -33.590   6.280   2.041  1.00 20.00     0.106 N 
HETATM    8  H22 UNL     1     -34.051   5.526   1.528  1.00 20.00     0.318 HD
BRANCH   7   9
HETATM    9  C7  UNL     1     -33.936   6.177   3.453  1.00 20.00     0.222 A 
HETATM   10  C4  UNL     1     -34.361   7.398   4.222  1.00 20.00     0.038 A 
HETATM   11  C5  UNL     1     -35.364   6.327   3.902  1.00 20.00     0.038 A 
ENDBRANCH   7   9
ENDBRANCH   2   7
TORSDOF 3
ENDMDL
