MODEL 1
REMARK VINA RESULT:      -1.0      0.000      0.000
REMARK  1 active torsions:
REMARK  status: ('A' for Active; 'I' for Inactive)
REMARK    1  A    between atoms: C4_4  and  C7_7 
ROOT
HETATM    1  C1  UNL     1     -33.675   3.739   4.334  1.00 20.00     0.069 C 
HETATM    2  C6  UNL     1     -35.338   5.555   4.560  1.00 20.00     0.031 C 
HETATM    3  C7  UNL     1     -34.439   4.771   3.577  1.00 20.00     0.128 C 
HETATM    4  N8  UNL     1     -33.060   2.944   4.913  1.00 20.00    -0.197 NA
ENDROOT
BRANCH   3   5
HETATM    5  C4  UNL     1     -33.568   5.644   2.761  1.00 20.00     0.001 A 
HETATM    6  C2  UNL     1     -32.679   5.285   1.771  1.00 20.00     0.018 A 
HETATM    7  C3  UNL     1     -32.018   6.415   1.210  1.00 20.00     0.032 A 
HETATM    8  C5  UNL     1     -32.427   7.596   1.790  1.00 20.00     0.075 A 
HETATM    9  S9  UNL     1     -33.603   7.338   3.008  1.00 20.00    -0.081 SA
HETATM   10 CL10 UNL     1     -31.898   9.185   1.426  1.00 20.00    -0.076 Cl
ENDBRANCH   3   5
TORSDOF 1
ENDMDL
MODEL 2
REMARK VINA RESULT:      -0.2      3.716      5.122
REMARK  1 active torsions:
REMARK  status: ('A' for Active; 'I' for Inactive)
REMARK    1  A    between atoms: C4_4  and  C7_7 
ROOT
HETATM    1  C1  UNL     1     -32.412   9.229   0.733  1.00 20.00     0.069 C 
HETATM    2  C6  UNL     1     -30.537   8.233   1.999  1.00 20.00     0.031 C 
HETATM    3  C7  UNL     1     -31.956   7.996   1.434  1.00 20.00     0.128 C 
HETATM    4  N8  UNL     1     -32.789  10.189   0.200  1.00 20.00    -0.197 NA
ENDROOT
BRANCH   3   5
HETATM    5  C4  UNL     1     -32.918   7.527   2.454  1.00 20.00     0.001 A 
HETATM    6  C2  UNL     1     -33.521   8.249   3.460  1.00 20.00     0.018 A 
HETATM    7  C3  UNL     1     -34.394   7.443   4.247  1.00 20.00     0.032 A 
HETATM    8  C5  UNL     1     -34.426   6.136   3.812  1.00 20.00     0.075 A 
HETATM    9  S9  UNL     1     -33.405   5.885   2.460  1.00 20.00    -0.081 SA
HETATM   10 CL10 UNL     1     -35.333   4.835   4.461  1.00 20.00    -0.076 Cl
ENDBRANCH   3   5
TORSDOF 1
ENDMDL
MODEL 3
REMARK VINA RESULT:      -0.2      3.491      4.785
REMARK  1 active torsions:
REMARK  status: ('A' for Active; 'I' for Inactive)
REMARK    1  A    between atoms: C4_4  and  C7_7 
ROOT
HETATM    1  C1  UNL     1     -32.243   9.141   0.728  1.00 20.00     0.069 C 
HETATM    2  C6  UNL     1     -31.109   9.074   2.923  1.00 20.00     0.031 C 
HETATM    3  C7  UNL     1     -31.661   8.229   1.753  1.00 20.00     0.128 C 
HETATM    4  N8  UNL     1     -32.718   9.838  -0.070  1.00 20.00    -0.197 NA
ENDROOT
BRANCH   3   5
HETATM    5  C4  UNL     1     -32.605   7.178   2.187  1.00 20.00     0.001 A 
HETATM    6  C2  UNL     1     -32.811   5.930   1.639  1.00 20.00     0.018 A 
HETATM    7  C3  UNL     1     -33.812   5.197   2.340  1.00 20.00     0.032 A 
HETATM    8  C5  UNL     1     -34.333   5.911   3.397  1.00 20.00     0.075 A 
HETATM    9  S9  UNL     1     -33.616   7.460   3.540  1.00 20.00    -0.081 SA
HETATM   10 CL10 UNL     1     -35.549   5.419   4.499  1.00 20.00    -0.076 Cl
ENDBRANCH   3   5
TORSDOF 1
ENDMDL
MODEL 4
REMARK VINA RESULT:      -0.1      2.409      2.783
REMARK  1 active torsions:
REMARK  status: ('A' for Active; 'I' for Inactive)
REMARK    1  A    between atoms: C4_4  and  C7_7 
ROOT
HETATM    1  C1  UNL     1     -35.115   6.149   4.267  1.00 20.00     0.069 C 
HETATM    2  C6  UNL     1     -33.733   8.067   4.990  1.00 20.00     0.031 C 
HETATM    3  C7  UNL     1     -34.338   7.323   3.778  1.00 20.00     0.128 C 
HETATM    4  N8  UNL     1     -35.707   5.220   4.631  1.00 20.00    -0.197 NA
ENDROOT
BRANCH   3   5
HETATM    5  C4  UNL     1     -33.333   6.960   2.756  1.00 20.00     0.001 A 
HETATM    6  C2  UNL     1     -32.405   7.771   2.139  1.00 20.00     0.018 A 
HETATM    7  C3  UNL     1     -31.606   7.053   1.204  1.00 20.00     0.032 A 
HETATM    8  C5  UNL     1     -31.951   5.721   1.141  1.00 20.00     0.075 A 
HETATM    9  S9  UNL     1     -33.237   5.341   2.207  1.00 20.00    -0.081 SA
HETATM   10 CL10 UNL     1     -31.257   4.500   0.158  1.00 20.00    -0.076 Cl
ENDBRANCH   3   5
TORSDOF 1
ENDMDL
MODEL 5
REMARK VINA RESULT:       0.3      1.828      2.050
REMARK  1 active torsions:
REMARK  status: ('A' for Active; 'I' for Inactive)
REMARK    1  A    between atoms: C4_4  and  C7_7 
ROOT
HETATM    1  C1  UNL     1     -34.944   5.948   4.251  1.00 20.00     0.069 C 
HETATM    2  C6  UNL     1     -33.809   7.948   5.159  1.00 20.00     0.031 C 
HETATM    3  C7  UNL     1     -34.391   7.284   3.890  1.00 20.00     0.128 C 
HETATM    4  N8  UNL     1     -35.361   4.897   4.513  1.00 20.00    -0.197 NA
ENDROOT
BRANCH   3   5
HETATM    5  C4  UNL     1     -33.428   7.222   2.770  1.00 20.00     0.001 A 
HETATM    6  C2  UNL     1     -32.976   6.114   2.087  1.00 20.00     0.018 A 
HETATM    7  C3  UNL     1     -32.047   6.459   1.064  1.00 20.00     0.032 A 
HETATM    8  C5  UNL     1     -31.823   7.817   1.002  1.00 20.00     0.075 A 
HETATM    9  S9  UNL     1     -32.733   8.670   2.176  1.00 20.00    -0.081 SA
HETATM   10 CL10 UNL     1     -30.789   8.664  -0.069  1.00 20.00    -0.076 Cl
ENDBRANCH   3   5
TORSDOF 1
ENDMDL
MODEL 6
REMARK VINA RESULT:       1.6      3.021      4.349
REMARK  1 active torsions:
REMARK  status: ('A' for Active; 'I' for Inactive)
REMARK    1  A    between atoms: C4_4  and  C7_7 
ROOT
HETATM    1  C1  UNL     1     -31.631   5.933   0.967  1.00 20.00     0.069 C 
HETATM    2  C6  UNL     1     -32.066   8.363   0.831  1.00 20.00     0.031 C 
HETATM    3  C7  UNL     1     -31.870   7.159   1.780  1.00 20.00     0.128 C 
HETATM    4  N8  UNL     1     -31.463   4.967   0.347  1.00 20.00    -0.197 NA
ENDROOT
BRANCH   3   5
HETATM    5  C4  UNL     1     -32.974   6.997   2.750  1.00 20.00     0.001 A 
HETATM    6  C2  UNL     1     -33.571   7.956   3.538  1.00 20.00     0.018 A 
HETATM    7  C3  UNL     1     -34.608   7.412   4.351  1.00 20.00     0.032 A 
HETATM    8  C5  UNL     1     -34.764   6.058   4.153  1.00 20.00     0.075 A 
HETATM    9  S9  UNL     1     -33.663   5.448   2.992  1.00 20.00    -0.081 SA
HETATM   10 CL10 UNL     1     -35.884   5.007   4.914  1.00 20.00    -0.076 Cl
ENDBRANCH   3   5
TORSDOF 1
ENDMDL
MODEL 7
REMARK VINA RESULT:       1.7      1.794      2.101
REMARK  1 active torsions:
REMARK  status: ('A' for Active; 'I' for Inactive)
REMARK    1  A    between atoms: C4_4  and  C7_7 
ROOT
HETATM    1  C1  UNL     1     -35.426   6.135   3.766  1.00 20.00     0.069 C 
HETATM    2  C6  UNL     1     -33.952   4.161   3.981  1.00 20.00     0.031 C 
HETATM    3  C7  UNL     1     -34.003   5.702   3.866  1.00 20.00     0.128 C 
HETATM    4  N8  UNL     1     -36.528   6.485   3.668  1.00 20.00    -0.197 NA
ENDROOT
BRANCH   3   5
HETATM    5  C4  UNL     1     -33.165   6.233   2.770  1.00 20.00     0.001 A 
HETATM    6  C2  UNL     1     -32.531   5.540   1.762  1.00 20.00     0.018 A 
HETATM    7  C3  UNL     1     -31.811   6.406   0.889  1.00 20.00     0.032 A 
HETATM    8  C5  UNL     1     -31.922   7.727   1.262  1.00 20.00     0.075 A 
HETATM    9  S9  UNL     1     -32.891   7.920   2.661  1.00 20.00    -0.081 SA
HETATM   10 CL10 UNL     1     -31.224   9.096   0.502  1.00 20.00    -0.076 Cl
ENDBRANCH   3   5
TORSDOF 1
ENDMDL
MODEL 8
REMARK VINA RESULT:       1.8      3.406      4.672
REMARK  1 active torsions:
REMARK  status: ('A' for Active; 'I' for Inactive)
REMARK    1  A    between atoms: C4_4  and  C7_7 
ROOT
HETATM    1  C1  UNL     1     -32.277   8.050   2.601  1.00 20.00     0.069 C 
HETATM    2  C6  UNL     1     -32.332   6.449   0.717  1.00 20.00     0.031 C 
HETATM    3  C7  UNL     1     -33.105   7.005   1.935  1.00 20.00     0.128 C 
HETATM    4  N8  UNL     1     -31.636   8.852   3.141  1.00 20.00    -0.197 NA
ENDROOT
BRANCH   3   5
HETATM    5  C4  UNL     1     -33.556   5.951   2.869  1.00 20.00     0.001 A 
HETATM    6  C2  UNL     1     -34.650   5.959   3.707  1.00 20.00     0.018 A 
HETATM    7  C3  UNL     1     -34.756   4.753   4.459  1.00 20.00     0.032 A 
HETATM    8  C5  UNL     1     -33.741   3.869   4.167  1.00 20.00     0.075 A 
HETATM    9  S9  UNL     1     -32.665   4.494   2.990  1.00 20.00    -0.081 SA
HETATM   10 CL10 UNL     1     -33.480   2.311   4.831  1.00 20.00    -0.076 Cl
ENDBRANCH   3   5
TORSDOF 1
ENDMDL
MODEL 9
REMARK VINA RESULT:       1.9      2.346      2.511
REMARK  1 active torsions:
REMARK  status: ('A' for Active; 'I' for Inactive)
REMARK    1  A    between atoms: C4_4  and  C7_7 
ROOT
HETATM    1  C1  UNL     1     -33.921   7.725   4.935  1.00 20.00     0.069 C 
HETATM    2  C6  UNL     1     -35.542   6.319   3.707  1.00 20.00     0.031 C 
HETATM    3  C7  UNL     1     -34.045   6.574   3.996  1.00 20.00     0.128 C 
HETATM    4  N8  UNL     1     -33.807   8.631   5.651  1.00 20.00    -0.197 NA
ENDROOT
BRANCH   3   5
HETATM    5  C4  UNL     1     -33.236   6.745   2.770  1.00 20.00     0.001 A 
HETATM    6  C2  UNL     1     -32.899   5.799   1.827  1.00 20.00     0.018 A 
HETATM    7  C3  UNL     1     -32.102   6.348   0.781  1.00 20.00     0.032 A 
HETATM    8  C5  UNL     1     -31.860   7.692   0.964  1.00 20.00     0.075 A 
HETATM    9  S9  UNL     1     -32.593   8.286   2.393  1.00 20.00    -0.081 SA
HETATM   10 CL10 UNL     1     -30.955   8.744  -0.042  1.00 20.00    -0.076 Cl
ENDBRANCH   3   5
TORSDOF 1
ENDMDL
