MODEL 1
REMARK VINA RESULT:       0.8      0.000      0.000
REMARK  0 active torsions:
REMARK  status: ('A' for Active; 'I' for Inactive)
ROOT
HETATM    1  C1  UNL     1     -32.047   8.801   0.673  1.00 20.00     0.068 C 
HETATM    2  C2  UNL     1     -34.445   6.018   3.304  1.00 20.00     0.009 A 
HETATM    3  C3  UNL     1     -34.631   6.776   4.461  1.00 20.00     0.024 A 
HETATM    4  C4  UNL     1     -32.813   8.266   3.832  1.00 20.00     0.033 A 
HETATM    5  C5  UNL     1     -33.437   6.389   2.430  1.00 20.00    -0.050 A 
HETATM    6  C6  UNL     1     -32.631   7.505   2.686  1.00 20.00    -0.033 A 
HETATM    7  C7  UNL     1     -33.819   7.891   4.724  1.00 20.00     0.034 A 
HETATM    8  C8  UNL     1     -33.075   5.755   1.124  1.00 20.00     0.041 C 
HETATM    9  C9  UNL     1     -31.674   6.345   0.886  1.00 20.00     0.028 C 
HETATM   10  C10 UNL     1     -31.638   7.723   1.581  1.00 20.00     0.126 C 
HETATM   11  N11 UNL     1     -32.370   9.653  -0.046  1.00 20.00    -0.197 NA
HETATM   12 CL12 UNL     1     -34.075   8.812   6.157  1.00 20.00    -0.084 Cl
ENDROOT
TORSDOF 0
ENDMDL
MODEL 2
REMARK VINA RESULT:       1.1      2.816      4.123
REMARK  0 active torsions:
REMARK  status: ('A' for Active; 'I' for Inactive)
ROOT
HETATM    1  C1  UNL     1     -33.653   8.048   5.132  1.00 20.00     0.068 C 
HETATM    2  C2  UNL     1     -32.505   5.424   1.639  1.00 20.00     0.009 A 
HETATM    3  C3  UNL     1     -31.785   6.298   0.822  1.00 20.00     0.024 A 
HETATM    4  C4  UNL     1     -32.729   8.223   1.976  1.00 20.00     0.033 A 
HETATM    5  C5  UNL     1     -33.336   5.962   2.606  1.00 20.00    -0.050 A 
HETATM    6  C6  UNL     1     -33.445   7.348   2.779  1.00 20.00    -0.033 A 
HETATM    7  C7  UNL     1     -31.898   7.688   0.989  1.00 20.00     0.034 A 
HETATM    8  C8  UNL     1     -34.172   5.231   3.608  1.00 20.00     0.041 C 
HETATM    9  C9  UNL     1     -35.129   6.344   4.067  1.00 20.00     0.028 C 
HETATM   10  C10 UNL     1     -34.376   7.683   3.909  1.00 20.00     0.126 C 
HETATM   11  N11 UNL     1     -33.082   8.338   6.100  1.00 20.00    -0.197 NA
HETATM   12 CL12 UNL     1     -30.993   8.744  -0.028  1.00 20.00    -0.084 Cl
ENDROOT
TORSDOF 0
ENDMDL
MODEL 3
REMARK VINA RESULT:       2.2      3.004      4.604
REMARK  0 active torsions:
REMARK  status: ('A' for Active; 'I' for Inactive)
ROOT
HETATM    1  C1  UNL     1     -35.959   6.585   3.368  1.00 20.00     0.068 C 
HETATM    2  C2  UNL     1     -31.856   7.838   1.950  1.00 20.00     0.009 A 
HETATM    3  C3  UNL     1     -31.497   6.796   1.093  1.00 20.00     0.024 A 
HETATM    4  C4  UNL     1     -33.197   5.351   2.065  1.00 20.00     0.033 A 
HETATM    5  C5  UNL     1     -32.874   7.618   2.862  1.00 20.00    -0.050 A 
HETATM    6  C6  UNL     1     -33.544   6.389   2.917  1.00 20.00    -0.033 A 
HETATM    7  C7  UNL     1     -32.163   5.561   1.151  1.00 20.00     0.034 A 
HETATM    8  C8  UNL     1     -33.448   8.585   3.849  1.00 20.00     0.041 C 
HETATM    9  C9  UNL     1     -34.202   7.633   4.794  1.00 20.00     0.028 C 
HETATM   10  C10 UNL     1     -34.627   6.407   3.958  1.00 20.00     0.126 C 
HETATM   11  N11 UNL     1     -37.012   6.726   2.903  1.00 20.00    -0.197 NA
HETATM   12 CL12 UNL     1     -31.703   4.295   0.077  1.00 20.00    -0.084 Cl
ENDROOT
TORSDOF 0
ENDMDL
MODEL 4
REMARK VINA RESULT:       2.5      1.442      1.994
REMARK  0 active torsions:
REMARK  status: ('A' for Active; 'I' for Inactive)
ROOT
HETATM    1  C1  UNL     1     -32.740   9.877   0.980  1.00 20.00     0.068 C 
HETATM    2  C2  UNL     1     -32.832   5.418   1.703  1.00 20.00     0.009 A 
HETATM    3  C3  UNL     1     -33.846   5.283   2.653  1.00 20.00     0.024 A 
HETATM    4  C4  UNL     1     -33.705   7.649   3.206  1.00 20.00     0.033 A 
HETATM    5  C5  UNL     1     -32.260   6.666   1.525  1.00 20.00    -0.050 A 
HETATM    6  C6  UNL     1     -32.695   7.774   2.264  1.00 20.00    -0.033 A 
HETATM    7  C7  UNL     1     -34.278   6.391   3.400  1.00 20.00     0.034 A 
HETATM    8  C8  UNL     1     -31.192   7.057   0.553  1.00 20.00     0.041 C 
HETATM    9  C9  UNL     1     -30.735   8.404   1.138  1.00 20.00     0.028 C 
HETATM   10  C10 UNL     1     -31.949   9.017   1.868  1.00 20.00     0.126 C 
HETATM   11  N11 UNL     1     -33.365  10.558   0.278  1.00 20.00    -0.197 NA
HETATM   12 CL12 UNL     1     -35.535   6.196   4.562  1.00 20.00    -0.084 Cl
ENDROOT
TORSDOF 0
ENDMDL
MODEL 5
REMARK VINA RESULT:       2.5      2.120      2.902
REMARK  0 active torsions:
REMARK  status: ('A' for Active; 'I' for Inactive)
ROOT
HETATM    1  C1  UNL     1     -31.615   5.190   1.010  1.00 20.00     0.068 C 
HETATM    2  C2  UNL     1     -33.178   8.097   4.095  1.00 20.00     0.009 A 
HETATM    3  C3  UNL     1     -34.185   7.364   4.724  1.00 20.00     0.024 A 
HETATM    4  C4  UNL     1     -34.269   5.798   2.863  1.00 20.00     0.033 A 
HETATM    5  C5  UNL     1     -32.737   7.677   2.852  1.00 20.00    -0.050 A 
HETATM    6  C6  UNL     1     -33.272   6.535   2.242  1.00 20.00    -0.033 A 
HETATM    7  C7  UNL     1     -34.728   6.223   4.111  1.00 20.00     0.034 A 
HETATM    8  C8  UNL     1     -31.656   8.277   2.010  1.00 20.00     0.041 C 
HETATM    9  C9  UNL     1     -31.951   7.633   0.644  1.00 20.00     0.028 C 
HETATM   10  C10 UNL     1     -32.610   6.265   0.921  1.00 20.00     0.126 C 
HETATM   11  N11 UNL     1     -30.827   4.340   1.080  1.00 20.00    -0.197 NA
HETATM   12 CL12 UNL     1     -35.966   5.334   4.914  1.00 20.00    -0.084 Cl
ENDROOT
TORSDOF 0
ENDMDL
