MODEL 1
REMARK VINA RESULT:      -3.1      0.000      0.000
REMARK  2 active torsions:
REMARK  status: ('A' for Active; 'I' for Inactive)
REMARK    1  A    between atoms: C5_5  and  N8_8 
REMARK    2  A    between atoms: C7_7  and  N8_8 
ROOT
HETATM    1  C1  UNL     1     -32.500   9.852   0.114  1.00 20.00     0.013 C 
HETATM    2  C2  UNL     1     -32.251   8.987   0.908  1.00 20.00    -0.087 C 
HETATM    3  C7  UNL     1     -31.943   7.934   1.878  1.00 20.00     0.364 C 
ENDROOT
BRANCH   3   4
HETATM    4  N8  UNL     1     -33.047   6.980   1.974  1.00 20.00     0.099 N 
HETATM    5  C6  UNL     1     -32.693   5.720   1.319  1.00 20.00     0.311 C 
BRANCH   4   6
HETATM    6  C5  UNL     1     -33.401   6.746   3.374  1.00 20.00     0.223 A 
HETATM    7  C3  UNL     1     -34.239   7.745   4.123  1.00 20.00     0.038 A 
HETATM    8  C4  UNL     1     -34.814   6.408   3.759  1.00 20.00     0.038 A 
ENDBRANCH   4   6
ENDBRANCH   3   4
TORSDOF 2
ENDMDL
MODEL 2
REMARK VINA RESULT:      -1.9      1.789      4.517
REMARK  2 active torsions:
REMARK  status: ('A' for Active; 'I' for Inactive)
REMARK    1  A    between atoms: C5_5  and  N8_8 
REMARK    2  A    between atoms: C7_7  and  N8_8 
ROOT
HETATM    1  C1  UNL     1     -33.486   3.335   4.466  1.00 20.00     0.013 C 
HETATM    2  C2  UNL     1     -34.198   4.290   4.314  1.00 20.00    -0.087 C 
HETATM    3  C7  UNL     1     -35.070   5.452   4.132  1.00 20.00     0.364 C 
ENDROOT
BRANCH   3   4
HETATM    4  N8  UNL     1     -34.393   6.489   3.354  1.00 20.00     0.099 N 
HETATM    5  C6  UNL     1     -34.073   7.638   4.202  1.00 20.00     0.311 C 
BRANCH   4   6
HETATM    6  C5  UNL     1     -33.179   5.956   2.736  1.00 20.00     0.223 A 
HETATM    7  C3  UNL     1     -33.107   5.759   1.248  1.00 20.00     0.038 A 
HETATM    8  C4  UNL     1     -32.296   6.840   1.900  1.00 20.00     0.038 A 
ENDBRANCH   4   6
ENDBRANCH   3   4
TORSDOF 2
ENDMDL
MODEL 3
REMARK VINA RESULT:      -1.9      1.196      3.716
REMARK  2 active torsions:
REMARK  status: ('A' for Active; 'I' for Inactive)
REMARK    1  A    between atoms: C5_5  and  N8_8 
REMARK    2  A    between atoms: C7_7  and  N8_8 
ROOT
HETATM    1  C1  UNL     1     -35.439   6.060   4.185  1.00 20.00     0.013 C 
HETATM    2  C2  UNL     1     -34.527   6.771   3.865  1.00 20.00    -0.087 C 
HETATM    3  C7  UNL     1     -33.414   7.642   3.480  1.00 20.00     0.364 C 
ENDROOT
BRANCH   3   4
HETATM    4  N8  UNL     1     -32.977   7.349   2.115  1.00 20.00     0.099 N 
HETATM    5  C6  UNL     1     -31.731   8.056   1.814  1.00 20.00     0.311 C 
BRANCH   4   6
HETATM    6  C5  UNL     1     -32.803   5.908   1.932  1.00 20.00     0.223 A 
HETATM    7  C3  UNL     1     -33.255   5.244   0.661  1.00 20.00     0.038 A 
HETATM    8  C4  UNL     1     -31.790   5.380   0.955  1.00 20.00     0.038 A 
ENDBRANCH   4   6
ENDBRANCH   3   4
TORSDOF 2
ENDMDL
MODEL 4
REMARK VINA RESULT:      -1.6      1.007      3.669
REMARK  2 active torsions:
REMARK  status: ('A' for Active; 'I' for Inactive)
REMARK    1  A    between atoms: C5_5  and  N8_8 
REMARK    2  A    between atoms: C7_7  and  N8_8 
ROOT
HETATM    1  C1  UNL     1     -34.634   6.806   3.691  1.00 20.00     0.013 C 
HETATM    2  C2  UNL     1     -33.634   7.438   3.486  1.00 20.00    -0.087 C 
HETATM    3  C7  UNL     1     -32.414   8.210   3.240  1.00 20.00     0.364 C 
ENDROOT
BRANCH   3   4
HETATM    4  N8  UNL     1     -32.005   8.099   1.841  1.00 20.00     0.099 N 
HETATM    5  C6  UNL     1     -32.071   6.705   1.398  1.00 20.00     0.311 C 
BRANCH   4   6
HETATM    6  C5  UNL     1     -32.845   8.944   0.993  1.00 20.00     0.223 A 
HETATM    7  C3  UNL     1     -32.428  10.353   0.675  1.00 20.00     0.038 A 
HETATM    8  C4  UNL     1     -32.406   9.305  -0.399  1.00 20.00     0.038 A 
ENDBRANCH   4   6
ENDBRANCH   3   4
TORSDOF 2
ENDMDL
MODEL 5
REMARK VINA RESULT:      -1.5      1.054      1.680
REMARK  2 active torsions:
REMARK  status: ('A' for Active; 'I' for Inactive)
REMARK    1  A    between atoms: C5_5  and  N8_8 
REMARK    2  A    between atoms: C7_7  and  N8_8 
ROOT
HETATM    1  C1  UNL     1     -32.615  10.239   0.363  1.00 20.00     0.013 C 
HETATM    2  C2  UNL     1     -32.280   9.152   0.747  1.00 20.00    -0.087 C 
HETATM    3  C7  UNL     1     -31.869   7.825   1.210  1.00 20.00     0.364 C 
ENDROOT
BRANCH   3   4
HETATM    4  N8  UNL     1     -32.187   7.650   2.626  1.00 20.00     0.099 N 
HETATM    5  C6  UNL     1     -31.684   8.782   3.406  1.00 20.00     0.311 C 
BRANCH   4   6
HETATM    6  C5  UNL     1     -33.630   7.503   2.812  1.00 20.00     0.223 A 
HETATM    7  C3  UNL     1     -34.191   6.262   3.449  1.00 20.00     0.038 A 
HETATM    8  C4  UNL     1     -34.233   7.567   4.188  1.00 20.00     0.038 A 
ENDBRANCH   4   6
ENDBRANCH   3   4
TORSDOF 2
ENDMDL
MODEL 6
REMARK VINA RESULT:      -1.4      1.549      2.438
REMARK  2 active torsions:
REMARK  status: ('A' for Active; 'I' for Inactive)
REMARK    1  A    between atoms: C5_5  and  N8_8 
REMARK    2  A    between atoms: C7_7  and  N8_8 
ROOT
HETATM    1  C1  UNL     1     -31.589   8.497   1.509  1.00 20.00     0.013 C 
HETATM    2  C2  UNL     1     -32.223   7.488   1.659  1.00 20.00    -0.087 C 
HETATM    3  C7  UNL     1     -32.994   6.256   1.836  1.00 20.00     0.364 C 
ENDROOT
BRANCH   3   4
HETATM    4  N8  UNL     1     -33.399   6.095   3.232  1.00 20.00     0.099 N 
HETATM    5  C6  UNL     1     -34.134   7.274   3.690  1.00 20.00     0.311 C 
BRANCH   4   6
HETATM    6  C5  UNL     1     -34.212   4.890   3.394  1.00 20.00     0.223 A 
HETATM    7  C3  UNL     1     -33.800   3.820   4.366  1.00 20.00     0.038 A 
HETATM    8  C4  UNL     1     -35.005   4.668   4.652  1.00 20.00     0.038 A 
ENDBRANCH   4   6
ENDBRANCH   3   4
TORSDOF 2
ENDMDL
MODEL 7
REMARK VINA RESULT:      -1.2      2.222      4.341
REMARK  2 active torsions:
REMARK  status: ('A' for Active; 'I' for Inactive)
REMARK    1  A    between atoms: C5_5  and  N8_8 
REMARK    2  A    between atoms: C7_7  and  N8_8 
ROOT
HETATM    1  C1  UNL     1     -32.925   2.769   5.125  1.00 20.00     0.013 C 
HETATM    2  C2  UNL     1     -33.556   3.543   4.459  1.00 20.00    -0.087 C 
HETATM    3  C7  UNL     1     -34.329   4.485   3.647  1.00 20.00     0.364 C 
ENDROOT
BRANCH   3   4
HETATM    4  N8  UNL     1     -33.544   5.684   3.357  1.00 20.00     0.099 N 
HETATM    5  C6  UNL     1     -33.138   5.701   1.951  1.00 20.00     0.311 C 
BRANCH   4   6
HETATM    6  C5  UNL     1     -34.309   6.887   3.683  1.00 20.00     0.223 A 
HETATM    7  C3  UNL     1     -33.839   7.815   4.769  1.00 20.00     0.038 A 
HETATM    8  C4  UNL     1     -33.775   8.249   3.333  1.00 20.00     0.038 A 
ENDBRANCH   4   6
ENDBRANCH   3   4
TORSDOF 2
ENDMDL
MODEL 8
REMARK VINA RESULT:      -1.1      1.538      4.086
REMARK  2 active torsions:
REMARK  status: ('A' for Active; 'I' for Inactive)
REMARK    1  A    between atoms: C5_5  and  N8_8 
REMARK    2  A    between atoms: C7_7  and  N8_8 
ROOT
HETATM    1  C1  UNL     1     -33.763   3.482   4.403  1.00 20.00     0.013 C 
HETATM    2  C2  UNL     1     -33.908   4.556   3.887  1.00 20.00    -0.087 C 
HETATM    3  C7  UNL     1     -34.090   5.867   3.261  1.00 20.00     0.364 C 
ENDROOT
BRANCH   3   4
HETATM    4  N8  UNL     1     -32.927   6.216   2.445  1.00 20.00     0.099 N 
HETATM    5  C6  UNL     1     -32.977   5.518   1.160  1.00 20.00     0.311 C 
BRANCH   4   6
HETATM    6  C5  UNL     1     -32.863   7.663   2.238  1.00 20.00     0.223 A 
HETATM    7  C3  UNL     1     -31.637   8.434   2.642  1.00 20.00     0.038 A 
HETATM    8  C4  UNL     1     -31.958   8.244   1.188  1.00 20.00     0.038 A 
ENDBRANCH   4   6
ENDBRANCH   3   4
TORSDOF 2
ENDMDL
MODEL 9
REMARK VINA RESULT:      -0.8      0.795      3.860
REMARK  2 active torsions:
REMARK  status: ('A' for Active; 'I' for Inactive)
REMARK    1  A    between atoms: C5_5  and  N8_8 
REMARK    2  A    between atoms: C7_7  and  N8_8 
ROOT
HETATM    1  C1  UNL     1     -35.388   5.515   4.324  1.00 20.00     0.013 C 
HETATM    2  C2  UNL     1     -34.745   6.452   3.940  1.00 20.00    -0.087 C 
HETATM    3  C7  UNL     1     -33.963   7.599   3.473  1.00 20.00     0.364 C 
ENDROOT
BRANCH   3   4
HETATM    4  N8  UNL     1     -32.769   7.154   2.756  1.00 20.00     0.099 N 
HETATM    5  C6  UNL     1     -33.130   6.206   1.701  1.00 20.00     0.311 C 
BRANCH   4   6
HETATM    6  C5  UNL     1     -32.054   8.299   2.192  1.00 20.00     0.223 A 
HETATM    7  C3  UNL     1     -31.288   8.158   0.906  1.00 20.00     0.038 A 
HETATM    8  C4  UNL     1     -32.550   8.968   0.941  1.00 20.00     0.038 A 
ENDBRANCH   4   6
ENDBRANCH   3   4
TORSDOF 2
ENDMDL
