MODEL 1
REMARK VINA RESULT:      -2.6      0.000      0.000
REMARK  1 active torsions:
REMARK  status: ('A' for Active; 'I' for Inactive)
REMARK    1  A    between atoms: C6_6  and  N8_8 
ROOT
HETATM    1  C1  UNL     1     -32.687  10.066  -0.091  1.00 20.00     0.014 C 
HETATM    2  C2  UNL     1     -32.188   9.303   0.690  1.00 20.00    -0.096 C 
HETATM    3  C6  UNL     1     -31.574   8.374   1.644  1.00 20.00     0.243 C 
ENDROOT
BRANCH   3   4
HETATM    4  N8  UNL     1     -32.520   7.401   2.133  1.00 20.00    -0.269 N 
HETATM    5  C4  UNL     1     -33.447   7.595   3.114  1.00 20.00     0.138 A 
HETATM    6  C5  UNL     1     -34.115   6.402   3.242  1.00 20.00     0.070 A 
HETATM    7  C3  UNL     1     -33.511   5.557   2.290  1.00 20.00     0.164 A 
HETATM    8 CL9  UNL     1     -35.377   6.003   4.290  1.00 20.00    -0.081 Cl
HETATM    9  N7  UNL     1     -32.534   6.163   1.609  1.00 20.00    -0.183 NA
ENDBRANCH   3   4
TORSDOF 1
ENDMDL
MODEL 2
REMARK VINA RESULT:      -2.4      0.897      1.529
REMARK  1 active torsions:
REMARK  status: ('A' for Active; 'I' for Inactive)
REMARK    1  A    between atoms: C6_6  and  N8_8 
ROOT
HETATM    1  C1  UNL     1     -32.463   9.961   0.233  1.00 20.00     0.014 C 
HETATM    2  C2  UNL     1     -32.182   8.960   0.835  1.00 20.00    -0.096 C 
HETATM    3  C6  UNL     1     -31.836   7.739   1.567  1.00 20.00     0.243 C 
ENDROOT
BRANCH   3   4
HETATM    4  N8  UNL     1     -32.829   7.404   2.559  1.00 20.00    -0.269 N 
HETATM    5  C4  UNL     1     -33.532   6.239   2.639  1.00 20.00     0.138 A 
HETATM    6  C5  UNL     1     -34.355   6.371   3.732  1.00 20.00     0.070 A 
HETATM    7  C3  UNL     1     -34.065   7.653   4.237  1.00 20.00     0.164 A 
HETATM    8 CL9  UNL     1     -35.470   5.267   4.355  1.00 20.00    -0.081 Cl
HETATM    9  N7  UNL     1     -33.133   8.290   3.524  1.00 20.00    -0.183 NA
ENDBRANCH   3   4
TORSDOF 1
ENDMDL
MODEL 3
REMARK VINA RESULT:      -2.2      2.714      4.812
REMARK  1 active torsions:
REMARK  status: ('A' for Active; 'I' for Inactive)
REMARK    1  A    between atoms: C6_6  and  N8_8 
ROOT
HETATM    1  C1  UNL     1     -33.132   2.894   4.717  1.00 20.00     0.014 C 
HETATM    2  C2  UNL     1     -33.897   3.780   4.445  1.00 20.00    -0.096 C 
HETATM    3  C6  UNL     1     -34.833   4.858   4.116  1.00 20.00     0.243 C 
ENDROOT
BRANCH   3   4
HETATM    4  N8  UNL     1     -34.152   6.036   3.634  1.00 20.00    -0.269 N 
HETATM    5  C4  UNL     1     -33.301   6.101   2.571  1.00 20.00     0.138 A 
HETATM    6  C5  UNL     1     -32.899   7.412   2.491  1.00 20.00     0.070 A 
HETATM    7  C3  UNL     1     -33.567   8.050   3.554  1.00 20.00     0.164 A 
HETATM    8 CL9  UNL     1     -31.844   8.129   1.384  1.00 20.00    -0.081 Cl
HETATM    9  N7  UNL     1     -34.335   7.214   4.257  1.00 20.00    -0.183 NA
ENDBRANCH   3   4
TORSDOF 1
ENDMDL
MODEL 4
REMARK VINA RESULT:      -1.8      2.583      4.545
REMARK  1 active torsions:
REMARK  status: ('A' for Active; 'I' for Inactive)
REMARK    1  A    between atoms: C6_6  and  N8_8 
ROOT
HETATM    1  C1  UNL     1     -33.307   2.891   4.693  1.00 20.00     0.014 C 
HETATM    2  C2  UNL     1     -33.823   3.923   4.358  1.00 20.00    -0.096 C 
HETATM    3  C6  UNL     1     -34.457   5.181   3.953  1.00 20.00     0.243 C 
ENDROOT
BRANCH   3   4
HETATM    4  N8  UNL     1     -33.656   5.905   2.996  1.00 20.00    -0.269 N 
HETATM    5  C4  UNL     1     -33.434   7.250   2.979  1.00 20.00     0.138 A 
HETATM    6  C5  UNL     1     -32.621   7.484   1.897  1.00 20.00     0.070 A 
HETATM    7  C3  UNL     1     -32.413   6.210   1.332  1.00 20.00     0.164 A 
HETATM    8 CL9  UNL     1     -31.994   8.950   1.342  1.00 20.00    -0.081 Cl
HETATM    9  N7  UNL     1     -33.044   5.241   2.000  1.00 20.00    -0.183 NA
ENDBRANCH   3   4
TORSDOF 1
ENDMDL
MODEL 5
REMARK VINA RESULT:      -1.1      2.314      2.902
REMARK  1 active torsions:
REMARK  status: ('A' for Active; 'I' for Inactive)
REMARK    1  A    between atoms: C6_6  and  N8_8 
ROOT
HETATM    1  C1  UNL     1     -31.631   7.669   1.501  1.00 20.00     0.014 C 
HETATM    2  C2  UNL     1     -32.631   7.663   2.167  1.00 20.00    -0.096 C 
HETATM    3  C6  UNL     1     -33.851   7.660   2.979  1.00 20.00     0.243 C 
ENDROOT
BRANCH   3   4
HETATM    4  N8  UNL     1     -34.123   6.358   3.539  1.00 20.00    -0.269 N 
HETATM    5  C4  UNL     1     -33.299   5.272   3.501  1.00 20.00     0.138 A 
HETATM    6  C5  UNL     1     -33.971   4.268   4.155  1.00 20.00     0.070 A 
HETATM    7  C3  UNL     1     -35.189   4.857   4.547  1.00 20.00     0.164 A 
HETATM    8 CL9  UNL     1     -33.478   2.678   4.441  1.00 20.00    -0.081 Cl
HETATM    9  N7  UNL     1     -35.288   6.135   4.173  1.00 20.00    -0.183 NA
ENDBRANCH   3   4
TORSDOF 1
ENDMDL
MODEL 6
REMARK VINA RESULT:      -0.9      2.502      4.099
REMARK  1 active torsions:
REMARK  status: ('A' for Active; 'I' for Inactive)
REMARK    1  A    between atoms: C6_6  and  N8_8 
ROOT
HETATM    1  C1  UNL     1     -35.636   5.393   4.575  1.00 20.00     0.014 C 
HETATM    2  C2  UNL     1     -34.967   6.316   4.197  1.00 20.00    -0.096 C 
HETATM    3  C6  UNL     1     -34.152   7.445   3.740  1.00 20.00     0.243 C 
ENDROOT
BRANCH   3   4
HETATM    4  N8  UNL     1     -33.202   7.050   2.729  1.00 20.00    -0.269 N 
HETATM    5  C4  UNL     1     -33.051   5.801   2.203  1.00 20.00     0.138 A 
HETATM    6  C5  UNL     1     -32.035   5.899   1.284  1.00 20.00     0.070 A 
HETATM    7  C3  UNL     1     -31.644   7.251   1.336  1.00 20.00     0.164 A 
HETATM    8 CL9  UNL     1     -31.378   4.694   0.300  1.00 20.00    -0.081 Cl
HETATM    9  N7  UNL     1     -32.354   7.960   2.217  1.00 20.00    -0.183 NA
ENDBRANCH   3   4
TORSDOF 1
ENDMDL
MODEL 7
REMARK VINA RESULT:      -0.7      2.641      4.181
REMARK  1 active torsions:
REMARK  status: ('A' for Active; 'I' for Inactive)
REMARK    1  A    between atoms: C6_6  and  N8_8 
ROOT
HETATM    1  C1  UNL     1     -35.452   5.215   4.422  1.00 20.00     0.014 C 
HETATM    2  C2  UNL     1     -34.850   6.240   4.250  1.00 20.00    -0.096 C 
HETATM    3  C6  UNL     1     -34.117   7.493   4.046  1.00 20.00     0.243 C 
ENDROOT
BRANCH   3   4
HETATM    4  N8  UNL     1     -33.253   7.430   2.892  1.00 20.00    -0.269 N 
HETATM    5  C4  UNL     1     -32.594   8.476   2.317  1.00 20.00     0.138 A 
HETATM    6  C5  UNL     1     -31.901   7.945   1.255  1.00 20.00     0.070 A 
HETATM    7  C3  UNL     1     -32.215   6.573   1.282  1.00 20.00     0.164 A 
HETATM    8 CL9  UNL     1     -30.895   8.732   0.150  1.00 20.00    -0.081 Cl
HETATM    9  N7  UNL     1     -33.042   6.251   2.280  1.00 20.00    -0.183 NA
ENDBRANCH   3   4
TORSDOF 1
ENDMDL
MODEL 8
REMARK VINA RESULT:      -0.6      2.622      4.104
REMARK  1 active torsions:
REMARK  status: ('A' for Active; 'I' for Inactive)
REMARK    1  A    between atoms: C6_6  and  N8_8 
ROOT
HETATM    1  C1  UNL     1     -35.369   6.205   3.869  1.00 20.00     0.014 C 
HETATM    2  C2  UNL     1     -34.368   6.867   3.906  1.00 20.00    -0.096 C 
HETATM    3  C6  UNL     1     -33.146   7.674   3.954  1.00 20.00     0.243 C 
ENDROOT
BRANCH   3   4
HETATM    4  N8  UNL     1     -32.694   8.050   2.637  1.00 20.00    -0.269 N 
HETATM    5  C4  UNL     1     -32.946   9.230   2.000  1.00 20.00     0.138 A 
HETATM    6  C5  UNL     1     -32.323   9.139   0.779  1.00 20.00     0.070 A 
HETATM    7  C3  UNL     1     -31.725   7.864   0.784  1.00 20.00     0.164 A 
HETATM    8 CL9  UNL     1     -32.267  10.278  -0.466  1.00 20.00    -0.081 Cl
HETATM    9  N7  UNL     1     -31.949   7.193   1.917  1.00 20.00    -0.183 NA
ENDBRANCH   3   4
TORSDOF 1
ENDMDL
MODEL 9
REMARK VINA RESULT:       0.1      1.760      2.762
REMARK  1 active torsions:
REMARK  status: ('A' for Active; 'I' for Inactive)
REMARK    1  A    between atoms: C6_6  and  N8_8 
ROOT
HETATM    1  C1  UNL     1     -31.546   4.562   0.431  1.00 20.00     0.014 C 
HETATM    2  C2  UNL     1     -31.789   5.630   0.923  1.00 20.00    -0.096 C 
HETATM    3  C6  UNL     1     -32.083   6.936   1.520  1.00 20.00     0.243 C 
ENDROOT
BRANCH   3   4
HETATM    4  N8  UNL     1     -33.070   6.841   2.567  1.00 20.00    -0.269 N 
HETATM    5  C4  UNL     1     -33.796   5.734   2.897  1.00 20.00     0.138 A 
HETATM    6  C5  UNL     1     -34.602   6.112   3.944  1.00 20.00     0.070 A 
HETATM    7  C3  UNL     1     -34.281   7.465   4.164  1.00 20.00     0.164 A 
HETATM    8 CL9  UNL     1     -35.731   5.189   4.795  1.00 20.00    -0.081 Cl
HETATM    9  N7  UNL     1     -33.345   7.917   3.325  1.00 20.00    -0.183 NA
ENDBRANCH   3   4
TORSDOF 1
ENDMDL
