MODEL 1
REMARK VINA RESULT:      -1.0      0.000      0.000
REMARK  3 active torsions:
REMARK  status: ('A' for Active; 'I' for Inactive)
REMARK    1  A    between atoms: C6_6  and  N11_11 
REMARK    2  A    between atoms: C8_8  and  C9_9 
REMARK    3  A    between atoms: C9_9  and  N11_11 
ROOT
HETATM    1  C1  UNL     1     -32.310   9.429   0.238  1.00 20.00     0.060 C 
HETATM    2  C8  UNL     1     -31.565   8.691   1.269  1.00 20.00     0.153 C 
HETATM    3  N10 UNL     1     -32.897  10.012  -0.575  1.00 20.00    -0.197 NA
ENDROOT
BRANCH   2   4
HETATM    4  C9  UNL     1     -32.324   7.460   1.751  1.00 20.00     0.284 C 
BRANCH   4   5
HETATM    5  N11 UNL     1     -33.583   7.837   2.369  1.00 20.00     0.093 N 
HETATM    6  H27 UNL     1     -34.337   7.749   1.694  1.00 20.00     0.316 HD
BRANCH   5   7
HETATM    7  C6  UNL     1     -33.872   6.979   3.496  1.00 20.00     0.154 C 
HETATM    8  C4  UNL     1     -33.336   5.562   3.262  1.00 20.00     0.041 C 
HETATM    9  C2  UNL     1     -34.185   4.663   4.157  1.00 20.00     0.003 C 
HETATM   10  C3  UNL     1     -35.497   5.411   4.390  1.00 20.00     0.003 C 
HETATM   11  C5  UNL     1     -35.378   6.726   3.625  1.00 20.00     0.041 C 
HETATM   12  C7  UNL     1     -33.289   7.604   4.769  1.00 20.00     0.049 C 
ENDBRANCH   5   7
ENDBRANCH   4   5
ENDBRANCH   2   4
TORSDOF 3
ENDMDL
MODEL 2
REMARK VINA RESULT:      -0.5      1.118      1.960
REMARK  3 active torsions:
REMARK  status: ('A' for Active; 'I' for Inactive)
REMARK    1  A    between atoms: C6_6  and  N11_11 
REMARK    2  A    between atoms: C8_8  and  C9_9 
REMARK    3  A    between atoms: C9_9  and  N11_11 
ROOT
HETATM    1  C1  UNL     1     -32.351   9.746   0.194  1.00 20.00     0.060 C 
HETATM    2  C8  UNL     1     -31.571   8.562   0.587  1.00 20.00     0.153 C 
HETATM    3  N10 UNL     1     -32.965  10.679  -0.116  1.00 20.00    -0.197 NA
ENDROOT
BRANCH   2   4
HETATM    4  C9  UNL     1     -31.940   8.072   1.983  1.00 20.00     0.284 C 
BRANCH   4   5
HETATM    5  N11 UNL     1     -31.946   6.621   2.037  1.00 20.00     0.093 N 
HETATM    6  H27 UNL     1     -31.304   6.302   2.758  1.00 20.00     0.316 HD
BRANCH   5   7
HETATM    7  C6  UNL     1     -33.269   6.130   2.349  1.00 20.00     0.154 C 
HETATM    8  C4  UNL     1     -34.059   7.157   3.170  1.00 20.00     0.041 C 
HETATM    9  C2  UNL     1     -35.110   6.343   3.919  1.00 20.00     0.003 C 
HETATM   10  C3  UNL     1     -34.561   4.920   4.012  1.00 20.00     0.003 C 
HETATM   11  C5  UNL     1     -33.204   4.943   3.315  1.00 20.00     0.041 C 
HETATM   12  C7  UNL     1     -33.992   5.766   1.048  1.00 20.00     0.049 C 
ENDBRANCH   5   7
ENDBRANCH   4   5
ENDBRANCH   2   4
TORSDOF 3
ENDMDL
MODEL 3
REMARK VINA RESULT:      -0.2      1.683      4.985
REMARK  3 active torsions:
REMARK  status: ('A' for Active; 'I' for Inactive)
REMARK    1  A    between atoms: C6_6  and  N11_11 
REMARK    2  A    between atoms: C8_8  and  C9_9 
REMARK    3  A    between atoms: C9_9  and  N11_11 
ROOT
HETATM    1  C1  UNL     1     -34.542   4.961   4.132  1.00 20.00     0.060 C 
HETATM    2  C8  UNL     1     -35.138   6.305   4.093  1.00 20.00     0.153 C 
HETATM    3  N10 UNL     1     -34.074   3.900   4.165  1.00 20.00    -0.197 NA
ENDROOT
BRANCH   2   4
HETATM    4  C9  UNL     1     -34.111   7.374   3.735  1.00 20.00     0.284 C 
BRANCH   4   5
HETATM    5  N11 UNL     1     -33.188   6.888   2.724  1.00 20.00     0.093 N 
HETATM    6  H27 UNL     1     -33.709   6.471   1.957  1.00 20.00     0.316 HD
BRANCH   5   7
HETATM    7  C6  UNL     1     -32.390   7.974   2.202  1.00 20.00     0.154 C 
HETATM    8  C4  UNL     1     -33.270   9.029   1.522  1.00 20.00     0.041 C 
HETATM    9  C2  UNL     1     -32.348   9.742   0.537  1.00 20.00     0.003 C 
HETATM   10  C3  UNL     1     -31.218   8.761   0.225  1.00 20.00     0.003 C 
HETATM   11  C5  UNL     1     -31.512   7.503   1.037  1.00 20.00     0.041 C 
HETATM   12  C7  UNL     1     -31.554   8.576   3.336  1.00 20.00     0.049 C 
ENDBRANCH   5   7
ENDBRANCH   4   5
ENDBRANCH   2   4
TORSDOF 3
ENDMDL
MODEL 4
REMARK VINA RESULT:       0.0      1.781      4.824
REMARK  3 active torsions:
REMARK  status: ('A' for Active; 'I' for Inactive)
REMARK    1  A    between atoms: C6_6  and  N11_11 
REMARK    2  A    between atoms: C8_8  and  C9_9 
REMARK    3  A    between atoms: C9_9  and  N11_11 
ROOT
HETATM    1  C1  UNL     1     -34.578   4.956   4.099  1.00 20.00     0.060 C 
HETATM    2  C8  UNL     1     -35.237   6.269   4.024  1.00 20.00     0.153 C 
HETATM    3  N10 UNL     1     -34.060   3.920   4.160  1.00 20.00    -0.197 NA
ENDROOT
BRANCH   2   4
HETATM    4  C9  UNL     1     -34.237   7.397   3.789  1.00 20.00     0.284 C 
BRANCH   4   5
HETATM    5  N11 UNL     1     -32.958   6.871   3.345  1.00 20.00     0.093 N 
HETATM    6  H27 UNL     1     -32.984   5.855   3.353  1.00 20.00     0.316 HD
BRANCH   5   7
HETATM    7  C6  UNL     1     -32.666   7.314   2.001  1.00 20.00     0.154 C 
HETATM    8  C4  UNL     1     -31.195   7.722   1.861  1.00 20.00     0.041 C 
HETATM    9  C2  UNL     1     -31.161   8.692   0.683  1.00 20.00     0.003 C 
HETATM   10  C3  UNL     1     -32.569   9.275   0.570  1.00 20.00     0.003 C 
HETATM   11  C5  UNL     1     -33.386   8.631   1.686  1.00 20.00     0.041 C 
HETATM   12  C7  UNL     1     -33.046   6.208   1.010  1.00 20.00     0.049 C 
ENDBRANCH   5   7
ENDBRANCH   4   5
ENDBRANCH   2   4
TORSDOF 3
ENDMDL
MODEL 5
REMARK VINA RESULT:       0.3      1.863      4.904
REMARK  3 active torsions:
REMARK  status: ('A' for Active; 'I' for Inactive)
REMARK    1  A    between atoms: C6_6  and  N11_11 
REMARK    2  A    between atoms: C8_8  and  C9_9 
REMARK    3  A    between atoms: C9_9  and  N11_11 
ROOT
HETATM    1  C1  UNL     1     -34.390   4.383   4.365  1.00 20.00     0.060 C 
HETATM    2  C8  UNL     1     -35.155   5.638   4.414  1.00 20.00     0.153 C 
HETATM    3  N10 UNL     1     -33.787   3.393   4.328  1.00 20.00    -0.197 NA
ENDROOT
BRANCH   2   4
HETATM    4  C9  UNL     1     -34.550   6.711   3.515  1.00 20.00     0.284 C 
BRANCH   4   5
HETATM    5  N11 UNL     1     -34.059   6.133   2.276  1.00 20.00     0.093 N 
HETATM    6  H27 UNL     1     -34.736   6.286   1.535  1.00 20.00     0.316 HD
BRANCH   5   7
HETATM    7  C6  UNL     1     -32.808   6.746   1.892  1.00 20.00     0.154 C 
HETATM    8  C4  UNL     1     -32.287   7.675   2.995  1.00 20.00     0.041 C 
HETATM    9  C2  UNL     1     -31.376   8.670   2.280  1.00 20.00     0.003 C 
HETATM   10  C3  UNL     1     -31.839   8.701   0.824  1.00 20.00     0.003 C 
HETATM   11  C5  UNL     1     -33.008   7.725   0.729  1.00 20.00     0.041 C 
HETATM   12  C7  UNL     1     -31.794   5.651   1.546  1.00 20.00     0.049 C 
ENDBRANCH   5   7
ENDBRANCH   4   5
ENDBRANCH   2   4
TORSDOF 3
ENDMDL
MODEL 6
REMARK VINA RESULT:       0.5      1.094      1.848
REMARK  3 active torsions:
REMARK  status: ('A' for Active; 'I' for Inactive)
REMARK    1  A    between atoms: C6_6  and  N11_11 
REMARK    2  A    between atoms: C8_8  and  C9_9 
REMARK    3  A    between atoms: C9_9  and  N11_11 
ROOT
HETATM    1  C1  UNL     1     -32.340   9.810   0.336  1.00 20.00     0.060 C 
HETATM    2  C8  UNL     1     -31.609   8.534   0.331  1.00 20.00     0.153 C 
HETATM    3  N10 UNL     1     -32.916  10.817   0.338  1.00 20.00    -0.197 NA
ENDROOT
BRANCH   2   4
HETATM    4  C9  UNL     1     -31.762   7.783   1.649  1.00 20.00     0.284 C 
BRANCH   4   5
HETATM    5  N11 UNL     1     -32.642   6.638   1.494  1.00 20.00     0.093 N 
HETATM    6  H27 UNL     1     -32.097   5.818   1.243  1.00 20.00     0.316 HD
BRANCH   5   7
HETATM    7  C6  UNL     1     -33.342   6.366   2.729  1.00 20.00     0.154 C 
HETATM    8  C4  UNL     1     -34.860   6.457   2.535  1.00 20.00     0.041 C 
HETATM    9  C2  UNL     1     -35.422   6.757   3.922  1.00 20.00     0.003 C 
HETATM   10  C3  UNL     1     -34.286   7.409   4.709  1.00 20.00     0.003 C 
HETATM   11  C5  UNL     1     -33.093   7.472   3.760  1.00 20.00     0.041 C 
HETATM   12  C7  UNL     1     -32.919   4.991   3.256  1.00 20.00     0.049 C 
ENDBRANCH   5   7
ENDBRANCH   4   5
ENDBRANCH   2   4
TORSDOF 3
ENDMDL
MODEL 7
REMARK VINA RESULT:       0.6      1.048      1.095
REMARK  3 active torsions:
REMARK  status: ('A' for Active; 'I' for Inactive)
REMARK    1  A    between atoms: C6_6  and  N11_11 
REMARK    2  A    between atoms: C8_8  and  C9_9 
REMARK    3  A    between atoms: C9_9  and  N11_11 
ROOT
HETATM    1  C1  UNL     1     -32.548  10.326   0.818  1.00 20.00     0.060 C 
HETATM    2  C8  UNL     1     -32.488   8.893   0.490  1.00 20.00     0.153 C 
HETATM    3  N10 UNL     1     -32.595  11.456   1.075  1.00 20.00    -0.197 NA
ENDROOT
BRANCH   2   4
HETATM    4  C9  UNL     1     -32.105   8.046   1.699  1.00 20.00     0.284 C 
BRANCH   4   5
HETATM    5  N11 UNL     1     -32.848   6.798   1.713  1.00 20.00     0.093 N 
HETATM    6  H27 UNL     1     -32.216   6.022   1.536  1.00 20.00     0.316 HD
BRANCH   5   7
HETATM    7  C6  UNL     1     -33.478   6.597   2.998  1.00 20.00     0.154 C 
HETATM    8  C4  UNL     1     -33.463   5.116   3.394  1.00 20.00     0.041 C 
HETATM    9  C2  UNL     1     -34.620   4.956   4.378  1.00 20.00     0.003 C 
HETATM   10  C3  UNL     1     -35.595   6.094   4.077  1.00 20.00     0.003 C 
HETATM   11  C5  UNL     1     -34.981   6.886   2.927  1.00 20.00     0.041 C 
HETATM   12  C7  UNL     1     -32.779   7.471   4.045  1.00 20.00     0.049 C 
ENDBRANCH   5   7
ENDBRANCH   4   5
ENDBRANCH   2   4
TORSDOF 3
ENDMDL
MODEL 8
REMARK VINA RESULT:       0.9      2.142      4.636
REMARK  3 active torsions:
REMARK  status: ('A' for Active; 'I' for Inactive)
REMARK    1  A    between atoms: C6_6  and  N11_11 
REMARK    2  A    between atoms: C8_8  and  C9_9 
REMARK    3  A    between atoms: C9_9  and  N11_11 
ROOT
HETATM    1  C1  UNL     1     -34.510   4.564   4.363  1.00 20.00     0.060 C 
HETATM    2  C8  UNL     1     -35.312   5.797   4.405  1.00 20.00     0.153 C 
HETATM    3  N10 UNL     1     -33.879   3.592   4.331  1.00 20.00    -0.197 NA
ENDROOT
BRANCH   2   4
HETATM    4  C9  UNL     1     -34.735   6.884   3.505  1.00 20.00     0.284 C 
BRANCH   4   5
HETATM    5  N11 UNL     1     -33.283   6.830   3.492  1.00 20.00     0.093 N 
HETATM    6  H27 UNL     1     -32.964   6.070   4.086  1.00 20.00     0.316 HD
BRANCH   5   7
HETATM    7  C6  UNL     1     -32.796   6.602   2.151  1.00 20.00     0.154 C 
HETATM    8  C4  UNL     1     -33.922   6.120   1.229  1.00 20.00     0.041 C 
HETATM    9  C2  UNL     1     -33.220   5.366   0.103  1.00 20.00     0.003 C 
HETATM   10  C3  UNL     1     -31.874   4.913   0.669  1.00 20.00     0.003 C 
HETATM   11  C5  UNL     1     -31.829   5.414   2.109  1.00 20.00     0.041 C 
HETATM   12  C7  UNL     1     -32.144   7.885   1.626  1.00 20.00     0.049 C 
ENDBRANCH   5   7
ENDBRANCH   4   5
ENDBRANCH   2   4
TORSDOF 3
ENDMDL
MODEL 9
REMARK VINA RESULT:       1.0      2.753      5.136
REMARK  3 active torsions:
REMARK  status: ('A' for Active; 'I' for Inactive)
REMARK    1  A    between atoms: C6_6  and  N11_11 
REMARK    2  A    between atoms: C8_8  and  C9_9 
REMARK    3  A    between atoms: C9_9  and  N11_11 
ROOT
HETATM    1  C1  UNL     1     -32.726   3.143   5.715  1.00 20.00     0.060 C 
HETATM    2  C8  UNL     1     -33.379   2.707   4.471  1.00 20.00     0.153 C 
HETATM    3  N10 UNL     1     -32.211   3.486   6.696  1.00 20.00    -0.197 NA
ENDROOT
BRANCH   2   4
HETATM    4  C9  UNL     1     -33.779   3.888   3.592  1.00 20.00     0.284 C 
BRANCH   4   5
HETATM    5  N11 UNL     1     -34.351   4.958   4.391  1.00 20.00     0.093 N 
HETATM    6  H27 UNL     1     -33.834   5.049   5.261  1.00 20.00     0.316 HD
BRANCH   5   7
HETATM    7  C6  UNL     1     -34.282   6.214   3.680  1.00 20.00     0.154 C 
HETATM    8  C4  UNL     1     -33.366   6.105   2.455  1.00 20.00     0.041 C 
HETATM    9  C2  UNL     1     -32.904   7.532   2.175  1.00 20.00     0.003 C 
HETATM   10  C3  UNL     1     -33.031   8.288   3.498  1.00 20.00     0.003 C 
HETATM   11  C5  UNL     1     -33.563   7.281   4.513  1.00 20.00     0.041 C 
HETATM   12  C7  UNL     1     -35.698   6.653   3.292  1.00 20.00     0.049 C 
ENDBRANCH   5   7
ENDBRANCH   4   5
ENDBRANCH   2   4
TORSDOF 3
ENDMDL
