MODEL 1
REMARK VINA RESULT:      -0.7      0.000      0.000
REMARK  0 active torsions:
REMARK  status: ('A' for Active; 'I' for Inactive)
ROOT
HETATM    1  C1  UNL     1     -32.435   7.387   2.087  1.00 20.00     0.225 C 
HETATM    2  C2  UNL     1     -34.642   6.198   3.615  1.00 20.00     0.021 C 
HETATM    3  C3  UNL     1     -33.576   5.295   3.011  1.00 20.00     0.020 C 
HETATM    4  C4  UNL     1     -34.004   7.501   4.051  1.00 20.00     0.122 C 
HETATM    5  C5  UNL     1     -32.892   5.949   1.796  1.00 20.00     0.034 C 
HETATM    6  C6  UNL     1     -33.855   6.015   0.596  1.00 20.00     0.025 C 
HETATM    7  C7  UNL     1     -31.673   5.099   1.400  1.00 20.00     0.025 C 
HETATM    8  N8  UNL     1     -33.143   8.087   3.041  1.00 20.00    -0.360 N 
HETATM    9  O9  UNL     1     -31.541   7.926   1.429  1.00 20.00    -0.273 OA
HETATM   10  H22 UNL     1     -33.057   9.099   3.036  1.00 20.00     0.162 HD
ENDROOT
TORSDOF 0
ENDMDL
MODEL 2
REMARK VINA RESULT:      -0.2      1.631      3.017
REMARK  0 active torsions:
REMARK  status: ('A' for Active; 'I' for Inactive)
ROOT
HETATM    1  C1  UNL     1     -33.453   7.513   3.839  1.00 20.00     0.225 C 
HETATM    2  C2  UNL     1     -32.455   6.259   1.379  1.00 20.00     0.021 C 
HETATM    3  C3  UNL     1     -33.914   6.079   1.775  1.00 20.00     0.020 C 
HETATM    4  C4  UNL     1     -31.993   7.640   1.794  1.00 20.00     0.122 C 
HETATM    5  C5  UNL     1     -34.121   6.242   3.293  1.00 20.00     0.034 C 
HETATM    6  C6  UNL     1     -33.518   5.050   4.058  1.00 20.00     0.025 C 
HETATM    7  C7  UNL     1     -35.630   6.297   3.581  1.00 20.00     0.025 C 
HETATM    8  N8  UNL     1     -32.349   7.983   3.158  1.00 20.00    -0.360 N 
HETATM    9  O9  UNL     1     -33.823   8.033   4.895  1.00 20.00    -0.273 OA
HETATM   10  H22 UNL     1     -31.733   8.620   3.653  1.00 20.00     0.162 HD
ENDROOT
TORSDOF 0
ENDMDL
MODEL 3
REMARK VINA RESULT:       0.3      1.486      2.584
REMARK  0 active torsions:
REMARK  status: ('A' for Active; 'I' for Inactive)
ROOT
HETATM    1  C1  UNL     1     -32.665   6.327   1.934  1.00 20.00     0.225 C 
HETATM    2  C2  UNL     1     -34.209   7.551   4.112  1.00 20.00     0.021 C 
HETATM    3  C3  UNL     1     -33.835   8.387   2.895  1.00 20.00     0.020 C 
HETATM    4  C4  UNL     1     -34.471   6.125   3.674  1.00 20.00     0.122 C 
HETATM    5  C5  UNL     1     -32.579   7.841   2.189  1.00 20.00     0.034 C 
HETATM    6  C6  UNL     1     -31.322   8.085   3.043  1.00 20.00     0.025 C 
HETATM    7  C7  UNL     1     -32.412   8.573   0.847  1.00 20.00     0.025 C 
HETATM    8  N8  UNL     1     -33.442   5.590   2.803  1.00 20.00    -0.360 N 
HETATM    9  O9  UNL     1     -31.991   5.782   1.056  1.00 20.00    -0.273 OA
HETATM   10  H22 UNL     1     -33.279   4.588   2.837  1.00 20.00     0.162 HD
ENDROOT
TORSDOF 0
ENDMDL
MODEL 4
REMARK VINA RESULT:       0.5      2.019      3.563
REMARK  0 active torsions:
REMARK  status: ('A' for Active; 'I' for Inactive)
ROOT
HETATM    1  C1  UNL     1     -33.930   6.283   3.373  1.00 20.00     0.225 C 
HETATM    2  C2  UNL     1     -32.100   7.682   1.553  1.00 20.00     0.021 C 
HETATM    3  C3  UNL     1     -32.161   8.094   3.017  1.00 20.00     0.020 C 
HETATM    4  C4  UNL     1     -32.315   6.187   1.446  1.00 20.00     0.122 C 
HETATM    5  C5  UNL     1     -33.517   7.736   3.657  1.00 20.00     0.034 C 
HETATM    6  C6  UNL     1     -34.636   8.640   3.108  1.00 20.00     0.025 C 
HETATM    7  C7  UNL     1     -33.416   7.949   5.176  1.00 20.00     0.025 C 
HETATM    8  N8  UNL     1     -33.451   5.712   2.213  1.00 20.00    -0.360 N 
HETATM    9  O9  UNL     1     -34.733   5.689   4.097  1.00 20.00    -0.273 OA
HETATM   10  H22 UNL     1     -33.935   4.890   1.865  1.00 20.00     0.162 HD
ENDROOT
TORSDOF 0
ENDMDL
MODEL 5
REMARK VINA RESULT:       0.9      1.749      2.872
REMARK  0 active torsions:
REMARK  status: ('A' for Active; 'I' for Inactive)
ROOT
HETATM    1  C1  UNL     1     -33.383   7.469   3.385  1.00 20.00     0.225 C 
HETATM    2  C2  UNL     1     -32.720   5.662   1.168  1.00 20.00     0.021 C 
HETATM    3  C3  UNL     1     -31.663   6.623   1.694  1.00 20.00     0.020 C 
HETATM    4  C4  UNL     1     -33.589   5.199   2.318  1.00 20.00     0.122 C 
HETATM    5  C5  UNL     1     -32.295   7.855   2.370  1.00 20.00     0.034 C 
HETATM    6  C6  UNL     1     -32.955   8.773   1.326  1.00 20.00     0.025 C 
HETATM    7  C7  UNL     1     -31.188   8.644   3.089  1.00 20.00     0.025 C 
HETATM    8  N8  UNL     1     -34.053   6.284   3.163  1.00 20.00    -0.360 N 
HETATM    9  O9  UNL     1     -33.713   8.231   4.297  1.00 20.00    -0.273 OA
HETATM   10  H22 UNL     1     -34.947   6.160   3.629  1.00 20.00     0.162 HD
ENDROOT
TORSDOF 0
ENDMDL
MODEL 6
REMARK VINA RESULT:       1.0      1.613      2.553
REMARK  0 active torsions:
REMARK  status: ('A' for Active; 'I' for Inactive)
ROOT
HETATM    1  C1  UNL     1     -33.229   6.223   2.157  1.00 20.00     0.225 C 
HETATM    2  C2  UNL     1     -33.188   8.488   4.025  1.00 20.00     0.021 C 
HETATM    3  C3  UNL     1     -33.519   7.095   4.543  1.00 20.00     0.020 C 
HETATM    4  C4  UNL     1     -32.169   8.377   2.910  1.00 20.00     0.122 C 
HETATM    5  C5  UNL     1     -34.088   6.191   3.432  1.00 20.00     0.034 C 
HETATM    6  C6  UNL     1     -35.505   6.641   3.034  1.00 20.00     0.025 C 
HETATM    7  C7  UNL     1     -34.160   4.749   3.960  1.00 20.00     0.025 C 
HETATM    8  N8  UNL     1     -32.505   7.372   1.919  1.00 20.00    -0.360 N 
HETATM    9  O9  UNL     1     -33.265   5.305   1.334  1.00 20.00    -0.273 OA
HETATM   10  H22 UNL     1     -32.182   7.530   0.969  1.00 20.00     0.162 HD
ENDROOT
TORSDOF 0
ENDMDL
MODEL 7
REMARK VINA RESULT:       1.2      1.569      2.983
REMARK  0 active torsions:
REMARK  status: ('A' for Active; 'I' for Inactive)
ROOT
HETATM    1  C1  UNL     1     -32.998   7.226   2.625  1.00 20.00     0.225 C 
HETATM    2  C2  UNL     1     -34.469   5.075   3.978  1.00 20.00     0.021 C 
HETATM    3  C3  UNL     1     -35.104   6.453   3.851  1.00 20.00     0.020 C 
HETATM    4  C4  UNL     1     -33.635   4.795   2.745  1.00 20.00     0.122 C 
HETATM    5  C5  UNL     1     -34.044   7.561   3.701  1.00 20.00     0.034 C 
HETATM    6  C6  UNL     1     -33.282   7.770   5.022  1.00 20.00     0.025 C 
HETATM    7  C7  UNL     1     -34.753   8.874   3.330  1.00 20.00     0.025 C 
HETATM    8  N8  UNL     1     -32.755   5.891   2.383  1.00 20.00    -0.360 N 
HETATM    9  O9  UNL     1     -32.334   8.109   2.076  1.00 20.00    -0.273 OA
HETATM   10  H22 UNL     1     -31.887   5.653   1.912  1.00 20.00     0.162 HD
ENDROOT
TORSDOF 0
ENDMDL
MODEL 8
REMARK VINA RESULT:       1.3      1.732      2.679
REMARK  0 active torsions:
REMARK  status: ('A' for Active; 'I' for Inactive)
ROOT
HETATM    1  C1  UNL     1     -33.516   6.176   2.868  1.00 20.00     0.225 C 
HETATM    2  C2  UNL     1     -31.657   8.239   1.914  1.00 20.00     0.021 C 
HETATM    3  C3  UNL     1     -32.370   7.348   0.906  1.00 20.00     0.020 C 
HETATM    4  C4  UNL     1     -32.579   8.501   3.087  1.00 20.00     0.122 C 
HETATM    5  C5  UNL     1     -32.786   6.001   1.526  1.00 20.00     0.034 C 
HETATM    6  C6  UNL     1     -31.553   5.119   1.795  1.00 20.00     0.025 C 
HETATM    7  C7  UNL     1     -33.709   5.268   0.538  1.00 20.00     0.025 C 
HETATM    8  N8  UNL     1     -33.209   7.301   3.604  1.00 20.00    -0.360 N 
HETATM    9  O9  UNL     1     -34.266   5.304   3.312  1.00 20.00    -0.273 OA
HETATM   10  H22 UNL     1     -33.441   7.288   4.593  1.00 20.00     0.162 HD
ENDROOT
TORSDOF 0
ENDMDL
MODEL 9
REMARK VINA RESULT:       2.1      1.752      2.254
REMARK  0 active torsions:
REMARK  status: ('A' for Active; 'I' for Inactive)
ROOT
HETATM    1  C1  UNL     1     -34.233   6.974   3.335  1.00 20.00     0.225 C 
HETATM    2  C2  UNL     1     -33.843   4.065   3.388  1.00 20.00     0.021 C 
HETATM    3  C3  UNL     1     -32.702   4.966   2.938  1.00 20.00     0.020 C 
HETATM    4  C4  UNL     1     -34.634   4.766   4.473  1.00 20.00     0.122 C 
HETATM    5  C5  UNL     1     -33.216   6.312   2.392  1.00 20.00     0.034 C 
HETATM    6  C6  UNL     1     -33.918   6.119   1.035  1.00 20.00     0.025 C 
HETATM    7  C7  UNL     1     -32.017   7.254   2.194  1.00 20.00     0.025 C 
HETATM    8  N8  UNL     1     -34.973   6.137   4.144  1.00 20.00    -0.360 N 
HETATM    9  O9  UNL     1     -34.449   8.188   3.300  1.00 20.00    -0.273 OA
HETATM   10  H22 UNL     1     -35.830   6.512   4.541  1.00 20.00     0.162 HD
ENDROOT
TORSDOF 0
ENDMDL
