MODEL 1
REMARK VINA RESULT:      -1.1      0.000      0.000
REMARK  3 active torsions:
REMARK  status: ('A' for Active; 'I' for Inactive)
REMARK    1  A    between atoms: C5_5  and  C8_8 
REMARK    2  A    between atoms: C8_8  and  C9_9 
REMARK    3  A    between atoms: C9_9  and  C10_10 
ROOT
HETATM    1  C1  UNL     1     -34.017   4.661   3.804  1.00 20.00     0.131 C 
HETATM    2  C2  UNL     1     -35.312   4.919   4.535  1.00 20.00     0.079 C 
HETATM    3  C3  UNL     1     -35.396   6.440   4.501  1.00 20.00     0.008 C 
HETATM    4  C4  UNL     1     -34.707   6.830   3.200  1.00 20.00     0.013 C 
HETATM    5  C5  UNL     1     -33.484   5.913   3.137  1.00 20.00     0.055 C 
HETATM    6  O11 UNL     1     -33.471   3.566   3.760  1.00 20.00    -0.298 OA
ENDROOT
BRANCH   5   7
HETATM    7  C8  UNL     1     -32.999   5.669   1.723  1.00 20.00     0.012 C 
BRANCH   7   8
HETATM    8  C9  UNL     1     -31.907   6.665   1.327  1.00 20.00     0.005 C 
BRANCH   8   9
HETATM    9  C10 UNL     1     -32.224   8.117   1.733  1.00 20.00    -0.023 C 
HETATM   10  C6  UNL     1     -32.088   9.036   0.517  1.00 20.00     0.009 C 
HETATM   11  C7  UNL     1     -31.320   8.619   2.861  1.00 20.00     0.009 C 
ENDBRANCH   8   9
ENDBRANCH   7   8
ENDBRANCH   5   7
TORSDOF 3
ENDMDL
MODEL 2
REMARK VINA RESULT:      -0.9      1.788      2.648
REMARK  3 active torsions:
REMARK  status: ('A' for Active; 'I' for Inactive)
REMARK    1  A    between atoms: C5_5  and  C8_8 
REMARK    2  A    between atoms: C8_8  and  C9_9 
REMARK    3  A    between atoms: C9_9  and  C10_10 
ROOT
HETATM    1  C1  UNL     1     -33.829   6.996   3.521  1.00 20.00     0.131 C 
HETATM    2  C2  UNL     1     -34.156   5.548   3.789  1.00 20.00     0.079 C 
HETATM    3  C3  UNL     1     -33.820   4.896   2.453  1.00 20.00     0.008 C 
HETATM    4  C4  UNL     1     -32.682   5.739   1.895  1.00 20.00     0.013 C 
HETATM    5  C5  UNL     1     -33.094   7.179   2.209  1.00 20.00     0.055 C 
HETATM    6  O11 UNL     1     -34.125   7.909   4.281  1.00 20.00    -0.298 OA
ENDROOT
BRANCH   5   7
HETATM    7  C8  UNL     1     -31.914   8.123   2.317  1.00 20.00     0.012 C 
BRANCH   7   8
HETATM    8  C9  UNL     1     -31.604   8.785   0.973  1.00 20.00     0.005 C 
BRANCH   8   9
HETATM    9  C10 UNL     1     -32.705   9.750   0.495  1.00 20.00    -0.023 C 
HETATM   10  C6  UNL     1     -32.657   9.876  -1.030  1.00 20.00     0.009 C 
HETATM   11  C7  UNL     1     -32.584  11.136   1.130  1.00 20.00     0.009 C 
ENDBRANCH   8   9
ENDBRANCH   7   8
ENDBRANCH   5   7
TORSDOF 3
ENDMDL
MODEL 3
REMARK VINA RESULT:      -0.9      1.328      1.894
REMARK  3 active torsions:
REMARK  status: ('A' for Active; 'I' for Inactive)
REMARK    1  A    between atoms: C5_5  and  C8_8 
REMARK    2  A    between atoms: C8_8  and  C9_9 
REMARK    3  A    between atoms: C9_9  and  C10_10 
ROOT
HETATM    1  C1  UNL     1     -33.661   5.830   3.011  1.00 20.00     0.131 C 
HETATM    2  C2  UNL     1     -34.878   6.124   3.853  1.00 20.00     0.079 C 
HETATM    3  C3  UNL     1     -34.506   7.458   4.489  1.00 20.00     0.008 C 
HETATM    4  C4  UNL     1     -33.627   8.142   3.451  1.00 20.00     0.013 C 
HETATM    5  C5  UNL     1     -32.728   7.021   2.926  1.00 20.00     0.055 C 
HETATM    6  O11 UNL     1     -33.460   4.753   2.464  1.00 20.00    -0.298 OA
ENDROOT
BRANCH   5   7
HETATM    7  C8  UNL     1     -32.221   7.277   1.522  1.00 20.00     0.012 C 
BRANCH   7   8
HETATM    8  C9  UNL     1     -31.738   8.719   1.357  1.00 20.00     0.005 C 
BRANCH   8   9
HETATM    9  C10 UNL     1     -32.661   9.580   0.475  1.00 20.00    -0.023 C 
HETATM   10  C6  UNL     1     -32.262   9.429  -0.995  1.00 20.00     0.009 C 
HETATM   11  C7  UNL     1     -32.632  11.059   0.867  1.00 20.00     0.009 C 
ENDBRANCH   8   9
ENDBRANCH   7   8
ENDBRANCH   5   7
TORSDOF 3
ENDMDL
MODEL 4
REMARK VINA RESULT:      -0.8      1.752      2.738
REMARK  3 active torsions:
REMARK  status: ('A' for Active; 'I' for Inactive)
REMARK    1  A    between atoms: C5_5  and  C8_8 
REMARK    2  A    between atoms: C8_8  and  C9_9 
REMARK    3  A    between atoms: C9_9  and  C10_10 
ROOT
HETATM    1  C1  UNL     1     -33.959   6.960   3.589  1.00 20.00     0.131 C 
HETATM    2  C2  UNL     1     -34.151   5.508   3.950  1.00 20.00     0.079 C 
HETATM    3  C3  UNL     1     -33.798   4.809   2.643  1.00 20.00     0.008 C 
HETATM    4  C4  UNL     1     -32.753   5.711   2.000  1.00 20.00     0.013 C 
HETATM    5  C5  UNL     1     -33.281   7.126   2.245  1.00 20.00     0.055 C 
HETATM    6  O11 UNL     1     -34.312   7.888   4.306  1.00 20.00    -0.298 OA
ENDROOT
BRANCH   5   7
HETATM    7  C8  UNL     1     -32.185   8.172   2.260  1.00 20.00     0.012 C 
BRANCH   7   8
HETATM    8  C9  UNL     1     -31.658   8.449   0.850  1.00 20.00     0.005 C 
BRANCH   8   9
HETATM    9  C10 UNL     1     -32.048   9.837   0.310  1.00 20.00    -0.023 C 
HETATM   10  C6  UNL     1     -32.890  10.580   1.349  1.00 20.00     0.009 C 
HETATM   11  C7  UNL     1     -32.815   9.756  -1.011  1.00 20.00     0.009 C 
ENDBRANCH   8   9
ENDBRANCH   7   8
ENDBRANCH   5   7
TORSDOF 3
ENDMDL
MODEL 5
REMARK VINA RESULT:      -0.8      1.331      2.076
REMARK  3 active torsions:
REMARK  status: ('A' for Active; 'I' for Inactive)
REMARK    1  A    between atoms: C5_5  and  C8_8 
REMARK    2  A    between atoms: C8_8  and  C9_9 
REMARK    3  A    between atoms: C9_9  and  C10_10 
ROOT
HETATM    1  C1  UNL     1     -33.566   5.831   2.866  1.00 20.00     0.131 C 
HETATM    2  C2  UNL     1     -34.785   5.991   3.740  1.00 20.00     0.079 C 
HETATM    3  C3  UNL     1     -34.498   7.311   4.445  1.00 20.00     0.008 C 
HETATM    4  C4  UNL     1     -33.688   8.112   3.436  1.00 20.00     0.013 C 
HETATM    5  C5  UNL     1     -32.721   7.089   2.836  1.00 20.00     0.055 C 
HETATM    6  O11 UNL     1     -33.299   4.804   2.257  1.00 20.00    -0.298 OA
ENDROOT
BRANCH   5   7
HETATM    7  C8  UNL     1     -32.258   7.458   1.442  1.00 20.00     0.012 C 
BRANCH   7   8
HETATM    8  C9  UNL     1     -31.502   8.788   1.438  1.00 20.00     0.005 C 
BRANCH   8   9
HETATM    9  C10 UNL     1     -31.960   9.752   0.328  1.00 20.00    -0.023 C 
HETATM   10  C6  UNL     1     -32.898  10.810   0.914  1.00 20.00     0.009 C 
HETATM   11  C7  UNL     1     -32.657   9.027  -0.825  1.00 20.00     0.009 C 
ENDBRANCH   8   9
ENDBRANCH   7   8
ENDBRANCH   5   7
TORSDOF 3
ENDMDL
MODEL 6
REMARK VINA RESULT:      -0.4      2.008      4.699
REMARK  3 active torsions:
REMARK  status: ('A' for Active; 'I' for Inactive)
REMARK    1  A    between atoms: C5_5  and  C8_8 
REMARK    2  A    between atoms: C8_8  and  C9_9 
REMARK    3  A    between atoms: C9_9  and  C10_10 
ROOT
HETATM    1  C1  UNL     1     -33.356   7.335   3.424  1.00 20.00     0.131 C 
HETATM    2  C2  UNL     1     -32.709   8.096   2.294  1.00 20.00     0.079 C 
HETATM    3  C3  UNL     1     -32.008   6.983   1.524  1.00 20.00     0.008 C 
HETATM    4  C4  UNL     1     -32.890   5.761   1.737  1.00 20.00     0.013 C 
HETATM    5  C5  UNL     1     -33.283   5.836   3.214  1.00 20.00     0.055 C 
HETATM    6  O11 UNL     1     -33.877   7.874   4.392  1.00 20.00    -0.298 OA
ENDROOT
BRANCH   5   7
HETATM    7  C8  UNL     1     -34.589   5.132   3.516  1.00 20.00     0.012 C 
BRANCH   7   8
HETATM    8  C9  UNL     1     -34.455   4.201   4.723  1.00 20.00     0.005 C 
BRANCH   8   9
HETATM    9  C10 UNL     1     -33.127   3.422   4.754  1.00 20.00    -0.023 C 
HETATM   10  C6  UNL     1     -33.368   1.969   4.338  1.00 20.00     0.009 C 
HETATM   11  C7  UNL     1     -32.459   3.459   6.130  1.00 20.00     0.009 C 
ENDBRANCH   8   9
ENDBRANCH   7   8
ENDBRANCH   5   7
TORSDOF 3
ENDMDL
MODEL 7
REMARK VINA RESULT:      -0.3      1.720      4.704
REMARK  3 active torsions:
REMARK  status: ('A' for Active; 'I' for Inactive)
REMARK    1  A    between atoms: C5_5  and  C8_8 
REMARK    2  A    between atoms: C8_8  and  C9_9 
REMARK    3  A    between atoms: C9_9  and  C10_10 
ROOT
HETATM    1  C1  UNL     1     -31.830   7.877   1.083  1.00 20.00     0.131 C 
HETATM    2  C2  UNL     1     -31.417   8.788  -0.046  1.00 20.00     0.079 C 
HETATM    3  C3  UNL     1     -32.453   9.902   0.052  1.00 20.00     0.008 C 
HETATM    4  C4  UNL     1     -32.786   9.980   1.535  1.00 20.00     0.013 C 
HETATM    5  C5  UNL     1     -32.874   8.517   1.976  1.00 20.00     0.055 C 
HETATM    6  O11 UNL     1     -31.370   6.755   1.251  1.00 20.00    -0.298 OA
ENDROOT
BRANCH   5   7
HETATM    7  C8  UNL     1     -32.588   8.326   3.452  1.00 20.00     0.012 C 
BRANCH   7   8
HETATM    8  C9  UNL     1     -33.785   7.704   4.175  1.00 20.00     0.005 C 
BRANCH   8   9
HETATM    9  C10 UNL     1     -34.388   6.495   3.436  1.00 20.00    -0.023 C 
HETATM   10  C6  UNL     1     -35.682   6.059   4.126  1.00 20.00     0.009 C 
HETATM   11  C7  UNL     1     -33.421   5.312   3.362  1.00 20.00     0.009 C 
ENDBRANCH   8   9
ENDBRANCH   7   8
ENDBRANCH   5   7
TORSDOF 3
ENDMDL
MODEL 8
REMARK VINA RESULT:      -0.2      1.790      4.542
REMARK  3 active torsions:
REMARK  status: ('A' for Active; 'I' for Inactive)
REMARK    1  A    between atoms: C5_5  and  C8_8 
REMARK    2  A    between atoms: C8_8  and  C9_9 
REMARK    3  A    between atoms: C9_9  and  C10_10 
ROOT
HETATM    1  C1  UNL     1     -32.006   8.675   2.268  1.00 20.00     0.131 C 
HETATM    2  C2  UNL     1     -32.626   9.882   1.609  1.00 20.00     0.079 C 
HETATM    3  C3  UNL     1     -32.386   9.595   0.132  1.00 20.00     0.008 C 
HETATM    4  C4  UNL     1     -32.425   8.076   0.030  1.00 20.00     0.013 C 
HETATM    5  C5  UNL     1     -31.652   7.599   1.261  1.00 20.00     0.055 C 
HETATM    6  O11 UNL     1     -31.816   8.584   3.474  1.00 20.00    -0.298 OA
ENDROOT
BRANCH   5   7
HETATM    7  C8  UNL     1     -32.056   6.210   1.713  1.00 20.00     0.012 C 
BRANCH   7   8
HETATM    8  C9  UNL     1     -33.558   6.129   1.991  1.00 20.00     0.005 C 
BRANCH   8   9
HETATM    9  C10 UNL     1     -33.895   5.883   3.474  1.00 20.00    -0.023 C 
HETATM   10  C6  UNL     1     -34.009   4.379   3.736  1.00 20.00     0.009 C 
HETATM   11  C7  UNL     1     -35.188   6.579   3.903  1.00 20.00     0.009 C 
ENDBRANCH   8   9
ENDBRANCH   7   8
ENDBRANCH   5   7
TORSDOF 3
ENDMDL
MODEL 9
REMARK VINA RESULT:      -0.2      1.869      4.566
REMARK  3 active torsions:
REMARK  status: ('A' for Active; 'I' for Inactive)
REMARK    1  A    between atoms: C5_5  and  C8_8 
REMARK    2  A    between atoms: C8_8  and  C9_9 
REMARK    3  A    between atoms: C9_9  and  C10_10 
ROOT
HETATM    1  C1  UNL     1     -33.065   6.288   1.903  1.00 20.00     0.131 C 
HETATM    2  C2  UNL     1     -31.960   7.314   1.885  1.00 20.00     0.079 C 
HETATM    3  C3  UNL     1     -32.497   8.373   2.840  1.00 20.00     0.008 C 
HETATM    4  C4  UNL     1     -33.330   7.590   3.846  1.00 20.00     0.013 C 
HETATM    5  C5  UNL     1     -34.081   6.566   2.993  1.00 20.00     0.055 C 
HETATM    6  O11 UNL     1     -33.125   5.343   1.127  1.00 20.00    -0.298 OA
ENDROOT
BRANCH   5   7
HETATM    7  C8  UNL     1     -34.474   5.325   3.767  1.00 20.00     0.012 C 
BRANCH   7   8
HETATM    8  C9  UNL     1     -33.331   4.308   3.810  1.00 20.00     0.005 C 
BRANCH   8   9
HETATM    9  C10 UNL     1     -33.492   3.250   4.917  1.00 20.00    -0.023 C 
HETATM   10  C6  UNL     1     -32.469   3.502   6.027  1.00 20.00     0.009 C 
HETATM   11  C7  UNL     1     -33.336   1.823   4.389  1.00 20.00     0.009 C 
ENDBRANCH   8   9
ENDBRANCH   7   8
ENDBRANCH   5   7
TORSDOF 3
ENDMDL
