MODEL 1
REMARK VINA RESULT:      -2.5      0.000      0.000
REMARK  1 active torsions:
REMARK  status: ('A' for Active; 'I' for Inactive)
REMARK    1  A    between atoms: C7_7  and  C8_8 
ROOT
HETATM    1  C1  UNL     1     -32.725  10.550   0.390  1.00 20.00     0.012 C 
HETATM    2  C2  UNL     1     -32.296   9.441   0.550  1.00 20.00    -0.117 C 
HETATM    3  C8  UNL     1     -31.771   8.082   0.747  1.00 20.00     0.105 C 
ENDROOT
BRANCH   3   4
HETATM    4  C7  UNL     1     -32.106   7.552   2.126  1.00 20.00     0.066 C 
HETATM    5  C3  UNL     1     -32.896   6.259   2.088  1.00 20.00     0.132 C 
HETATM    6  C4  UNL     1     -34.047   6.271   3.062  1.00 20.00     0.079 C 
HETATM    7  O9  UNL     1     -32.638   5.312   1.356  1.00 20.00    -0.298 OA
HETATM    8  C5  UNL     1     -33.757   7.525   3.879  1.00 20.00     0.008 C 
HETATM    9  C6  UNL     1     -33.062   8.462   2.900  1.00 20.00     0.013 C 
ENDBRANCH   3   4
TORSDOF 1
ENDMDL
MODEL 2
REMARK VINA RESULT:      -2.2      1.586      2.164
REMARK  1 active torsions:
REMARK  status: ('A' for Active; 'I' for Inactive)
REMARK    1  A    between atoms: C7_7  and  C8_8 
ROOT
HETATM    1  C1  UNL     1     -32.436   9.966  -0.027  1.00 20.00     0.012 C 
HETATM    2  C2  UNL     1     -32.265   9.173   0.858  1.00 20.00    -0.117 C 
HETATM    3  C8  UNL     1     -32.054   8.203   1.942  1.00 20.00     0.105 C 
ENDROOT
BRANCH   3   4
HETATM    4  C7  UNL     1     -33.124   7.130   1.941  1.00 20.00     0.066 C 
HETATM    5  C3  UNL     1     -33.761   6.929   3.301  1.00 20.00     0.132 C 
HETATM    6  C4  UNL     1     -33.908   5.468   3.646  1.00 20.00     0.079 C 
HETATM    7  O9  UNL     1     -34.118   7.838   4.040  1.00 20.00    -0.298 OA
HETATM    8  C5  UNL     1     -33.573   4.795   2.320  1.00 20.00     0.008 C 
HETATM    9  C6  UNL     1     -32.568   5.732   1.662  1.00 20.00     0.013 C 
ENDBRANCH   3   4
TORSDOF 1
ENDMDL
MODEL 3
REMARK VINA RESULT:      -2.2      2.263      4.725
REMARK  1 active torsions:
REMARK  status: ('A' for Active; 'I' for Inactive)
REMARK    1  A    between atoms: C7_7  and  C8_8 
ROOT
HETATM    1  C1  UNL     1     -33.327   2.759   4.832  1.00 20.00     0.012 C 
HETATM    2  C2  UNL     1     -33.734   3.735   4.265  1.00 20.00    -0.117 C 
HETATM    3  C8  UNL     1     -34.233   4.930   3.570  1.00 20.00     0.105 C 
ENDROOT
BRANCH   3   4
HETATM    4  C7  UNL     1     -33.105   5.876   3.214  1.00 20.00     0.066 C 
HETATM    5  C3  UNL     1     -33.481   7.335   3.376  1.00 20.00     0.132 C 
HETATM    6  C4  UNL     1     -33.023   8.170   2.208  1.00 20.00     0.079 C 
HETATM    7  O9  UNL     1     -34.086   7.791   4.339  1.00 20.00    -0.298 OA
HETATM    8  C5  UNL     1     -32.121   7.198   1.457  1.00 20.00     0.008 C 
HETATM    9  C6  UNL     1     -32.730   5.828   1.731  1.00 20.00     0.013 C 
ENDBRANCH   3   4
TORSDOF 1
ENDMDL
MODEL 4
REMARK VINA RESULT:      -1.5      1.675      2.489
REMARK  1 active torsions:
REMARK  status: ('A' for Active; 'I' for Inactive)
REMARK    1  A    between atoms: C7_7  and  C8_8 
ROOT
HETATM    1  C1  UNL     1     -31.739   8.223   1.114  1.00 20.00     0.012 C 
HETATM    2  C2  UNL     1     -32.210   7.182   1.479  1.00 20.00    -0.117 C 
HETATM    3  C8  UNL     1     -32.787   5.905   1.925  1.00 20.00     0.105 C 
ENDROOT
BRANCH   3   4
HETATM    4  C7  UNL     1     -33.400   6.026   3.305  1.00 20.00     0.066 C 
HETATM    5  C3  UNL     1     -33.985   4.723   3.810  1.00 20.00     0.132 C 
HETATM    6  C4  UNL     1     -35.341   4.919   4.439  1.00 20.00     0.079 C 
HETATM    7  O9  UNL     1     -33.430   3.635   3.721  1.00 20.00    -0.298 OA
HETATM    8  C5  UNL     1     -35.432   6.437   4.530  1.00 20.00     0.008 C 
HETATM    9  C6  UNL     1     -34.629   6.937   3.336  1.00 20.00     0.013 C 
ENDBRANCH   3   4
TORSDOF 1
ENDMDL
MODEL 5
REMARK VINA RESULT:      -1.3      1.855      4.191
REMARK  1 active torsions:
REMARK  status: ('A' for Active; 'I' for Inactive)
REMARK    1  A    between atoms: C7_7  and  C8_8 
ROOT
HETATM    1  C1  UNL     1     -33.429   3.553   4.431  1.00 20.00     0.012 C 
HETATM    2  C2  UNL     1     -34.239   4.425   4.278  1.00 20.00    -0.117 C 
HETATM    3  C8  UNL     1     -35.232   5.493   4.091  1.00 20.00     0.105 C 
ENDROOT
BRANCH   3   4
HETATM    4  C7  UNL     1     -34.623   6.703   3.412  1.00 20.00     0.066 C 
HETATM    5  C3  UNL     1     -33.547   6.341   2.409  1.00 20.00     0.132 C 
HETATM    6  C4  UNL     1     -32.334   7.226   2.537  1.00 20.00     0.079 C 
HETATM    7  O9  UNL     1     -33.642   5.436   1.588  1.00 20.00    -0.298 OA
HETATM    8  C5  UNL     1     -32.832   8.310   3.485  1.00 20.00     0.008 C 
HETATM    9  C6  UNL     1     -33.843   7.599   4.376  1.00 20.00     0.013 C 
ENDBRANCH   3   4
TORSDOF 1
ENDMDL
MODEL 6
REMARK VINA RESULT:      -1.2      1.931      4.008
REMARK  1 active torsions:
REMARK  status: ('A' for Active; 'I' for Inactive)
REMARK    1  A    between atoms: C7_7  and  C8_8 
ROOT
HETATM    1  C1  UNL     1     -35.619   5.568   4.410  1.00 20.00     0.012 C 
HETATM    2  C2  UNL     1     -34.922   6.471   4.040  1.00 20.00    -0.117 C 
HETATM    3  C8  UNL     1     -34.067   7.578   3.587  1.00 20.00     0.105 C 
ENDROOT
BRANCH   3   4
HETATM    4  C7  UNL     1     -32.796   7.067   2.938  1.00 20.00     0.066 C 
HETATM    5  C3  UNL     1     -32.299   7.964   1.823  1.00 20.00     0.132 C 
HETATM    6  C4  UNL     1     -31.880   7.175   0.608  1.00 20.00     0.079 C 
HETATM    7  O9  UNL     1     -32.241   9.186   1.890  1.00 20.00    -0.298 OA
HETATM    8  C5  UNL     1     -31.897   5.746   1.136  1.00 20.00     0.008 C 
HETATM    9  C6  UNL     1     -32.996   5.746   2.192  1.00 20.00     0.013 C 
ENDBRANCH   3   4
TORSDOF 1
ENDMDL
MODEL 7
REMARK VINA RESULT:      -1.0      1.028      3.604
REMARK  1 active torsions:
REMARK  status: ('A' for Active; 'I' for Inactive)
REMARK    1  A    between atoms: C7_7  and  C8_8 
ROOT
HETATM    1  C1  UNL     1     -35.366   6.160   4.082  1.00 20.00     0.012 C 
HETATM    2  C2  UNL     1     -34.425   6.863   3.841  1.00 20.00    -0.117 C 
HETATM    3  C8  UNL     1     -33.271   7.725   3.546  1.00 20.00     0.105 C 
ENDROOT
BRANCH   3   4
HETATM    4  C7  UNL     1     -33.179   8.042   2.067  1.00 20.00     0.066 C 
HETATM    5  C3  UNL     1     -32.011   7.359   1.386  1.00 20.00     0.132 C 
HETATM    6  C4  UNL     1     -31.266   8.295   0.467  1.00 20.00     0.079 C 
HETATM    7  O9  UNL     1     -31.699   6.187   1.556  1.00 20.00    -0.298 OA
HETATM    8  C5  UNL     1     -32.198   9.501   0.422  1.00 20.00     0.008 C 
HETATM    9  C6  UNL     1     -32.868   9.514   1.790  1.00 20.00     0.013 C 
ENDBRANCH   3   4
TORSDOF 1
ENDMDL
MODEL 8
REMARK VINA RESULT:      -0.9      2.111      4.226
REMARK  1 active torsions:
REMARK  status: ('A' for Active; 'I' for Inactive)
REMARK    1  A    between atoms: C7_7  and  C8_8 
ROOT
HETATM    1  C1  UNL     1     -33.459   3.156   4.789  1.00 20.00     0.012 C 
HETATM    2  C2  UNL     1     -33.363   3.789   3.774  1.00 20.00    -0.117 C 
HETATM    3  C8  UNL     1     -33.245   4.565   2.531  1.00 20.00     0.105 C 
ENDROOT
BRANCH   3   4
HETATM    4  C7  UNL     1     -33.906   5.923   2.660  1.00 20.00     0.066 C 
HETATM    5  C3  UNL     1     -32.921   7.071   2.578  1.00 20.00     0.132 C 
HETATM    6  C4  UNL     1     -33.180   8.114   3.636  1.00 20.00     0.079 C 
HETATM    7  O9  UNL     1     -32.018   7.151   1.754  1.00 20.00    -0.298 OA
HETATM    8  C5  UNL     1     -34.528   7.673   4.192  1.00 20.00     0.008 C 
HETATM    9  C6  UNL     1     -34.524   6.157   4.040  1.00 20.00     0.013 C 
ENDBRANCH   3   4
TORSDOF 1
ENDMDL
MODEL 9
REMARK VINA RESULT:      -0.7      2.092      3.396
REMARK  1 active torsions:
REMARK  status: ('A' for Active; 'I' for Inactive)
REMARK    1  A    between atoms: C7_7  and  C8_8 
ROOT
HETATM    1  C1  UNL     1     -33.586   4.022  -0.476  1.00 20.00     0.012 C 
HETATM    2  C2  UNL     1     -33.066   4.687   0.377  1.00 20.00    -0.117 C 
HETATM    3  C8  UNL     1     -32.429   5.501   1.423  1.00 20.00     0.105 C 
ENDROOT
BRANCH   3   4
HETATM    4  C7  UNL     1     -33.416   6.463   2.054  1.00 20.00     0.066 C 
HETATM    5  C3  UNL     1     -32.746   7.659   2.698  1.00 20.00     0.132 C 
HETATM    6  C4  UNL     1     -33.324   7.967   4.057  1.00 20.00     0.079 C 
HETATM    7  O9  UNL     1     -31.841   8.306   2.185  1.00 20.00    -0.298 OA
HETATM    8  C5  UNL     1     -34.552   7.065   4.090  1.00 20.00     0.008 C 
HETATM    9  C6  UNL     1     -34.159   5.858   3.247  1.00 20.00     0.013 C 
ENDBRANCH   3   4
TORSDOF 1
ENDMDL
