MODEL 1
REMARK VINA RESULT:      -1.7      0.000      0.000
REMARK  4 active torsions:
REMARK  status: ('A' for Active; 'I' for Inactive)
REMARK    1  A    between atoms: C6_6  and  N10_10 
REMARK    2  A    between atoms: C7_7  and  C8_8 
REMARK    3  A    between atoms: C7_7  and  C9_9 
REMARK    4  A    between atoms: C8_8  and  N10_10 
ROOT
HETATM    1  C1  UNL     1     -32.788  10.648  -0.087  1.00 20.00     0.013 C 
HETATM    2  C2  UNL     1     -32.271   9.631   0.288  1.00 20.00    -0.087 C 
HETATM    3  C6  UNL     1     -31.636   8.392   0.743  1.00 20.00     0.364 C 
ENDROOT
BRANCH   3   4
HETATM    4  N10 UNL     1     -32.422   7.771   1.823  1.00 20.00     0.095 N 
HETATM    5  C5  UNL     1     -32.048   8.380   3.109  1.00 20.00     0.310 C 
BRANCH   4   6
HETATM    6  C8  UNL     1     -32.248   6.346   1.846  1.00 20.00     0.273 C 
BRANCH   6   7
HETATM    7  C7  UNL     1     -33.549   5.604   2.143  1.00 20.00     0.034 C 
BRANCH   7   8
HETATM    8  C9  UNL     1     -33.929   5.522   3.635  1.00 20.00    -0.021 C 
HETATM    9  C3  UNL     1     -33.983   4.056   4.073  1.00 20.00     0.009 C 
HETATM   10  C4  UNL     1     -35.265   6.200   3.936  1.00 20.00     0.009 C 
ENDBRANCH   7   8
ENDBRANCH   6   7
ENDBRANCH   4   6
ENDBRANCH   3   4
TORSDOF 4
ENDMDL
MODEL 2
REMARK VINA RESULT:      -1.5      1.050      1.655
REMARK  4 active torsions:
REMARK  status: ('A' for Active; 'I' for Inactive)
REMARK    1  A    between atoms: C6_6  and  N10_10 
REMARK    2  A    between atoms: C7_7  and  C8_8 
REMARK    3  A    between atoms: C7_7  and  C9_9 
REMARK    4  A    between atoms: C8_8  and  N10_10 
ROOT
HETATM    1  C1  UNL     1     -32.388   9.864  -0.004  1.00 20.00     0.013 C 
HETATM    2  C2  UNL     1     -32.194   9.015   0.824  1.00 20.00    -0.087 C 
HETATM    3  C6  UNL     1     -31.954   7.982   1.834  1.00 20.00     0.364 C 
ENDROOT
BRANCH   3   4
HETATM    4  N10 UNL     1     -33.227   7.431   2.327  1.00 20.00     0.095 N 
HETATM    5  C5  UNL     1     -33.365   7.731   3.761  1.00 20.00     0.310 C 
BRANCH   4   6
HETATM    6  C8  UNL     1     -33.321   6.021   2.075  1.00 20.00     0.273 C 
BRANCH   6   7
HETATM    7  C7  UNL     1     -32.938   5.183   3.293  1.00 20.00     0.034 C 
BRANCH   7   8
HETATM    8  C9  UNL     1     -34.013   4.181   3.760  1.00 20.00    -0.021 C 
HETATM    9  C3  UNL     1     -35.111   4.924   4.526  1.00 20.00     0.009 C 
HETATM   10  C4  UNL     1     -33.435   3.069   4.635  1.00 20.00     0.009 C 
ENDBRANCH   7   8
ENDBRANCH   6   7
ENDBRANCH   4   6
ENDBRANCH   3   4
TORSDOF 4
ENDMDL
MODEL 3
REMARK VINA RESULT:      -1.4      1.105      4.916
REMARK  4 active torsions:
REMARK  status: ('A' for Active; 'I' for Inactive)
REMARK    1  A    between atoms: C6_6  and  N10_10 
REMARK    2  A    between atoms: C7_7  and  C8_8 
REMARK    3  A    between atoms: C7_7  and  C9_9 
REMARK    4  A    between atoms: C8_8  and  N10_10 
ROOT
HETATM    1  C1  UNL     1     -35.392   5.890   4.105  1.00 20.00     0.013 C 
HETATM    2  C2  UNL     1     -34.496   6.647   3.845  1.00 20.00    -0.087 C 
HETATM    3  C6  UNL     1     -33.404   7.571   3.533  1.00 20.00     0.364 C 
ENDROOT
BRANCH   3   4
HETATM    4  N10 UNL     1     -32.912   7.351   2.162  1.00 20.00     0.095 N 
HETATM    5  C5  UNL     1     -32.960   5.913   1.852  1.00 20.00     0.310 C 
BRANCH   4   6
HETATM    6  C8  UNL     1     -31.590   7.881   1.988  1.00 20.00     0.273 C 
BRANCH   6   7
HETATM    7  C7  UNL     1     -31.467   8.742   0.732  1.00 20.00     0.034 C 
BRANCH   7   8
HETATM    8  C9  UNL     1     -32.672   9.660   0.450  1.00 20.00    -0.021 C 
HETATM    9  C3  UNL     1     -32.774   9.930  -1.054  1.00 20.00     0.009 C 
HETATM   10  C4  UNL     1     -32.587  10.985   1.207  1.00 20.00     0.009 C 
ENDBRANCH   7   8
ENDBRANCH   6   7
ENDBRANCH   4   6
ENDBRANCH   3   4
TORSDOF 4
ENDMDL
MODEL 4
REMARK VINA RESULT:      -1.4      1.357      5.167
REMARK  4 active torsions:
REMARK  status: ('A' for Active; 'I' for Inactive)
REMARK    1  A    between atoms: C6_6  and  N10_10 
REMARK    2  A    between atoms: C7_7  and  C8_8 
REMARK    3  A    between atoms: C7_7  and  C9_9 
REMARK    4  A    between atoms: C8_8  and  N10_10 
ROOT
HETATM    1  C1  UNL     1     -33.099   2.831   4.718  1.00 20.00     0.013 C 
HETATM    2  C2  UNL     1     -33.803   3.754   4.410  1.00 20.00    -0.087 C 
HETATM    3  C6  UNL     1     -34.667   4.876   4.036  1.00 20.00     0.364 C 
ENDROOT
BRANCH   3   4
HETATM    4  N10 UNL     1     -33.862   6.022   3.581  1.00 20.00     0.095 N 
HETATM    5  C5  UNL     1     -34.489   7.272   4.039  1.00 20.00     0.310 C 
BRANCH   4   6
HETATM    6  C8  UNL     1     -33.693   6.012   2.155  1.00 20.00     0.273 C 
BRANCH   6   7
HETATM    7  C7  UNL     1     -32.353   6.604   1.722  1.00 20.00     0.034 C 
BRANCH   7   8
HETATM    8  C9  UNL     1     -32.251   8.139   1.835  1.00 20.00    -0.021 C 
HETATM    9  C3  UNL     1     -31.898   8.734   0.469  1.00 20.00     0.009 C 
HETATM   10  C4  UNL     1     -31.220   8.581   2.872  1.00 20.00     0.009 C 
ENDBRANCH   7   8
ENDBRANCH   6   7
ENDBRANCH   4   6
ENDBRANCH   3   4
TORSDOF 4
ENDMDL
MODEL 5
REMARK VINA RESULT:      -1.3      1.285      5.170
REMARK  4 active torsions:
REMARK  status: ('A' for Active; 'I' for Inactive)
REMARK    1  A    between atoms: C6_6  and  N10_10 
REMARK    2  A    between atoms: C7_7  and  C8_8 
REMARK    3  A    between atoms: C7_7  and  C9_9 
REMARK    4  A    between atoms: C8_8  and  N10_10 
ROOT
HETATM    1  C1  UNL     1     -33.494   3.258   4.450  1.00 20.00     0.013 C 
HETATM    2  C2  UNL     1     -33.959   4.291   4.051  1.00 20.00    -0.087 C 
HETATM    3  C6  UNL     1     -34.532   5.549   3.566  1.00 20.00     0.364 C 
ENDROOT
BRANCH   3   4
HETATM    4  N10 UNL     1     -33.499   6.594   3.488  1.00 20.00     0.095 N 
HETATM    5  C5  UNL     1     -34.016   7.837   4.082  1.00 20.00     0.310 C 
BRANCH   4   6
HETATM    6  C8  UNL     1     -33.063   6.801   2.136  1.00 20.00     0.273 C 
BRANCH   6   7
HETATM    7  C7  UNL     1     -32.178   8.038   1.990  1.00 20.00     0.034 C 
BRANCH   7   8
HETATM    8  C9  UNL     1     -32.384   8.839   0.689  1.00 20.00    -0.021 C 
HETATM    9  C3  UNL     1     -31.108   8.788  -0.155  1.00 20.00     0.009 C 
HETATM   10  C4  UNL     1     -32.770  10.294   0.954  1.00 20.00     0.009 C 
ENDBRANCH   7   8
ENDBRANCH   6   7
ENDBRANCH   4   6
ENDBRANCH   3   4
TORSDOF 4
ENDMDL
MODEL 6
REMARK VINA RESULT:      -1.3      1.086      1.710
REMARK  4 active torsions:
REMARK  status: ('A' for Active; 'I' for Inactive)
REMARK    1  A    between atoms: C6_6  and  N10_10 
REMARK    2  A    between atoms: C7_7  and  C8_8 
REMARK    3  A    between atoms: C7_7  and  C9_9 
REMARK    4  A    between atoms: C8_8  and  N10_10 
ROOT
HETATM    1  C1  UNL     1     -32.663   9.860   0.167  1.00 20.00     0.013 C 
HETATM    2  C2  UNL     1     -32.097   9.038   0.836  1.00 20.00    -0.087 C 
HETATM    3  C6  UNL     1     -31.403   8.039   1.650  1.00 20.00     0.364 C 
ENDROOT
BRANCH   3   4
HETATM    4  N10 UNL     1     -32.365   7.106   2.261  1.00 20.00     0.095 N 
HETATM    5  C5  UNL     1     -32.723   6.065   1.284  1.00 20.00     0.310 C 
BRANCH   4   6
HETATM    6  C8  UNL     1     -33.529   7.795   2.744  1.00 20.00     0.273 C 
BRANCH   6   7
HETATM    7  C7  UNL     1     -33.922   7.358   4.154  1.00 20.00     0.034 C 
BRANCH   7   8
HETATM    8  C9  UNL     1     -35.113   6.382   4.226  1.00 20.00    -0.021 C 
HETATM    9  C3  UNL     1     -34.602   4.940   4.162  1.00 20.00     0.009 C 
HETATM   10  C4  UNL     1     -36.131   6.618   3.111  1.00 20.00     0.009 C 
ENDBRANCH   7   8
ENDBRANCH   6   7
ENDBRANCH   4   6
ENDBRANCH   3   4
TORSDOF 4
ENDMDL
MODEL 7
REMARK VINA RESULT:      -1.2      1.279      4.948
REMARK  4 active torsions:
REMARK  status: ('A' for Active; 'I' for Inactive)
REMARK    1  A    between atoms: C6_6  and  N10_10 
REMARK    2  A    between atoms: C7_7  and  C8_8 
REMARK    3  A    between atoms: C7_7  and  C9_9 
REMARK    4  A    between atoms: C8_8  and  N10_10 
ROOT
HETATM    1  C1  UNL     1     -35.536   6.057   4.114  1.00 20.00     0.013 C 
HETATM    2  C2  UNL     1     -34.508   6.544   3.729  1.00 20.00    -0.087 C 
HETATM    3  C6  UNL     1     -33.254   7.140   3.264  1.00 20.00     0.364 C 
ENDROOT
BRANCH   3   4
HETATM    4  N10 UNL     1     -32.969   6.735   1.877  1.00 20.00     0.095 N 
HETATM    5  C5  UNL     1     -32.720   5.285   1.834  1.00 20.00     0.310 C 
BRANCH   4   6
HETATM    6  C8  UNL     1     -31.865   7.473   1.332  1.00 20.00     0.273 C 
BRANCH   6   7
HETATM    7  C7  UNL     1     -31.942   8.964   1.656  1.00 20.00     0.034 C 
BRANCH   7   8
HETATM    8  C9  UNL     1     -32.050   9.893   0.431  1.00 20.00    -0.021 C 
HETATM    9  C3  UNL     1     -32.930  11.099   0.774  1.00 20.00     0.009 C 
HETATM   10  C4  UNL     1     -32.612   9.178  -0.798  1.00 20.00     0.009 C 
ENDBRANCH   7   8
ENDBRANCH   6   7
ENDBRANCH   4   6
ENDBRANCH   3   4
TORSDOF 4
ENDMDL
MODEL 8
REMARK VINA RESULT:      -0.9      1.159      4.742
REMARK  4 active torsions:
REMARK  status: ('A' for Active; 'I' for Inactive)
REMARK    1  A    between atoms: C6_6  and  N10_10 
REMARK    2  A    between atoms: C7_7  and  C8_8 
REMARK    3  A    between atoms: C7_7  and  C9_9 
REMARK    4  A    between atoms: C8_8  and  N10_10 
ROOT
HETATM    1  C1  UNL     1     -35.064   6.945   4.088  1.00 20.00     0.013 C 
HETATM    2  C2  UNL     1     -34.249   6.275   3.514  1.00 20.00    -0.087 C 
HETATM    3  C6  UNL     1     -33.256   5.454   2.817  1.00 20.00     0.364 C 
ENDROOT
BRANCH   3   4
HETATM    4  N10 UNL     1     -32.824   6.108   1.571  1.00 20.00     0.095 N 
HETATM    5  C5  UNL     1     -32.349   5.087   0.623  1.00 20.00     0.310 C 
BRANCH   4   6
HETATM    6  C8  UNL     1     -31.816   7.100   1.820  1.00 20.00     0.273 C 
BRANCH   6   7
HETATM    7  C7  UNL     1     -32.374   8.521   1.780  1.00 20.00     0.034 C 
BRANCH   7   8
HETATM    8  C9  UNL     1     -32.414   9.167   0.381  1.00 20.00    -0.021 C 
HETATM    9  C3  UNL     1     -31.082   8.928  -0.336  1.00 20.00     0.009 C 
HETATM   10  C4  UNL     1     -32.706  10.666   0.438  1.00 20.00     0.009 C 
ENDBRANCH   7   8
ENDBRANCH   6   7
ENDBRANCH   4   6
ENDBRANCH   3   4
TORSDOF 4
ENDMDL
MODEL 9
REMARK VINA RESULT:      -0.2      2.044      4.557
REMARK  4 active torsions:
REMARK  status: ('A' for Active; 'I' for Inactive)
REMARK    1  A    between atoms: C6_6  and  N10_10 
REMARK    2  A    between atoms: C7_7  and  C8_8 
REMARK    3  A    between atoms: C7_7  and  C9_9 
REMARK    4  A    between atoms: C8_8  and  N10_10 
ROOT
HETATM    1  C1  UNL     1     -33.776   3.548   4.361  1.00 20.00     0.013 C 
HETATM    2  C2  UNL     1     -34.209   4.646   4.140  1.00 20.00    -0.087 C 
HETATM    3  C6  UNL     1     -34.743   5.983   3.872  1.00 20.00     0.364 C 
ENDROOT
BRANCH   3   4
HETATM    4  N10 UNL     1     -33.652   6.967   3.768  1.00 20.00     0.095 N 
HETATM    5  C5  UNL     1     -33.895   8.066   4.716  1.00 20.00     0.310 C 
BRANCH   4   6
HETATM    6  C8  UNL     1     -33.510   7.453   2.425  1.00 20.00     0.273 C 
BRANCH   6   7
HETATM    7  C7  UNL     1     -32.130   7.157   1.840  1.00 20.00     0.034 C 
BRANCH   7   8
HETATM    8  C9  UNL     1     -32.052   5.893   0.961  1.00 20.00    -0.021 C 
HETATM    9  C3  UNL     1     -33.463   5.464   0.549  1.00 20.00     0.009 C 
HETATM   10  C4  UNL     1     -31.345   4.735   1.664  1.00 20.00     0.009 C 
ENDBRANCH   7   8
ENDBRANCH   6   7
ENDBRANCH   4   6
ENDBRANCH   3   4
TORSDOF 4
ENDMDL
