MODEL 1
REMARK VINA RESULT:      -1.5      0.000      0.000
REMARK  3 active torsions:
REMARK  status: ('A' for Active; 'I' for Inactive)
REMARK    1  A    between atoms: C6_6  and  C9_9 
REMARK    2  A    between atoms: C7_7  and  C10_10 
REMARK    3  A    between atoms: C10_10  and  N11_11 
ROOT
HETATM    1  C1  UNL     1     -33.216   5.319   2.492  1.00 20.00     0.032 C 
HETATM    2  C2  UNL     1     -33.922   7.183   4.032  1.00 20.00     0.032 C 
HETATM    3  C3  UNL     1     -32.701   6.346   1.495  1.00 20.00     0.235 C 
HETATM    4  C4  UNL     1     -33.402   8.201   3.027  1.00 20.00     0.235 C 
HETATM    5  C6  UNL     1     -34.357   5.880   3.349  1.00 20.00    -0.012 C 
HETATM    6  N11 UNL     1     -32.273   7.592   2.232  1.00 20.00    -0.069 N 
HETATM    7  H32 UNL     1     -31.542   7.316   2.903  1.00 20.00     0.280 HD
ENDROOT
BRANCH   6   8
HETATM    8  C10 UNL     1     -31.641   8.595   1.307  1.00 20.00     0.268 C 
BRANCH   8   9
HETATM    9  C7  UNL     1     -32.714   9.508   0.755  1.00 20.00     0.171 A 
HETATM   10  C5  UNL     1     -32.676   9.977  -0.673  1.00 20.00     0.201 A 
HETATM   11  O12 UNL     1     -32.260  10.821   0.413  1.00 20.00    -0.380 OA
ENDBRANCH   8   9
ENDBRANCH   6   8
BRANCH   5  12
HETATM   12  C9  UNL     1     -34.814   4.853   4.383  1.00 20.00     0.000 C 
HETATM   13  C8  UNL     1     -33.874   3.695   4.462  1.00 20.00     0.005 C 
ENDBRANCH   5  12
TORSDOF 3
ENDMDL
MODEL 2
REMARK VINA RESULT:      -0.7      0.618      1.576
REMARK  3 active torsions:
REMARK  status: ('A' for Active; 'I' for Inactive)
REMARK    1  A    between atoms: C6_6  and  C9_9 
REMARK    2  A    between atoms: C7_7  and  C10_10 
REMARK    3  A    between atoms: C10_10  and  N11_11 
ROOT
HETATM    1  C1  UNL     1     -33.948   6.716   3.699  1.00 20.00     0.032 C 
HETATM    2  C2  UNL     1     -32.858   5.149   2.055  1.00 20.00     0.032 C 
HETATM    3  C3  UNL     1     -33.038   7.838   3.223  1.00 20.00     0.235 C 
HETATM    4  C4  UNL     1     -31.953   6.280   1.587  1.00 20.00     0.235 C 
HETATM    5  C6  UNL     1     -33.300   5.339   3.512  1.00 20.00    -0.012 C 
HETATM    6  N11 UNL     1     -32.657   7.601   1.782  1.00 20.00    -0.069 N 
HETATM    7  H32 UNL     1     -33.530   7.564   1.237  1.00 20.00     0.280 HD
ENDROOT
BRANCH   6   8
HETATM    8  C10 UNL     1     -31.856   8.744   1.223  1.00 20.00     0.268 C 
BRANCH   8   9
HETATM    9  C7  UNL     1     -32.800   9.790   0.670  1.00 20.00     0.171 A 
HETATM   10  C5  UNL     1     -32.775  10.169  -0.785  1.00 20.00     0.201 A 
HETATM   11  O12 UNL     1     -32.162  10.990   0.223  1.00 20.00    -0.380 OA
ENDBRANCH   8   9
ENDBRANCH   6   8
BRANCH   5  12
HETATM   12  C9  UNL     1     -34.256   4.227   3.938  1.00 20.00     0.000 C 
HETATM   13  C8  UNL     1     -33.533   3.102   4.601  1.00 20.00     0.005 C 
ENDBRANCH   5  12
TORSDOF 3
ENDMDL
MODEL 3
REMARK VINA RESULT:      -0.5      2.630      5.662
REMARK  3 active torsions:
REMARK  status: ('A' for Active; 'I' for Inactive)
REMARK    1  A    between atoms: C6_6  and  C9_9 
REMARK    2  A    between atoms: C7_7  and  C10_10 
REMARK    3  A    between atoms: C10_10  and  N11_11 
ROOT
HETATM    1  C1  UNL     1     -33.081   8.147   3.141  1.00 20.00     0.032 C 
HETATM    2  C2  UNL     1     -32.338   6.496   1.391  1.00 20.00     0.032 C 
HETATM    3  C3  UNL     1     -34.051   7.114   3.696  1.00 20.00     0.235 C 
HETATM    4  C4  UNL     1     -33.311   5.470   1.955  1.00 20.00     0.235 C 
HETATM    5  C6  UNL     1     -32.813   7.931   1.647  1.00 20.00    -0.012 C 
HETATM    6  N11 UNL     1     -33.515   5.728   3.428  1.00 20.00    -0.069 N 
HETATM    7  H32 UNL     1     -32.593   5.663   3.880  1.00 20.00     0.280 HD
ENDROOT
BRANCH   6   8
HETATM    8  C10 UNL     1     -34.374   4.669   4.063  1.00 20.00     0.268 C 
BRANCH   8   9
HETATM    9  C7  UNL     1     -33.610   3.363   4.096  1.00 20.00     0.171 A 
HETATM   10  C5  UNL     1     -33.094   2.796   5.389  1.00 20.00     0.201 A 
HETATM   11  O12 UNL     1     -32.235   3.487   4.468  1.00 20.00    -0.380 OA
ENDBRANCH   8   9
ENDBRANCH   6   8
BRANCH   5  12
HETATM   12  C9  UNL     1     -31.790   8.941   1.129  1.00 20.00     0.000 C 
HETATM   13  C8  UNL     1     -32.417   9.937   0.210  1.00 20.00     0.005 C 
ENDBRANCH   5  12
TORSDOF 3
ENDMDL
MODEL 4
REMARK VINA RESULT:      -0.2      2.631      5.417
REMARK  3 active torsions:
REMARK  status: ('A' for Active; 'I' for Inactive)
REMARK    1  A    between atoms: C6_6  and  C9_9 
REMARK    2  A    between atoms: C7_7  and  C10_10 
REMARK    3  A    between atoms: C10_10  and  N11_11 
ROOT
HETATM    1  C1  UNL     1     -32.387   6.503   1.087  1.00 20.00     0.032 C 
HETATM    2  C2  UNL     1     -33.079   8.340   2.664  1.00 20.00     0.032 C 
HETATM    3  C3  UNL     1     -32.752   5.468   2.141  1.00 20.00     0.235 C 
HETATM    4  C4  UNL     1     -33.441   7.296   3.711  1.00 20.00     0.235 C 
HETATM    5  C6  UNL     1     -31.981   7.840   1.718  1.00 20.00    -0.012 C 
HETATM    6  N11 UNL     1     -33.848   6.015   3.024  1.00 20.00    -0.069 N 
HETATM    7  H32 UNL     1     -34.649   6.236   2.417  1.00 20.00     0.280 HD
ENDROOT
BRANCH   6   8
HETATM    8  C10 UNL     1     -34.333   4.987   4.009  1.00 20.00     0.268 C 
BRANCH   8   9
HETATM    9  C7  UNL     1     -33.539   3.713   3.830  1.00 20.00     0.171 A 
HETATM   10  C5  UNL     1     -33.549   2.636   4.879  1.00 20.00     0.201 A 
HETATM   11  O12 UNL     1     -32.452   3.555   4.747  1.00 20.00    -0.380 OA
ENDBRANCH   8   9
ENDBRANCH   6   8
BRANCH   5  12
HETATM   12  C9  UNL     1     -31.680   8.879   0.639  1.00 20.00     0.000 C 
HETATM   13  C8  UNL     1     -32.689   9.979   0.637  1.00 20.00     0.005 C 
ENDBRANCH   5  12
TORSDOF 3
ENDMDL
