MODEL 1
REMARK VINA RESULT:       0.0      0.000      0.000
REMARK  1 active torsions:
REMARK  status: ('A' for Active; 'I' for Inactive)
REMARK    1  A    between atoms: C7_7  and  N9_9 
ROOT
HETATM    1  C1  UNL     1     -32.426   9.596  -0.025  1.00 20.00     0.089 C 
HETATM    2  C7  UNL     1     -31.569   8.886   0.922  1.00 20.00     0.395 C 
HETATM    3  N8  UNL     1     -33.104  10.161  -0.779  1.00 20.00    -0.195 NA
ENDROOT
BRANCH   2   4
HETATM    4  N9  UNL     1     -32.361   8.008   1.786  1.00 20.00     0.102 N 
HETATM    5  C3  UNL     1     -31.885   6.624   1.718  1.00 20.00     0.274 C 
HETATM    6  C2  UNL     1     -33.058   5.636   1.659  1.00 20.00     0.040 C 
HETATM    7  C5  UNL     1     -33.815   5.387   2.960  1.00 20.00     0.075 C 
HETATM    8  S10 UNL     1     -34.568   6.862   3.707  1.00 20.00    -0.167 SA
HETATM    9  C6  UNL     1     -33.046   7.697   4.237  1.00 20.00     0.104 C 
HETATM   10  C4  UNL     1     -32.406   8.559   3.147  1.00 20.00     0.283 C 
ENDBRANCH   2   4
TORSDOF 1
ENDMDL
MODEL 2
REMARK VINA RESULT:       0.3      2.712      4.763
REMARK  1 active torsions:
REMARK  status: ('A' for Active; 'I' for Inactive)
REMARK    1  A    between atoms: C7_7  and  N9_9 
ROOT
HETATM    1  C1  UNL     1     -33.598   3.529   4.521  1.00 20.00     0.089 C 
HETATM    2  C7  UNL     1     -34.525   4.564   4.070  1.00 20.00     0.395 C 
HETATM    3  N8  UNL     1     -32.864   2.705   4.880  1.00 20.00    -0.195 NA
ENDROOT
BRANCH   2   4
HETATM    4  N9  UNL     1     -33.800   5.707   3.511  1.00 20.00     0.102 N 
HETATM    5  C3  UNL     1     -33.661   5.590   2.056  1.00 20.00     0.274 C 
HETATM    6  C2  UNL     1     -32.255   6.001   1.600  1.00 20.00     0.040 C 
HETATM    7  C5  UNL     1     -31.947   7.495   1.580  1.00 20.00     0.075 C 
HETATM    8  S10 UNL     1     -32.111   8.337   3.182  1.00 20.00    -0.167 SA
HETATM    9  C6  UNL     1     -33.919   8.262   3.335  1.00 20.00     0.104 C 
HETATM   10  C4  UNL     1     -34.430   6.959   3.951  1.00 20.00     0.283 C 
ENDBRANCH   2   4
TORSDOF 1
ENDMDL
MODEL 3
REMARK VINA RESULT:       0.3      1.244      2.213
REMARK  1 active torsions:
REMARK  status: ('A' for Active; 'I' for Inactive)
REMARK    1  A    between atoms: C7_7  and  N9_9 
ROOT
HETATM    1  C1  UNL     1     -32.068   9.196   0.786  1.00 20.00     0.089 C 
HETATM    2  C7  UNL     1     -31.477   8.448   1.892  1.00 20.00     0.395 C 
HETATM    3  N8  UNL     1     -32.535   9.793  -0.093  1.00 20.00    -0.195 NA
ENDROOT
BRANCH   2   4
HETATM    4  N9  UNL     1     -32.420   7.456   2.415  1.00 20.00     0.102 N 
HETATM    5  C3  UNL     1     -33.703   8.074   2.763  1.00 20.00     0.274 C 
HETATM    6  C2  UNL     1     -34.240   7.524   4.091  1.00 20.00     0.040 C 
HETATM    7  C5  UNL     1     -34.841   6.123   4.064  1.00 20.00     0.075 C 
HETATM    8  S10 UNL     1     -33.711   4.811   3.514  1.00 20.00    -0.167 SA
HETATM    9  C6  UNL     1     -33.599   5.275   1.763  1.00 20.00     0.104 C 
HETATM   10  C4  UNL     1     -32.533   6.334   1.475  1.00 20.00     0.283 C 
ENDBRANCH   2   4
TORSDOF 1
ENDMDL
MODEL 4
REMARK VINA RESULT:       2.0      2.548      4.762
REMARK  1 active torsions:
REMARK  status: ('A' for Active; 'I' for Inactive)
REMARK    1  A    between atoms: C7_7  and  N9_9 
ROOT
HETATM    1  C1  UNL     1     -34.564   4.686   4.230  1.00 20.00     0.089 C 
HETATM    2  C7  UNL     1     -35.023   6.013   3.824  1.00 20.00     0.395 C 
HETATM    3  N8  UNL     1     -34.204   3.631   4.553  1.00 20.00    -0.195 NA
ENDROOT
BRANCH   2   4
HETATM    4  N9  UNL     1     -33.929   6.782   3.226  1.00 20.00     0.102 N 
HETATM    5  C3  UNL     1     -32.964   7.213   4.241  1.00 20.00     0.274 C 
HETATM    6  C2  UNL     1     -32.518   8.662   4.002  1.00 20.00     0.040 C 
HETATM    7  C5  UNL     1     -31.533   8.900   2.862  1.00 20.00     0.075 C 
HETATM    8  S10 UNL     1     -32.115   8.383   1.221  1.00 20.00    -0.167 SA
HETATM    9  C6  UNL     1     -32.065   6.586   1.477  1.00 20.00     0.104 C 
HETATM   10  C4  UNL     1     -33.334   6.021   2.120  1.00 20.00     0.283 C 
ENDBRANCH   2   4
TORSDOF 1
ENDMDL
