MODEL 1
REMARK VINA RESULT:      -2.5      0.000      0.000
REMARK  3 active torsions:
REMARK  status: ('A' for Active; 'I' for Inactive)
REMARK    1  A    between atoms: C3_3  and  C4_4 
REMARK    2  A    between atoms: C3_3  and  C5_5 
REMARK    3  A    between atoms: C4_4  and  N6_6 
ROOT
HETATM    1  C3  UNL     1     -33.926   7.321   2.586  1.00 20.00     0.152 C 
ENDROOT
BRANCH   1   2
HETATM    2  C4  UNL     1     -32.552   6.721   2.247  1.00 20.00     0.224 C 
HETATM    3  C1  UNL     1     -32.685   5.662   1.153  1.00 20.00     0.043 C 
BRANCH   2   4
HETATM    4  N6  UNL     1     -31.619   7.750   1.791  1.00 20.00     0.083 N 
HETATM    5  C2  UNL     1     -32.324   8.802   1.073  1.00 20.00     0.307 C 
HETATM    6  H19 UNL     1     -31.146   8.149   2.599  1.00 20.00     0.315 HD
ENDBRANCH   2   4
ENDBRANCH   1   2
BRANCH   1   7
HETATM    7  C5  UNL     1     -34.619   6.654   3.760  1.00 20.00     0.389 C 
HETATM    8  F7  UNL     1     -35.942   6.508   3.548  1.00 20.00    -0.171 F 
HETATM    9  F8  UNL     1     -34.466   7.399   4.878  1.00 20.00    -0.171 F 
HETATM   10  F9  UNL     1     -34.097   5.434   4.008  1.00 20.00    -0.171 F 
ENDBRANCH   1   7
TORSDOF 3
ENDMDL
MODEL 2
REMARK VINA RESULT:      -2.5      0.021      1.257
REMARK  3 active torsions:
REMARK  status: ('A' for Active; 'I' for Inactive)
REMARK    1  A    between atoms: C3_3  and  C4_4 
REMARK    2  A    between atoms: C3_3  and  C5_5 
REMARK    3  A    between atoms: C4_4  and  N6_6 
ROOT
HETATM    1  C3  UNL     1     -33.926   7.332   2.600  1.00 20.00     0.152 C 
ENDROOT
BRANCH   1   2
HETATM    2  C4  UNL     1     -32.553   6.733   2.257  1.00 20.00     0.224 C 
HETATM    3  C1  UNL     1     -32.690   5.671   1.166  1.00 20.00     0.043 C 
BRANCH   2   4
HETATM    4  N6  UNL     1     -31.623   7.762   1.793  1.00 20.00     0.083 N 
HETATM    5  C2  UNL     1     -32.331   8.803   1.063  1.00 20.00     0.307 C 
HETATM    6  H19 UNL     1     -31.156   8.171   2.599  1.00 20.00     0.315 HD
ENDBRANCH   2   4
ENDBRANCH   1   2
BRANCH   1   7
HETATM    7  C5  UNL     1     -34.615   6.663   3.775  1.00 20.00     0.389 C 
HETATM    8  F7  UNL     1     -34.123   5.430   4.013  1.00 20.00    -0.171 F 
HETATM    9  F8  UNL     1     -35.938   6.531   3.530  1.00 20.00    -0.171 F 
HETATM   10  F9  UNL     1     -34.480   7.393   4.903  1.00 20.00    -0.171 F 
ENDBRANCH   1   7
TORSDOF 3
ENDMDL
MODEL 3
REMARK VINA RESULT:      -2.4      3.565      4.346
REMARK  3 active torsions:
REMARK  status: ('A' for Active; 'I' for Inactive)
REMARK    1  A    between atoms: C3_3  and  C4_4 
REMARK    2  A    between atoms: C3_3  and  C5_5 
REMARK    3  A    between atoms: C4_4  and  N6_6 
ROOT
HETATM    1  C3  UNL     1     -31.807   8.864   1.079  1.00 20.00     0.152 C 
ENDROOT
BRANCH   1   2
HETATM    2  C4  UNL     1     -32.735   7.827   1.733  1.00 20.00     0.224 C 
HETATM    3  C1  UNL     1     -32.248   6.410   1.433  1.00 20.00     0.043 C 
BRANCH   2   4
HETATM    4  N6  UNL     1     -32.794   8.004   3.183  1.00 20.00     0.083 N 
HETATM    5  C2  UNL     1     -33.972   7.351   3.734  1.00 20.00     0.307 C 
HETATM    6  H19 UNL     1     -31.957   7.601   3.599  1.00 20.00     0.315 HD
ENDBRANCH   2   4
ENDBRANCH   1   2
BRANCH   1   7
HETATM    7  C5  UNL     1     -32.538   9.935   0.291  1.00 20.00     0.389 C 
HETATM    8  F7  UNL     1     -31.728  10.965  -0.031  1.00 20.00    -0.171 F 
HETATM    9  F8  UNL     1     -33.562  10.436   1.017  1.00 20.00    -0.171 F 
HETATM   10  F9  UNL     1     -33.055   9.435  -0.852  1.00 20.00    -0.171 F 
ENDBRANCH   1   7
TORSDOF 3
ENDMDL
MODEL 4
REMARK VINA RESULT:      -2.2      2.888      3.934
REMARK  3 active torsions:
REMARK  status: ('A' for Active; 'I' for Inactive)
REMARK    1  A    between atoms: C3_3  and  C4_4 
REMARK    2  A    between atoms: C3_3  and  C5_5 
REMARK    3  A    between atoms: C4_4  and  N6_6 
ROOT
HETATM    1  C3  UNL     1     -33.262   6.849   1.927  1.00 20.00     0.152 C 
ENDROOT
BRANCH   1   2
HETATM    2  C4  UNL     1     -33.573   6.243   3.304  1.00 20.00     0.224 C 
HETATM    3  C1  UNL     1     -34.935   6.724   3.805  1.00 20.00     0.043 C 
BRANCH   2   4
HETATM    4  N6  UNL     1     -33.584   4.781   3.253  1.00 20.00     0.083 N 
HETATM    5  C2  UNL     1     -34.246   4.230   4.426  1.00 20.00     0.307 C 
HETATM    6  H19 UNL     1     -34.078   4.484   2.414  1.00 20.00     0.315 HD
ENDBRANCH   2   4
ENDBRANCH   1   2
BRANCH   1   7
HETATM    7  C5  UNL     1     -32.158   7.891   1.946  1.00 20.00     0.389 C 
HETATM    8  F7  UNL     1     -32.469   8.969   1.199  1.00 20.00    -0.171 F 
HETATM    9  F8  UNL     1     -31.014   7.370   1.450  1.00 20.00    -0.171 F 
HETATM   10  F9  UNL     1     -31.904   8.311   3.203  1.00 20.00    -0.171 F 
ENDBRANCH   1   7
TORSDOF 3
ENDMDL
MODEL 5
REMARK VINA RESULT:      -2.2      2.878      3.940
REMARK  3 active torsions:
REMARK  status: ('A' for Active; 'I' for Inactive)
REMARK    1  A    between atoms: C3_3  and  C4_4 
REMARK    2  A    between atoms: C3_3  and  C5_5 
REMARK    3  A    between atoms: C4_4  and  N6_6 
ROOT
HETATM    1  C3  UNL     1     -33.286   6.862   1.923  1.00 20.00     0.152 C 
ENDROOT
BRANCH   1   2
HETATM    2  C4  UNL     1     -33.590   6.206   3.279  1.00 20.00     0.224 C 
HETATM    3  C1  UNL     1     -34.974   6.623   3.777  1.00 20.00     0.043 C 
BRANCH   2   4
HETATM    4  N6  UNL     1     -33.546   4.747   3.188  1.00 20.00     0.083 N 
HETATM    5  C2  UNL     1     -34.126   4.140   4.376  1.00 20.00     0.307 C 
HETATM    6  H19 UNL     1     -34.069   4.453   2.366  1.00 20.00     0.315 HD
ENDBRANCH   2   4
ENDBRANCH   1   2
BRANCH   1   7
HETATM    7  C5  UNL     1     -32.174   7.894   1.971  1.00 20.00     0.389 C 
HETATM    8  F7  UNL     1     -31.010   7.403   1.499  1.00 20.00    -0.171 F 
HETATM    9  F8  UNL     1     -31.961   8.293   3.245  1.00 20.00    -0.171 F 
HETATM   10  F9  UNL     1     -32.491   8.989   1.248  1.00 20.00    -0.171 F 
ENDBRANCH   1   7
TORSDOF 3
ENDMDL
MODEL 6
REMARK VINA RESULT:      -2.1      2.899      3.918
REMARK  3 active torsions:
REMARK  status: ('A' for Active; 'I' for Inactive)
REMARK    1  A    between atoms: C3_3  and  C4_4 
REMARK    2  A    between atoms: C3_3  and  C5_5 
REMARK    3  A    between atoms: C4_4  and  N6_6 
ROOT
HETATM    1  C3  UNL     1     -33.211   6.834   1.906  1.00 20.00     0.152 C 
ENDROOT
BRANCH   1   2
HETATM    2  C4  UNL     1     -33.540   6.235   3.283  1.00 20.00     0.224 C 
HETATM    3  C1  UNL     1     -34.888   6.754   3.783  1.00 20.00     0.043 C 
BRANCH   2   4
HETATM    4  N6  UNL     1     -33.591   4.775   3.230  1.00 20.00     0.083 N 
HETATM    5  C2  UNL     1     -34.227   4.239   4.425  1.00 20.00     0.307 C 
HETATM    6  H19 UNL     1     -34.121   4.493   2.408  1.00 20.00     0.315 HD
ENDBRANCH   2   4
ENDBRANCH   1   2
BRANCH   1   7
HETATM    7  C5  UNL     1     -32.134   7.903   1.939  1.00 20.00     0.389 C 
HETATM    8  F7  UNL     1     -31.866   8.311   3.196  1.00 20.00    -0.171 F 
HETATM    9  F8  UNL     1     -32.529   8.987   1.235  1.00 20.00    -0.171 F 
HETATM   10  F9  UNL     1     -30.984   7.456   1.389  1.00 20.00    -0.171 F 
ENDBRANCH   1   7
TORSDOF 3
ENDMDL
MODEL 7
REMARK VINA RESULT:      -2.0      1.323      2.193
REMARK  3 active torsions:
REMARK  status: ('A' for Active; 'I' for Inactive)
REMARK    1  A    between atoms: C3_3  and  C4_4 
REMARK    2  A    between atoms: C3_3  and  C5_5 
REMARK    3  A    between atoms: C4_4  and  N6_6 
ROOT
HETATM    1  C3  UNL     1     -33.743   5.903   3.259  1.00 20.00     0.152 C 
ENDROOT
BRANCH   1   2
HETATM    2  C4  UNL     1     -33.386   6.647   1.962  1.00 20.00     0.224 C 
HETATM    3  C1  UNL     1     -32.287   7.677   2.222  1.00 20.00     0.043 C 
BRANCH   2   4
HETATM    4  N6  UNL     1     -32.924   5.722   0.928  1.00 20.00     0.083 N 
HETATM    5  C2  UNL     1     -31.667   5.101   1.316  1.00 20.00     0.307 C 
HETATM    6  H19 UNL     1     -33.631   5.002   0.790  1.00 20.00     0.315 HD
ENDBRANCH   2   4
ENDBRANCH   1   2
BRANCH   1   7
HETATM    7  C5  UNL     1     -34.981   6.436   3.956  1.00 20.00     0.389 C 
HETATM    8  F7  UNL     1     -35.538   5.515   4.769  1.00 20.00    -0.171 F 
HETATM    9  F8  UNL     1     -35.914   6.792   3.046  1.00 20.00    -0.171 F 
HETATM   10  F9  UNL     1     -34.694   7.528   4.695  1.00 20.00    -0.171 F 
ENDBRANCH   1   7
TORSDOF 3
ENDMDL
MODEL 8
REMARK VINA RESULT:      -2.0      1.118      1.557
REMARK  3 active torsions:
REMARK  status: ('A' for Active; 'I' for Inactive)
REMARK    1  A    between atoms: C3_3  and  C4_4 
REMARK    2  A    between atoms: C3_3  and  C5_5 
REMARK    3  A    between atoms: C4_4  and  N6_6 
ROOT
HETATM    1  C3  UNL     1     -33.857   6.180   3.117  1.00 20.00     0.152 C 
ENDROOT
BRANCH   1   2
HETATM    2  C4  UNL     1     -33.250   7.567   2.850  1.00 20.00     0.224 C 
HETATM    3  C1  UNL     1     -32.661   8.149   4.133  1.00 20.00     0.043 C 
BRANCH   2   4
HETATM    4  N6  UNL     1     -32.196   7.501   1.838  1.00 20.00     0.083 N 
HETATM    5  C2  UNL     1     -32.113   8.752   1.099  1.00 20.00     0.307 C 
HETATM    6  H19 UNL     1     -31.307   7.319   2.299  1.00 20.00     0.315 HD
ENDBRANCH   2   4
ENDBRANCH   1   2
BRANCH   1   7
HETATM    7  C5  UNL     1     -35.129   6.211   3.945  1.00 20.00     0.389 C 
HETATM    8  F7  UNL     1     -36.199   6.579   3.211  1.00 20.00    -0.171 F 
HETATM    9  F8  UNL     1     -35.006   7.098   4.958  1.00 20.00    -0.171 F 
HETATM   10  F9  UNL     1     -35.389   5.003   4.489  1.00 20.00    -0.171 F 
ENDBRANCH   1   7
TORSDOF 3
ENDMDL
MODEL 9
REMARK VINA RESULT:      -1.9      2.531      3.774
REMARK  3 active torsions:
REMARK  status: ('A' for Active; 'I' for Inactive)
REMARK    1  A    between atoms: C3_3  and  C4_4 
REMARK    2  A    between atoms: C3_3  and  C5_5 
REMARK    3  A    between atoms: C4_4  and  N6_6 
ROOT
HETATM    1  C3  UNL     1     -33.230   7.175   2.375  1.00 20.00     0.152 C 
ENDROOT
BRANCH   1   2
HETATM    2  C4  UNL     1     -33.781   6.929   3.789  1.00 20.00     0.224 C 
HETATM    3  C1  UNL     1     -33.620   8.181   4.651  1.00 20.00     0.043 C 
BRANCH   2   4
HETATM    4  N6  UNL     1     -35.196   6.564   3.753  1.00 20.00     0.083 N 
HETATM    5  C2  UNL     1     -35.423   5.312   4.460  1.00 20.00     0.307 C 
HETATM    6  H19 UNL     1     -35.739   7.305   4.192  1.00 20.00     0.315 HD
ENDBRANCH   2   4
ENDBRANCH   1   2
BRANCH   1   7
HETATM    7  C5  UNL     1     -32.802   5.913   1.651  1.00 20.00     0.389 C 
HETATM    8  F7  UNL     1     -33.547   5.686   0.549  1.00 20.00    -0.171 F 
HETATM    9  F8  UNL     1     -32.938   4.839   2.460  1.00 20.00    -0.171 F 
HETATM   10  F9  UNL     1     -31.507   5.979   1.275  1.00 20.00    -0.171 F 
ENDBRANCH   1   7
TORSDOF 3
ENDMDL
