MODEL 1
REMARK VINA RESULT:       0.0      0.000      0.000
REMARK  3 active torsions:
REMARK  status: ('A' for Active; 'I' for Inactive)
REMARK    1  A    between atoms: C4_4  and  N11_11 
REMARK    2  A    between atoms: C8_8  and  C9_9 
REMARK    3  A    between atoms: C8_8  and  N11_11 
ROOT
HETATM    1  C1  UNL     1     -32.757   5.887   1.784  1.00 20.00     0.067 C 
HETATM    2  C2  UNL     1     -33.596   5.190   2.850  1.00 20.00     0.274 C 
HETATM    3  C3  UNL     1     -33.805   7.456   3.303  1.00 20.00     0.307 C 
HETATM    4  C4  UNL     1     -32.940   7.383   2.048  1.00 20.00     0.250 C 
HETATM    5  C7  UNL     1     -35.244   5.899   4.482  1.00 20.00     0.310 C 
HETATM    6  N10 UNL     1     -34.572   6.212   3.229  1.00 20.00     0.086 N 
ENDROOT
BRANCH   4   7
HETATM    7  N11 UNL     1     -31.693   8.080   2.205  1.00 20.00     0.090 N 
HETATM    8  H31 UNL     1     -30.946   7.402   2.360  1.00 20.00     0.316 HD
BRANCH   7   9
HETATM    9  C8  UNL     1     -31.384   8.873   1.023  1.00 20.00     0.274 C 
BRANCH   9  10
HETATM   10  C9  UNL     1     -32.599   9.676   0.542  1.00 20.00     0.005 C 
HETATM   11  C5  UNL     1     -32.632  11.087   1.130  1.00 20.00     0.011 C 
HETATM   12  C6  UNL     1     -32.687   9.726  -0.983  1.00 20.00     0.011 C 
ENDBRANCH   9  10
ENDBRANCH   7   9
ENDBRANCH   4   7
TORSDOF 3
ENDMDL
MODEL 2
REMARK VINA RESULT:       0.2      2.163      5.783
REMARK  3 active torsions:
REMARK  status: ('A' for Active; 'I' for Inactive)
REMARK    1  A    between atoms: C4_4  and  N11_11 
REMARK    2  A    between atoms: C8_8  and  C9_9 
REMARK    3  A    between atoms: C8_8  and  N11_11 
ROOT
HETATM    1  C1  UNL     1     -34.233   7.497   4.420  1.00 20.00     0.067 C 
HETATM    2  C2  UNL     1     -32.958   8.060   3.802  1.00 20.00     0.274 C 
HETATM    3  C3  UNL     1     -33.483   6.200   2.517  1.00 20.00     0.307 C 
HETATM    4  C4  UNL     1     -34.610   6.304   3.539  1.00 20.00     0.250 C 
HETATM    5  C7  UNL     1     -31.734   7.692   1.740  1.00 20.00     0.310 C 
HETATM    6  N10 UNL     1     -33.017   7.585   2.420  1.00 20.00     0.086 N 
ENDROOT
BRANCH   4   7
HETATM    7  N11 UNL     1     -34.782   5.088   4.286  1.00 20.00     0.090 N 
HETATM    8  H31 UNL     1     -35.727   4.734   4.139  1.00 20.00     0.316 HD
BRANCH   7   9
HETATM    9  C8  UNL     1     -33.821   4.077   3.866  1.00 20.00     0.274 C 
BRANCH   9  10
HETATM   10  C9  UNL     1     -33.534   3.067   4.984  1.00 20.00     0.005 C 
HETATM   11  C5  UNL     1     -33.283   1.658   4.443  1.00 20.00     0.011 C 
HETATM   12  C6  UNL     1     -32.377   3.514   5.877  1.00 20.00     0.011 C 
ENDBRANCH   9  10
ENDBRANCH   7   9
ENDBRANCH   4   7
TORSDOF 3
ENDMDL
MODEL 3
REMARK VINA RESULT:       0.3      1.361      4.888
REMARK  3 active torsions:
REMARK  status: ('A' for Active; 'I' for Inactive)
REMARK    1  A    between atoms: C4_4  and  N11_11 
REMARK    2  A    between atoms: C8_8  and  C9_9 
REMARK    3  A    between atoms: C8_8  and  N11_11 
ROOT
HETATM    1  C1  UNL     1     -31.477   7.498   1.658  1.00 20.00     0.067 C 
HETATM    2  C2  UNL     1     -31.673   8.193   0.315  1.00 20.00     0.274 C 
HETATM    3  C3  UNL     1     -33.058   9.328   1.792  1.00 20.00     0.307 C 
HETATM    4  C4  UNL     1     -32.347   8.280   2.644  1.00 20.00     0.250 C 
HETATM    5  C7  UNL     1     -32.705  10.262  -0.419  1.00 20.00     0.310 C 
HETATM    6  N10 UNL     1     -32.111   9.536   0.695  1.00 20.00     0.086 N 
ENDROOT
BRANCH   4   7
HETATM    7  N11 UNL     1     -33.269   7.445   3.362  1.00 20.00     0.090 N 
HETATM    8  H31 UNL     1     -34.206   7.844   3.295  1.00 20.00     0.316 HD
BRANCH   7   9
HETATM    9  C8  UNL     1     -33.284   6.093   2.818  1.00 20.00     0.274 C 
BRANCH   9  10
HETATM   10  C9  UNL     1     -34.423   5.254   3.409  1.00 20.00     0.005 C 
HETATM   11  C5  UNL     1     -33.909   4.039   4.182  1.00 20.00     0.011 C 
HETATM   12  C6  UNL     1     -35.359   6.091   4.282  1.00 20.00     0.011 C 
ENDBRANCH   9  10
ENDBRANCH   7   9
ENDBRANCH   4   7
TORSDOF 3
ENDMDL
MODEL 4
REMARK VINA RESULT:       0.5      1.006      1.936
REMARK  3 active torsions:
REMARK  status: ('A' for Active; 'I' for Inactive)
REMARK    1  A    between atoms: C4_4  and  N11_11 
REMARK    2  A    between atoms: C8_8  and  C9_9 
REMARK    3  A    between atoms: C8_8  and  N11_11 
ROOT
HETATM    1  C1  UNL     1     -34.372   7.518   3.645  1.00 20.00     0.067 C 
HETATM    2  C2  UNL     1     -34.972   6.177   4.051  1.00 20.00     0.274 C 
HETATM    3  C3  UNL     1     -33.060   5.645   2.849  1.00 20.00     0.307 C 
HETATM    4  C4  UNL     1     -33.082   7.170   2.901  1.00 20.00     0.250 C 
HETATM    5  C7  UNL     1     -34.205   3.875   4.049  1.00 20.00     0.310 C 
HETATM    6  N10 UNL     1     -33.817   5.279   4.047  1.00 20.00     0.086 N 
ENDROOT
BRANCH   4   7
HETATM    7  N11 UNL     1     -33.013   7.760   1.592  1.00 20.00     0.090 N 
HETATM    8  H31 UNL     1     -33.837   8.342   1.443  1.00 20.00     0.316 HD
BRANCH   7   9
HETATM    9  C8  UNL     1     -31.816   8.578   1.450  1.00 20.00     0.274 C 
BRANCH   9  10
HETATM   10  C9  UNL     1     -32.014   9.702   0.425  1.00 20.00     0.005 C 
HETATM   11  C5  UNL     1     -32.616   9.194  -0.885  1.00 20.00     0.011 C 
HETATM   12  C6  UNL     1     -32.846  10.853   0.990  1.00 20.00     0.011 C 
ENDBRANCH   9  10
ENDBRANCH   7   9
ENDBRANCH   4   7
TORSDOF 3
ENDMDL
MODEL 5
REMARK VINA RESULT:       0.5      0.488      1.175
REMARK  3 active torsions:
REMARK  status: ('A' for Active; 'I' for Inactive)
REMARK    1  A    between atoms: C4_4  and  N11_11 
REMARK    2  A    between atoms: C8_8  and  C9_9 
REMARK    3  A    between atoms: C8_8  and  N11_11 
ROOT
HETATM    1  C1  UNL     1     -32.926   5.971   1.874  1.00 20.00     0.067 C 
HETATM    2  C2  UNL     1     -33.538   5.046   2.920  1.00 20.00     0.274 C 
HETATM    3  C3  UNL     1     -34.137   7.188   3.582  1.00 20.00     0.307 C 
HETATM    4  C4  UNL     1     -33.367   7.378   2.279  1.00 20.00     0.250 C 
HETATM    5  C7  UNL     1     -35.166   5.297   4.700  1.00 20.00     0.310 C 
HETATM    6  N10 UNL     1     -34.658   5.827   3.443  1.00 20.00     0.086 N 
ENDROOT
BRANCH   4   7
HETATM    7  N11 UNL     1     -32.266   8.290   2.425  1.00 20.00     0.090 N 
HETATM    8  H31 UNL     1     -31.626   7.933   3.135  1.00 20.00     0.316 HD
BRANCH   7   9
HETATM    9  C8  UNL     1     -31.547   8.448   1.168  1.00 20.00     0.274 C 
BRANCH   9  10
HETATM   10  C9  UNL     1     -31.967   9.724   0.428  1.00 20.00     0.005 C 
HETATM   11  C5  UNL     1     -32.675   9.424  -0.894  1.00 20.00     0.011 C 
HETATM   12  C6  UNL     1     -32.827  10.637   1.303  1.00 20.00     0.011 C 
ENDBRANCH   9  10
ENDBRANCH   7   9
ENDBRANCH   4   7
TORSDOF 3
ENDMDL
MODEL 6
REMARK VINA RESULT:       0.7      1.373      4.926
REMARK  3 active torsions:
REMARK  status: ('A' for Active; 'I' for Inactive)
REMARK    1  A    between atoms: C4_4  and  N11_11 
REMARK    2  A    between atoms: C8_8  and  C9_9 
REMARK    3  A    between atoms: C8_8  and  N11_11 
ROOT
HETATM    1  C1  UNL     1     -31.690   7.369   1.699  1.00 20.00     0.067 C 
HETATM    2  C2  UNL     1     -31.820   8.049   0.341  1.00 20.00     0.274 C 
HETATM    3  C3  UNL     1     -33.008   9.398   1.809  1.00 20.00     0.307 C 
HETATM    4  C4  UNL     1     -32.426   8.286   2.677  1.00 20.00     0.250 C 
HETATM    5  C7  UNL     1     -32.581  10.218  -0.434  1.00 20.00     0.310 C 
HETATM    6  N10 UNL     1     -32.066   9.448   0.689  1.00 20.00     0.086 N 
ENDROOT
BRANCH   4   7
HETATM    7  N11 UNL     1     -33.436   7.602   3.435  1.00 20.00     0.090 N 
HETATM    8  H31 UNL     1     -34.339   8.049   3.274  1.00 20.00     0.316 HD
BRANCH   7   9
HETATM    9  C8  UNL     1     -33.521   6.200   3.047  1.00 20.00     0.274 C 
BRANCH   9  10
HETATM   10  C9  UNL     1     -34.133   5.338   4.159  1.00 20.00     0.005 C 
HETATM   11  C5  UNL     1     -35.636   5.569   4.312  1.00 20.00     0.011 C 
HETATM   12  C6  UNL     1     -33.834   3.851   3.961  1.00 20.00     0.011 C 
ENDBRANCH   9  10
ENDBRANCH   7   9
ENDBRANCH   4   7
TORSDOF 3
ENDMDL
MODEL 7
REMARK VINA RESULT:       0.9      1.517      2.680
REMARK  3 active torsions:
REMARK  status: ('A' for Active; 'I' for Inactive)
REMARK    1  A    between atoms: C4_4  and  N11_11 
REMARK    2  A    between atoms: C8_8  and  C9_9 
REMARK    3  A    between atoms: C8_8  and  N11_11 
ROOT
HETATM    1  C1  UNL     1     -35.088   6.209   4.012  1.00 20.00     0.067 C 
HETATM    2  C2  UNL     1     -35.155   4.739   4.414  1.00 20.00     0.274 C 
HETATM    3  C3  UNL     1     -33.098   4.987   3.370  1.00 20.00     0.307 C 
HETATM    4  C4  UNL     1     -33.709   6.385   3.374  1.00 20.00     0.250 C 
HETATM    5  C7  UNL     1     -33.565   2.912   4.536  1.00 20.00     0.310 C 
HETATM    6  N10 UNL     1     -33.747   4.356   4.520  1.00 20.00     0.086 N 
ENDROOT
BRANCH   4   7
HETATM    7  N11 UNL     1     -33.770   6.957   2.057  1.00 20.00     0.090 N 
HETATM    8  H31 UNL     1     -34.045   7.937   2.129  1.00 20.00     0.316 HD
BRANCH   7   9
HETATM    9  C8  UNL     1     -32.480   6.868   1.387  1.00 20.00     0.274 C 
BRANCH   9  10
HETATM   10  C9  UNL     1     -31.708   8.191   1.461  1.00 20.00     0.005 C 
HETATM   11  C5  UNL     1     -32.345   9.284   0.601  1.00 20.00     0.011 C 
HETATM   12  C6  UNL     1     -31.532   8.673   2.901  1.00 20.00     0.011 C 
ENDBRANCH   9  10
ENDBRANCH   7   9
ENDBRANCH   4   7
TORSDOF 3
ENDMDL
MODEL 8
REMARK VINA RESULT:       1.9      1.580      5.257
REMARK  3 active torsions:
REMARK  status: ('A' for Active; 'I' for Inactive)
REMARK    1  A    between atoms: C4_4  and  N11_11 
REMARK    2  A    between atoms: C8_8  and  C9_9 
REMARK    3  A    between atoms: C8_8  and  N11_11 
ROOT
HETATM    1  C1  UNL     1     -32.706   7.525   3.052  1.00 20.00     0.067 C 
HETATM    2  C2  UNL     1     -31.925   8.654   2.389  1.00 20.00     0.274 C 
HETATM    3  C3  UNL     1     -32.844   7.444   0.635  1.00 20.00     0.307 C 
HETATM    4  C4  UNL     1     -33.358   6.760   1.899  1.00 20.00     0.250 C 
HETATM    5  C7  UNL     1     -31.798   9.578   0.149  1.00 20.00     0.310 C 
HETATM    6  N10 UNL     1     -32.593   8.810   1.097  1.00 20.00     0.086 N 
ENDROOT
BRANCH   4   7
HETATM    7  N11 UNL     1     -33.058   5.355   1.918  1.00 20.00     0.090 N 
HETATM    8  H31 UNL     1     -32.248   5.176   1.324  1.00 20.00     0.316 HD
BRANCH   7   9
HETATM    9  C8  UNL     1     -32.769   4.901   3.272  1.00 20.00     0.274 C 
BRANCH   9  10
HETATM   10  C9  UNL     1     -33.889   4.012   3.826  1.00 20.00     0.005 C 
HETATM   11  C5  UNL     1     -33.357   2.913   4.747  1.00 20.00     0.011 C 
HETATM   12  C6  UNL     1     -34.973   4.827   4.530  1.00 20.00     0.011 C 
ENDBRANCH   9  10
ENDBRANCH   7   9
ENDBRANCH   4   7
TORSDOF 3
ENDMDL
MODEL 9
REMARK VINA RESULT:       1.9      1.984      5.522
REMARK  3 active torsions:
REMARK  status: ('A' for Active; 'I' for Inactive)
REMARK    1  A    between atoms: C4_4  and  N11_11 
REMARK    2  A    between atoms: C8_8  and  C9_9 
REMARK    3  A    between atoms: C8_8  and  N11_11 
ROOT
HETATM    1  C1  UNL     1     -32.458   5.278   1.808  1.00 20.00     0.067 C 
HETATM    2  C2  UNL     1     -32.217   6.554   1.008  1.00 20.00     0.274 C 
HETATM    3  C3  UNL     1     -33.303   7.246   2.938  1.00 20.00     0.307 C 
HETATM    4  C4  UNL     1     -33.123   5.740   3.105  1.00 20.00     0.250 C 
HETATM    5  C7  UNL     1     -32.354   8.931   1.473  1.00 20.00     0.310 C 
HETATM    6  N10 UNL     1     -32.206   7.596   2.035  1.00 20.00     0.086 N 
ENDROOT
BRANCH   4   7
HETATM    7  N11 UNL     1     -34.367   5.069   3.366  1.00 20.00     0.090 N 
HETATM    8  H31 UNL     1     -34.549   4.397   2.621  1.00 20.00     0.316 HD
BRANCH   7   9
HETATM    9  C8  UNL     1     -34.324   4.368   4.643  1.00 20.00     0.274 C 
BRANCH   9  10
HETATM   10  C9  UNL     1     -33.108   3.439   4.743  1.00 20.00     0.005 C 
HETATM   11  C5  UNL     1     -32.488   3.442   6.140  1.00 20.00     0.011 C 
HETATM   12  C6  UNL     1     -33.439   2.012   4.303  1.00 20.00     0.011 C 
ENDBRANCH   9  10
ENDBRANCH   7   9
ENDBRANCH   4   7
TORSDOF 3
ENDMDL
