MODEL 1
REMARK VINA RESULT:      -1.1      0.000      0.000
REMARK  2 active torsions:
REMARK  status: ('A' for Active; 'I' for Inactive)
REMARK    1  A    between atoms: C6_6  and  C9_9 
REMARK    2  A    between atoms: C7_7  and  N10_10 
ROOT
HETATM    1  C1  UNL     1     -32.223   8.921   1.188  1.00 20.00     0.158 C 
HETATM    2  N10 UNL     1     -32.063   8.132   2.041  1.00 20.00    -0.270 NA
HETATM    3  S11 UNL     1     -32.409  10.007   0.039  1.00 20.00    -0.055 SA
ENDROOT
BRANCH   2   4
HETATM    4  C7  UNL     1     -33.166   7.178   2.206  1.00 20.00     0.109 C 
HETATM    5  C4  UNL     1     -33.726   7.299   3.622  1.00 20.00     0.028 C 
HETATM    6  C2  UNL     1     -34.803   6.248   3.888  1.00 20.00     0.007 C 
HETATM    7  C6  UNL     1     -34.333   4.816   3.593  1.00 20.00    -0.015 C 
HETATM    8  C3  UNL     1     -33.735   4.718   2.181  1.00 20.00     0.007 C 
HETATM    9  C5  UNL     1     -32.659   5.767   1.912  1.00 20.00     0.028 C 
BRANCH   7  10
HETATM   10  C9  UNL     1     -33.354   4.312   4.657  1.00 20.00     0.000 C 
HETATM   11  C8  UNL     1     -33.242   2.823   4.641  1.00 20.00     0.005 C 
ENDBRANCH   7  10
ENDBRANCH   2   4
TORSDOF 2
ENDMDL
MODEL 2
REMARK VINA RESULT:      -0.3      3.058      5.072
REMARK  2 active torsions:
REMARK  status: ('A' for Active; 'I' for Inactive)
REMARK    1  A    between atoms: C6_6  and  C9_9 
REMARK    2  A    between atoms: C7_7  and  N10_10 
ROOT
HETATM    1  C1  UNL     1     -33.860   4.201   3.971  1.00 20.00     0.158 C 
HETATM    2  N10 UNL     1     -34.161   5.220   3.476  1.00 20.00    -0.270 NA
HETATM    3  S11 UNL     1     -33.487   2.808   4.646  1.00 20.00    -0.055 SA
ENDROOT
BRANCH   2   4
HETATM    4  C7  UNL     1     -33.032   6.096   3.145  1.00 20.00     0.109 C 
HETATM    5  C4  UNL     1     -33.380   7.532   3.532  1.00 20.00     0.028 C 
HETATM    6  C2  UNL     1     -32.284   8.508   3.105  1.00 20.00     0.007 C 
HETATM    7  C6  UNL     1     -31.930   8.400   1.614  1.00 20.00    -0.015 C 
HETATM    8  C3  UNL     1     -31.621   6.945   1.231  1.00 20.00     0.007 C 
HETATM    9  C5  UNL     1     -32.714   5.968   1.656  1.00 20.00     0.028 C 
BRANCH   7  10
HETATM   10  C9  UNL     1     -33.026   8.997   0.729  1.00 20.00     0.000 C 
HETATM   11  C8  UNL     1     -32.500  10.098  -0.134  1.00 20.00     0.005 C 
ENDBRANCH   7  10
ENDBRANCH   2   4
TORSDOF 2
ENDMDL
MODEL 3
REMARK VINA RESULT:       0.9      1.647      2.538
REMARK  2 active torsions:
REMARK  status: ('A' for Active; 'I' for Inactive)
REMARK    1  A    between atoms: C6_6  and  C9_9 
REMARK    2  A    between atoms: C7_7  and  N10_10 
ROOT
HETATM    1  C1  UNL     1     -32.240   9.363   0.307  1.00 20.00     0.158 C 
HETATM    2  N10 UNL     1     -31.811   8.272   0.320  1.00 20.00    -0.270 NA
HETATM    3  S11 UNL     1     -32.813  10.848   0.255  1.00 20.00    -0.055 SA
ENDROOT
BRANCH   2   4
HETATM    4  C7  UNL     1     -31.883   7.601   1.623  1.00 20.00     0.109 C 
HETATM    5  C4  UNL     1     -32.697   6.316   1.481  1.00 20.00     0.028 C 
HETATM    6  C2  UNL     1     -32.902   5.633   2.833  1.00 20.00     0.007 C 
HETATM    7  C6  UNL     1     -33.508   6.565   3.893  1.00 20.00    -0.015 C 
HETATM    8  C3  UNL     1     -32.704   7.870   3.996  1.00 20.00     0.007 C 
HETATM    9  C5  UNL     1     -32.497   8.555   2.646  1.00 20.00     0.028 C 
BRANCH   7  10
HETATM   10  C9  UNL     1     -34.991   6.835   3.625  1.00 20.00     0.000 C 
HETATM   11  C8  UNL     1     -35.853   5.724   4.129  1.00 20.00     0.005 C 
ENDBRANCH   7  10
ENDBRANCH   2   4
TORSDOF 2
ENDMDL
MODEL 4
REMARK VINA RESULT:       1.6      3.504      4.881
REMARK  2 active torsions:
REMARK  status: ('A' for Active; 'I' for Inactive)
REMARK    1  A    between atoms: C6_6  and  C9_9 
REMARK    2  A    between atoms: C7_7  and  N10_10 
ROOT
HETATM    1  C1  UNL     1     -33.079   3.180   5.103  1.00 20.00     0.158 C 
HETATM    2  N10 UNL     1     -33.626   3.047   4.075  1.00 20.00    -0.270 NA
HETATM    3  S11 UNL     1     -32.329   3.324   6.501  1.00 20.00    -0.055 SA
ENDROOT
BRANCH   2   4
HETATM    4  C7  UNL     1     -34.144   4.291   3.493  1.00 20.00     0.109 C 
HETATM    5  C4  UNL     1     -32.972   5.176   3.074  1.00 20.00     0.028 C 
HETATM    6  C2  UNL     1     -33.451   6.535   2.566  1.00 20.00     0.007 C 
HETATM    7  C6  UNL     1     -34.372   7.259   3.559  1.00 20.00    -0.015 C 
HETATM    8  C3  UNL     1     -35.524   6.344   4.003  1.00 20.00     0.007 C 
HETATM    9  C5  UNL     1     -35.047   4.985   4.511  1.00 20.00     0.028 C 
BRANCH   7  10
HETATM   10  C9  UNL     1     -33.591   7.805   4.758  1.00 20.00     0.000 C 
HETATM   11  C8  UNL     1     -32.372   8.553   4.327  1.00 20.00     0.005 C 
ENDBRANCH   7  10
ENDBRANCH   2   4
TORSDOF 2
ENDMDL
MODEL 5
REMARK VINA RESULT:       1.6      3.225      4.808
REMARK  2 active torsions:
REMARK  status: ('A' for Active; 'I' for Inactive)
REMARK    1  A    between atoms: C6_6  and  C9_9 
REMARK    2  A    between atoms: C7_7  and  N10_10 
ROOT
HETATM    1  C1  UNL     1     -34.015   3.914   4.527  1.00 20.00     0.158 C 
HETATM    2  N10 UNL     1     -34.799   4.784   4.471  1.00 20.00    -0.270 NA
HETATM    3  S11 UNL     1     -32.967   2.719   4.633  1.00 20.00    -0.055 SA
ENDROOT
BRANCH   2   4
HETATM    4  C7  UNL     1     -34.577   5.738   3.378  1.00 20.00     0.109 C 
HETATM    5  C4  UNL     1     -33.375   5.283   2.552  1.00 20.00     0.028 C 
HETATM    6  C2  UNL     1     -33.026   6.300   1.466  1.00 20.00     0.007 C 
HETATM    7  C6  UNL     1     -32.823   7.721   2.015  1.00 20.00    -0.015 C 
HETATM    8  C3  UNL     1     -34.021   8.149   2.876  1.00 20.00     0.007 C 
HETATM    9  C5  UNL     1     -34.372   7.134   3.962  1.00 20.00     0.028 C 
BRANCH   7  10
HETATM   10  C9  UNL     1     -31.503   7.847   2.780  1.00 20.00     0.000 C 
HETATM   11  C8  UNL     1     -31.525   8.999   3.731  1.00 20.00     0.005 C 
ENDBRANCH   7  10
ENDBRANCH   2   4
TORSDOF 2
ENDMDL
