MODEL 1
REMARK VINA RESULT:      -0.6      0.000      0.000
REMARK  1 active torsions:
REMARK  status: ('A' for Active; 'I' for Inactive)
REMARK    1  A    between atoms: C5_5  and  N7_7 
ROOT
HETATM    1  C1  UNL     1     -32.198   8.868   0.993  1.00 20.00     0.158 C 
HETATM    2  N7  UNL     1     -32.071   7.941   1.703  1.00 20.00    -0.268 NA
HETATM    3  S9  UNL     1     -32.343  10.130   0.030  1.00 20.00    -0.055 SA
ENDROOT
BRANCH   2   4
HETATM    4  C5  UNL     1     -33.318   7.275   2.078  1.00 20.00     0.139 C 
HETATM    5  C2  UNL     1     -33.208   5.767   1.880  1.00 20.00     0.059 C 
HETATM    6  C3  UNL     1     -33.339   5.183   3.280  1.00 20.00     0.274 C 
HETATM    7  N8  UNL     1     -34.086   6.177   4.062  1.00 20.00     0.086 N 
HETATM    8  C4  UNL     1     -33.594   7.471   3.566  1.00 20.00     0.299 C 
HETATM    9  C6  UNL     1     -35.530   6.041   3.871  1.00 20.00     0.310 C 
ENDBRANCH   2   4
TORSDOF 1
ENDMDL
MODEL 2
REMARK VINA RESULT:       0.1      2.977      4.403
REMARK  1 active torsions:
REMARK  status: ('A' for Active; 'I' for Inactive)
REMARK    1  A    between atoms: C5_5  and  N7_7 
ROOT
HETATM    1  C1  UNL     1     -34.357   4.464   4.335  1.00 20.00     0.158 C 
HETATM    2  N7  UNL     1     -35.088   5.379   4.243  1.00 20.00    -0.268 NA
HETATM    3  S9  UNL     1     -33.383   3.211   4.477  1.00 20.00    -0.055 SA
ENDROOT
BRANCH   2   4
HETATM    4  C5  UNL     1     -34.623   6.455   3.370  1.00 20.00     0.139 C 
HETATM    5  C2  UNL     1     -34.280   7.700   4.181  1.00 20.00     0.059 C 
HETATM    6  C3  UNL     1     -32.782   7.891   3.981  1.00 20.00     0.274 C 
HETATM    7  N8  UNL     1     -32.461   7.240   2.704  1.00 20.00     0.086 N 
HETATM    8  C4  UNL     1     -33.324   6.050   2.678  1.00 20.00     0.299 C 
HETATM    9  C6  UNL     1     -32.725   8.122   1.567  1.00 20.00     0.310 C 
ENDBRANCH   2   4
TORSDOF 1
ENDMDL
MODEL 3
REMARK VINA RESULT:       1.0      1.028      1.746
REMARK  1 active torsions:
REMARK  status: ('A' for Active; 'I' for Inactive)
REMARK    1  A    between atoms: C5_5  and  N7_7 
ROOT
HETATM    1  C1  UNL     1     -32.045   8.874   0.849  1.00 20.00     0.158 C 
HETATM    2  N7  UNL     1     -31.488   7.848   0.982  1.00 20.00    -0.268 NA
HETATM    3  S9  UNL     1     -32.783  10.271   0.646  1.00 20.00    -0.055 SA
ENDROOT
BRANCH   2   4
HETATM    4  C5  UNL     1     -31.953   7.035   2.106  1.00 20.00     0.139 C 
HETATM    5  C2  UNL     1     -32.538   7.916   3.205  1.00 20.00     0.059 C 
HETATM    6  C3  UNL     1     -34.008   7.524   3.273  1.00 20.00     0.274 C 
HETATM    7  N8  UNL     1     -34.084   6.153   2.751  1.00 20.00     0.086 N 
HETATM    8  C4  UNL     1     -33.096   6.126   1.663  1.00 20.00     0.299 C 
HETATM    9  C6  UNL     1     -33.773   5.165   3.785  1.00 20.00     0.310 C 
ENDBRANCH   2   4
TORSDOF 1
ENDMDL
MODEL 4
REMARK VINA RESULT:       1.1      1.193      1.968
REMARK  1 active torsions:
REMARK  status: ('A' for Active; 'I' for Inactive)
REMARK    1  A    between atoms: C5_5  and  N7_7 
ROOT
HETATM    1  C1  UNL     1     -32.256   8.394   1.712  1.00 20.00     0.158 C 
HETATM    2  N7  UNL     1     -32.894   8.492   2.693  1.00 20.00    -0.268 NA
HETATM    3  S9  UNL     1     -31.394   8.287   0.376  1.00 20.00    -0.055 SA
ENDROOT
BRANCH   2   4
HETATM    4  C5  UNL     1     -33.051   7.254   3.455  1.00 20.00     0.139 C 
HETATM    5  C2  UNL     1     -34.219   7.361   4.429  1.00 20.00     0.059 C 
HETATM    6  C3  UNL     1     -35.221   6.321   3.947  1.00 20.00     0.274 C 
HETATM    7  N8  UNL     1     -34.438   5.317   3.215  1.00 20.00     0.086 N 
HETATM    8  C4  UNL     1     -33.406   6.100   2.521  1.00 20.00     0.299 C 
HETATM    9  C6  UNL     1     -33.848   4.329   4.118  1.00 20.00     0.310 C 
ENDBRANCH   2   4
TORSDOF 1
ENDMDL
MODEL 5
REMARK VINA RESULT:       1.3      2.749      4.270
REMARK  1 active torsions:
REMARK  status: ('A' for Active; 'I' for Inactive)
REMARK    1  A    between atoms: C5_5  and  N7_7 
ROOT
HETATM    1  C1  UNL     1     -34.167   5.196   3.540  1.00 20.00     0.158 C 
HETATM    2  N7  UNL     1     -33.361   5.332   2.696  1.00 20.00    -0.268 NA
HETATM    3  S9  UNL     1     -35.252   4.985   4.687  1.00 20.00    -0.055 SA
ENDROOT
BRANCH   2   4
HETATM    4  C5  UNL     1     -33.336   6.655   2.074  1.00 20.00     0.139 C 
HETATM    5  C2  UNL     1     -33.349   7.752   3.133  1.00 20.00     0.059 C 
HETATM    6  C3  UNL     1     -32.012   8.464   2.968  1.00 20.00     0.274 C 
HETATM    7  N8  UNL     1     -31.600   8.228   1.578  1.00 20.00     0.086 N 
HETATM    8  C4  UNL     1     -32.035   6.852   1.301  1.00 20.00     0.299 C 
HETATM    9  C6  UNL     1     -32.222   9.184   0.661  1.00 20.00     0.310 C 
ENDBRANCH   2   4
TORSDOF 1
ENDMDL
MODEL 6
REMARK VINA RESULT:       1.4      3.229      4.465
REMARK  1 active torsions:
REMARK  status: ('A' for Active; 'I' for Inactive)
REMARK    1  A    between atoms: C5_5  and  N7_7 
ROOT
HETATM    1  C1  UNL     1     -33.766   3.917   4.154  1.00 20.00     0.158 C 
HETATM    2  N7  UNL     1     -34.130   4.931   3.685  1.00 20.00    -0.268 NA
HETATM    3  S9  UNL     1     -33.300   2.535   4.796  1.00 20.00    -0.055 SA
ENDROOT
BRANCH   2   4
HETATM    4  C5  UNL     1     -33.064   5.794   3.179  1.00 20.00     0.139 C 
HETATM    5  C2  UNL     1     -32.726   5.447   1.733  1.00 20.00     0.059 C 
HETATM    6  C3  UNL     1     -33.101   6.692   0.939  1.00 20.00     0.274 C 
HETATM    7  N8  UNL     1     -33.028   7.810   1.888  1.00 20.00     0.086 N 
HETATM    8  C4  UNL     1     -33.530   7.247   3.150  1.00 20.00     0.299 C 
HETATM    9  C6  UNL     1     -31.660   8.311   2.028  1.00 20.00     0.310 C 
ENDBRANCH   2   4
TORSDOF 1
ENDMDL
MODEL 7
REMARK VINA RESULT:       1.8      1.534      2.278
REMARK  1 active torsions:
REMARK  status: ('A' for Active; 'I' for Inactive)
REMARK    1  A    between atoms: C5_5  and  N7_7 
ROOT
HETATM    1  C1  UNL     1     -32.467   9.621   0.889  1.00 20.00     0.158 C 
HETATM    2  N7  UNL     1     -32.373   9.349   2.028  1.00 20.00    -0.268 NA
HETATM    3  S9  UNL     1     -32.599  10.016  -0.649  1.00 20.00    -0.055 SA
ENDROOT
BRANCH   2   4
HETATM    4  C5  UNL     1     -32.061   7.947   2.304  1.00 20.00     0.139 C 
HETATM    5  C2  UNL     1     -33.034   7.367   3.325  1.00 20.00     0.059 C 
HETATM    6  C3  UNL     1     -33.788   6.282   2.568  1.00 20.00     0.274 C 
HETATM    7  N8  UNL     1     -32.900   5.863   1.476  1.00 20.00     0.086 N 
HETATM    8  C4  UNL     1     -32.247   7.106   1.043  1.00 20.00     0.299 C 
HETATM    9  C6  UNL     1     -31.923   4.870   1.926  1.00 20.00     0.310 C 
ENDBRANCH   2   4
TORSDOF 1
ENDMDL
MODEL 8
REMARK VINA RESULT:       2.1      2.451      4.422
REMARK  1 active torsions:
REMARK  status: ('A' for Active; 'I' for Inactive)
REMARK    1  A    between atoms: C5_5  and  N7_7 
ROOT
HETATM    1  C1  UNL     1     -33.224   6.897   2.633  1.00 20.00     0.158 C 
HETATM    2  N7  UNL     1     -32.366   6.998   1.837  1.00 20.00    -0.268 NA
HETATM    3  S9  UNL     1     -34.386   6.731   3.710  1.00 20.00    -0.055 SA
ENDROOT
BRANCH   2   4
HETATM    4  C5  UNL     1     -31.937   8.369   1.563  1.00 20.00     0.139 C 
HETATM    5  C2  UNL     1     -31.396   8.495   0.143  1.00 20.00     0.059 C 
HETATM    6  C3  UNL     1     -32.361   9.443  -0.556  1.00 20.00     0.274 C 
HETATM    7  N8  UNL     1     -32.967  10.256   0.508  1.00 20.00     0.086 N 
HETATM    8  C4  UNL     1     -33.130   9.319   1.629  1.00 20.00     0.299 C 
HETATM    9  C6  UNL     1     -32.117  11.389   0.872  1.00 20.00     0.310 C 
ENDBRANCH   2   4
TORSDOF 1
ENDMDL
MODEL 9
REMARK VINA RESULT:       2.2      2.538      4.380
REMARK  1 active torsions:
REMARK  status: ('A' for Active; 'I' for Inactive)
REMARK    1  A    between atoms: C5_5  and  N7_7 
ROOT
HETATM    1  C1  UNL     1     -33.809   6.455   3.062  1.00 20.00     0.158 C 
HETATM    2  N7  UNL     1     -32.889   6.638   2.355  1.00 20.00    -0.268 NA
HETATM    3  S9  UNL     1     -35.054   6.180   4.018  1.00 20.00    -0.055 SA
ENDROOT
BRANCH   2   4
HETATM    4  C5  UNL     1     -32.591   8.043   2.081  1.00 20.00     0.139 C 
HETATM    5  C2  UNL     1     -31.108   8.234   1.782  1.00 20.00     0.059 C 
HETATM    6  C3  UNL     1     -31.063   8.708   0.336  1.00 20.00     0.274 C 
HETATM    7  N8  UNL     1     -32.366   9.335   0.077  1.00 20.00     0.086 N 
HETATM    8  C4  UNL     1     -33.321   8.502   0.821  1.00 20.00     0.299 C 
HETATM    9  C6  UNL     1     -32.396  10.725   0.533  1.00 20.00     0.310 C 
ENDBRANCH   2   4
TORSDOF 1
ENDMDL
