MODEL 1
REMARK VINA RESULT:      -1.5      0.000      0.000
REMARK  2 active torsions:
REMARK  status: ('A' for Active; 'I' for Inactive)
REMARK    1  A    between atoms: C6_6  and  C7_7 
REMARK    2  A    between atoms: C7_7  and  N8_8 
ROOT
HETATM    1  C1  UNL     1     -32.289   8.882   1.173  1.00 20.00     0.157 C 
HETATM    2  N8  UNL     1     -32.180   8.146   2.084  1.00 20.00    -0.273 NA
HETATM    3  S10 UNL     1     -32.434   9.897  -0.046  1.00 20.00    -0.055 SA
ENDROOT
BRANCH   2   4
HETATM    4  C7  UNL     1     -32.180   6.727   1.738  1.00 20.00     0.182 C 
BRANCH   4   5
HETATM    5  C6  UNL     1     -33.415   6.075   2.344  1.00 20.00     0.141 C 
HETATM    6  C4  UNL     1     -34.134   7.036   3.294  1.00 20.00     0.034 C 
HETATM    7  C2  UNL     1     -35.303   6.337   3.983  1.00 20.00     0.005 C 
HETATM    8  C3  UNL     1     -34.846   5.027   4.616  1.00 20.00     0.026 C 
HETATM    9  C5  UNL     1     -34.087   4.178   3.606  1.00 20.00     0.168 C 
HETATM   10  O9  UNL     1     -32.989   4.906   3.054  1.00 20.00    -0.384 OA
ENDBRANCH   4   5
ENDBRANCH   2   4
TORSDOF 2
ENDMDL
MODEL 2
REMARK VINA RESULT:      -1.2      3.224      4.476
REMARK  2 active torsions:
REMARK  status: ('A' for Active; 'I' for Inactive)
REMARK    1  A    between atoms: C6_6  and  C7_7 
REMARK    2  A    between atoms: C7_7  and  N8_8 
ROOT
HETATM    1  C1  UNL     1     -34.411   4.171   4.558  1.00 20.00     0.157 C 
HETATM    2  N8  UNL     1     -35.300   4.930   4.700  1.00 20.00    -0.273 NA
HETATM    3  S10 UNL     1     -33.218   3.131   4.384  1.00 20.00    -0.055 SA
ENDROOT
BRANCH   2   4
HETATM    4  C7  UNL     1     -35.311   6.051   3.763  1.00 20.00     0.182 C 
BRANCH   4   5
HETATM    5  C6  UNL     1     -33.875   6.411   3.412  1.00 20.00     0.141 C 
HETATM    6  C4  UNL     1     -33.620   7.908   3.605  1.00 20.00     0.034 C 
HETATM    7  C2  UNL     1     -32.213   8.278   3.143  1.00 20.00     0.005 C 
HETATM    8  C3  UNL     1     -31.959   7.758   1.732  1.00 20.00     0.026 C 
HETATM    9  C5  UNL     1     -32.306   6.278   1.635  1.00 20.00     0.168 C 
HETATM   10  O9  UNL     1     -33.653   6.044   2.045  1.00 20.00    -0.384 OA
ENDBRANCH   4   5
ENDBRANCH   2   4
TORSDOF 2
ENDMDL
MODEL 3
REMARK VINA RESULT:      -1.2      1.152      1.718
REMARK  2 active torsions:
REMARK  status: ('A' for Active; 'I' for Inactive)
REMARK    1  A    between atoms: C6_6  and  C7_7 
REMARK    2  A    between atoms: C7_7  and  N8_8 
ROOT
HETATM    1  C1  UNL     1     -32.154   9.223   0.773  1.00 20.00     0.157 C 
HETATM    2  N8  UNL     1     -31.758   8.517   1.628  1.00 20.00    -0.273 NA
HETATM    3  S10 UNL     1     -32.680  10.197  -0.372  1.00 20.00    -0.055 SA
ENDROOT
BRANCH   2   4
HETATM    4  C7  UNL     1     -32.115   7.108   1.482  1.00 20.00     0.182 C 
BRANCH   4   5
HETATM    5  C6  UNL     1     -32.840   6.654   2.742  1.00 20.00     0.141 C 
HETATM    6  C4  UNL     1     -33.576   5.333   2.507  1.00 20.00     0.034 C 
HETATM    7  C2  UNL     1     -34.391   4.945   3.738  1.00 20.00     0.005 C 
HETATM    8  C3  UNL     1     -35.275   6.105   4.182  1.00 20.00     0.026 C 
HETATM    9  C5  UNL     1     -34.457   7.382   4.322  1.00 20.00     0.168 C 
HETATM   10  O9  UNL     1     -33.770   7.681   3.106  1.00 20.00    -0.384 OA
ENDBRANCH   4   5
ENDBRANCH   2   4
TORSDOF 2
ENDMDL
MODEL 4
REMARK VINA RESULT:      -0.4      3.296      4.711
REMARK  2 active torsions:
REMARK  status: ('A' for Active; 'I' for Inactive)
REMARK    1  A    between atoms: C6_6  and  C7_7 
REMARK    2  A    between atoms: C7_7  and  N8_8 
ROOT
HETATM    1  C1  UNL     1     -34.266   4.091   4.445  1.00 20.00     0.157 C 
HETATM    2  N8  UNL     1     -35.099   4.855   4.118  1.00 20.00    -0.273 NA
HETATM    3  S10 UNL     1     -33.152   3.040   4.880  1.00 20.00    -0.055 SA
ENDROOT
BRANCH   2   4
HETATM    4  C7  UNL     1     -34.753   6.262   4.294  1.00 20.00     0.182 C 
BRANCH   4   5
HETATM    5  C6  UNL     1     -34.048   6.755   3.038  1.00 20.00     0.141 C 
HETATM    6  C4  UNL     1     -33.326   5.608   2.327  1.00 20.00     0.034 C 
HETATM    7  C2  UNL     1     -32.530   6.131   1.134  1.00 20.00     0.005 C 
HETATM    8  C3  UNL     1     -31.637   7.292   1.555  1.00 20.00     0.026 C 
HETATM    9  C5  UNL     1     -32.440   8.343   2.310  1.00 20.00     0.168 C 
HETATM   10  O9  UNL     1     -33.109   7.763   3.429  1.00 20.00    -0.384 OA
ENDBRANCH   4   5
ENDBRANCH   2   4
TORSDOF 2
ENDMDL
MODEL 5
REMARK VINA RESULT:       1.3      2.885      4.930
REMARK  2 active torsions:
REMARK  status: ('A' for Active; 'I' for Inactive)
REMARK    1  A    between atoms: C6_6  and  C7_7 
REMARK    2  A    between atoms: C7_7  and  N8_8 
ROOT
HETATM    1  C1  UNL     1     -34.304   6.863   3.832  1.00 20.00     0.157 C 
HETATM    2  N8  UNL     1     -33.491   7.671   3.564  1.00 20.00    -0.273 NA
HETATM    3  S10 UNL     1     -35.414   5.785   4.210  1.00 20.00    -0.055 SA
ENDROOT
BRANCH   2   4
HETATM    4  C7  UNL     1     -32.489   7.243   2.592  1.00 20.00     0.182 C 
BRANCH   4   5
HETATM    5  C6  UNL     1     -32.035   8.454   1.790  1.00 20.00     0.141 C 
HETATM    6  C4  UNL     1     -33.169   9.472   1.643  1.00 20.00     0.034 C 
HETATM    7  C2  UNL     1     -32.740  10.628   0.743  1.00 20.00     0.005 C 
HETATM    8  C3  UNL     1     -32.171  10.102  -0.570  1.00 20.00     0.026 C 
HETATM    9  C5  UNL     1     -31.101   9.051  -0.310  1.00 20.00     0.168 C 
HETATM   10  O9  UNL     1     -31.614   7.994   0.501  1.00 20.00    -0.384 OA
ENDBRANCH   4   5
ENDBRANCH   2   4
TORSDOF 2
ENDMDL
MODEL 6
REMARK VINA RESULT:       1.3      2.761      4.976
REMARK  2 active torsions:
REMARK  status: ('A' for Active; 'I' for Inactive)
REMARK    1  A    between atoms: C6_6  and  C7_7 
REMARK    2  A    between atoms: C7_7  and  N8_8 
ROOT
HETATM    1  C1  UNL     1     -33.679   6.205   2.805  1.00 20.00     0.157 C 
HETATM    2  N8  UNL     1     -32.886   5.983   1.964  1.00 20.00    -0.273 NA
HETATM    3  S10 UNL     1     -34.763   6.484   3.937  1.00 20.00    -0.055 SA
ENDROOT
BRANCH   2   4
HETATM    4  C7  UNL     1     -31.871   7.018   1.782  1.00 20.00     0.182 C 
BRANCH   4   5
HETATM    5  C6  UNL     1     -32.516   8.225   1.115  1.00 20.00     0.141 C 
HETATM    6  C4  UNL     1     -31.829   8.552  -0.212  1.00 20.00     0.034 C 
HETATM    7  C2  UNL     1     -32.407   9.830  -0.816  1.00 20.00     0.005 C 
HETATM    8  C3  UNL     1     -32.399  10.958   0.209  1.00 20.00     0.026 C 
HETATM    9  C5  UNL     1     -33.046  10.506   1.511  1.00 20.00     0.168 C 
HETATM   10  O9  UNL     1     -32.406   9.334   2.016  1.00 20.00    -0.384 OA
ENDBRANCH   4   5
ENDBRANCH   2   4
TORSDOF 2
ENDMDL
MODEL 7
REMARK VINA RESULT:       1.4      1.646      2.121
REMARK  2 active torsions:
REMARK  status: ('A' for Active; 'I' for Inactive)
REMARK    1  A    between atoms: C6_6  and  C7_7 
REMARK    2  A    between atoms: C7_7  and  N8_8 
ROOT
HETATM    1  C1  UNL     1     -32.010   7.919   2.219  1.00 20.00     0.157 C 
HETATM    2  N8  UNL     1     -32.173   7.291   1.237  1.00 20.00    -0.273 NA
HETATM    3  S10 UNL     1     -31.783   8.788   3.534  1.00 20.00    -0.055 SA
ENDROOT
BRANCH   2   4
HETATM    4  C7  UNL     1     -32.623   5.918   1.449  1.00 20.00     0.182 C 
BRANCH   4   5
HETATM    5  C6  UNL     1     -33.244   5.814   2.835  1.00 20.00     0.141 C 
HETATM    6  C4  UNL     1     -33.464   4.352   3.230  1.00 20.00     0.034 C 
HETATM    7  C2  UNL     1     -34.189   4.261   4.570  1.00 20.00     0.005 C 
HETATM    8  C3  UNL     1     -35.448   5.121   4.558  1.00 20.00     0.026 C 
HETATM    9  C5  UNL     1     -35.128   6.534   4.088  1.00 20.00     0.168 C 
HETATM   10  O9  UNL     1     -34.494   6.512   2.809  1.00 20.00    -0.384 OA
ENDBRANCH   4   5
ENDBRANCH   2   4
TORSDOF 2
ENDMDL
