MODEL 1
REMARK VINA RESULT:       1.4      0.000      0.000
REMARK  1 active torsions:
REMARK  status: ('A' for Active; 'I' for Inactive)
REMARK    1  A    between atoms: C1_1  and  O10_10 
ROOT
HETATM    1  C1  UNL     1     -33.870   7.670   3.976  1.00 20.00     0.099 C 
HETATM    2  C2  UNL     1     -34.822   6.785   3.606  1.00 20.00     0.026 C 
HETATM    3  C3  UNL     1     -32.907   7.509   2.846  1.00 20.00     0.183 C 
HETATM    4  C4  UNL     1     -34.866   5.447   4.299  1.00 20.00     0.018 C 
HETATM    5  C5  UNL     1     -34.883   6.636   2.107  1.00 20.00     0.030 C 
HETATM    6  C6  UNL     1     -33.562   4.705   3.902  1.00 20.00     0.002 C 
HETATM    7  C7  UNL     1     -33.035   5.009   2.461  1.00 20.00     0.013 C 
HETATM    8  C8  UNL     1     -33.397   6.416   1.914  1.00 20.00     0.063 C 
HETATM    9  O9  UNL     1     -31.840   8.095   2.763  1.00 20.00    -0.290 OA
ENDROOT
BRANCH   1  10
HETATM   10  O10 UNL     1     -33.389   7.911   5.230  1.00 20.00    -0.360 OA
HETATM   11  H20 UNL     1     -33.056   8.817   5.297  1.00 20.00     0.217 HD
ENDBRANCH   1  10
TORSDOF 1
ENDMDL
MODEL 2
REMARK VINA RESULT:       1.4      1.760      3.283
REMARK  1 active torsions:
REMARK  status: ('A' for Active; 'I' for Inactive)
REMARK    1  A    between atoms: C1_1  and  O10_10 
ROOT
HETATM    1  C1  UNL     1     -33.010   5.750   1.938  1.00 20.00     0.099 C 
HETATM    2  C2  UNL     1     -33.401   7.031   1.758  1.00 20.00     0.026 C 
HETATM    3  C3  UNL     1     -33.647   5.463   3.258  1.00 20.00     0.183 C 
HETATM    4  C4  UNL     1     -32.400   8.129   2.016  1.00 20.00     0.018 C 
HETATM    5  C5  UNL     1     -34.717   7.307   2.440  1.00 20.00     0.030 C 
HETATM    6  C6  UNL     1     -32.095   8.094   3.538  1.00 20.00     0.002 C 
HETATM    7  C7  UNL     1     -33.295   7.671   4.448  1.00 20.00     0.013 C 
HETATM    8  C8  UNL     1     -34.321   6.719   3.779  1.00 20.00     0.063 C 
HETATM    9  O9  UNL     1     -33.534   4.409   3.861  1.00 20.00    -0.290 OA
ENDROOT
BRANCH   1  10
HETATM   10  O10 UNL     1     -31.799   5.193   1.650  1.00 20.00    -0.360 OA
HETATM   11  H20 UNL     1     -31.451   5.546   0.819  1.00 20.00     0.217 HD
ENDBRANCH   1  10
TORSDOF 1
ENDMDL
MODEL 3
REMARK VINA RESULT:       2.5      1.519      2.453
REMARK  1 active torsions:
REMARK  status: ('A' for Active; 'I' for Inactive)
REMARK    1  A    between atoms: C1_1  and  O10_10 
ROOT
HETATM    1  C1  UNL     1     -34.007   6.756   3.087  1.00 20.00     0.099 C 
HETATM    2  C2  UNL     1     -33.815   6.751   1.749  1.00 20.00     0.026 C 
HETATM    3  C3  UNL     1     -32.966   7.744   3.500  1.00 20.00     0.183 C 
HETATM    4  C4  UNL     1     -33.064   5.597   1.137  1.00 20.00     0.018 C 
HETATM    5  C5  UNL     1     -33.287   8.077   1.264  1.00 20.00     0.030 C 
HETATM    6  C6  UNL     1     -31.610   5.687   1.673  1.00 20.00     0.002 C 
HETATM    7  C7  UNL     1     -31.080   7.137   1.921  1.00 20.00     0.013 C 
HETATM    8  C8  UNL     1     -32.171   8.180   2.283  1.00 20.00     0.063 C 
HETATM    9  O9  UNL     1     -32.731   8.053   4.657  1.00 20.00    -0.290 OA
ENDROOT
BRANCH   1  10
HETATM   10  O10 UNL     1     -34.275   5.695   3.901  1.00 20.00    -0.360 OA
HETATM   11  H20 UNL     1     -34.122   4.861   3.435  1.00 20.00     0.217 HD
ENDBRANCH   1  10
TORSDOF 1
ENDMDL
MODEL 4
REMARK VINA RESULT:       3.0      1.610      2.715
REMARK  1 active torsions:
REMARK  status: ('A' for Active; 'I' for Inactive)
REMARK    1  A    between atoms: C1_1  and  O10_10 
ROOT
HETATM    1  C1  UNL     1     -32.803   6.185   2.380  1.00 20.00     0.099 C 
HETATM    2  C2  UNL     1     -33.306   5.979   3.617  1.00 20.00     0.026 C 
HETATM    3  C3  UNL     1     -32.797   7.678   2.342  1.00 20.00     0.183 C 
HETATM    4  C4  UNL     1     -34.754   5.578   3.745  1.00 20.00     0.018 C 
HETATM    5  C5  UNL     1     -32.959   7.113   4.548  1.00 20.00     0.030 C 
HETATM    6  C6  UNL     1     -35.589   6.791   3.253  1.00 20.00     0.002 C 
HETATM    7  C7  UNL     1     -34.963   8.194   3.549  1.00 20.00     0.013 C 
HETATM    8  C8  UNL     1     -33.413   8.219   3.619  1.00 20.00     0.063 C 
HETATM    9  O9  UNL     1     -32.452   8.340   1.377  1.00 20.00    -0.290 OA
ENDROOT
BRANCH   1  10
HETATM   10  O10 UNL     1     -33.075   5.493   1.236  1.00 20.00    -0.360 OA
HETATM   11  H20 UNL     1     -32.443   4.771   1.117  1.00 20.00     0.217 HD
ENDBRANCH   1  10
TORSDOF 1
ENDMDL
MODEL 5
REMARK VINA RESULT:       3.3      2.382      3.804
REMARK  1 active torsions:
REMARK  status: ('A' for Active; 'I' for Inactive)
REMARK    1  A    between atoms: C1_1  and  O10_10 
ROOT
HETATM    1  C1  UNL     1     -32.054   8.671   0.405  1.00 20.00     0.099 C 
HETATM    2  C2  UNL     1     -31.497   7.664   1.114  1.00 20.00     0.026 C 
HETATM    3  C3  UNL     1     -32.632   9.488   1.514  1.00 20.00     0.183 C 
HETATM    4  C4  UNL     1     -32.215   6.340   1.165  1.00 20.00     0.018 C 
HETATM    5  C5  UNL     1     -31.082   8.123   2.489  1.00 20.00     0.030 C 
HETATM    6  C6  UNL     1     -33.538   6.588   1.938  1.00 20.00     0.002 C 
HETATM    7  C7  UNL     1     -33.457   7.666   3.069  1.00 20.00     0.013 C 
HETATM    8  C8  UNL     1     -32.401   8.780   2.837  1.00 20.00     0.063 C 
HETATM    9  O9  UNL     1     -33.284  10.506   1.351  1.00 20.00    -0.290 OA
ENDROOT
BRANCH   1  10
HETATM   10  O10 UNL     1     -32.724   8.593  -0.780  1.00 20.00    -0.360 OA
HETATM   11  H20 UNL     1     -33.427   9.257  -0.818  1.00 20.00     0.217 HD
ENDBRANCH   1  10
TORSDOF 1
ENDMDL
MODEL 6
REMARK VINA RESULT:       3.4      2.292      3.672
REMARK  1 active torsions:
REMARK  status: ('A' for Active; 'I' for Inactive)
REMARK    1  A    between atoms: C1_1  and  O10_10 
ROOT
HETATM    1  C1  UNL     1     -33.149   7.536   2.847  1.00 20.00     0.099 C 
HETATM    2  C2  UNL     1     -32.339   8.617   2.816  1.00 20.00     0.026 C 
HETATM    3  C3  UNL     1     -32.473   6.668   1.837  1.00 20.00     0.183 C 
HETATM    4  C4  UNL     1     -32.800   9.838   2.063  1.00 20.00     0.018 C 
HETATM    5  C5  UNL     1     -30.928   8.236   2.445  1.00 20.00     0.030 C 
HETATM    6  C6  UNL     1     -32.858   9.433   0.565  1.00 20.00     0.002 C 
HETATM    7  C7  UNL     1     -31.781   8.392   0.114  1.00 20.00     0.013 C 
HETATM    8  C8  UNL     1     -31.304   7.420   1.226  1.00 20.00     0.063 C 
HETATM    9  O9  UNL     1     -32.880   5.572   1.488  1.00 20.00    -0.290 OA
ENDROOT
BRANCH   1  10
HETATM   10  O10 UNL     1     -34.510   7.509   2.940  1.00 20.00    -0.360 OA
HETATM   11  H20 UNL     1     -34.826   8.223   3.510  1.00 20.00     0.217 HD
ENDBRANCH   1  10
TORSDOF 1
ENDMDL
MODEL 7
REMARK VINA RESULT:       3.5      1.549      2.450
REMARK  1 active torsions:
REMARK  status: ('A' for Active; 'I' for Inactive)
REMARK    1  A    between atoms: C1_1  and  O10_10 
ROOT
HETATM    1  C1  UNL     1     -31.977   7.416   1.768  1.00 20.00     0.099 C 
HETATM    2  C2  UNL     1     -33.306   7.655   1.816  1.00 20.00     0.026 C 
HETATM    3  C3  UNL     1     -31.979   5.924   1.681  1.00 20.00     0.183 C 
HETATM    4  C4  UNL     1     -33.928   7.988   3.148  1.00 20.00     0.018 C 
HETATM    5  C5  UNL     1     -34.085   6.585   1.092  1.00 20.00     0.030 C 
HETATM    6  C6  UNL     1     -33.796   6.713   4.024  1.00 20.00     0.002 C 
HETATM    7  C7  UNL     1     -33.888   5.359   3.247  1.00 20.00     0.013 C 
HETATM    8  C8  UNL     1     -33.406   5.415   1.773  1.00 20.00     0.063 C 
HETATM    9  O9  UNL     1     -30.973   5.235   1.656  1.00 20.00    -0.290 OA
ENDROOT
BRANCH   1  10
HETATM   10  O10 UNL     1     -30.985   8.038   2.468  1.00 20.00    -0.360 OA
HETATM   11  H20 UNL     1     -30.378   8.492   1.867  1.00 20.00     0.217 HD
ENDBRANCH   1  10
TORSDOF 1
ENDMDL
MODEL 8
REMARK VINA RESULT:       3.5      1.726      3.143
REMARK  1 active torsions:
REMARK  status: ('A' for Active; 'I' for Inactive)
REMARK    1  A    between atoms: C1_1  and  O10_10 
ROOT
HETATM    1  C1  UNL     1     -32.894   7.425   3.331  1.00 20.00     0.099 C 
HETATM    2  C2  UNL     1     -31.905   7.451   2.410  1.00 20.00     0.026 C 
HETATM    3  C3  UNL     1     -33.678   6.250   2.844  1.00 20.00     0.183 C 
HETATM    4  C4  UNL     1     -31.979   8.478   1.308  1.00 20.00     0.018 C 
HETATM    5  C5  UNL     1     -31.621   6.074   1.867  1.00 20.00     0.030 C 
HETATM    6  C6  UNL     1     -33.215   8.107   0.446  1.00 20.00     0.002 C 
HETATM    7  C7  UNL     1     -33.516   6.576   0.337  1.00 20.00     0.013 C 
HETATM    8  C8  UNL     1     -33.063   5.730   1.557  1.00 20.00     0.063 C 
HETATM    9  O9  UNL     1     -34.714   5.856   3.352  1.00 20.00    -0.290 OA
ENDROOT
BRANCH   1  10
HETATM   10  O10 UNL     1     -33.557   8.481   3.883  1.00 20.00    -0.360 OA
HETATM   11  H20 UNL     1     -33.371   8.541   4.831  1.00 20.00     0.217 HD
ENDBRANCH   1  10
TORSDOF 1
ENDMDL
MODEL 9
REMARK VINA RESULT:       4.1      1.633      2.809
REMARK  1 active torsions:
REMARK  status: ('A' for Active; 'I' for Inactive)
REMARK    1  A    between atoms: C1_1  and  O10_10 
ROOT
HETATM    1  C1  UNL     1     -34.324   7.821   3.919  1.00 20.00     0.099 C 
HETATM    2  C2  UNL     1     -33.023   7.459   3.877  1.00 20.00     0.026 C 
HETATM    3  C3  UNL     1     -34.970   6.527   3.545  1.00 20.00     0.183 C 
HETATM    4  C4  UNL     1     -32.202   7.867   2.680  1.00 20.00     0.018 C 
HETATM    5  C5  UNL     1     -32.847   5.996   4.197  1.00 20.00     0.030 C 
HETATM    6  C6  UNL     1     -32.790   7.102   1.465  1.00 20.00     0.002 C 
HETATM    7  C7  UNL     1     -33.359   5.680   1.784  1.00 20.00     0.013 C 
HETATM    8  C8  UNL     1     -33.899   5.500   3.227  1.00 20.00     0.063 C 
HETATM    9  O9  UNL     1     -36.173   6.373   3.410  1.00 20.00    -0.290 OA
ENDROOT
BRANCH   1  10
HETATM   10  O10 UNL     1     -34.885   8.990   3.495  1.00 20.00    -0.360 OA
HETATM   11  H20 UNL     1     -34.868   9.044   2.529  1.00 20.00     0.217 HD
ENDBRANCH   1  10
TORSDOF 1
ENDMDL
