MODEL 1
REMARK VINA RESULT:      -0.4      0.000      0.000
REMARK  1 active torsions:
REMARK  status: ('A' for Active; 'I' for Inactive)
REMARK    1  A    between atoms: C3_3  and  O8_8 
ROOT
HETATM    1  C1  UNL     1     -33.586   5.429   2.958  1.00 20.00     0.040 C 
HETATM    2  C2  UNL     1     -34.255   6.643   3.576  1.00 20.00     0.172 C 
HETATM    3  C3  UNL     1     -32.400   7.361   2.357  1.00 20.00     0.264 C 
HETATM    4  C4  UNL     1     -32.853   6.020   1.761  1.00 20.00     0.004 C 
HETATM    5  C5  UNL     1     -33.810   6.199   0.569  1.00 20.00     0.020 C 
HETATM    6  C6  UNL     1     -31.667   5.158   1.322  1.00 20.00     0.020 C 
HETATM    7  O7  UNL     1     -33.460   7.786   3.229  1.00 20.00    -0.361 OA
ENDROOT
BRANCH   3   8
HETATM    8  O8  UNL     1     -32.121   8.317   1.349  1.00 20.00    -0.371 OA
HETATM    9  H20 UNL     1     -32.743   9.049   1.481  1.00 20.00     0.212 HD
ENDBRANCH   3   8
TORSDOF 1
ENDMDL
MODEL 2
REMARK VINA RESULT:      -0.1      1.960      3.474
REMARK  1 active torsions:
REMARK  status: ('A' for Active; 'I' for Inactive)
REMARK    1  A    between atoms: C3_3  and  O8_8 
ROOT
HETATM    1  C1  UNL     1     -33.171   7.162   2.483  1.00 20.00     0.040 C 
HETATM    2  C2  UNL     1     -33.061   5.894   1.656  1.00 20.00     0.172 C 
HETATM    3  C3  UNL     1     -33.734   5.315   3.813  1.00 20.00     0.264 C 
HETATM    4  C4  UNL     1     -34.160   6.770   3.572  1.00 20.00     0.004 C 
HETATM    5  C5  UNL     1     -35.608   6.883   3.061  1.00 20.00     0.020 C 
HETATM    6  C6  UNL     1     -34.010   7.628   4.831  1.00 20.00     0.020 C 
HETATM    7  O7  UNL     1     -33.357   4.794   2.529  1.00 20.00    -0.361 OA
ENDROOT
BRANCH   3   8
HETATM    8  O8  UNL     1     -34.770   4.557   4.414  1.00 20.00    -0.371 OA
HETATM    9  H20 UNL     1     -35.590   4.791   3.952  1.00 20.00     0.212 HD
ENDBRANCH   3   8
TORSDOF 1
ENDMDL
MODEL 3
REMARK VINA RESULT:       0.2      1.609      2.583
REMARK  1 active torsions:
REMARK  status: ('A' for Active; 'I' for Inactive)
REMARK    1  A    between atoms: C3_3  and  O8_8 
ROOT
HETATM    1  C1  UNL     1     -33.764   8.275   2.957  1.00 20.00     0.040 C 
HETATM    2  C2  UNL     1     -34.041   6.982   3.701  1.00 20.00     0.172 C 
HETATM    3  C3  UNL     1     -32.935   6.467   1.713  1.00 20.00     0.264 C 
HETATM    4  C4  UNL     1     -32.570   7.912   2.083  1.00 20.00     0.004 C 
HETATM    5  C5  UNL     1     -31.259   8.001   2.885  1.00 20.00     0.020 C 
HETATM    6  C6  UNL     1     -32.458   8.809   0.849  1.00 20.00     0.020 C 
HETATM    7  O7  UNL     1     -33.569   5.908   2.874  1.00 20.00    -0.361 OA
ENDROOT
BRANCH   3   8
HETATM    8  O8  UNL     1     -31.797   5.723   1.315  1.00 20.00    -0.371 OA
HETATM    9  H20 UNL     1     -31.622   5.083   2.023  1.00 20.00     0.212 HD
ENDBRANCH   3   8
TORSDOF 1
ENDMDL
MODEL 4
REMARK VINA RESULT:       0.2      1.810      3.160
REMARK  1 active torsions:
REMARK  status: ('A' for Active; 'I' for Inactive)
REMARK    1  A    between atoms: C3_3  and  O8_8 
ROOT
HETATM    1  C1  UNL     1     -35.187   5.131   4.439  1.00 20.00     0.040 C 
HETATM    2  C2  UNL     1     -33.941   4.264   4.418  1.00 20.00     0.172 C 
HETATM    3  C3  UNL     1     -33.870   5.705   2.585  1.00 20.00     0.264 C 
HETATM    4  C4  UNL     1     -34.754   6.362   3.654  1.00 20.00     0.004 C 
HETATM    5  C5  UNL     1     -33.966   7.334   4.552  1.00 20.00     0.020 C 
HETATM    6  C6  UNL     1     -35.941   7.107   3.039  1.00 20.00     0.020 C 
HETATM    7  O7  UNL     1     -33.204   4.612   3.237  1.00 20.00    -0.361 OA
ENDROOT
BRANCH   3   8
HETATM    8  O8  UNL     1     -32.956   6.627   2.018  1.00 20.00    -0.371 OA
HETATM    9  H20 UNL     1     -32.931   7.394   2.611  1.00 20.00     0.212 HD
ENDBRANCH   3   8
TORSDOF 1
ENDMDL
MODEL 5
REMARK VINA RESULT:       0.3      1.161      2.483
REMARK  1 active torsions:
REMARK  status: ('A' for Active; 'I' for Inactive)
REMARK    1  A    between atoms: C3_3  and  O8_8 
ROOT
HETATM    1  C1  UNL     1     -32.299   7.510   1.192  1.00 20.00     0.040 C 
HETATM    2  C2  UNL     1     -32.141   8.161   2.554  1.00 20.00     0.172 C 
HETATM    3  C3  UNL     1     -33.736   6.468   2.725  1.00 20.00     0.264 C 
HETATM    4  C4  UNL     1     -32.823   6.123   1.540  1.00 20.00     0.004 C 
HETATM    5  C5  UNL     1     -31.668   5.188   1.940  1.00 20.00     0.020 C 
HETATM    6  C6  UNL     1     -33.599   5.488   0.384  1.00 20.00     0.020 C 
HETATM    7  O7  UNL     1     -33.080   7.529   3.437  1.00 20.00    -0.361 OA
ENDROOT
BRANCH   3   8
HETATM    8  O8  UNL     1     -33.977   5.341   3.549  1.00 20.00    -0.371 OA
HETATM    9  H20 UNL     1     -33.109   5.009   3.827  1.00 20.00     0.212 HD
ENDBRANCH   3   8
TORSDOF 1
ENDMDL
MODEL 6
REMARK VINA RESULT:       0.3      1.253      2.918
REMARK  1 active torsions:
REMARK  status: ('A' for Active; 'I' for Inactive)
REMARK    1  A    between atoms: C3_3  and  O8_8 
ROOT
HETATM    1  C1  UNL     1     -33.732   6.382   1.810  1.00 20.00     0.040 C 
HETATM    2  C2  UNL     1     -32.345   6.995   1.771  1.00 20.00     0.172 C 
HETATM    3  C3  UNL     1     -33.453   7.795   3.661  1.00 20.00     0.264 C 
HETATM    4  C4  UNL     1     -34.089   6.448   3.289  1.00 20.00     0.004 C 
HETATM    5  C5  UNL     1     -33.461   5.270   4.056  1.00 20.00     0.020 C 
HETATM    6  C6  UNL     1     -35.601   6.444   3.524  1.00 20.00     0.020 C 
HETATM    7  O7  UNL     1     -32.246   7.892   2.887  1.00 20.00    -0.361 OA
ENDROOT
BRANCH   3   8
HETATM    8  O8  UNL     1     -33.204   7.893   5.053  1.00 20.00    -0.371 OA
HETATM    9  H20 UNL     1     -34.008   8.259   5.453  1.00 20.00     0.212 HD
ENDBRANCH   3   8
TORSDOF 1
ENDMDL
MODEL 7
REMARK VINA RESULT:       0.4      1.594      2.613
REMARK  1 active torsions:
REMARK  status: ('A' for Active; 'I' for Inactive)
REMARK    1  A    between atoms: C3_3  and  O8_8 
ROOT
HETATM    1  C1  UNL     1     -33.916   7.368   4.601  1.00 20.00     0.040 C 
HETATM    2  C2  UNL     1     -33.208   8.366   3.705  1.00 20.00     0.172 C 
HETATM    3  C3  UNL     1     -33.174   6.281   2.660  1.00 20.00     0.264 C 
HETATM    4  C4  UNL     1     -34.373   6.297   3.619  1.00 20.00     0.004 C 
HETATM    5  C5  UNL     1     -35.679   6.717   2.921  1.00 20.00     0.020 C 
HETATM    6  C6  UNL     1     -34.585   4.940   4.295  1.00 20.00     0.020 C 
HETATM    7  O7  UNL     1     -32.723   7.642   2.564  1.00 20.00    -0.361 OA
ENDROOT
BRANCH   3   8
HETATM    8  O8  UNL     1     -33.519   5.742   1.396  1.00 20.00    -0.371 OA
HETATM    9  H20 UNL     1     -33.394   4.782   1.460  1.00 20.00     0.212 HD
ENDBRANCH   3   8
TORSDOF 1
ENDMDL
MODEL 8
REMARK VINA RESULT:       0.5      1.522      2.605
REMARK  1 active torsions:
REMARK  status: ('A' for Active; 'I' for Inactive)
REMARK    1  A    between atoms: C3_3  and  O8_8 
ROOT
HETATM    1  C1  UNL     1     -31.691   6.540   1.508  1.00 20.00     0.040 C 
HETATM    2  C2  UNL     1     -32.939   5.678   1.464  1.00 20.00     0.172 C 
HETATM    3  C3  UNL     1     -33.146   7.188   3.229  1.00 20.00     0.264 C 
HETATM    4  C4  UNL     1     -32.177   7.801   2.209  1.00 20.00     0.004 C 
HETATM    5  C5  UNL     1     -32.885   8.740   1.215  1.00 20.00     0.020 C 
HETATM    6  C6  UNL     1     -31.038   8.566   2.887  1.00 20.00     0.020 C 
HETATM    7  O7  UNL     1     -33.766   6.073   2.568  1.00 20.00    -0.361 OA
ENDROOT
BRANCH   3   8
HETATM    8  O8  UNL     1     -34.097   8.134   3.686  1.00 20.00    -0.371 OA
HETATM    9  H20 UNL     1     -34.680   7.666   4.304  1.00 20.00     0.212 HD
ENDBRANCH   3   8
TORSDOF 1
ENDMDL
MODEL 9
REMARK VINA RESULT:       0.6      1.581      2.948
REMARK  1 active torsions:
REMARK  status: ('A' for Active; 'I' for Inactive)
REMARK    1  A    between atoms: C3_3  and  O8_8 
ROOT
HETATM    1  C1  UNL     1     -35.007   6.258   4.061  1.00 20.00     0.040 C 
HETATM    2  C2  UNL     1     -34.173   5.031   3.741  1.00 20.00     0.172 C 
HETATM    3  C3  UNL     1     -33.431   6.797   2.410  1.00 20.00     0.264 C 
HETATM    4  C4  UNL     1     -34.089   7.404   3.656  1.00 20.00     0.004 C 
HETATM    5  C5  UNL     1     -33.072   7.709   4.771  1.00 20.00     0.020 C 
HETATM    6  C6  UNL     1     -34.865   8.683   3.330  1.00 20.00     0.020 C 
HETATM    7  O7  UNL     1     -33.268   5.397   2.689  1.00 20.00    -0.361 OA
ENDROOT
BRANCH   3   8
HETATM    8  O8  UNL     1     -32.199   7.427   2.105  1.00 20.00    -0.371 OA
HETATM    9  H20 UNL     1     -31.865   7.009   1.297  1.00 20.00     0.212 HD
ENDBRANCH   3   8
TORSDOF 1
ENDMDL
