MODEL 1
REMARK VINA RESULT:      -3.5      0.000      0.000
REMARK  3 active torsions:
REMARK  status: ('A' for Active; 'I' for Inactive)
REMARK    1  A    between atoms: C3_3  and  C4_4 
REMARK    2  A    between atoms: C4_4  and  C5_5 
REMARK    3  A    between atoms: C4_4  and  O6_6 
ROOT
HETATM    1  C4  UNL     1     -33.195   6.844   2.029  1.00 20.00     0.229 C 
ENDROOT
BRANCH   1   2
HETATM    2  C3  UNL     1     -33.606   6.604   3.441  1.00 20.00     0.023 A 
HETATM    3  C1  UNL     1     -34.372   7.655   4.195  1.00 20.00     0.008 A 
HETATM    4  C2  UNL     1     -35.054   6.381   3.780  1.00 20.00     0.008 A 
ENDBRANCH   1   2
BRANCH   1   5
HETATM    5  C5  UNL     1     -32.118   7.908   1.913  1.00 20.00     0.413 C 
HETATM    6  F7  UNL     1     -31.038   7.437   1.252  1.00 20.00    -0.168 F 
HETATM    7  F8  UNL     1     -32.572   8.982   1.230  1.00 20.00    -0.168 F 
HETATM    8  F9  UNL     1     -31.706   8.331   3.126  1.00 20.00    -0.168 F 
ENDBRANCH   1   5
BRANCH   1   9
HETATM    9  O6  UNL     1     -32.680   5.638   1.462  1.00 20.00    -0.386 OA
HETATM   10  H16 UNL     1     -32.742   5.741   0.499  1.00 20.00     0.210 HD
ENDBRANCH   1   9
TORSDOF 3
ENDMDL
MODEL 2
REMARK VINA RESULT:      -2.9      2.040      2.525
REMARK  3 active torsions:
REMARK  status: ('A' for Active; 'I' for Inactive)
REMARK    1  A    between atoms: C3_3  and  C4_4 
REMARK    2  A    between atoms: C4_4  and  C5_5 
REMARK    3  A    between atoms: C4_4  and  O6_6 
ROOT
HETATM    1  C4  UNL     1     -32.568   7.073   2.461  1.00 20.00     0.229 C 
ENDROOT
BRANCH   1   2
HETATM    2  C3  UNL     1     -33.866   7.532   3.032  1.00 20.00     0.023 A 
HETATM    3  C1  UNL     1     -34.701   6.596   3.861  1.00 20.00     0.008 A 
HETATM    4  C2  UNL     1     -34.004   7.758   4.512  1.00 20.00     0.008 A 
ENDBRANCH   1   2
BRANCH   1   5
HETATM    5  C5  UNL     1     -32.703   5.774   1.689  1.00 20.00     0.413 C 
HETATM    6  F7  UNL     1     -31.517   5.395   1.163  1.00 20.00    -0.168 F 
HETATM    7  F8  UNL     1     -33.125   4.774   2.493  1.00 20.00    -0.168 F 
HETATM    8  F9  UNL     1     -33.584   5.889   0.673  1.00 20.00    -0.168 F 
ENDBRANCH   1   5
BRANCH   1   9
HETATM    9  O6  UNL     1     -32.053   8.062   1.567  1.00 20.00    -0.386 OA
HETATM   10  H16 UNL     1     -32.781   8.679   1.395  1.00 20.00     0.210 HD
ENDBRANCH   1   9
TORSDOF 3
ENDMDL
MODEL 3
REMARK VINA RESULT:      -2.9      2.723      3.740
REMARK  3 active torsions:
REMARK  status: ('A' for Active; 'I' for Inactive)
REMARK    1  A    between atoms: C3_3  and  C4_4 
REMARK    2  A    between atoms: C4_4  and  C5_5 
REMARK    3  A    between atoms: C4_4  and  O6_6 
ROOT
HETATM    1  C4  UNL     1     -33.685   5.754   3.454  1.00 20.00     0.229 C 
ENDROOT
BRANCH   1   2
HETATM    2  C3  UNL     1     -33.372   6.088   2.035  1.00 20.00     0.023 A 
HETATM    3  C1  UNL     1     -32.389   7.180   1.714  1.00 20.00     0.008 A 
HETATM    4  C2  UNL     1     -32.028   5.744   1.456  1.00 20.00     0.008 A 
ENDBRANCH   1   2
BRANCH   1   5
HETATM    5  C5  UNL     1     -34.928   6.466   3.956  1.00 20.00     0.413 C 
HETATM    6  F7  UNL     1     -35.619   5.689   4.817  1.00 20.00    -0.168 F 
HETATM    7  F8  UNL     1     -34.604   7.603   4.609  1.00 20.00    -0.168 F 
HETATM    8  F9  UNL     1     -35.756   6.793   2.941  1.00 20.00    -0.168 F 
ENDBRANCH   1   5
BRANCH   1   9
HETATM    9  O6  UNL     1     -33.904   4.348   3.585  1.00 20.00    -0.386 OA
HETATM   10  H16 UNL     1     -33.043   3.924   3.446  1.00 20.00     0.210 HD
ENDBRANCH   1   9
TORSDOF 3
ENDMDL
MODEL 4
REMARK VINA RESULT:      -2.9      2.722      3.688
REMARK  3 active torsions:
REMARK  status: ('A' for Active; 'I' for Inactive)
REMARK    1  A    between atoms: C3_3  and  C4_4 
REMARK    2  A    between atoms: C4_4  and  C5_5 
REMARK    3  A    between atoms: C4_4  and  O6_6 
ROOT
HETATM    1  C4  UNL     1     -33.678   5.752   3.453  1.00 20.00     0.229 C 
ENDROOT
BRANCH   1   2
HETATM    2  C3  UNL     1     -33.371   6.089   2.034  1.00 20.00     0.023 A 
HETATM    3  C1  UNL     1     -32.382   7.175   1.711  1.00 20.00     0.008 A 
HETATM    4  C2  UNL     1     -32.033   5.737   1.446  1.00 20.00     0.008 A 
ENDBRANCH   1   2
BRANCH   1   5
HETATM    5  C5  UNL     1     -34.917   6.466   3.962  1.00 20.00     0.413 C 
HETATM    6  F7  UNL     1     -35.743   6.794   2.944  1.00 20.00    -0.168 F 
HETATM    7  F8  UNL     1     -35.615   5.679   4.810  1.00 20.00    -0.168 F 
HETATM    8  F9  UNL     1     -34.601   7.603   4.617  1.00 20.00    -0.168 F 
ENDBRANCH   1   5
BRANCH   1   9
HETATM    9  O6  UNL     1     -33.900   4.346   3.581  1.00 20.00    -0.386 OA
HETATM   10  H16 UNL     1     -33.277   4.032   4.254  1.00 20.00     0.210 HD
ENDBRANCH   1   9
TORSDOF 3
ENDMDL
MODEL 5
REMARK VINA RESULT:      -2.9      2.720      3.646
REMARK  3 active torsions:
REMARK  status: ('A' for Active; 'I' for Inactive)
REMARK    1  A    between atoms: C3_3  and  C4_4 
REMARK    2  A    between atoms: C4_4  and  C5_5 
REMARK    3  A    between atoms: C4_4  and  O6_6 
ROOT
HETATM    1  C4  UNL     1     -33.681   5.749   3.455  1.00 20.00     0.229 C 
ENDROOT
BRANCH   1   2
HETATM    2  C3  UNL     1     -33.370   6.083   2.036  1.00 20.00     0.023 A 
HETATM    3  C1  UNL     1     -32.394   7.179   1.713  1.00 20.00     0.008 A 
HETATM    4  C2  UNL     1     -32.024   5.745   1.457  1.00 20.00     0.008 A 
ENDBRANCH   1   2
BRANCH   1   5
HETATM    5  C5  UNL     1     -34.921   6.464   3.960  1.00 20.00     0.413 C 
HETATM    6  F7  UNL     1     -34.596   7.607   4.603  1.00 20.00    -0.168 F 
HETATM    7  F8  UNL     1     -35.739   6.795   2.936  1.00 20.00    -0.168 F 
HETATM    8  F9  UNL     1     -35.623   5.694   4.819  1.00 20.00    -0.168 F 
ENDBRANCH   1   5
BRANCH   1   9
HETATM    9  O6  UNL     1     -33.902   4.344   3.587  1.00 20.00    -0.386 OA
HETATM   10  H16 UNL     1     -33.590   3.940   2.762  1.00 20.00     0.210 HD
ENDBRANCH   1   9
TORSDOF 3
ENDMDL
MODEL 6
REMARK VINA RESULT:      -2.5      3.031      3.917
REMARK  3 active torsions:
REMARK  status: ('A' for Active; 'I' for Inactive)
REMARK    1  A    between atoms: C3_3  and  C4_4 
REMARK    2  A    between atoms: C4_4  and  C5_5 
REMARK    3  A    between atoms: C4_4  and  O6_6 
ROOT
HETATM    1  C4  UNL     1     -33.978   7.526   3.664  1.00 20.00     0.229 C 
ENDROOT
BRANCH   1   2
HETATM    2  C3  UNL     1     -32.767   7.042   2.943  1.00 20.00     0.023 A 
HETATM    3  C1  UNL     1     -32.877   6.550   1.526  1.00 20.00     0.008 A 
HETATM    4  C2  UNL     1     -32.183   7.851   1.818  1.00 20.00     0.008 A 
ENDBRANCH   1   2
BRANCH   1   5
HETATM    5  C5  UNL     1     -34.981   6.416   3.921  1.00 20.00     0.413 C 
HETATM    6  F7  UNL     1     -35.486   6.497   5.172  1.00 20.00    -0.168 F 
HETATM    7  F8  UNL     1     -36.019   6.493   3.060  1.00 20.00    -0.168 F 
HETATM    8  F9  UNL     1     -34.418   5.196   3.784  1.00 20.00    -0.168 F 
ENDBRANCH   1   5
BRANCH   1   9
HETATM    9  O6  UNL     1     -33.603   8.076   4.928  1.00 20.00    -0.386 OA
HETATM   10  H16 UNL     1     -34.140   8.874   5.049  1.00 20.00     0.210 HD
ENDBRANCH   1   9
TORSDOF 3
ENDMDL
MODEL 7
REMARK VINA RESULT:      -2.5      3.028      3.915
REMARK  3 active torsions:
REMARK  status: ('A' for Active; 'I' for Inactive)
REMARK    1  A    between atoms: C3_3  and  C4_4 
REMARK    2  A    between atoms: C4_4  and  C5_5 
REMARK    3  A    between atoms: C4_4  and  O6_6 
ROOT
HETATM    1  C4  UNL     1     -33.972   7.529   3.668  1.00 20.00     0.229 C 
ENDROOT
BRANCH   1   2
HETATM    2  C3  UNL     1     -32.765   7.040   2.942  1.00 20.00     0.023 A 
HETATM    3  C1  UNL     1     -32.882   6.548   1.526  1.00 20.00     0.008 A 
HETATM    4  C2  UNL     1     -32.182   7.846   1.815  1.00 20.00     0.008 A 
ENDBRANCH   1   2
BRANCH   1   5
HETATM    5  C5  UNL     1     -34.983   6.425   3.919  1.00 20.00     0.413 C 
HETATM    6  F7  UNL     1     -34.416   5.206   3.785  1.00 20.00    -0.168 F 
HETATM    7  F8  UNL     1     -35.482   6.502   5.173  1.00 20.00    -0.168 F 
HETATM    8  F9  UNL     1     -36.018   6.494   3.056  1.00 20.00    -0.168 F 
ENDBRANCH   1   5
BRANCH   1   9
HETATM    9  O6  UNL     1     -33.591   8.070   4.934  1.00 20.00    -0.386 OA
HETATM   10  H16 UNL     1     -34.412   8.339   5.373  1.00 20.00     0.210 HD
ENDBRANCH   1   9
TORSDOF 3
ENDMDL
MODEL 8
REMARK VINA RESULT:      -2.4      3.027      3.916
REMARK  3 active torsions:
REMARK  status: ('A' for Active; 'I' for Inactive)
REMARK    1  A    between atoms: C3_3  and  C4_4 
REMARK    2  A    between atoms: C4_4  and  C5_5 
REMARK    3  A    between atoms: C4_4  and  O6_6 
ROOT
HETATM    1  C4  UNL     1     -33.979   7.529   3.665  1.00 20.00     0.229 C 
ENDROOT
BRANCH   1   2
HETATM    2  C3  UNL     1     -32.769   7.042   2.943  1.00 20.00     0.023 A 
HETATM    3  C1  UNL     1     -32.879   6.557   1.524  1.00 20.00     0.008 A 
HETATM    4  C2  UNL     1     -32.179   7.854   1.823  1.00 20.00     0.008 A 
ENDBRANCH   1   2
BRANCH   1   5
HETATM    5  C5  UNL     1     -34.983   6.420   3.924  1.00 20.00     0.413 C 
HETATM    6  F7  UNL     1     -36.016   6.486   3.056  1.00 20.00    -0.168 F 
HETATM    7  F8  UNL     1     -34.411   5.205   3.778  1.00 20.00    -0.168 F 
HETATM    8  F9  UNL     1     -35.490   6.492   5.173  1.00 20.00    -0.168 F 
ENDBRANCH   1   5
BRANCH   1   9
HETATM    9  O6  UNL     1     -33.602   8.081   4.927  1.00 20.00    -0.386 OA
HETATM   10  H16 UNL     1     -34.406   8.471   5.305  1.00 20.00     0.210 HD
ENDBRANCH   1   9
TORSDOF 3
ENDMDL
MODEL 9
REMARK VINA RESULT:      -2.3      3.222      3.872
REMARK  3 active torsions:
REMARK  status: ('A' for Active; 'I' for Inactive)
REMARK    1  A    between atoms: C3_3  and  C4_4 
REMARK    2  A    between atoms: C4_4  and  C5_5 
REMARK    3  A    between atoms: C4_4  and  O6_6 
ROOT
HETATM    1  C4  UNL     1     -34.434   5.097   4.494  1.00 20.00     0.229 C 
ENDROOT
BRANCH   1   2
HETATM    2  C3  UNL     1     -33.769   3.906   3.895  1.00 20.00     0.023 A 
HETATM    3  C1  UNL     1     -32.328   3.607   4.207  1.00 20.00     0.008 A 
HETATM    4  C2  UNL     1     -33.415   2.724   4.755  1.00 20.00     0.008 A 
ENDBRANCH   1   2
BRANCH   1   5
HETATM    5  C5  UNL     1     -34.365   6.315   3.592  1.00 20.00     0.413 C 
HETATM    6  F7  UNL     1     -35.598   6.697   3.194  1.00 20.00    -0.168 F 
HETATM    7  F8  UNL     1     -33.805   7.363   4.235  1.00 20.00    -0.168 F 
HETATM    8  F9  UNL     1     -33.633   6.071   2.484  1.00 20.00    -0.168 F 
ENDBRANCH   1   5
BRANCH   1   9
HETATM    9  O6  UNL     1     -35.813   4.812   4.738  1.00 20.00    -0.386 OA
HETATM   10  H16 UNL     1     -36.175   5.586   5.195  1.00 20.00     0.210 HD
ENDBRANCH   1   9
TORSDOF 3
ENDMDL
