MODEL 1
REMARK VINA RESULT:      -2.3      0.000      0.000
REMARK  0 active torsions:
REMARK  status: ('A' for Active; 'I' for Inactive)
ROOT
HETATM    1  C1  UNL     1     -34.302   4.973   4.058  1.00 20.00     0.137 C 
HETATM    2  C2  UNL     1     -34.022   7.391   4.528  1.00 20.00     0.108 C 
HETATM    3  C3  UNL     1     -34.537   6.332   3.580  1.00 20.00     0.326 C 
HETATM    4  N4  UNL     1     -34.117   3.892   4.436  1.00 20.00    -0.191 NA
HETATM    5  F5  UNL     1     -33.943   6.485   2.370  1.00 20.00    -0.190 F 
HETATM    6  F6  UNL     1     -35.868   6.510   3.387  1.00 20.00    -0.190 F 
ENDROOT
TORSDOF 0
ENDMDL
MODEL 2
REMARK VINA RESULT:      -2.2      4.214      4.706
REMARK  0 active torsions:
REMARK  status: ('A' for Active; 'I' for Inactive)
ROOT
HETATM    1  C1  UNL     1     -32.284   8.962   0.971  1.00 20.00     0.137 C 
HETATM    2  C2  UNL     1     -33.361   7.487   2.648  1.00 20.00     0.108 C 
HETATM    3  C3  UNL     1     -32.076   7.948   1.999  1.00 20.00     0.326 C 
HETATM    4  N4  UNL     1     -32.447   9.768   0.153  1.00 20.00    -0.191 NA
HETATM    5  F5  UNL     1     -31.444   6.880   1.448  1.00 20.00    -0.190 F 
HETATM    6  F6  UNL     1     -31.245   8.444   2.950  1.00 20.00    -0.190 F 
ENDROOT
TORSDOF 0
ENDMDL
MODEL 3
REMARK VINA RESULT:      -2.2      1.895      2.239
REMARK  0 active torsions:
REMARK  status: ('A' for Active; 'I' for Inactive)
ROOT
HETATM    1  C1  UNL     1     -33.777   6.329   2.710  1.00 20.00     0.137 C 
HETATM    2  C2  UNL     1     -34.961   5.082   4.496  1.00 20.00     0.108 C 
HETATM    3  C3  UNL     1     -34.804   6.385   3.745  1.00 20.00     0.326 C 
HETATM    4  N4  UNL     1     -32.960   6.287   1.887  1.00 20.00    -0.191 NA
HETATM    5  F5  UNL     1     -34.498   7.374   4.622  1.00 20.00    -0.190 F 
HETATM    6  F6  UNL     1     -35.989   6.721   3.176  1.00 20.00    -0.190 F 
ENDROOT
TORSDOF 0
ENDMDL
MODEL 4
REMARK VINA RESULT:      -2.2      1.854      2.110
REMARK  0 active torsions:
REMARK  status: ('A' for Active; 'I' for Inactive)
ROOT
HETATM    1  C1  UNL     1     -33.584   6.190   2.490  1.00 20.00     0.137 C 
HETATM    2  C2  UNL     1     -34.055   7.551   4.508  1.00 20.00     0.108 C 
HETATM    3  C3  UNL     1     -34.483   6.406   3.619  1.00 20.00     0.326 C 
HETATM    4  N4  UNL     1     -32.871   6.017   1.591  1.00 20.00    -0.191 NA
HETATM    5  F5  UNL     1     -35.734   6.645   3.151  1.00 20.00    -0.190 F 
HETATM    6  F6  UNL     1     -34.552   5.267   4.354  1.00 20.00    -0.190 F 
ENDROOT
TORSDOF 0
ENDMDL
MODEL 5
REMARK VINA RESULT:      -2.2      1.084      1.478
REMARK  0 active torsions:
REMARK  status: ('A' for Active; 'I' for Inactive)
ROOT
HETATM    1  C1  UNL     1     -34.436   5.051   4.127  1.00 20.00     0.137 C 
HETATM    2  C2  UNL     1     -33.740   6.956   2.703  1.00 20.00     0.108 C 
HETATM    3  C3  UNL     1     -34.684   6.443   3.766  1.00 20.00     0.326 C 
HETATM    4  N4  UNL     1     -34.241   3.944   4.416  1.00 20.00    -0.191 NA
HETATM    5  F5  UNL     1     -35.963   6.566   3.328  1.00 20.00    -0.190 F 
HETATM    6  F6  UNL     1     -34.575   7.215   4.876  1.00 20.00    -0.190 F 
ENDROOT
TORSDOF 0
ENDMDL
MODEL 6
REMARK VINA RESULT:      -2.1      2.755      3.033
REMARK  0 active torsions:
REMARK  status: ('A' for Active; 'I' for Inactive)
ROOT
HETATM    1  C1  UNL     1     -32.832   7.635   2.644  1.00 20.00     0.137 C 
HETATM    2  C2  UNL     1     -34.499   6.199   3.786  1.00 20.00     0.108 C 
HETATM    3  C3  UNL     1     -33.826   7.550   3.709  1.00 20.00     0.326 C 
HETATM    4  N4  UNL     1     -32.041   7.706   1.799  1.00 20.00    -0.191 NA
HETATM    5  F5  UNL     1     -33.228   7.823   4.897  1.00 20.00    -0.190 F 
HETATM    6  F6  UNL     1     -34.766   8.510   3.517  1.00 20.00    -0.190 F 
ENDROOT
TORSDOF 0
ENDMDL
MODEL 7
REMARK VINA RESULT:      -2.0      3.188      3.718
REMARK  0 active torsions:
REMARK  status: ('A' for Active; 'I' for Inactive)
ROOT
HETATM    1  C1  UNL     1     -33.176   7.570   2.971  1.00 20.00     0.137 C 
HETATM    2  C2  UNL     1     -32.451   8.879   0.995  1.00 20.00     0.108 C 
HETATM    3  C3  UNL     1     -32.079   7.870   2.056  1.00 20.00     0.326 C 
HETATM    4  N4  UNL     1     -34.046   7.330   3.699  1.00 20.00    -0.191 NA
HETATM    5  F5  UNL     1     -31.022   8.337   2.769  1.00 20.00    -0.190 F 
HETATM    6  F6  UNL     1     -31.670   6.721   1.461  1.00 20.00    -0.190 F 
ENDROOT
TORSDOF 0
ENDMDL
MODEL 8
REMARK VINA RESULT:      -2.0      2.416      2.830
REMARK  0 active torsions:
REMARK  status: ('A' for Active; 'I' for Inactive)
ROOT
HETATM    1  C1  UNL     1     -33.727   6.380   2.884  1.00 20.00     0.137 C 
HETATM    2  C2  UNL     1     -31.995   7.642   1.639  1.00 20.00     0.108 C 
HETATM    3  C3  UNL     1     -32.815   6.378   1.745  1.00 20.00     0.326 C 
HETATM    4  N4  UNL     1     -34.453   6.380   3.789  1.00 20.00    -0.191 NA
HETATM    5  F5  UNL     1     -31.983   5.310   1.845  1.00 20.00    -0.190 F 
HETATM    6  F6  UNL     1     -33.530   6.209   0.604  1.00 20.00    -0.190 F 
ENDROOT
TORSDOF 0
ENDMDL
MODEL 9
REMARK VINA RESULT:      -1.9      3.022      3.627
REMARK  0 active torsions:
REMARK  status: ('A' for Active; 'I' for Inactive)
ROOT
HETATM    1  C1  UNL     1     -33.303   7.606   3.159  1.00 20.00     0.137 C 
HETATM    2  C2  UNL     1     -32.169   6.368   1.335  1.00 20.00     0.108 C 
HETATM    3  C3  UNL     1     -32.335   7.678   2.070  1.00 20.00     0.326 C 
HETATM    4  N4  UNL     1     -34.073   7.551   4.026  1.00 20.00    -0.191 NA
HETATM    5  F5  UNL     1     -32.724   8.639   1.193  1.00 20.00    -0.190 F 
HETATM    6  F6  UNL     1     -31.135   8.069   2.569  1.00 20.00    -0.190 F 
ENDROOT
TORSDOF 0
ENDMDL
