MODEL 1
REMARK VINA RESULT:      -1.3      0.000      0.000
REMARK  7 active torsions:
REMARK  status: ('A' for Active; 'I' for Inactive)
REMARK    1  A    between atoms: C1_1  and  C6_6 
REMARK    2  A    between atoms: C1_1  and  C11_11 
REMARK    3  A    between atoms: C6_6  and  C12_12 
REMARK    4  A    between atoms: C7_7  and  C9_9 
REMARK    5  A    between atoms: C8_8  and  C12_12 
REMARK    6  A    between atoms: C9_9  and  C10_10 
REMARK    7  A    between atoms: C10_10  and  C12_12 
ROOT
HETATM    1  C12 UNL     1     -34.035   6.758   3.609  1.00 20.00    -0.008 C 
ENDROOT
BRANCH   1   2
HETATM    2  C6  UNL     1     -33.862   6.868   2.080  1.00 20.00     0.083 C 
BRANCH   2   3
HETATM    3  C1  UNL     1     -32.424   6.677   1.609  1.00 20.00     0.130 C 
HETATM    4  O13 UNL     1     -31.937   5.561   1.427  1.00 20.00    -0.298 OA
BRANCH   3   5
HETATM    5  C11 UNL     1     -31.623   7.952   1.358  1.00 20.00     0.047 C 
HETATM    6  C4  UNL     1     -30.985   8.460   2.648  1.00 20.00     0.017 C 
HETATM    7  C5  UNL     1     -32.532   9.011   0.745  1.00 20.00     0.017 C 
ENDBRANCH   3   5
ENDBRANCH   2   3
ENDBRANCH   1   2
BRANCH   1   8
HETATM    8  C8  UNL     1     -34.033   8.158   4.261  1.00 20.00     0.000 C 
HETATM    9  C3  UNL     1     -33.109   8.313   5.462  1.00 20.00     0.005 C 
ENDBRANCH   1   8
BRANCH   1  10
HETATM   10  C10 UNL     1     -35.291   5.922   3.948  1.00 20.00     0.005 C 
BRANCH  10  11
HETATM   11  C9  UNL     1     -34.969   4.591   4.636  1.00 20.00     0.000 C 
BRANCH  11  12
HETATM   12  C7  UNL     1     -33.793   3.849   3.993  1.00 20.00    -0.005 C 
HETATM   13  C2  UNL     1     -33.093   2.888   4.942  1.00 20.00     0.005 C 
ENDBRANCH  11  12
ENDBRANCH  10  11
ENDBRANCH   1  10
TORSDOF 7
ENDMDL
MODEL 2
REMARK VINA RESULT:      -1.2      1.471      2.919
REMARK  7 active torsions:
REMARK  status: ('A' for Active; 'I' for Inactive)
REMARK    1  A    between atoms: C1_1  and  C6_6 
REMARK    2  A    between atoms: C1_1  and  C11_11 
REMARK    3  A    between atoms: C6_6  and  C12_12 
REMARK    4  A    between atoms: C7_7  and  C9_9 
REMARK    5  A    between atoms: C8_8  and  C12_12 
REMARK    6  A    between atoms: C9_9  and  C10_10 
REMARK    7  A    between atoms: C10_10  and  C12_12 
ROOT
HETATM    1  C12 UNL     1     -33.278   7.189   2.211  1.00 20.00    -0.008 C 
ENDROOT
BRANCH   1   2
HETATM    2  C6  UNL     1     -31.971   8.008   2.174  1.00 20.00     0.083 C 
BRANCH   2   3
HETATM    3  C1  UNL     1     -31.771   8.785   0.878  1.00 20.00     0.130 C 
HETATM    4  O13 UNL     1     -30.833   8.554   0.114  1.00 20.00    -0.298 OA
BRANCH   3   5
HETATM    5  C11 UNL     1     -32.811   9.858   0.568  1.00 20.00     0.047 C 
HETATM    6  C4  UNL     1     -32.905  10.112  -0.934  1.00 20.00     0.017 C 
HETATM    7  C5  UNL     1     -32.460  11.138   1.318  1.00 20.00     0.017 C 
ENDBRANCH   3   5
ENDBRANCH   2   3
ENDBRANCH   1   2
BRANCH   1   8
HETATM    8  C8  UNL     1     -33.122   5.876   1.413  1.00 20.00     0.000 C 
HETATM    9  C3  UNL     1     -31.713   5.301   1.378  1.00 20.00     0.005 C 
ENDBRANCH   1   8
BRANCH   1  10
HETATM   10  C10 UNL     1     -33.733   6.970   3.673  1.00 20.00     0.005 C 
BRANCH  10  11
HETATM   11  C9  UNL     1     -35.147   6.390   3.790  1.00 20.00     0.000 C 
BRANCH  11  12
HETATM   12  C7  UNL     1     -35.190   5.055   4.540  1.00 20.00    -0.005 C 
HETATM   13  C2  UNL     1     -34.020   4.139   4.213  1.00 20.00     0.005 C 
ENDBRANCH  11  12
ENDBRANCH  10  11
ENDBRANCH   1  10
TORSDOF 7
ENDMDL
MODEL 3
REMARK VINA RESULT:      -1.1      1.733      5.343
REMARK  7 active torsions:
REMARK  status: ('A' for Active; 'I' for Inactive)
REMARK    1  A    between atoms: C1_1  and  C6_6 
REMARK    2  A    between atoms: C1_1  and  C11_11 
REMARK    3  A    between atoms: C6_6  and  C12_12 
REMARK    4  A    between atoms: C7_7  and  C9_9 
REMARK    5  A    between atoms: C8_8  and  C12_12 
REMARK    6  A    between atoms: C9_9  and  C10_10 
REMARK    7  A    between atoms: C10_10  and  C12_12 
ROOT
HETATM    1  C12 UNL     1     -32.133   7.331   2.240  1.00 20.00    -0.008 C 
ENDROOT
BRANCH   1   2
HETATM    2  C6  UNL     1     -33.630   7.567   2.531  1.00 20.00     0.083 C 
BRANCH   2   3
HETATM    3  C1  UNL     1     -34.016   7.336   3.987  1.00 20.00     0.130 C 
HETATM    4  O13 UNL     1     -33.487   7.955   4.911  1.00 20.00    -0.298 OA
BRANCH   3   5
HETATM    5  C11 UNL     1     -35.113   6.305   4.238  1.00 20.00     0.047 C 
HETATM    6  C4  UNL     1     -34.548   4.887   4.208  1.00 20.00     0.017 C 
HETATM    7  C5  UNL     1     -36.217   6.475   3.200  1.00 20.00     0.017 C 
ENDBRANCH   3   5
ENDBRANCH   2   3
ENDBRANCH   1   2
BRANCH   1   8
HETATM    8  C8  UNL     1     -31.932   6.026   1.439  1.00 20.00     0.000 C 
HETATM    9  C3  UNL     1     -33.204   5.409   0.873  1.00 20.00     0.005 C 
ENDBRANCH   1   8
BRANCH   1  10
HETATM   10  C10 UNL     1     -31.516   8.574   1.558  1.00 20.00     0.005 C 
BRANCH  10  11
HETATM   11  C9  UNL     1     -31.794   8.643   0.052  1.00 20.00     0.000 C 
BRANCH  11  12
HETATM   12  C7  UNL     1     -32.630   9.863  -0.351  1.00 20.00    -0.005 C 
HETATM   13  C2  UNL     1     -32.808  10.873   0.772  1.00 20.00     0.005 C 
ENDBRANCH  11  12
ENDBRANCH  10  11
ENDBRANCH   1  10
TORSDOF 7
ENDMDL
MODEL 4
REMARK VINA RESULT:      -1.1      1.060      1.364
REMARK  7 active torsions:
REMARK  status: ('A' for Active; 'I' for Inactive)
REMARK    1  A    between atoms: C1_1  and  C6_6 
REMARK    2  A    between atoms: C1_1  and  C11_11 
REMARK    3  A    between atoms: C6_6  and  C12_12 
REMARK    4  A    between atoms: C7_7  and  C9_9 
REMARK    5  A    between atoms: C8_8  and  C12_12 
REMARK    6  A    between atoms: C9_9  and  C10_10 
REMARK    7  A    between atoms: C10_10  and  C12_12 
ROOT
HETATM    1  C12 UNL     1     -33.693   6.836   3.497  1.00 20.00    -0.008 C 
ENDROOT
BRANCH   1   2
HETATM    2  C6  UNL     1     -33.260   6.944   2.020  1.00 20.00     0.083 C 
BRANCH   2   3
HETATM    3  C1  UNL     1     -32.199   8.009   1.767  1.00 20.00     0.130 C 
HETATM    4  O13 UNL     1     -31.214   8.138   2.495  1.00 20.00    -0.298 OA
BRANCH   3   5
HETATM    5  C11 UNL     1     -32.416   8.898   0.546  1.00 20.00     0.047 C 
HETATM    6  C4  UNL     1     -31.172   8.928  -0.337  1.00 20.00     0.017 C 
HETATM    7  C5  UNL     1     -32.796  10.303   1.002  1.00 20.00     0.017 C 
ENDBRANCH   3   5
ENDBRANCH   2   3
ENDBRANCH   1   2
BRANCH   1   8
HETATM    8  C8  UNL     1     -33.785   8.236   4.142  1.00 20.00     0.000 C 
HETATM    9  C3  UNL     1     -33.062   8.386   5.474  1.00 20.00     0.005 C 
ENDBRANCH   1   8
BRANCH   1  10
HETATM   10  C10 UNL     1     -35.000   6.017   3.615  1.00 20.00     0.005 C 
BRANCH  10  11
HETATM   11  C9  UNL     1     -34.843   4.737   4.444  1.00 20.00     0.000 C 
BRANCH  11  12
HETATM   12  C7  UNL     1     -33.738   3.813   3.923  1.00 20.00    -0.005 C 
HETATM   13  C2  UNL     1     -33.109   2.951   5.006  1.00 20.00     0.005 C 
ENDBRANCH  11  12
ENDBRANCH  10  11
ENDBRANCH   1  10
TORSDOF 7
ENDMDL
MODEL 5
REMARK VINA RESULT:      -0.5      1.173      2.033
REMARK  7 active torsions:
REMARK  status: ('A' for Active; 'I' for Inactive)
REMARK    1  A    between atoms: C1_1  and  C6_6 
REMARK    2  A    between atoms: C1_1  and  C11_11 
REMARK    3  A    between atoms: C6_6  and  C12_12 
REMARK    4  A    between atoms: C7_7  and  C9_9 
REMARK    5  A    between atoms: C8_8  and  C12_12 
REMARK    6  A    between atoms: C9_9  and  C10_10 
REMARK    7  A    between atoms: C10_10  and  C12_12 
ROOT
HETATM    1  C12 UNL     1     -34.020   6.874   3.725  1.00 20.00    -0.008 C 
ENDROOT
BRANCH   1   2
HETATM    2  C6  UNL     1     -33.860   7.198   2.225  1.00 20.00     0.083 C 
BRANCH   2   3
HETATM    3  C1  UNL     1     -32.435   7.033   1.709  1.00 20.00     0.130 C 
HETATM    4  O13 UNL     1     -31.551   7.855   1.954  1.00 20.00    -0.298 OA
BRANCH   3   5
HETATM    5  C11 UNL     1     -32.158   5.779   0.885  1.00 20.00     0.047 C 
HETATM    6  C4  UNL     1     -33.460   5.101   0.466  1.00 20.00     0.017 C 
HETATM    7  C5  UNL     1     -31.280   4.826   1.689  1.00 20.00     0.017 C 
ENDBRANCH   3   5
ENDBRANCH   2   3
ENDBRANCH   1   2
BRANCH   1   8
HETATM    8  C8  UNL     1     -33.989   8.168   4.568  1.00 20.00     0.000 C 
HETATM    9  C3  UNL     1     -32.660   8.468   5.247  1.00 20.00     0.005 C 
ENDBRANCH   1   8
BRANCH   1  10
HETATM   10  C10 UNL     1     -35.286   6.017   3.957  1.00 20.00     0.005 C 
BRANCH  10  11
HETATM   11  C9  UNL     1     -34.995   4.673   4.633  1.00 20.00     0.000 C 
BRANCH  11  12
HETATM   12  C7  UNL     1     -33.854   3.898   3.968  1.00 20.00    -0.005 C 
HETATM   13  C2  UNL     1     -33.141   2.941   4.911  1.00 20.00     0.005 C 
ENDBRANCH  11  12
ENDBRANCH  10  11
ENDBRANCH   1  10
TORSDOF 7
ENDMDL
MODEL 6
REMARK VINA RESULT:      -0.5      1.671      5.226
REMARK  7 active torsions:
REMARK  status: ('A' for Active; 'I' for Inactive)
REMARK    1  A    between atoms: C1_1  and  C6_6 
REMARK    2  A    between atoms: C1_1  and  C11_11 
REMARK    3  A    between atoms: C6_6  and  C12_12 
REMARK    4  A    between atoms: C7_7  and  C9_9 
REMARK    5  A    between atoms: C8_8  and  C12_12 
REMARK    6  A    between atoms: C9_9  and  C10_10 
REMARK    7  A    between atoms: C10_10  and  C12_12 
ROOT
HETATM    1  C12 UNL     1     -31.953   5.907   1.798  1.00 20.00    -0.008 C 
ENDROOT
BRANCH   1   2
HETATM    2  C6  UNL     1     -33.483   6.001   1.968  1.00 20.00     0.083 C 
BRANCH   2   3
HETATM    3  C1  UNL     1     -33.984   5.487   3.314  1.00 20.00     0.130 C 
HETATM    4  O13 UNL     1     -33.680   4.374   3.745  1.00 20.00    -0.298 OA
BRANCH   3   5
HETATM    5  C11 UNL     1     -34.872   6.440   4.109  1.00 20.00     0.047 C 
HETATM    6  C4  UNL     1     -36.143   6.778   3.335  1.00 20.00     0.017 C 
HETATM    7  C5  UNL     1     -34.087   7.701   4.450  1.00 20.00     0.017 C 
ENDBRANCH   3   5
ENDBRANCH   2   3
ENDBRANCH   1   2
BRANCH   1   8
HETATM    8  C8  UNL     1     -31.588   4.906   0.680  1.00 20.00     0.000 C 
HETATM    9  C3  UNL     1     -32.773   4.275  -0.038  1.00 20.00     0.005 C 
ENDBRANCH   1   8
BRANCH   1  10
HETATM   10  C10 UNL     1     -31.349   7.316   1.585  1.00 20.00     0.005 C 
BRANCH  10  11
HETATM   11  C9  UNL     1     -32.406   8.403   1.363  1.00 20.00     0.000 C 
BRANCH  11  12
HETATM   12  C7  UNL     1     -32.102   9.302   0.160  1.00 20.00    -0.005 C 
HETATM   13  C2  UNL     1     -32.722  10.687   0.267  1.00 20.00     0.005 C 
ENDBRANCH  11  12
ENDBRANCH  10  11
ENDBRANCH   1  10
TORSDOF 7
ENDMDL
MODEL 7
REMARK VINA RESULT:      -0.5      1.694      5.487
REMARK  7 active torsions:
REMARK  status: ('A' for Active; 'I' for Inactive)
REMARK    1  A    between atoms: C1_1  and  C6_6 
REMARK    2  A    between atoms: C1_1  and  C11_11 
REMARK    3  A    between atoms: C6_6  and  C12_12 
REMARK    4  A    between atoms: C7_7  and  C9_9 
REMARK    5  A    between atoms: C8_8  and  C12_12 
REMARK    6  A    between atoms: C9_9  and  C10_10 
REMARK    7  A    between atoms: C10_10  and  C12_12 
ROOT
HETATM    1  C12 UNL     1     -32.219   6.925   2.071  1.00 20.00    -0.008 C 
ENDROOT
BRANCH   1   2
HETATM    2  C6  UNL     1     -33.756   6.900   2.207  1.00 20.00     0.083 C 
BRANCH   2   3
HETATM    3  C1  UNL     1     -34.242   6.568   3.614  1.00 20.00     0.130 C 
HETATM    4  O13 UNL     1     -34.234   7.399   4.523  1.00 20.00    -0.298 OA
BRANCH   3   5
HETATM    5  C11 UNL     1     -34.758   5.148   3.830  1.00 20.00     0.047 C 
HETATM    6  C4  UNL     1     -35.732   5.093   5.003  1.00 20.00     0.017 C 
HETATM    7  C5  UNL     1     -33.579   4.208   4.053  1.00 20.00     0.017 C 
ENDBRANCH   3   5
ENDBRANCH   2   3
ENDBRANCH   1   2
BRANCH   1   8
HETATM    8  C8  UNL     1     -31.741   5.834   1.088  1.00 20.00     0.000 C 
HETATM    9  C3  UNL     1     -32.835   4.927   0.543  1.00 20.00     0.005 C 
ENDBRANCH   1   8
BRANCH   1  10
HETATM   10  C10 UNL     1     -31.737   8.346   1.696  1.00 20.00     0.005 C 
BRANCH  10  11
HETATM   11  C9  UNL     1     -31.619   8.570   0.185  1.00 20.00     0.000 C 
BRANCH  11  12
HETATM   12  C7  UNL     1     -32.536   9.682  -0.334  1.00 20.00    -0.005 C 
HETATM   13  C2  UNL     1     -32.790  10.782   0.685  1.00 20.00     0.005 C 
ENDBRANCH  11  12
ENDBRANCH  10  11
ENDBRANCH   1  10
TORSDOF 7
ENDMDL
MODEL 8
REMARK VINA RESULT:      -0.4      1.445      2.627
REMARK  7 active torsions:
REMARK  status: ('A' for Active; 'I' for Inactive)
REMARK    1  A    between atoms: C1_1  and  C6_6 
REMARK    2  A    between atoms: C1_1  and  C11_11 
REMARK    3  A    between atoms: C6_6  and  C12_12 
REMARK    4  A    between atoms: C7_7  and  C9_9 
REMARK    5  A    between atoms: C8_8  and  C12_12 
REMARK    6  A    between atoms: C9_9  and  C10_10 
REMARK    7  A    between atoms: C10_10  and  C12_12 
ROOT
HETATM    1  C12 UNL     1     -33.641   6.709   2.487  1.00 20.00    -0.008 C 
ENDROOT
BRANCH   1   2
HETATM    2  C6  UNL     1     -32.825   7.994   2.742  1.00 20.00     0.083 C 
BRANCH   2   3
HETATM    3  C1  UNL     1     -32.046   8.478   1.525  1.00 20.00     0.130 C 
HETATM    4  O13 UNL     1     -30.888   8.121   1.303  1.00 20.00    -0.298 OA
BRANCH   3   5
HETATM    5  C11 UNL     1     -32.788   9.420   0.581  1.00 20.00     0.047 C 
HETATM    6  C4  UNL     1     -32.286   9.267  -0.852  1.00 20.00     0.017 C 
HETATM    7  C5  UNL     1     -32.628  10.856   1.067  1.00 20.00     0.017 C 
ENDBRANCH   3   5
ENDBRANCH   2   3
ENDBRANCH   1   2
BRANCH   1   8
HETATM    8  C8  UNL     1     -32.766   5.635   1.803  1.00 20.00     0.000 C 
HETATM    9  C3  UNL     1     -33.258   5.169   0.440  1.00 20.00     0.005 C 
ENDBRANCH   1   8
BRANCH   1  10
HETATM   10  C10 UNL     1     -34.301   6.223   3.798  1.00 20.00     0.005 C 
BRANCH  10  11
HETATM   11  C9  UNL     1     -34.562   4.713   3.825  1.00 20.00     0.000 C 
BRANCH  11  12
HETATM   12  C7  UNL     1     -33.769   3.984   4.914  1.00 20.00    -0.005 C 
HETATM   13  C2  UNL     1     -33.216   2.641   4.463  1.00 20.00     0.005 C 
ENDBRANCH  11  12
ENDBRANCH  10  11
ENDBRANCH   1  10
TORSDOF 7
ENDMDL
MODEL 9
REMARK VINA RESULT:      -0.3      1.627      5.250
REMARK  7 active torsions:
REMARK  status: ('A' for Active; 'I' for Inactive)
REMARK    1  A    between atoms: C1_1  and  C6_6 
REMARK    2  A    between atoms: C1_1  and  C11_11 
REMARK    3  A    between atoms: C6_6  and  C12_12 
REMARK    4  A    between atoms: C7_7  and  C9_9 
REMARK    5  A    between atoms: C8_8  and  C12_12 
REMARK    6  A    between atoms: C9_9  and  C10_10 
REMARK    7  A    between atoms: C10_10  and  C12_12 
ROOT
HETATM    1  C12 UNL     1     -33.467   6.131   2.486  1.00 20.00    -0.008 C 
ENDROOT
BRANCH   1   2
HETATM    2  C6  UNL     1     -33.462   4.592   2.593  1.00 20.00     0.083 C 
BRANCH   2   3
HETATM    3  C1  UNL     1     -33.864   4.071   3.969  1.00 20.00     0.130 C 
HETATM    4  O13 UNL     1     -34.921   4.396   4.509  1.00 20.00    -0.298 OA
BRANCH   3   5
HETATM    5  C11 UNL     1     -32.887   3.106   4.634  1.00 20.00     0.047 C 
HETATM    6  C4  UNL     1     -33.379   1.665   4.521  1.00 20.00     0.017 C 
HETATM    7  C5  UNL     1     -32.693   3.504   6.093  1.00 20.00     0.017 C 
ENDBRANCH   3   5
ENDBRANCH   2   3
ENDBRANCH   1   2
BRANCH   1   8
HETATM    8  C8  UNL     1     -33.404   6.776   3.887  1.00 20.00     0.000 C 
HETATM    9  C3  UNL     1     -34.544   7.731   4.214  1.00 20.00     0.005 C 
ENDBRANCH   1   8
BRANCH   1  10
HETATM   10  C10 UNL     1     -32.342   6.606   1.537  1.00 20.00     0.005 C 
BRANCH  10  11
HETATM   11  C9  UNL     1     -31.968   8.080   1.727  1.00 20.00     0.000 C 
BRANCH  11  12
HETATM   12  C7  UNL     1     -31.858   8.849   0.406  1.00 20.00    -0.005 C 
HETATM   13  C2  UNL     1     -32.623  10.163   0.405  1.00 20.00     0.005 C 
ENDBRANCH  11  12
ENDBRANCH  10  11
ENDBRANCH   1  10
TORSDOF 7
ENDMDL
