MODEL 1
REMARK VINA RESULT:      -0.8      0.000      0.000
REMARK  4 active torsions:
REMARK  status: ('A' for Active; 'I' for Inactive)
REMARK    1  A    between atoms: C1_1  and  C9_9 
REMARK    2  A    between atoms: C6_6  and  C7_7 
REMARK    3  A    between atoms: C6_6  and  C8_8 
REMARK    4  A    between atoms: C7_7  and  C9_9 
ROOT
HETATM    1  C7  UNL     1     -33.275   6.782   2.242  1.00 20.00     0.016 C 
ENDROOT
BRANCH   1   2
HETATM    2  C6  UNL     1     -32.395   8.041   2.192  1.00 20.00     0.005 C 
BRANCH   2   3
HETATM    3  C8  UNL     1     -32.460   8.776   0.839  1.00 20.00    -0.023 C 
HETATM    4  C2  UNL     1     -31.126   8.627   0.103  1.00 20.00     0.009 C 
HETATM    5  C3  UNL     1     -32.801  10.259   0.995  1.00 20.00     0.009 C 
ENDBRANCH   2   3
ENDBRANCH   1   2
BRANCH   1   6
HETATM    6  C9  UNL     1     -34.162   6.660   3.504  1.00 20.00     0.006 C 
HETATM    7  C4  UNL     1     -35.621   6.956   3.120  1.00 20.00     0.022 C 
HETATM    8  C5  UNL     1     -33.728   7.632   4.610  1.00 20.00     0.022 C 
BRANCH   6   9
HETATM    9  C1  UNL     1     -34.124   5.219   4.002  1.00 20.00     0.239 C 
HETATM   10  O10 UNL     1     -35.076   4.631   4.506  1.00 20.00    -0.306 OA
ENDBRANCH   6   9
ENDBRANCH   1   6
TORSDOF 4
ENDMDL
MODEL 2
REMARK VINA RESULT:      -0.7      2.427      4.586
REMARK  4 active torsions:
REMARK  status: ('A' for Active; 'I' for Inactive)
REMARK    1  A    between atoms: C1_1  and  C9_9 
REMARK    2  A    between atoms: C6_6  and  C7_7 
REMARK    3  A    between atoms: C6_6  and  C8_8 
REMARK    4  A    between atoms: C7_7  and  C9_9 
ROOT
HETATM    1  C7  UNL     1     -33.677   7.962   2.555  1.00 20.00     0.016 C 
ENDROOT
BRANCH   1   2
HETATM    2  C6  UNL     1     -33.716   7.362   3.970  1.00 20.00     0.005 C 
BRANCH   2   3
HETATM    3  C8  UNL     1     -34.868   6.359   4.174  1.00 20.00    -0.023 C 
HETATM    4  C2  UNL     1     -34.353   4.931   3.983  1.00 20.00     0.009 C 
HETATM    5  C3  UNL     1     -36.042   6.616   3.229  1.00 20.00     0.009 C 
ENDBRANCH   2   3
ENDBRANCH   1   2
BRANCH   1   6
HETATM    6  C9  UNL     1     -32.284   7.942   1.881  1.00 20.00     0.006 C 
HETATM    7  C4  UNL     1     -31.983   6.514   1.398  1.00 20.00     0.022 C 
HETATM    8  C5  UNL     1     -31.173   8.392   2.839  1.00 20.00     0.022 C 
BRANCH   6   9
HETATM    9  C1  UNL     1     -32.320   8.826   0.639  1.00 20.00     0.239 C 
HETATM   10  O10 UNL     1     -32.519  10.037   0.651  1.00 20.00    -0.306 OA
ENDBRANCH   6   9
ENDBRANCH   1   6
TORSDOF 4
ENDMDL
MODEL 3
REMARK VINA RESULT:      -0.6      0.859      1.218
REMARK  4 active torsions:
REMARK  status: ('A' for Active; 'I' for Inactive)
REMARK    1  A    between atoms: C1_1  and  C9_9 
REMARK    2  A    between atoms: C6_6  and  C7_7 
REMARK    3  A    between atoms: C6_6  and  C8_8 
REMARK    4  A    between atoms: C7_7  and  C9_9 
ROOT
HETATM    1  C7  UNL     1     -33.243   6.168   2.744  1.00 20.00     0.016 C 
ENDROOT
BRANCH   1   2
HETATM    2  C6  UNL     1     -33.249   7.029   1.471  1.00 20.00     0.005 C 
BRANCH   2   3
HETATM    3  C8  UNL     1     -32.025   7.959   1.360  1.00 20.00    -0.023 C 
HETATM    4  C2  UNL     1     -31.496   8.291   2.757  1.00 20.00     0.009 C 
HETATM    5  C3  UNL     1     -32.338   9.251   0.606  1.00 20.00     0.009 C 
ENDBRANCH   2   3
ENDBRANCH   1   2
BRANCH   1   6
HETATM    6  C9  UNL     1     -34.424   6.431   3.710  1.00 20.00     0.006 C 
HETATM    7  C4  UNL     1     -35.654   6.856   2.893  1.00 20.00     0.022 C 
HETATM    8  C5  UNL     1     -34.098   7.527   4.733  1.00 20.00     0.022 C 
BRANCH   6   9
HETATM    9  C1  UNL     1     -34.793   5.127   4.411  1.00 20.00     0.239 C 
HETATM   10  O10 UNL     1     -34.264   4.043   4.187  1.00 20.00    -0.306 OA
ENDBRANCH   6   9
ENDBRANCH   1   6
TORSDOF 4
ENDMDL
MODEL 4
REMARK VINA RESULT:      -0.5      1.594      4.215
REMARK  4 active torsions:
REMARK  status: ('A' for Active; 'I' for Inactive)
REMARK    1  A    between atoms: C1_1  and  C9_9 
REMARK    2  A    between atoms: C6_6  and  C7_7 
REMARK    3  A    between atoms: C6_6  and  C8_8 
REMARK    4  A    between atoms: C7_7  and  C9_9 
ROOT
HETATM    1  C7  UNL     1     -33.733   7.950   2.629  1.00 20.00     0.016 C 
ENDROOT
BRANCH   1   2
HETATM    2  C6  UNL     1     -33.785   7.320   4.030  1.00 20.00     0.005 C 
BRANCH   2   3
HETATM    3  C8  UNL     1     -34.971   6.353   4.218  1.00 20.00    -0.023 C 
HETATM    4  C2  UNL     1     -34.480   4.906   4.131  1.00 20.00     0.009 C 
HETATM    5  C3  UNL     1     -36.082   6.584   3.194  1.00 20.00     0.009 C 
ENDBRANCH   2   3
ENDBRANCH   1   2
BRANCH   1   6
HETATM    6  C9  UNL     1     -32.329   7.966   1.977  1.00 20.00     0.006 C 
HETATM    7  C4  UNL     1     -31.296   8.415   3.024  1.00 20.00     0.022 C 
HETATM    8  C5  UNL     1     -32.263   8.911   0.771  1.00 20.00     0.022 C 
BRANCH   6   9
HETATM    9  C1  UNL     1     -31.952   6.544   1.574  1.00 20.00     0.239 C 
HETATM   10  O10 UNL     1     -32.758   5.672   1.262  1.00 20.00    -0.306 OA
ENDBRANCH   6   9
ENDBRANCH   1   6
TORSDOF 4
ENDMDL
MODEL 5
REMARK VINA RESULT:      -0.4      2.548      4.847
REMARK  4 active torsions:
REMARK  status: ('A' for Active; 'I' for Inactive)
REMARK    1  A    between atoms: C1_1  and  C9_9 
REMARK    2  A    between atoms: C6_6  and  C7_7 
REMARK    3  A    between atoms: C6_6  and  C8_8 
REMARK    4  A    between atoms: C7_7  and  C9_9 
ROOT
HETATM    1  C7  UNL     1     -33.403   6.942   1.776  1.00 20.00     0.016 C 
ENDROOT
BRANCH   1   2
HETATM    2  C6  UNL     1     -33.103   5.638   2.533  1.00 20.00     0.005 C 
BRANCH   2   3
HETATM    3  C8  UNL     1     -34.306   5.115   3.344  1.00 20.00    -0.023 C 
HETATM    4  C2  UNL     1     -34.979   6.275   4.080  1.00 20.00     0.009 C 
HETATM    5  C3  UNL     1     -33.908   4.029   4.344  1.00 20.00     0.009 C 
ENDBRANCH   2   3
ENDBRANCH   1   2
BRANCH   1   6
HETATM    6  C9  UNL     1     -32.314   8.033   1.909  1.00 20.00     0.006 C 
HETATM    7  C4  UNL     1     -30.992   7.493   1.340  1.00 20.00     0.022 C 
HETATM    8  C5  UNL     1     -32.096   8.456   3.368  1.00 20.00     0.022 C 
BRANCH   6   9
HETATM    9  C1  UNL     1     -32.703   9.232   1.049  1.00 20.00     0.239 C 
HETATM   10  O10 UNL     1     -32.116   9.576   0.028  1.00 20.00    -0.306 OA
ENDBRANCH   6   9
ENDBRANCH   1   6
TORSDOF 4
ENDMDL
MODEL 6
REMARK VINA RESULT:      -0.0      1.246      1.835
REMARK  4 active torsions:
REMARK  status: ('A' for Active; 'I' for Inactive)
REMARK    1  A    between atoms: C1_1  and  C9_9 
REMARK    2  A    between atoms: C6_6  and  C7_7 
REMARK    3  A    between atoms: C6_6  and  C8_8 
REMARK    4  A    between atoms: C7_7  and  C9_9 
ROOT
HETATM    1  C7  UNL     1     -33.218   6.800   1.967  1.00 20.00     0.016 C 
ENDROOT
BRANCH   1   2
HETATM    2  C6  UNL     1     -32.272   8.010   1.927  1.00 20.00     0.005 C 
BRANCH   2   3
HETATM    3  C8  UNL     1     -32.413   8.851   0.642  1.00 20.00    -0.023 C 
HETATM    4  C2  UNL     1     -31.119   8.774  -0.173  1.00 20.00     0.009 C 
HETATM    5  C3  UNL     1     -32.752  10.313   0.935  1.00 20.00     0.009 C 
ENDBRANCH   2   3
ENDBRANCH   1   2
BRANCH   1   6
HETATM    6  C9  UNL     1     -33.930   6.579   3.324  1.00 20.00     0.006 C 
HETATM    7  C4  UNL     1     -33.713   5.124   3.771  1.00 20.00     0.022 C 
HETATM    8  C5  UNL     1     -35.436   6.858   3.237  1.00 20.00     0.022 C 
BRANCH   6   9
HETATM    9  C1  UNL     1     -33.275   7.464   4.379  1.00 20.00     0.239 C 
HETATM   10  O10 UNL     1     -33.886   8.197   5.150  1.00 20.00    -0.306 OA
ENDBRANCH   6   9
ENDBRANCH   1   6
TORSDOF 4
ENDMDL
MODEL 7
REMARK VINA RESULT:      -0.0      1.582      2.679
REMARK  4 active torsions:
REMARK  status: ('A' for Active; 'I' for Inactive)
REMARK    1  A    between atoms: C1_1  and  C9_9 
REMARK    2  A    between atoms: C6_6  and  C7_7 
REMARK    3  A    between atoms: C6_6  and  C8_8 
REMARK    4  A    between atoms: C7_7  and  C9_9 
ROOT
HETATM    1  C7  UNL     1     -31.948   7.412   1.846  1.00 20.00     0.016 C 
ENDROOT
BRANCH   1   2
HETATM    2  C6  UNL     1     -32.704   8.712   1.527  1.00 20.00     0.005 C 
BRANCH   2   3
HETATM    3  C8  UNL     1     -31.976   9.603   0.500  1.00 20.00    -0.023 C 
HETATM    4  C2  UNL     1     -33.001  10.366  -0.342  1.00 20.00     0.009 C 
HETATM    5  C3  UNL     1     -31.049   8.802  -0.415  1.00 20.00     0.009 C 
ENDBRANCH   2   3
ENDBRANCH   1   2
BRANCH   1   6
HETATM    6  C9  UNL     1     -32.767   6.117   1.628  1.00 20.00     0.006 C 
HETATM    7  C4  UNL     1     -31.801   4.961   1.319  1.00 20.00     0.022 C 
HETATM    8  C5  UNL     1     -33.769   6.255   0.475  1.00 20.00     0.022 C 
BRANCH   6   9
HETATM    9  C1  UNL     1     -33.480   5.755   2.927  1.00 20.00     0.239 C 
HETATM   10  O10 UNL     1     -34.271   6.487   3.515  1.00 20.00    -0.306 OA
ENDBRANCH   6   9
ENDBRANCH   1   6
TORSDOF 4
ENDMDL
MODEL 8
REMARK VINA RESULT:       0.2      1.868      4.398
REMARK  4 active torsions:
REMARK  status: ('A' for Active; 'I' for Inactive)
REMARK    1  A    between atoms: C1_1  and  C9_9 
REMARK    2  A    between atoms: C6_6  and  C7_7 
REMARK    3  A    between atoms: C6_6  and  C8_8 
REMARK    4  A    between atoms: C7_7  and  C9_9 
ROOT
HETATM    1  C7  UNL     1     -33.586   7.230   2.068  1.00 20.00     0.016 C 
ENDROOT
BRANCH   1   2
HETATM    2  C6  UNL     1     -33.450   5.747   2.447  1.00 20.00     0.005 C 
BRANCH   2   3
HETATM    3  C8  UNL     1     -33.964   5.431   3.866  1.00 20.00    -0.023 C 
HETATM    4  C2  UNL     1     -33.971   3.917   4.090  1.00 20.00     0.009 C 
HETATM    5  C3  UNL     1     -35.361   5.997   4.122  1.00 20.00     0.009 C 
ENDBRANCH   2   3
ENDBRANCH   1   2
BRANCH   1   6
HETATM    6  C9  UNL     1     -32.244   7.984   1.910  1.00 20.00     0.006 C 
HETATM    7  C4  UNL     1     -32.437   9.147   0.922  1.00 20.00     0.022 C 
HETATM    8  C5  UNL     1     -31.126   7.069   1.394  1.00 20.00     0.022 C 
BRANCH   6   9
HETATM    9  C1  UNL     1     -31.862   8.607   3.249  1.00 20.00     0.239 C 
HETATM   10  O10 UNL     1     -32.437   8.383   4.310  1.00 20.00    -0.306 OA
ENDBRANCH   6   9
ENDBRANCH   1   6
TORSDOF 4
ENDMDL
MODEL 9
REMARK VINA RESULT:       0.2      1.036      1.933
REMARK  4 active torsions:
REMARK  status: ('A' for Active; 'I' for Inactive)
REMARK    1  A    between atoms: C1_1  and  C9_9 
REMARK    2  A    between atoms: C6_6  and  C7_7 
REMARK    3  A    between atoms: C6_6  and  C8_8 
REMARK    4  A    between atoms: C7_7  and  C9_9 
ROOT
HETATM    1  C7  UNL     1     -33.495   7.765   1.938  1.00 20.00     0.016 C 
ENDROOT
BRANCH   1   2
HETATM    2  C6  UNL     1     -32.058   8.207   1.617  1.00 20.00     0.005 C 
BRANCH   2   3
HETATM    3  C8  UNL     1     -31.992   9.416   0.663  1.00 20.00    -0.023 C 
HETATM    4  C2  UNL     1     -32.850  10.558   1.212  1.00 20.00     0.009 C 
HETATM    5  C3  UNL     1     -32.443   9.067  -0.756  1.00 20.00     0.009 C 
ENDBRANCH   2   3
ENDBRANCH   1   2
BRANCH   1   6
HETATM    6  C9  UNL     1     -33.648   6.967   3.255  1.00 20.00     0.006 C 
HETATM    7  C4  UNL     1     -32.967   7.745   4.393  1.00 20.00     0.022 C 
HETATM    8  C5  UNL     1     -33.024   5.569   3.159  1.00 20.00     0.022 C 
BRANCH   6   9
HETATM    9  C1  UNL     1     -35.129   6.877   3.612  1.00 20.00     0.239 C 
HETATM   10  O10 UNL     1     -35.639   5.951   4.235  1.00 20.00    -0.306 OA
ENDBRANCH   6   9
ENDBRANCH   1   6
TORSDOF 4
ENDMDL
