MODEL 1
REMARK VINA RESULT:      -2.4      0.000      0.000
REMARK  2 active torsions:
REMARK  status: ('A' for Active; 'I' for Inactive)
REMARK    1  A    between atoms: C3_3  and  C8_8 
REMARK    2  A    between atoms: C7_7  and  C8_8 
ROOT
HETATM    1  C1  UNL     1     -33.146   8.169   3.060  1.00 20.00     0.053 A 
HETATM    2  C2  UNL     1     -34.149   6.172   3.978  1.00 20.00     0.087 A 
HETATM    3  C3  UNL     1     -32.603   7.418   2.018  1.00 20.00    -0.007 A 
HETATM    4  C4  UNL     1     -33.919   7.546   4.040  1.00 20.00     0.120 A 
HETATM    5  C5  UNL     1     -33.606   5.420   2.936  1.00 20.00     0.158 A 
HETATM    6  C6  UNL     1     -32.833   6.043   1.956  1.00 20.00     0.161 A 
HETATM    7  F10 UNL     1     -34.441   8.267   5.042  1.00 20.00    -0.206 F 
HETATM    8  F11 UNL     1     -33.828   4.100   2.876  1.00 20.00    -0.203 F 
HETATM    9  F12 UNL     1     -32.316   5.313   0.959  1.00 20.00    -0.202 F 
ENDROOT
BRANCH   3  10
HETATM   10  C8  UNL     1     -31.776   8.086   0.973  1.00 20.00     0.111 C 
BRANCH  10  11
HETATM   11  C7  UNL     1     -32.241   9.481   0.620  1.00 20.00     0.235 C 
HETATM   12  O9  UNL     1     -32.674   9.814  -0.478  1.00 20.00    -0.307 OA
ENDBRANCH  10  11
ENDBRANCH   3  10
TORSDOF 2
ENDMDL
MODEL 2
REMARK VINA RESULT:      -2.0      1.078      2.846
REMARK  2 active torsions:
REMARK  status: ('A' for Active; 'I' for Inactive)
REMARK    1  A    between atoms: C3_3  and  C8_8 
REMARK    2  A    between atoms: C7_7  and  C8_8 
ROOT
HETATM    1  C1  UNL     1     -32.011   6.911   1.211  1.00 20.00     0.053 A 
HETATM    2  C2  UNL     1     -33.179   5.160   2.398  1.00 20.00     0.087 A 
HETATM    3  C3  UNL     1     -32.671   7.871   1.979  1.00 20.00    -0.007 A 
HETATM    4  C4  UNL     1     -32.265   5.555   1.420  1.00 20.00     0.120 A 
HETATM    5  C5  UNL     1     -33.838   6.119   3.165  1.00 20.00     0.158 A 
HETATM    6  C6  UNL     1     -33.584   7.475   2.956  1.00 20.00     0.161 A 
HETATM    7  F10 UNL     1     -31.632   4.633   0.683  1.00 20.00    -0.206 F 
HETATM    8  F11 UNL     1     -34.714   5.739   4.104  1.00 20.00    -0.203 F 
HETATM    9  F12 UNL     1     -34.222   8.390   3.699  1.00 20.00    -0.202 F 
ENDROOT
BRANCH   3  10
HETATM   10  C8  UNL     1     -32.397   9.319   1.752  1.00 20.00     0.111 C 
BRANCH  10  11
HETATM   11  C7  UNL     1     -32.138   9.677   0.306  1.00 20.00     0.235 C 
HETATM   12  O9  UNL     1     -33.011   9.832  -0.541  1.00 20.00    -0.307 OA
ENDBRANCH  10  11
ENDBRANCH   3  10
TORSDOF 2
ENDMDL
MODEL 3
REMARK VINA RESULT:      -1.8      2.680      4.788
REMARK  2 active torsions:
REMARK  status: ('A' for Active; 'I' for Inactive)
REMARK    1  A    between atoms: C3_3  and  C8_8 
REMARK    2  A    between atoms: C7_7  and  C8_8 
ROOT
HETATM    1  C1  UNL     1     -33.667   5.591   2.179  1.00 20.00     0.053 A 
HETATM    2  C2  UNL     1     -31.827   7.088   1.723  1.00 20.00     0.087 A 
HETATM    3  C3  UNL     1     -34.070   6.407   3.236  1.00 20.00    -0.007 A 
HETATM    4  C4  UNL     1     -32.546   5.931   1.422  1.00 20.00     0.120 A 
HETATM    5  C5  UNL     1     -32.228   7.904   2.780  1.00 20.00     0.158 A 
HETATM    6  C6  UNL     1     -33.350   7.564   3.536  1.00 20.00     0.161 A 
HETATM    7  F10 UNL     1     -32.158   5.148   0.407  1.00 20.00    -0.206 F 
HETATM    8  F11 UNL     1     -31.539   9.015   3.069  1.00 20.00    -0.203 F 
HETATM    9  F12 UNL     1     -33.730   8.354   4.550  1.00 20.00    -0.202 F 
ENDROOT
BRANCH   3  10
HETATM   10  C8  UNL     1     -35.268   6.040   4.043  1.00 20.00     0.111 C 
BRANCH  10  11
HETATM   11  C7  UNL     1     -35.159   4.697   4.731  1.00 20.00     0.235 C 
HETATM   12  O9  UNL     1     -34.295   3.861   4.494  1.00 20.00    -0.307 OA
ENDBRANCH  10  11
ENDBRANCH   3  10
TORSDOF 2
ENDMDL
MODEL 4
REMARK VINA RESULT:      -1.8      2.805      4.109
REMARK  2 active torsions:
REMARK  status: ('A' for Active; 'I' for Inactive)
REMARK    1  A    between atoms: C3_3  and  C8_8 
REMARK    2  A    between atoms: C7_7  and  C8_8 
ROOT
HETATM    1  C1  UNL     1     -34.066   6.422   3.934  1.00 20.00     0.053 A 
HETATM    2  C2  UNL     1     -32.922   8.277   2.892  1.00 20.00     0.087 A 
HETATM    3  C3  UNL     1     -33.501   5.550   3.003  1.00 20.00    -0.007 A 
HETATM    4  C4  UNL     1     -33.777   7.785   3.878  1.00 20.00     0.120 A 
HETATM    5  C5  UNL     1     -32.356   7.406   1.961  1.00 20.00     0.158 A 
HETATM    6  C6  UNL     1     -32.646   6.043   2.017  1.00 20.00     0.161 A 
HETATM    7  F10 UNL     1     -34.320   8.623   4.772  1.00 20.00    -0.206 F 
HETATM    8  F11 UNL     1     -31.535   7.878   1.015  1.00 20.00    -0.203 F 
HETATM    9  F12 UNL     1     -32.097   5.213   1.119  1.00 20.00    -0.202 F 
ENDROOT
BRANCH   3  10
HETATM   10  C8  UNL     1     -33.813   4.094   3.064  1.00 20.00     0.111 C 
BRANCH  10  11
HETATM   11  C7  UNL     1     -33.800   3.520   4.464  1.00 20.00     0.235 C 
HETATM   12  O9  UNL     1     -32.928   2.781   4.906  1.00 20.00    -0.307 OA
ENDBRANCH  10  11
ENDBRANCH   3  10
TORSDOF 2
ENDMDL
MODEL 5
REMARK VINA RESULT:      -1.5      2.661      3.934
REMARK  2 active torsions:
REMARK  status: ('A' for Active; 'I' for Inactive)
REMARK    1  A    between atoms: C3_3  and  C8_8 
REMARK    2  A    between atoms: C7_7  and  C8_8 
ROOT
HETATM    1  C1  UNL     1     -33.134   8.358   2.567  1.00 20.00     0.053 A 
HETATM    2  C2  UNL     1     -31.806   7.284   0.858  1.00 20.00     0.087 A 
HETATM    3  C3  UNL     1     -33.478   7.109   3.084  1.00 20.00    -0.007 A 
HETATM    4  C4  UNL     1     -32.298   8.446   1.454  1.00 20.00     0.120 A 
HETATM    5  C5  UNL     1     -32.149   6.035   1.375  1.00 20.00     0.158 A 
HETATM    6  C6  UNL     1     -32.986   5.947   2.488  1.00 20.00     0.161 A 
HETATM    7  F10 UNL     1     -31.967   9.645   0.956  1.00 20.00    -0.206 F 
HETATM    8  F11 UNL     1     -31.676   4.920   0.804  1.00 20.00    -0.203 F 
HETATM    9  F12 UNL     1     -33.310   4.743   2.979  1.00 20.00    -0.202 F 
ENDROOT
BRANCH   3  10
HETATM   10  C8  UNL     1     -34.373   7.018   4.273  1.00 20.00     0.111 C 
BRANCH  10  11
HETATM   11  C7  UNL     1     -35.528   6.056   4.103  1.00 20.00     0.235 C 
HETATM   12  O9  UNL     1     -35.607   4.960   4.648  1.00 20.00    -0.307 OA
ENDBRANCH  10  11
ENDBRANCH   3  10
TORSDOF 2
ENDMDL
MODEL 6
REMARK VINA RESULT:      -1.3      3.023      4.806
REMARK  2 active torsions:
REMARK  status: ('A' for Active; 'I' for Inactive)
REMARK    1  A    between atoms: C3_3  and  C8_8 
REMARK    2  A    between atoms: C7_7  and  C8_8 
ROOT
HETATM    1  C1  UNL     1     -32.609   5.730   2.142  1.00 20.00     0.053 A 
HETATM    2  C2  UNL     1     -32.945   8.074   2.623  1.00 20.00     0.087 A 
HETATM    3  C3  UNL     1     -33.622   5.400   3.042  1.00 20.00    -0.007 A 
HETATM    4  C4  UNL     1     -32.270   7.067   1.932  1.00 20.00     0.120 A 
HETATM    5  C5  UNL     1     -33.957   7.744   3.523  1.00 20.00     0.158 A 
HETATM    6  C6  UNL     1     -34.296   6.408   3.732  1.00 20.00     0.161 A 
HETATM    7  F10 UNL     1     -31.297   7.384   1.068  1.00 20.00    -0.206 F 
HETATM    8  F11 UNL     1     -34.606   8.711   4.185  1.00 20.00    -0.203 F 
HETATM    9  F12 UNL     1     -35.272   6.100   4.599  1.00 20.00    -0.202 F 
ENDROOT
BRANCH   3  10
HETATM   10  C8  UNL     1     -33.981   3.970   3.265  1.00 20.00     0.111 C 
BRANCH  10  11
HETATM   11  C7  UNL     1     -33.509   3.416   4.590  1.00 20.00     0.235 C 
HETATM   12  O9  UNL     1     -33.095   2.274   4.760  1.00 20.00    -0.307 OA
ENDBRANCH  10  11
ENDBRANCH   3  10
TORSDOF 2
ENDMDL
MODEL 7
REMARK VINA RESULT:      -0.9      1.818      3.136
REMARK  2 active torsions:
REMARK  status: ('A' for Active; 'I' for Inactive)
REMARK    1  A    between atoms: C3_3  and  C8_8 
REMARK    2  A    between atoms: C7_7  and  C8_8 
ROOT
HETATM    1  C1  UNL     1     -32.959   4.416   2.888  1.00 20.00     0.053 A 
HETATM    2  C2  UNL     1     -34.663   4.507   4.599  1.00 20.00     0.087 A 
HETATM    3  C3  UNL     1     -33.201   5.754   2.576  1.00 20.00    -0.007 A 
HETATM    4  C4  UNL     1     -33.689   3.792   3.900  1.00 20.00     0.120 A 
HETATM    5  C5  UNL     1     -34.905   5.844   4.287  1.00 20.00     0.158 A 
HETATM    6  C6  UNL     1     -34.174   6.468   3.276  1.00 20.00     0.161 A 
HETATM    7  F10 UNL     1     -33.458   2.507   4.200  1.00 20.00    -0.206 F 
HETATM    8  F11 UNL     1     -35.839   6.530   4.959  1.00 20.00    -0.203 F 
HETATM    9  F12 UNL     1     -34.413   7.754   2.983  1.00 20.00    -0.202 F 
ENDROOT
BRANCH   3  10
HETATM   10  C8  UNL     1     -32.419   6.417   1.494  1.00 20.00     0.111 C 
BRANCH  10  11
HETATM   11  C7  UNL     1     -31.935   7.806   1.847  1.00 20.00     0.235 C 
HETATM   12  O9  UNL     1     -32.101   8.800   1.148  1.00 20.00    -0.307 OA
ENDBRANCH  10  11
ENDBRANCH   3  10
TORSDOF 2
ENDMDL
MODEL 8
REMARK VINA RESULT:      -0.7      1.809      2.719
REMARK  2 active torsions:
REMARK  status: ('A' for Active; 'I' for Inactive)
REMARK    1  A    between atoms: C3_3  and  C8_8 
REMARK    2  A    between atoms: C7_7  and  C8_8 
ROOT
HETATM    1  C1  UNL     1     -33.900   6.889   2.438  1.00 20.00     0.053 A 
HETATM    2  C2  UNL     1     -34.225   7.380   4.781  1.00 20.00     0.087 A 
HETATM    3  C3  UNL     1     -32.726   7.643   2.443  1.00 20.00    -0.007 A 
HETATM    4  C4  UNL     1     -34.650   6.758   3.606  1.00 20.00     0.120 A 
HETATM    5  C5  UNL     1     -33.052   8.133   4.787  1.00 20.00     0.158 A 
HETATM    6  C6  UNL     1     -32.302   8.265   3.618  1.00 20.00     0.161 A 
HETATM    7  F10 UNL     1     -35.778   6.035   3.602  1.00 20.00    -0.206 F 
HETATM    8  F11 UNL     1     -32.643   8.729   5.915  1.00 20.00    -0.203 F 
HETATM    9  F12 UNL     1     -31.175   8.990   3.632  1.00 20.00    -0.202 F 
ENDROOT
BRANCH   3  10
HETATM   10  C8  UNL     1     -31.928   7.782   1.192  1.00 20.00     0.111 C 
BRANCH  10  11
HETATM   11  C7  UNL     1     -31.920   9.182   0.619  1.00 20.00     0.235 C 
HETATM   12  O9  UNL     1     -32.653   9.569  -0.285  1.00 20.00    -0.307 OA
ENDBRANCH  10  11
ENDBRANCH   3  10
TORSDOF 2
ENDMDL
MODEL 9
REMARK VINA RESULT:      -0.4      2.447      3.346
REMARK  2 active torsions:
REMARK  status: ('A' for Active; 'I' for Inactive)
REMARK    1  A    between atoms: C3_3  and  C8_8 
REMARK    2  A    between atoms: C7_7  and  C8_8 
ROOT
HETATM    1  C1  UNL     1     -34.175   5.893   2.643  1.00 20.00     0.053 A 
HETATM    2  C2  UNL     1     -33.641   7.698   4.158  1.00 20.00     0.087 A 
HETATM    3  C3  UNL     1     -33.082   6.237   1.848  1.00 20.00    -0.007 A 
HETATM    4  C4  UNL     1     -34.455   6.623   3.798  1.00 20.00     0.120 A 
HETATM    5  C5  UNL     1     -32.548   8.042   3.364  1.00 20.00     0.158 A 
HETATM    6  C6  UNL     1     -32.268   7.312   2.209  1.00 20.00     0.161 A 
HETATM    7  F10 UNL     1     -35.506   6.294   4.562  1.00 20.00    -0.206 F 
HETATM    8  F11 UNL     1     -31.766   9.072   3.711  1.00 20.00    -0.203 F 
HETATM    9  F12 UNL     1     -31.215   7.649   1.452  1.00 20.00    -0.202 F 
ENDROOT
BRANCH   3  10
HETATM   10  C8  UNL     1     -32.786   5.456   0.614  1.00 20.00     0.111 C 
BRANCH  10  11
HETATM   11  C7  UNL     1     -31.570   4.563   0.727  1.00 20.00     0.235 C 
HETATM   12  O9  UNL     1     -31.125   3.873  -0.184  1.00 20.00    -0.307 OA
ENDBRANCH  10  11
ENDBRANCH   3  10
TORSDOF 2
ENDMDL
