MODEL 1
REMARK VINA RESULT:      -0.0      0.000      0.000
REMARK  4 active torsions:
REMARK  status: ('A' for Active; 'I' for Inactive)
REMARK    1  A    between atoms: C4_4  and  N11_11 
REMARK    2  A    between atoms: C7_7  and  C9_9 
REMARK    3  A    between atoms: C8_8  and  N11_11 
REMARK    4  A    between atoms: C9_9  and  N11_11 
ROOT
HETATM    1  C1  UNL     1     -32.228   7.270   1.586  1.00 20.00     0.095 C 
HETATM    2  C9  UNL     1     -32.660   5.870   1.705  1.00 20.00     0.328 C 
HETATM    3  N10 UNL     1     -31.890   8.376   1.490  1.00 20.00    -0.195 NA
ENDROOT
BRANCH   2   4
HETATM    4  C7  UNL     1     -31.510   4.881   1.476  1.00 20.00     0.046 C 
HETATM    5  C5  UNL     1     -31.516   4.204   0.108  1.00 20.00     0.008 C 
ENDBRANCH   2   4
BRANCH   2   6
HETATM    6  N11 UNL     1     -33.302   5.644   2.976  1.00 20.00     0.110 N 
BRANCH   6   7
HETATM    7  C4  UNL     1     -34.359   6.635   3.221  1.00 20.00     0.224 A 
HETATM    8  C2  UNL     1     -35.390   6.399   4.291  1.00 20.00     0.038 A 
HETATM    9  C3  UNL     1     -34.351   7.466   4.475  1.00 20.00     0.038 A 
ENDBRANCH   6   7
BRANCH   6  10
HETATM   10  C8  UNL     1     -33.867   4.289   3.053  1.00 20.00     0.270 C 
HETATM   11  C6  UNL     1     -33.495   3.624   4.333  1.00 20.00     0.037 C 
ENDBRANCH   6  10
ENDBRANCH   2   6
TORSDOF 4
ENDMDL
MODEL 2
REMARK VINA RESULT:       0.2      1.727      4.350
REMARK  4 active torsions:
REMARK  status: ('A' for Active; 'I' for Inactive)
REMARK    1  A    between atoms: C4_4  and  N11_11 
REMARK    2  A    between atoms: C7_7  and  C9_9 
REMARK    3  A    between atoms: C8_8  and  N11_11 
REMARK    4  A    between atoms: C9_9  and  N11_11 
ROOT
HETATM    1  C1  UNL     1     -34.526   6.610   3.690  1.00 20.00     0.095 C 
HETATM    2  C9  UNL     1     -33.681   7.723   3.236  1.00 20.00     0.328 C 
HETATM    3  N10 UNL     1     -35.198   5.734   4.048  1.00 20.00    -0.195 NA
ENDROOT
BRANCH   2   4
HETATM    4  C7  UNL     1     -32.642   8.136   4.287  1.00 20.00     0.046 C 
HETATM    5  C5  UNL     1     -33.210   8.367   5.685  1.00 20.00     0.008 C 
ENDBRANCH   2   4
BRANCH   2   6
HETATM    6  N11 UNL     1     -33.055   7.402   1.977  1.00 20.00     0.110 N 
BRANCH   6   7
HETATM    7  C4  UNL     1     -32.081   8.433   1.589  1.00 20.00     0.224 A 
HETATM    8  C2  UNL     1     -31.554   8.489   0.182  1.00 20.00     0.038 A 
HETATM    9  C3  UNL     1     -32.484   9.559   0.676  1.00 20.00     0.038 A 
ENDBRANCH   6   7
BRANCH   6  10
HETATM   10  C8  UNL     1     -32.392   6.092   2.031  1.00 20.00     0.270 C 
HETATM   11  C6  UNL     1     -32.713   5.276   0.827  1.00 20.00     0.037 C 
ENDBRANCH   6  10
ENDBRANCH   2   6
TORSDOF 4
ENDMDL
MODEL 3
REMARK VINA RESULT:       0.2      1.512      3.605
REMARK  4 active torsions:
REMARK  status: ('A' for Active; 'I' for Inactive)
REMARK    1  A    between atoms: C4_4  and  N11_11 
REMARK    2  A    between atoms: C7_7  and  C9_9 
REMARK    3  A    between atoms: C8_8  and  N11_11 
REMARK    4  A    between atoms: C9_9  and  N11_11 
ROOT
HETATM    1  C1  UNL     1     -33.661   7.517   4.235  1.00 20.00     0.095 C 
HETATM    2  C9  UNL     1     -33.377   6.382   3.347  1.00 20.00     0.328 C 
HETATM    3  N10 UNL     1     -33.881   8.414   4.938  1.00 20.00    -0.195 NA
ENDROOT
BRANCH   2   4
HETATM    4  C7  UNL     1     -34.433   5.274   3.457  1.00 20.00     0.046 C 
HETATM    5  C5  UNL     1     -33.976   4.033   4.219  1.00 20.00     0.008 C 
ENDBRANCH   2   4
BRANCH   2   6
HETATM    6  N11 UNL     1     -33.226   6.830   1.984  1.00 20.00     0.110 N 
BRANCH   6   7
HETATM    7  C4  UNL     1     -32.169   7.845   1.872  1.00 20.00     0.224 A 
HETATM    8  C2  UNL     1     -31.705   8.314   0.521  1.00 20.00     0.038 A 
HETATM    9  C3  UNL     1     -32.493   9.237   1.404  1.00 20.00     0.038 A 
ENDBRANCH   6   7
BRANCH   6  10
HETATM   10  C8  UNL     1     -32.929   5.706   1.085  1.00 20.00     0.270 C 
HETATM   11  C6  UNL     1     -31.616   5.085   1.415  1.00 20.00     0.037 C 
ENDBRANCH   6  10
ENDBRANCH   2   6
TORSDOF 4
ENDMDL
MODEL 4
REMARK VINA RESULT:       0.5      1.354      4.496
REMARK  4 active torsions:
REMARK  status: ('A' for Active; 'I' for Inactive)
REMARK    1  A    between atoms: C4_4  and  N11_11 
REMARK    2  A    between atoms: C7_7  and  C9_9 
REMARK    3  A    between atoms: C8_8  and  N11_11 
REMARK    4  A    between atoms: C9_9  and  N11_11 
ROOT
HETATM    1  C1  UNL     1     -34.727   5.593   4.017  1.00 20.00     0.095 C 
HETATM    2  C9  UNL     1     -34.338   6.837   3.337  1.00 20.00     0.328 C 
HETATM    3  N10 UNL     1     -35.037   4.609   4.550  1.00 20.00    -0.195 NA
ENDROOT
BRANCH   2   4
HETATM    4  C7  UNL     1     -34.291   8.035   4.294  1.00 20.00     0.046 C 
HETATM    5  C5  UNL     1     -33.079   8.060   5.222  1.00 20.00     0.008 C 
ENDBRANCH   2   4
BRANCH   2   6
HETATM    6  N11 UNL     1     -33.085   6.666   2.646  1.00 20.00     0.110 N 
BRANCH   6   7
HETATM    7  C4  UNL     1     -33.044   5.384   1.928  1.00 20.00     0.224 A 
HETATM    8  C2  UNL     1     -33.087   5.352   0.426  1.00 20.00     0.038 A 
HETATM    9  C3  UNL     1     -31.822   4.986   1.146  1.00 20.00     0.038 A 
ENDBRANCH   6   7
BRANCH   6  10
HETATM   10  C8  UNL     1     -32.843   7.768   1.703  1.00 20.00     0.270 C 
HETATM   11  C6  UNL     1     -31.492   8.363   1.906  1.00 20.00     0.037 C 
ENDBRANCH   6  10
ENDBRANCH   2   6
TORSDOF 4
ENDMDL
MODEL 5
REMARK VINA RESULT:       0.5      1.282      3.568
REMARK  4 active torsions:
REMARK  status: ('A' for Active; 'I' for Inactive)
REMARK    1  A    between atoms: C4_4  and  N11_11 
REMARK    2  A    between atoms: C7_7  and  C9_9 
REMARK    3  A    between atoms: C8_8  and  N11_11 
REMARK    4  A    between atoms: C9_9  and  N11_11 
ROOT
HETATM    1  C1  UNL     1     -34.669   6.145   3.702  1.00 20.00     0.095 C 
HETATM    2  C9  UNL     1     -33.398   5.626   3.178  1.00 20.00     0.328 C 
HETATM    3  N10 UNL     1     -35.671   6.559   4.118  1.00 20.00    -0.195 NA
ENDROOT
BRANCH   2   4
HETATM    4  C7  UNL     1     -33.344   4.092   3.188  1.00 20.00     0.046 C 
HETATM    5  C5  UNL     1     -33.607   3.456   4.550  1.00 20.00     0.008 C 
ENDBRANCH   2   4
BRANCH   2   6
HETATM    6  N11 UNL     1     -33.140   6.152   1.861  1.00 20.00     0.110 N 
BRANCH   6   7
HETATM    7  C4  UNL     1     -31.990   7.068   1.870  1.00 20.00     0.224 A 
HETATM    8  C2  UNL     1     -32.027   8.343   1.073  1.00 20.00     0.038 A 
HETATM    9  C3  UNL     1     -32.077   8.396   2.572  1.00 20.00     0.038 A 
ENDBRANCH   6   7
BRANCH   6  10
HETATM   10  C8  UNL     1     -32.902   5.071   0.894  1.00 20.00     0.270 C 
HETATM   11  C6  UNL     1     -31.444   4.847   0.685  1.00 20.00     0.037 C 
ENDBRANCH   6  10
ENDBRANCH   2   6
TORSDOF 4
ENDMDL
MODEL 6
REMARK VINA RESULT:       0.6      1.478      4.323
REMARK  4 active torsions:
REMARK  status: ('A' for Active; 'I' for Inactive)
REMARK    1  A    between atoms: C4_4  and  N11_11 
REMARK    2  A    between atoms: C7_7  and  C9_9 
REMARK    3  A    between atoms: C8_8  and  N11_11 
REMARK    4  A    between atoms: C9_9  and  N11_11 
ROOT
HETATM    1  C1  UNL     1     -33.914   4.363   4.037  1.00 20.00     0.095 C 
HETATM    2  C9  UNL     1     -34.409   5.569   3.358  1.00 20.00     0.328 C 
HETATM    3  N10 UNL     1     -33.522   3.409   4.570  1.00 20.00    -0.195 NA
ENDROOT
BRANCH   2   4
HETATM    4  C7  UNL     1     -35.688   6.120   4.002  1.00 20.00     0.046 C 
HETATM    5  C5  UNL     1     -36.686   6.723   3.018  1.00 20.00     0.008 C 
ENDBRANCH   2   4
BRANCH   2   6
HETATM    6  N11 UNL     1     -33.377   6.574   3.294  1.00 20.00     0.110 N 
BRANCH   6   7
HETATM    7  C4  UNL     1     -32.981   6.842   1.904  1.00 20.00     0.224 A 
HETATM    8  C2  UNL     1     -31.925   7.868   1.600  1.00 20.00     0.038 A 
HETATM    9  C3  UNL     1     -31.632   6.410   1.399  1.00 20.00     0.038 A 
ENDBRANCH   6   7
BRANCH   6  10
HETATM   10  C8  UNL     1     -33.813   7.824   3.934  1.00 20.00     0.270 C 
HETATM   11  C6  UNL     1     -32.969   8.144   5.120  1.00 20.00     0.037 C 
ENDBRANCH   6  10
ENDBRANCH   2   6
TORSDOF 4
ENDMDL
MODEL 7
REMARK VINA RESULT:       0.6      1.248      2.234
REMARK  4 active torsions:
REMARK  status: ('A' for Active; 'I' for Inactive)
REMARK    1  A    between atoms: C4_4  and  N11_11 
REMARK    2  A    between atoms: C7_7  and  C9_9 
REMARK    3  A    between atoms: C8_8  and  N11_11 
REMARK    4  A    between atoms: C9_9  and  N11_11 
ROOT
HETATM    1  C1  UNL     1     -32.973   4.974   0.741  1.00 20.00     0.095 C 
HETATM    2  C9  UNL     1     -32.475   5.832   1.825  1.00 20.00     0.328 C 
HETATM    3  N10 UNL     1     -33.363   4.294  -0.116  1.00 20.00    -0.195 NA
ENDROOT
BRANCH   2   4
HETATM    4  C7  UNL     1     -32.467   7.317   1.440  1.00 20.00     0.046 C 
HETATM    5  C5  UNL     1     -31.438   8.161   2.186  1.00 20.00     0.008 C 
ENDBRANCH   2   4
BRANCH   2   6
HETATM    6  N11 UNL     1     -33.228   5.607   3.035  1.00 20.00     0.110 N 
BRANCH   6   7
HETATM    7  C4  UNL     1     -34.323   6.578   3.168  1.00 20.00     0.224 A 
HETATM    8  C2  UNL     1     -35.421   6.352   4.170  1.00 20.00     0.038 A 
HETATM    9  C3  UNL     1     -34.424   7.452   4.388  1.00 20.00     0.038 A 
ENDBRANCH   6   7
BRANCH   6  10
HETATM   10  C8  UNL     1     -33.770   4.241   3.077  1.00 20.00     0.270 C 
HETATM   11  C6  UNL     1     -33.436   3.569   4.364  1.00 20.00     0.037 C 
ENDBRANCH   6  10
ENDBRANCH   2   6
TORSDOF 4
ENDMDL
MODEL 8
REMARK VINA RESULT:       0.7      1.529      2.922
REMARK  4 active torsions:
REMARK  status: ('A' for Active; 'I' for Inactive)
REMARK    1  A    between atoms: C4_4  and  N11_11 
REMARK    2  A    between atoms: C7_7  and  C9_9 
REMARK    3  A    between atoms: C8_8  and  N11_11 
REMARK    4  A    between atoms: C9_9  and  N11_11 
ROOT
HETATM    1  C1  UNL     1     -33.824   5.285   0.282  1.00 20.00     0.095 C 
HETATM    2  C9  UNL     1     -32.953   5.478   1.450  1.00 20.00     0.328 C 
HETATM    3  N10 UNL     1     -34.514   5.130  -0.638  1.00 20.00    -0.195 NA
ENDROOT
BRANCH   2   4
HETATM    4  C7  UNL     1     -31.471   5.267   1.117  1.00 20.00     0.046 C 
HETATM    5  C5  UNL     1     -31.191   4.098   0.176  1.00 20.00     0.008 C 
ENDBRANCH   2   4
BRANCH   2   6
HETATM    6  N11 UNL     1     -33.179   6.773   2.042  1.00 20.00     0.110 N 
BRANCH   6   7
HETATM    7  C4  UNL     1     -33.547   6.653   3.461  1.00 20.00     0.224 A 
HETATM    8  C2  UNL     1     -34.168   7.815   4.186  1.00 20.00     0.038 A 
HETATM    9  C3  UNL     1     -34.992   6.601   3.873  1.00 20.00     0.038 A 
ENDBRANCH   6   7
BRANCH   6  10
HETATM   10  C8  UNL     1     -31.994   7.632   1.910  1.00 20.00     0.270 C 
HETATM   11  C6  UNL     1     -32.288   8.830   1.075  1.00 20.00     0.037 C 
ENDBRANCH   6  10
ENDBRANCH   2   6
TORSDOF 4
ENDMDL
MODEL 9
REMARK VINA RESULT:       0.7      1.409      3.939
REMARK  4 active torsions:
REMARK  status: ('A' for Active; 'I' for Inactive)
REMARK    1  A    between atoms: C4_4  and  N11_11 
REMARK    2  A    between atoms: C7_7  and  C9_9 
REMARK    3  A    between atoms: C8_8  and  N11_11 
REMARK    4  A    between atoms: C9_9  and  N11_11 
ROOT
HETATM    1  C1  UNL     1     -35.640   6.254   3.534  1.00 20.00     0.095 C 
HETATM    2  C9  UNL     1     -34.342   5.754   4.008  1.00 20.00     0.328 C 
HETATM    3  N10 UNL     1     -36.666   6.651   3.164  1.00 20.00    -0.195 NA
ENDROOT
BRANCH   2   4
HETATM    4  C7  UNL     1     -34.116   4.280   3.647  1.00 20.00     0.046 C 
HETATM    5  C5  UNL     1     -33.506   3.438   4.765  1.00 20.00     0.008 C 
ENDBRANCH   2   4
BRANCH   2   6
HETATM    6  N11 UNL     1     -33.270   6.585   3.520  1.00 20.00     0.110 N 
BRANCH   6   7
HETATM    7  C4  UNL     1     -33.122   6.461   2.062  1.00 20.00     0.224 A 
HETATM    8  C2  UNL     1     -32.081   7.264   1.333  1.00 20.00     0.038 A 
HETATM    9  C3  UNL     1     -31.918   5.779   1.473  1.00 20.00     0.038 A 
ENDBRANCH   6   7
BRANCH   6  10
HETATM   10  C8  UNL     1     -33.485   7.995   3.876  1.00 20.00     0.270 C 
HETATM   11  C6  UNL     1     -33.115   8.254   5.296  1.00 20.00     0.037 C 
ENDBRANCH   6  10
ENDBRANCH   2   6
TORSDOF 4
ENDMDL
