MODEL 1
REMARK VINA RESULT:      -2.9      0.000      0.000
REMARK  7 active torsions:
REMARK  status: ('A' for Active; 'I' for Inactive)
REMARK    1  A    between atoms: C1_1  and  C6_6 
REMARK    2  A    between atoms: C2_2  and  C7_7 
REMARK    3  A    between atoms: C3_3  and  C8_8 
REMARK    4  A    between atoms: C6_6  and  C10_10 
REMARK    5  A    between atoms: C7_7  and  C11_11 
REMARK    6  A    between atoms: C8_8  and  C10_10 
REMARK    7  A    between atoms: C9_9  and  C11_11 
ROOT
HETATM    1  C1  UNL     1     -33.309   7.429   3.216  1.00 20.00    -0.107 C 
HETATM    2  C2  UNL     1     -34.262   6.815   3.614  1.00 20.00    -0.107 C 
ENDROOT
BRANCH   1   3
HETATM    3  C6  UNL     1     -32.150   8.171   2.702  1.00 20.00     0.094 C 
BRANCH   3   4
HETATM    4  C10 UNL     1     -31.818   7.789   1.259  1.00 20.00     0.019 C 
BRANCH   4   5
HETATM    5  C8  UNL     1     -31.320   8.974   0.430  1.00 20.00     0.079 C 
BRANCH   5   6
HETATM    6  C3  UNL     1     -32.451   9.883  -0.019  1.00 20.00     0.123 C 
HETATM    7  C4  UNL     1     -32.791  11.025   0.905  1.00 20.00     0.091 C 
HETATM    8  O12 UNL     1     -33.065   9.716  -1.072  1.00 20.00    -0.298 OA
ENDBRANCH   5   6
ENDBRANCH   4   5
ENDBRANCH   3   4
ENDBRANCH   1   3
BRANCH   2   9
HETATM    9  C7  UNL     1     -35.431   6.055   4.076  1.00 20.00     0.094 C 
BRANCH   9  10
HETATM   10  C11 UNL     1     -35.037   4.715   4.702  1.00 20.00     0.012 C 
BRANCH  10  11
HETATM   11  C9  UNL     1     -33.915   4.007   3.936  1.00 20.00    -0.004 C 
HETATM   12  C5  UNL     1     -33.212   2.978   4.807  1.00 20.00     0.005 C 
ENDBRANCH  10  11
ENDBRANCH   9  10
ENDBRANCH   2   9
TORSDOF 7
ENDMDL
MODEL 2
REMARK VINA RESULT:      -2.4      2.831      6.572
REMARK  7 active torsions:
REMARK  status: ('A' for Active; 'I' for Inactive)
REMARK    1  A    between atoms: C1_1  and  C6_6 
REMARK    2  A    between atoms: C2_2  and  C7_7 
REMARK    3  A    between atoms: C3_3  and  C8_8 
REMARK    4  A    between atoms: C6_6  and  C10_10 
REMARK    5  A    between atoms: C7_7  and  C11_11 
REMARK    6  A    between atoms: C8_8  and  C10_10 
REMARK    7  A    between atoms: C9_9  and  C11_11 
ROOT
HETATM    1  C1  UNL     1     -34.137   6.862   3.504  1.00 20.00    -0.107 C 
HETATM    2  C2  UNL     1     -33.147   7.384   3.066  1.00 20.00    -0.107 C 
ENDROOT
BRANCH   1   3
HETATM    3  C6  UNL     1     -35.346   6.242   4.062  1.00 20.00     0.094 C 
BRANCH   3   4
HETATM    4  C10 UNL     1     -35.086   4.816   4.551  1.00 20.00     0.019 C 
BRANCH   4   5
HETATM    5  C8  UNL     1     -33.838   4.191   3.926  1.00 20.00     0.079 C 
BRANCH   5   6
HETATM    6  C3  UNL     1     -33.333   2.994   4.712  1.00 20.00     0.123 C 
HETATM    7  C4  UNL     1     -32.546   3.302   5.959  1.00 20.00     0.091 C 
HETATM    8  O12 UNL     1     -33.544   1.832   4.368  1.00 20.00    -0.298 OA
ENDBRANCH   5   6
ENDBRANCH   4   5
ENDBRANCH   3   4
ENDBRANCH   1   3
BRANCH   2   9
HETATM    9  C7  UNL     1     -31.937   8.038   2.552  1.00 20.00     0.094 C 
BRANCH   9  10
HETATM   10  C11 UNL     1     -32.042   8.349   1.057  1.00 20.00     0.012 C 
BRANCH  10  11
HETATM   11  C9  UNL     1     -32.406   9.810   0.777  1.00 20.00    -0.004 C 
HETATM   12  C5  UNL     1     -32.760  10.023  -0.687  1.00 20.00     0.005 C 
ENDBRANCH  10  11
ENDBRANCH   9  10
ENDBRANCH   2   9
TORSDOF 7
ENDMDL
MODEL 3
REMARK VINA RESULT:      -2.4      2.005      6.230
REMARK  7 active torsions:
REMARK  status: ('A' for Active; 'I' for Inactive)
REMARK    1  A    between atoms: C1_1  and  C6_6 
REMARK    2  A    between atoms: C2_2  and  C7_7 
REMARK    3  A    between atoms: C3_3  and  C8_8 
REMARK    4  A    between atoms: C6_6  and  C10_10 
REMARK    5  A    between atoms: C7_7  and  C11_11 
REMARK    6  A    between atoms: C8_8  and  C10_10 
REMARK    7  A    between atoms: C9_9  and  C11_11 
ROOT
HETATM    1  C1  UNL     1     -33.373   7.562   3.337  1.00 20.00    -0.107 C 
HETATM    2  C2  UNL     1     -32.459   7.708   2.571  1.00 20.00    -0.107 C 
ENDROOT
BRANCH   1   3
HETATM    3  C6  UNL     1     -34.495   7.359   4.264  1.00 20.00     0.094 C 
BRANCH   3   4
HETATM    4  C10 UNL     1     -35.367   6.171   3.856  1.00 20.00     0.019 C 
BRANCH   4   5
HETATM    5  C8  UNL     1     -35.033   4.895   4.631  1.00 20.00     0.079 C 
BRANCH   5   6
HETATM    6  C3  UNL     1     -33.890   4.116   4.002  1.00 20.00     0.123 C 
HETATM    7  C4  UNL     1     -33.292   3.021   4.845  1.00 20.00     0.091 C 
HETATM    8  O12 UNL     1     -33.465   4.351   2.872  1.00 20.00    -0.298 OA
ENDBRANCH   5   6
ENDBRANCH   4   5
ENDBRANCH   3   4
ENDBRANCH   1   3
BRANCH   2   9
HETATM    9  C7  UNL     1     -31.348   7.861   1.623  1.00 20.00     0.094 C 
BRANCH   9  10
HETATM   10  C11 UNL     1     -31.768   8.618   0.361  1.00 20.00     0.012 C 
BRANCH  10  11
HETATM   11  C9  UNL     1     -32.366   9.996   0.664  1.00 20.00    -0.004 C 
HETATM   12  C5  UNL     1     -33.076  10.572  -0.552  1.00 20.00     0.005 C 
ENDBRANCH  10  11
ENDBRANCH   9  10
ENDBRANCH   2   9
TORSDOF 7
ENDMDL
MODEL 4
REMARK VINA RESULT:      -1.7      0.948      2.055
REMARK  7 active torsions:
REMARK  status: ('A' for Active; 'I' for Inactive)
REMARK    1  A    between atoms: C1_1  and  C6_6 
REMARK    2  A    between atoms: C2_2  and  C7_7 
REMARK    3  A    between atoms: C3_3  and  C8_8 
REMARK    4  A    between atoms: C6_6  and  C10_10 
REMARK    5  A    between atoms: C7_7  and  C11_11 
REMARK    6  A    between atoms: C8_8  and  C10_10 
REMARK    7  A    between atoms: C9_9  and  C11_11 
ROOT
HETATM    1  C1  UNL     1     -32.698   5.639   2.077  1.00 20.00    -0.107 C 
HETATM    2  C2  UNL     1     -33.326   4.990   2.870  1.00 20.00    -0.107 C 
ENDROOT
BRANCH   1   3
HETATM    3  C6  UNL     1     -31.932   6.456   1.126  1.00 20.00     0.094 C 
BRANCH   3   4
HETATM    4  C10 UNL     1     -31.896   7.929   1.534  1.00 20.00     0.019 C 
BRANCH   4   5
HETATM    5  C8  UNL     1     -31.427   8.847   0.404  1.00 20.00     0.079 C 
BRANCH   5   6
HETATM    6  C3  UNL     1     -32.474   9.879   0.021  1.00 20.00     0.123 C 
HETATM    7  C4  UNL     1     -32.737  10.964   1.034  1.00 20.00     0.091 C 
HETATM    8  O12 UNL     1     -33.082   9.849  -1.047  1.00 20.00    -0.298 OA
ENDBRANCH   5   6
ENDBRANCH   4   5
ENDBRANCH   3   4
ENDBRANCH   1   3
BRANCH   2   9
HETATM    9  C7  UNL     1     -34.094   4.217   3.855  1.00 20.00     0.094 C 
BRANCH   9  10
HETATM   10  C11 UNL     1     -35.119   5.082   4.592  1.00 20.00     0.012 C 
BRANCH  10  11
HETATM   11  C9  UNL     1     -35.381   6.420   3.895  1.00 20.00    -0.004 C 
HETATM   12  C5  UNL     1     -34.425   7.497   4.386  1.00 20.00     0.005 C 
ENDBRANCH  10  11
ENDBRANCH   9  10
ENDBRANCH   2   9
TORSDOF 7
ENDMDL
MODEL 5
REMARK VINA RESULT:      -1.7      3.112      5.962
REMARK  7 active torsions:
REMARK  status: ('A' for Active; 'I' for Inactive)
REMARK    1  A    between atoms: C1_1  and  C6_6 
REMARK    2  A    between atoms: C2_2  and  C7_7 
REMARK    3  A    between atoms: C3_3  and  C8_8 
REMARK    4  A    between atoms: C6_6  and  C10_10 
REMARK    5  A    between atoms: C7_7  and  C11_11 
REMARK    6  A    between atoms: C8_8  and  C10_10 
REMARK    7  A    between atoms: C9_9  and  C11_11 
ROOT
HETATM    1  C1  UNL     1     -34.388   6.896   3.706  1.00 20.00    -0.107 C 
HETATM    2  C2  UNL     1     -33.445   7.518   3.296  1.00 20.00    -0.107 C 
ENDROOT
BRANCH   1   3
HETATM    3  C6  UNL     1     -35.544   6.125   4.181  1.00 20.00     0.094 C 
BRANCH   3   4
HETATM    4  C10 UNL     1     -35.136   4.759   4.735  1.00 20.00     0.019 C 
BRANCH   4   5
HETATM    5  C8  UNL     1     -33.954   4.143   3.984  1.00 20.00     0.079 C 
BRANCH   5   6
HETATM    6  C3  UNL     1     -33.347   2.964   4.725  1.00 20.00     0.123 C 
HETATM    7  C4  UNL     1     -32.502   3.299   5.926  1.00 20.00     0.091 C 
HETATM    8  O12 UNL     1     -33.525   1.796   4.380  1.00 20.00    -0.298 OA
ENDBRANCH   5   6
ENDBRANCH   4   5
ENDBRANCH   3   4
ENDBRANCH   1   3
BRANCH   2   9
HETATM    9  C7  UNL     1     -32.297   8.268   2.771  1.00 20.00     0.094 C 
BRANCH   9  10
HETATM   10  C11 UNL     1     -31.656   7.572   1.568  1.00 20.00     0.012 C 
BRANCH  10  11
HETATM   11  C9  UNL     1     -32.476   6.381   1.063  1.00 20.00    -0.004 C 
HETATM   12  C5  UNL     1     -31.696   5.080   1.182  1.00 20.00     0.005 C 
ENDBRANCH  10  11
ENDBRANCH   9  10
ENDBRANCH   2   9
TORSDOF 7
ENDMDL
MODEL 6
REMARK VINA RESULT:      -1.5      2.127      2.680
REMARK  7 active torsions:
REMARK  status: ('A' for Active; 'I' for Inactive)
REMARK    1  A    between atoms: C1_1  and  C6_6 
REMARK    2  A    between atoms: C2_2  and  C7_7 
REMARK    3  A    between atoms: C3_3  and  C8_8 
REMARK    4  A    between atoms: C6_6  and  C10_10 
REMARK    5  A    between atoms: C7_7  and  C11_11 
REMARK    6  A    between atoms: C8_8  and  C10_10 
REMARK    7  A    between atoms: C9_9  and  C11_11 
ROOT
HETATM    1  C1  UNL     1     -33.477   7.672   3.657  1.00 20.00    -0.107 C 
HETATM    2  C2  UNL     1     -34.395   6.928   3.873  1.00 20.00    -0.107 C 
ENDROOT
BRANCH   1   3
HETATM    3  C6  UNL     1     -32.343   8.562   3.373  1.00 20.00     0.094 C 
BRANCH   3   4
HETATM    4  C10 UNL     1     -31.473   8.038   2.230  1.00 20.00     0.019 C 
BRANCH   4   5
HETATM    5  C8  UNL     1     -32.293   7.449   1.081  1.00 20.00     0.079 C 
BRANCH   5   6
HETATM    6  C3  UNL     1     -32.314   5.930   1.101  1.00 20.00     0.123 C 
HETATM    7  C4  UNL     1     -33.531   5.275   0.502  1.00 20.00     0.091 C 
HETATM    8  O12 UNL     1     -31.399   5.256   1.573  1.00 20.00    -0.298 OA
ENDBRANCH   5   6
ENDBRANCH   4   5
ENDBRANCH   3   4
ENDBRANCH   1   3
BRANCH   2   9
HETATM    9  C7  UNL     1     -35.508   6.002   4.120  1.00 20.00     0.094 C 
BRANCH   9  10
HETATM   10  C11 UNL     1     -35.035   4.685   4.740  1.00 20.00     0.012 C 
BRANCH  10  11
HETATM   11  C9  UNL     1     -33.894   4.032   3.954  1.00 20.00    -0.004 C 
HETATM   12  C5  UNL     1     -33.213   2.941   4.766  1.00 20.00     0.005 C 
ENDBRANCH  10  11
ENDBRANCH   9  10
ENDBRANCH   2   9
TORSDOF 7
ENDMDL
MODEL 7
REMARK VINA RESULT:      -1.4      2.655      6.412
REMARK  7 active torsions:
REMARK  status: ('A' for Active; 'I' for Inactive)
REMARK    1  A    between atoms: C1_1  and  C6_6 
REMARK    2  A    between atoms: C2_2  and  C7_7 
REMARK    3  A    between atoms: C3_3  and  C8_8 
REMARK    4  A    between atoms: C6_6  and  C10_10 
REMARK    5  A    between atoms: C7_7  and  C11_11 
REMARK    6  A    between atoms: C8_8  and  C10_10 
REMARK    7  A    between atoms: C9_9  and  C11_11 
ROOT
HETATM    1  C1  UNL     1     -33.136   7.771   3.210  1.00 20.00    -0.107 C 
HETATM    2  C2  UNL     1     -32.219   7.891   2.444  1.00 20.00    -0.107 C 
ENDROOT
BRANCH   1   3
HETATM    3  C6  UNL     1     -34.276   7.622   4.125  1.00 20.00     0.094 C 
BRANCH   3   4
HETATM    4  C10 UNL     1     -35.084   6.357   3.833  1.00 20.00     0.019 C 
BRANCH   4   5
HETATM    5  C8  UNL     1     -34.205   5.162   3.460  1.00 20.00     0.079 C 
BRANCH   5   6
HETATM    6  C3  UNL     1     -34.239   4.065   4.510  1.00 20.00     0.123 C 
HETATM    7  C4  UNL     1     -33.117   3.061   4.457  1.00 20.00     0.091 C 
HETATM    8  O12 UNL     1     -35.121   3.985   5.364  1.00 20.00    -0.298 OA
ENDBRANCH   5   6
ENDBRANCH   4   5
ENDBRANCH   3   4
ENDBRANCH   1   3
BRANCH   2   9
HETATM    9  C7  UNL     1     -31.114   8.034   1.487  1.00 20.00     0.094 C 
BRANCH   9  10
HETATM   10  C11 UNL     1     -31.538   8.797   0.229  1.00 20.00     0.012 C 
BRANCH  10  11
HETATM   11  C9  UNL     1     -32.365  10.048   0.541  1.00 20.00    -0.004 C 
HETATM   12  C5  UNL     1     -33.106  10.544  -0.691  1.00 20.00     0.005 C 
ENDBRANCH  10  11
ENDBRANCH   9  10
ENDBRANCH   2   9
TORSDOF 7
ENDMDL
MODEL 8
REMARK VINA RESULT:      -1.1      2.041      5.797
REMARK  7 active torsions:
REMARK  status: ('A' for Active; 'I' for Inactive)
REMARK    1  A    between atoms: C1_1  and  C6_6 
REMARK    2  A    between atoms: C2_2  and  C7_7 
REMARK    3  A    between atoms: C3_3  and  C8_8 
REMARK    4  A    between atoms: C6_6  and  C10_10 
REMARK    5  A    between atoms: C7_7  and  C11_11 
REMARK    6  A    between atoms: C8_8  and  C10_10 
REMARK    7  A    between atoms: C9_9  and  C11_11 
ROOT
HETATM    1  C1  UNL     1     -32.719   6.147   1.883  1.00 20.00    -0.107 C 
HETATM    2  C2  UNL     1     -32.174   7.197   1.676  1.00 20.00    -0.107 C 
ENDROOT
BRANCH   1   3
HETATM    3  C6  UNL     1     -33.412   4.876   2.135  1.00 20.00     0.094 C 
BRANCH   3   4
HETATM    4  C10 UNL     1     -33.474   4.542   3.626  1.00 20.00     0.019 C 
BRANCH   4   5
HETATM    5  C8  UNL     1     -34.804   4.940   4.269  1.00 20.00     0.079 C 
BRANCH   5   6
HETATM    6  C3  UNL     1     -35.185   6.380   3.971  1.00 20.00     0.123 C 
HETATM    7  C4  UNL     1     -34.287   7.438   4.556  1.00 20.00     0.091 C 
HETATM    8  O12 UNL     1     -36.166   6.684   3.293  1.00 20.00    -0.298 OA
ENDBRANCH   5   6
ENDBRANCH   4   5
ENDBRANCH   3   4
ENDBRANCH   1   3
BRANCH   2   9
HETATM    9  C7  UNL     1     -31.531   8.493   1.422  1.00 20.00     0.094 C 
BRANCH   9  10
HETATM   10  C11 UNL     1     -31.551   8.864  -0.063  1.00 20.00     0.012 C 
BRANCH  10  11
HETATM   11  C9  UNL     1     -32.646   9.878  -0.408  1.00 20.00    -0.004 C 
HETATM   12  C5  UNL     1     -32.851  10.879   0.719  1.00 20.00     0.005 C 
ENDBRANCH  10  11
ENDBRANCH   9  10
ENDBRANCH   2   9
TORSDOF 7
ENDMDL
MODEL 9
REMARK VINA RESULT:      -0.4      2.374      5.589
REMARK  7 active torsions:
REMARK  status: ('A' for Active; 'I' for Inactive)
REMARK    1  A    between atoms: C1_1  and  C6_6 
REMARK    2  A    between atoms: C2_2  and  C7_7 
REMARK    3  A    between atoms: C3_3  and  C8_8 
REMARK    4  A    between atoms: C6_6  and  C10_10 
REMARK    5  A    between atoms: C7_7  and  C11_11 
REMARK    6  A    between atoms: C8_8  and  C10_10 
REMARK    7  A    between atoms: C9_9  and  C11_11 
ROOT
HETATM    1  C1  UNL     1     -33.636   7.623   3.647  1.00 20.00    -0.107 C 
HETATM    2  C2  UNL     1     -32.779   7.999   2.893  1.00 20.00    -0.107 C 
ENDROOT
BRANCH   1   3
HETATM    3  C6  UNL     1     -34.687   7.190   4.578  1.00 20.00     0.094 C 
BRANCH   3   4
HETATM    4  C10 UNL     1     -35.448   5.971   4.056  1.00 20.00     0.019 C 
BRANCH   4   5
HETATM    5  C8  UNL     1     -35.090   4.683   4.799  1.00 20.00     0.079 C 
BRANCH   5   6
HETATM    6  C3  UNL     1     -33.905   3.964   4.177  1.00 20.00     0.123 C 
HETATM    7  C4  UNL     1     -33.196   2.968   5.057  1.00 20.00     0.091 C 
HETATM    8  O12 UNL     1     -33.531   4.169   3.023  1.00 20.00    -0.298 OA
ENDBRANCH   5   6
ENDBRANCH   4   5
ENDBRANCH   3   4
ENDBRANCH   1   3
BRANCH   2   9
HETATM    9  C7  UNL     1     -31.736   8.484   1.980  1.00 20.00     0.094 C 
BRANCH   9  10
HETATM   10  C11 UNL     1     -31.477   7.505   0.831  1.00 20.00     0.012 C 
BRANCH  10  11
HETATM   11  C9  UNL     1     -32.364   6.258   0.900  1.00 20.00    -0.004 C 
HETATM   12  C5  UNL     1     -31.535   4.984   0.845  1.00 20.00     0.005 C 
ENDBRANCH  10  11
ENDBRANCH   9  10
ENDBRANCH   2   9
TORSDOF 7
ENDMDL
