MODEL 1
REMARK VINA RESULT:      -2.2      0.000      0.000
REMARK  1 active torsions:
REMARK  status: ('A' for Active; 'I' for Inactive)
REMARK    1  A    between atoms: C3_3  and  C6_6 
ROOT
HETATM    1  C1  UNL     1     -34.778   6.513   3.943  1.00 20.00     0.088 C 
HETATM    2  C2  UNL     1     -33.860   7.446   3.387  1.00 20.00     0.096 C 
HETATM    3  C3  UNL     1     -32.941   7.113   2.461  1.00 20.00    -0.070 C 
HETATM    4  C7  UNL     1     -31.963   8.051   1.853  1.00 20.00     0.044 C 
HETATM    5  N8  UNL     1     -35.529   5.755   4.399  1.00 20.00    -0.192 NA
ENDROOT
BRANCH   3   6
HETATM    6  C6  UNL     1     -32.859   5.688   1.974  1.00 20.00     0.015 A 
HETATM    7  C4  UNL     1     -33.213   5.436   0.560  1.00 20.00     0.010 A 
HETATM    8  C5  UNL     1     -31.785   5.363   1.010  1.00 20.00     0.010 A 
ENDBRANCH   3   6
TORSDOF 1
ENDMDL
MODEL 2
REMARK VINA RESULT:      -1.9      2.487      3.831
REMARK  1 active torsions:
REMARK  status: ('A' for Active; 'I' for Inactive)
REMARK    1  A    between atoms: C3_3  and  C6_6 
ROOT
HETATM    1  C1  UNL     1     -32.299   9.195   0.877  1.00 20.00     0.088 C 
HETATM    2  C2  UNL     1     -31.992   7.814   1.019  1.00 20.00     0.096 C 
HETATM    3  C3  UNL     1     -32.667   6.990   1.844  1.00 20.00    -0.070 C 
HETATM    4  C7  UNL     1     -32.383   5.543   2.025  1.00 20.00     0.044 C 
HETATM    5  N8  UNL     1     -32.546  10.323   0.759  1.00 20.00    -0.192 NA
ENDROOT
BRANCH   3   6
HETATM    6  C6  UNL     1     -33.807   7.534   2.667  1.00 20.00     0.015 A 
HETATM    7  C4  UNL     1     -34.450   6.608   3.626  1.00 20.00     0.010 A 
HETATM    8  C5  UNL     1     -33.569   7.717   4.116  1.00 20.00     0.010 A 
ENDBRANCH   3   6
TORSDOF 1
ENDMDL
MODEL 3
REMARK VINA RESULT:      -1.8      2.310      3.805
REMARK  1 active torsions:
REMARK  status: ('A' for Active; 'I' for Inactive)
REMARK    1  A    between atoms: C3_3  and  C6_6 
ROOT
HETATM    1  C1  UNL     1     -32.203   7.981   1.324  1.00 20.00     0.088 C 
HETATM    2  C2  UNL     1     -32.267   6.614   1.712  1.00 20.00     0.096 C 
HETATM    3  C3  UNL     1     -33.222   6.123   2.525  1.00 20.00    -0.070 C 
HETATM    4  C7  UNL     1     -33.330   4.706   2.956  1.00 20.00     0.044 C 
HETATM    5  N8  UNL     1     -32.147   9.095   1.006  1.00 20.00    -0.192 NA
ENDROOT
BRANCH   3   6
HETATM    6  C6  UNL     1     -34.287   7.046   3.062  1.00 20.00     0.015 A 
HETATM    7  C4  UNL     1     -35.194   6.501   4.096  1.00 20.00     0.010 A 
HETATM    8  C5  UNL     1     -34.142   7.503   4.462  1.00 20.00     0.010 A 
ENDBRANCH   3   6
TORSDOF 1
ENDMDL
MODEL 4
REMARK VINA RESULT:      -1.8      1.950      2.691
REMARK  1 active torsions:
REMARK  status: ('A' for Active; 'I' for Inactive)
REMARK    1  A    between atoms: C3_3  and  C6_6 
ROOT
HETATM    1  C1  UNL     1     -33.788   3.665   4.457  1.00 20.00     0.088 C 
HETATM    2  C2  UNL     1     -34.633   4.803   4.339  1.00 20.00     0.096 C 
HETATM    3  C3  UNL     1     -34.305   5.892   3.618  1.00 20.00    -0.070 C 
HETATM    4  C7  UNL     1     -35.154   7.102   3.465  1.00 20.00     0.044 C 
HETATM    5  N8  UNL     1     -33.101   2.735   4.557  1.00 20.00    -0.192 NA
ENDROOT
BRANCH   3   6
HETATM    6  C6  UNL     1     -32.984   5.934   2.893  1.00 20.00     0.015 A 
HETATM    7  C4  UNL     1     -33.010   5.731   1.428  1.00 20.00     0.010 A 
HETATM    8  C5  UNL     1     -32.737   7.089   2.002  1.00 20.00     0.010 A 
ENDBRANCH   3   6
TORSDOF 1
ENDMDL
MODEL 5
REMARK VINA RESULT:      -1.4      1.279      2.424
REMARK  1 active torsions:
REMARK  status: ('A' for Active; 'I' for Inactive)
REMARK    1  A    between atoms: C3_3  and  C6_6 
ROOT
HETATM    1  C1  UNL     1     -33.989   7.215   3.892  1.00 20.00     0.088 C 
HETATM    2  C2  UNL     1     -33.683   6.262   2.881  1.00 20.00     0.096 C 
HETATM    3  C3  UNL     1     -32.753   6.470   1.930  1.00 20.00    -0.070 C 
HETATM    4  C7  UNL     1     -32.399   5.507   0.856  1.00 20.00     0.044 C 
HETATM    5  N8  UNL     1     -34.242   7.989   4.718  1.00 20.00    -0.192 NA
ENDROOT
BRANCH   3   6
HETATM    6  C6  UNL     1     -31.983   7.767   1.914  1.00 20.00     0.015 A 
HETATM    7  C4  UNL     1     -31.351   8.162   0.636  1.00 20.00     0.010 A 
HETATM    8  C5  UNL     1     -32.562   8.888   1.140  1.00 20.00     0.010 A 
ENDBRANCH   3   6
TORSDOF 1
ENDMDL
MODEL 6
REMARK VINA RESULT:      -1.3      2.069      3.487
REMARK  1 active torsions:
REMARK  status: ('A' for Active; 'I' for Inactive)
REMARK    1  A    between atoms: C3_3  and  C6_6 
ROOT
HETATM    1  C1  UNL     1     -32.426   6.012   1.512  1.00 20.00     0.088 C 
HETATM    2  C2  UNL     1     -32.701   7.011   2.486  1.00 20.00     0.096 C 
HETATM    3  C3  UNL     1     -33.713   6.919   3.370  1.00 20.00    -0.070 C 
HETATM    4  C7  UNL     1     -34.038   7.935   4.404  1.00 20.00     0.044 C 
HETATM    5  N8  UNL     1     -32.199   5.199   0.716  1.00 20.00    -0.192 NA
ENDROOT
BRANCH   3   6
HETATM    6  C6  UNL     1     -34.612   5.709   3.348  1.00 20.00     0.015 A 
HETATM    7  C4  UNL     1     -34.242   4.575   4.223  1.00 20.00     0.010 A 
HETATM    8  C5  UNL     1     -35.418   5.442   4.560  1.00 20.00     0.010 A 
ENDBRANCH   3   6
TORSDOF 1
ENDMDL
MODEL 7
REMARK VINA RESULT:      -0.5      2.132      3.926
REMARK  1 active torsions:
REMARK  status: ('A' for Active; 'I' for Inactive)
REMARK    1  A    between atoms: C3_3  and  C6_6 
ROOT
HETATM    1  C1  UNL     1     -32.640   6.116   1.731  1.00 20.00     0.088 C 
HETATM    2  C2  UNL     1     -33.624   5.504   2.556  1.00 20.00     0.096 C 
HETATM    3  C3  UNL     1     -34.314   6.174   3.498  1.00 20.00    -0.070 C 
HETATM    4  C7  UNL     1     -35.349   5.579   4.383  1.00 20.00     0.044 C 
HETATM    5  N8  UNL     1     -31.836   6.610   1.055  1.00 20.00    -0.192 NA
ENDROOT
BRANCH   3   6
HETATM    6  C6  UNL     1     -34.051   7.644   3.709  1.00 20.00     0.015 A 
HETATM    7  C4  UNL     1     -34.026   8.133   5.104  1.00 20.00     0.010 A 
HETATM    8  C5  UNL     1     -32.755   8.019   4.317  1.00 20.00     0.010 A 
ENDBRANCH   3   6
TORSDOF 1
ENDMDL
MODEL 8
REMARK VINA RESULT:      -0.4      1.924      3.346
REMARK  1 active torsions:
REMARK  status: ('A' for Active; 'I' for Inactive)
REMARK    1  A    between atoms: C3_3  and  C6_6 
ROOT
HETATM    1  C1  UNL     1     -33.311   3.406   4.032  1.00 20.00     0.088 C 
HETATM    2  C2  UNL     1     -33.003   4.251   2.930  1.00 20.00     0.096 C 
HETATM    3  C3  UNL     1     -33.388   5.540   2.860  1.00 20.00    -0.070 C 
HETATM    4  C7  UNL     1     -33.091   6.459   1.732  1.00 20.00     0.044 C 
HETATM    5  N8  UNL     1     -33.560   2.713   4.928  1.00 20.00    -0.192 NA
ENDROOT
BRANCH   3   6
HETATM    6  C6  UNL     1     -34.184   6.140   3.992  1.00 20.00     0.015 A 
HETATM    7  C4  UNL     1     -34.331   7.612   4.008  1.00 20.00     0.010 A 
HETATM    8  C5  UNL     1     -35.495   6.737   3.654  1.00 20.00     0.010 A 
ENDBRANCH   3   6
TORSDOF 1
ENDMDL
MODEL 9
REMARK VINA RESULT:      -0.4      2.707      3.449
REMARK  1 active torsions:
REMARK  status: ('A' for Active; 'I' for Inactive)
REMARK    1  A    between atoms: C3_3  and  C6_6 
ROOT
HETATM    1  C1  UNL     1     -32.343   9.393   0.630  1.00 20.00     0.088 C 
HETATM    2  C2  UNL     1     -32.639   9.063   1.981  1.00 20.00     0.096 C 
HETATM    3  C3  UNL     1     -32.944   7.815   2.386  1.00 20.00    -0.070 C 
HETATM    4  C7  UNL     1     -33.259   7.424   3.783  1.00 20.00     0.044 C 
HETATM    5  N8  UNL     1     -32.101   9.666  -0.472  1.00 20.00    -0.192 NA
ENDROOT
BRANCH   3   6
HETATM    6  C6  UNL     1     -32.979   6.695   1.376  1.00 20.00     0.015 A 
HETATM    7  C4  UNL     1     -31.858   5.730   1.398  1.00 20.00     0.010 A 
HETATM    8  C5  UNL     1     -33.215   5.328   1.891  1.00 20.00     0.010 A 
ENDBRANCH   3   6
TORSDOF 1
ENDMDL
