MODEL 1
REMARK VINA RESULT:      -0.0      0.000      0.000
REMARK  2 active torsions:
REMARK  status: ('A' for Active; 'I' for Inactive)
REMARK    1  A    between atoms: C6_6  and  C9_9 
REMARK    2  A    between atoms: C10_10  and  N12_12 
ROOT
HETATM    1  C1  UNL     1     -33.854   3.858   4.364  1.00 20.00     0.092 C 
HETATM    2  C8  UNL     1     -35.713   5.460   4.060  1.00 20.00     0.056 C 
HETATM    3  C10 UNL     1     -34.269   5.258   4.491  1.00 20.00     0.289 C 
HETATM    4  N11 UNL     1     -33.523   2.750   4.266  1.00 20.00    -0.195 NA
ENDROOT
BRANCH   3   5
HETATM    5  N12 UNL     1     -33.392   6.112   3.618  1.00 20.00    -0.055 N 
HETATM    6  C4  UNL     1     -33.707   7.579   3.779  1.00 20.00     0.237 C 
HETATM    7  C2  UNL     1     -32.712   8.402   2.972  1.00 20.00     0.032 C 
HETATM    8  C6  UNL     1     -32.700   7.992   1.495  1.00 20.00    -0.012 C 
HETATM    9  C3  UNL     1     -32.448   6.485   1.360  1.00 20.00     0.032 C 
HETATM   10  C5  UNL     1     -33.445   5.672   2.175  1.00 20.00     0.237 C 
HETATM   11  H31 UNL     1     -32.427   5.968   3.946  1.00 20.00     0.281 HD
BRANCH   8  12
HETATM   12  C9  UNL     1     -31.652   8.788   0.721  1.00 20.00     0.000 C 
HETATM   13  C7  UNL     1     -32.261   9.939  -0.010  1.00 20.00     0.005 C 
ENDBRANCH   8  12
ENDBRANCH   3   5
TORSDOF 2
ENDMDL
MODEL 2
REMARK VINA RESULT:       0.2      2.028      5.352
REMARK  2 active torsions:
REMARK  status: ('A' for Active; 'I' for Inactive)
REMARK    1  A    between atoms: C6_6  and  C9_9 
REMARK    2  A    between atoms: C10_10  and  N12_12 
ROOT
HETATM    1  C1  UNL     1     -32.664   9.883   0.137  1.00 20.00     0.092 C 
HETATM    2  C8  UNL     1     -30.740   8.331   0.206  1.00 20.00     0.056 C 
HETATM    3  C10 UNL     1     -31.835   9.031   0.994  1.00 20.00     0.289 C 
HETATM    4  N11 UNL     1     -33.321  10.559  -0.540  1.00 20.00    -0.195 NA
ENDROOT
BRANCH   3   5
HETATM    5  N12 UNL     1     -32.703   7.981   1.631  1.00 20.00    -0.055 N 
HETATM    6  C4  UNL     1     -32.910   8.248   3.102  1.00 20.00     0.237 C 
HETATM    7  C2  UNL     1     -33.893   7.232   3.667  1.00 20.00     0.032 C 
HETATM    8  C6  UNL     1     -33.428   5.792   3.420  1.00 20.00    -0.012 C 
HETATM    9  C3  UNL     1     -33.156   5.565   1.928  1.00 20.00     0.032 C 
HETATM   10  C5  UNL     1     -32.177   6.591   1.371  1.00 20.00     0.237 C 
HETATM   11  H31 UNL     1     -33.624   8.049   1.175  1.00 20.00     0.281 HD
BRANCH   8  12
HETATM   12  C9  UNL     1     -34.458   4.792   3.940  1.00 20.00     0.000 C 
HETATM   13  C7  UNL     1     -33.812   3.537   4.428  1.00 20.00     0.005 C 
ENDBRANCH   8  12
ENDBRANCH   3   5
TORSDOF 2
ENDMDL
MODEL 3
REMARK VINA RESULT:       0.6      1.165      1.625
REMARK  2 active torsions:
REMARK  status: ('A' for Active; 'I' for Inactive)
REMARK    1  A    between atoms: C6_6  and  C9_9 
REMARK    2  A    between atoms: C10_10  and  N12_12 
ROOT
HETATM    1  C1  UNL     1     -35.015   4.630   4.437  1.00 20.00     0.092 C 
HETATM    2  C8  UNL     1     -32.911   3.330   4.435  1.00 20.00     0.056 C 
HETATM    3  C10 UNL     1     -33.879   4.179   3.627  1.00 20.00     0.289 C 
HETATM    4  N11 UNL     1     -35.916   4.987   5.075  1.00 20.00    -0.195 NA
ENDROOT
BRANCH   3   5
HETATM    5  N12 UNL     1     -33.136   5.380   3.111  1.00 20.00    -0.055 N 
HETATM    6  C4  UNL     1     -33.867   6.663   3.423  1.00 20.00     0.237 C 
HETATM    7  C2  UNL     1     -33.014   7.849   2.992  1.00 20.00     0.032 C 
HETATM    8  C6  UNL     1     -32.634   7.768   1.509  1.00 20.00    -0.012 C 
HETATM    9  C3  UNL     1     -31.957   6.427   1.202  1.00 20.00     0.032 C 
HETATM   10  C5  UNL     1     -32.815   5.248   1.642  1.00 20.00     0.237 C 
HETATM   11  H31 UNL     1     -32.240   5.407   3.618  1.00 20.00     0.281 HD
BRANCH   8  12
HETATM   12  C9  UNL     1     -31.730   8.933   1.117  1.00 20.00     0.000 C 
HETATM   13  C7  UNL     1     -32.462   9.952   0.305  1.00 20.00     0.005 C 
ENDBRANCH   8  12
ENDBRANCH   3   5
TORSDOF 2
ENDMDL
MODEL 4
REMARK VINA RESULT:       0.6      1.881      5.354
REMARK  2 active torsions:
REMARK  status: ('A' for Active; 'I' for Inactive)
REMARK    1  A    between atoms: C6_6  and  C9_9 
REMARK    2  A    between atoms: C10_10  and  N12_12 
ROOT
HETATM    1  C1  UNL     1     -32.529   9.808   0.924  1.00 20.00     0.092 C 
HETATM    2  C8  UNL     1     -31.047   8.014   0.088  1.00 20.00     0.056 C 
HETATM    3  C10 UNL     1     -31.571   8.765   1.301  1.00 20.00     0.289 C 
HETATM    4  N11 UNL     1     -33.287  10.636   0.628  1.00 20.00    -0.195 NA
ENDROOT
BRANCH   3   5
HETATM    5  N12 UNL     1     -32.251   7.778   2.209  1.00 20.00    -0.055 N 
HETATM    6  C4  UNL     1     -32.732   6.565   1.450  1.00 20.00     0.237 C 
HETATM    7  C2  UNL     1     -33.297   5.546   2.430  1.00 20.00     0.032 C 
HETATM    8  C6  UNL     1     -34.414   6.146   3.293  1.00 20.00    -0.012 C 
HETATM    9  C3  UNL     1     -33.924   7.416   3.998  1.00 20.00     0.032 C 
HETATM   10  C5  UNL     1     -33.355   8.425   3.009  1.00 20.00     0.237 C 
HETATM   11  H31 UNL     1     -31.536   7.457   2.877  1.00 20.00     0.281 HD
BRANCH   8  12
HETATM   12  C9  UNL     1     -34.922   5.125   4.308  1.00 20.00     0.000 C 
HETATM   13  C7  UNL     1     -34.027   3.931   4.387  1.00 20.00     0.005 C 
ENDBRANCH   8  12
ENDBRANCH   3   5
TORSDOF 2
ENDMDL
MODEL 5
REMARK VINA RESULT:       1.8      1.301      2.185
REMARK  2 active torsions:
REMARK  status: ('A' for Active; 'I' for Inactive)
REMARK    1  A    between atoms: C6_6  and  C9_9 
REMARK    2  A    between atoms: C10_10  and  N12_12 
ROOT
HETATM    1  C1  UNL     1     -35.000   4.798   4.342  1.00 20.00     0.092 C 
HETATM    2  C8  UNL     1     -32.729   3.843   4.124  1.00 20.00     0.056 C 
HETATM    3  C10 UNL     1     -33.956   4.378   3.403  1.00 20.00     0.289 C 
HETATM    4  N11 UNL     1     -35.829   5.130   5.083  1.00 20.00    -0.195 NA
ENDROOT
BRANCH   3   5
HETATM    5  N12 UNL     1     -33.537   5.560   2.573  1.00 20.00    -0.055 N 
HETATM    6  C4  UNL     1     -32.266   5.280   1.809  1.00 20.00     0.237 C 
HETATM    7  C2  UNL     1     -31.956   6.457   0.893  1.00 20.00     0.032 C 
HETATM    8  C6  UNL     1     -31.862   7.774   1.672  1.00 20.00    -0.012 C 
HETATM    9  C3  UNL     1     -33.135   8.002   2.496  1.00 20.00     0.032 C 
HETATM   10  C5  UNL     1     -33.439   6.817   3.403  1.00 20.00     0.237 C 
HETATM   11  H31 UNL     1     -34.284   5.709   1.881  1.00 20.00     0.281 HD
BRANCH   8  12
HETATM   12  C9  UNL     1     -31.612   8.946   0.726  1.00 20.00     0.000 C 
HETATM   13  C7  UNL     1     -32.723   9.945   0.778  1.00 20.00     0.005 C 
ENDBRANCH   8  12
ENDBRANCH   3   5
TORSDOF 2
ENDMDL
