MODEL 1
REMARK VINA RESULT:      -1.8      0.000      0.000
REMARK  4 active torsions:
REMARK  status: ('A' for Active; 'I' for Inactive)
REMARK    1  A    between atoms: C4_4  and  C5_5 
REMARK    2  A    between atoms: C4_4  and  O8_8 
REMARK    3  A    between atoms: C5_5  and  S9_9 
REMARK    4  A    between atoms: C6_6  and  S9_9 
ROOT
HETATM    1  C1  UNL     1     -32.293   8.930   1.068  1.00 20.00     0.074 C 
HETATM    2  C2  UNL     1     -32.207   6.481   1.354  1.00 20.00     0.037 C 
HETATM    3  C6  UNL     1     -32.117   7.840   2.039  1.00 20.00     0.150 C 
HETATM    4  N7  UNL     1     -32.429   9.793   0.305  1.00 20.00    -0.196 NA
ENDROOT
BRANCH   3   5
HETATM    5  S9  UNL     1     -33.357   7.932   3.350  1.00 20.00    -0.148 SA
BRANCH   5   6
HETATM    6  C5  UNL     1     -33.983   6.228   3.238  1.00 20.00     0.101 C 
BRANCH   6   7
HETATM    7  C4  UNL     1     -35.177   6.013   4.155  1.00 20.00     0.177 C 
BRANCH   7   8
HETATM    8  O8  UNL     1     -35.227   4.657   4.580  1.00 20.00    -0.395 OA
HETATM    9  C3  UNL     1     -34.023   3.969   4.274  1.00 20.00     0.201 C 
ENDBRANCH   7   8
ENDBRANCH   6   7
ENDBRANCH   5   6
ENDBRANCH   3   5
TORSDOF 4
ENDMDL
MODEL 2
REMARK VINA RESULT:      -1.5      3.605      5.374
REMARK  4 active torsions:
REMARK  status: ('A' for Active; 'I' for Inactive)
REMARK    1  A    between atoms: C4_4  and  C5_5 
REMARK    2  A    between atoms: C4_4  and  O8_8 
REMARK    3  A    between atoms: C5_5  and  S9_9 
REMARK    4  A    between atoms: C6_6  and  S9_9 
ROOT
HETATM    1  C1  UNL     1     -33.878   4.455   4.029  1.00 20.00     0.074 C 
HETATM    2  C2  UNL     1     -35.293   6.457   3.750  1.00 20.00     0.037 C 
HETATM    3  C6  UNL     1     -33.881   5.884   3.684  1.00 20.00     0.150 C 
HETATM    4  N7  UNL     1     -33.870   3.328   4.303  1.00 20.00    -0.196 NA
ENDROOT
BRANCH   3   5
HETATM    5  S9  UNL     1     -33.202   6.154   2.031  1.00 20.00    -0.148 SA
BRANCH   5   6
HETATM    6  C5  UNL     1     -32.384   7.749   2.343  1.00 20.00     0.101 C 
BRANCH   6   7
HETATM    7  C4  UNL     1     -31.868   8.370   1.054  1.00 20.00     0.177 C 
BRANCH   7   8
HETATM    8  O8  UNL     1     -32.377   9.690   0.911  1.00 20.00    -0.395 OA
HETATM    9  C3  UNL     1     -32.691   9.984  -0.443  1.00 20.00     0.201 C 
ENDBRANCH   7   8
ENDBRANCH   6   7
ENDBRANCH   5   6
ENDBRANCH   3   5
TORSDOF 4
ENDMDL
MODEL 3
REMARK VINA RESULT:      -1.1      1.871      2.221
REMARK  4 active torsions:
REMARK  status: ('A' for Active; 'I' for Inactive)
REMARK    1  A    between atoms: C4_4  and  C5_5 
REMARK    2  A    between atoms: C4_4  and  O8_8 
REMARK    3  A    between atoms: C5_5  and  S9_9 
REMARK    4  A    between atoms: C6_6  and  S9_9 
ROOT
HETATM    1  C1  UNL     1     -32.714   6.070   1.667  1.00 20.00     0.074 C 
HETATM    2  C2  UNL     1     -31.947   8.387   2.025  1.00 20.00     0.037 C 
HETATM    3  C6  UNL     1     -33.101   7.400   2.159  1.00 20.00     0.150 C 
HETATM    4  N7  UNL     1     -32.414   5.019   1.278  1.00 20.00    -0.196 NA
ENDROOT
BRANCH   3   5
HETATM    5  S9  UNL     1     -33.628   7.326   3.886  1.00 20.00    -0.148 SA
BRANCH   5   6
HETATM    6  C5  UNL     1     -35.043   6.202   3.679  1.00 20.00     0.101 C 
BRANCH   6   7
HETATM    7  C4  UNL     1     -34.914   4.976   4.569  1.00 20.00     0.177 C 
BRANCH   7   8
HETATM    8  O8  UNL     1     -34.212   3.947   3.882  1.00 20.00    -0.395 OA
HETATM    9  C3  UNL     1     -33.378   3.207   4.763  1.00 20.00     0.201 C 
ENDBRANCH   7   8
ENDBRANCH   6   7
ENDBRANCH   5   6
ENDBRANCH   3   5
TORSDOF 4
ENDMDL
MODEL 4
REMARK VINA RESULT:      -1.0      3.062      4.829
REMARK  4 active torsions:
REMARK  status: ('A' for Active; 'I' for Inactive)
REMARK    1  A    between atoms: C4_4  and  C5_5 
REMARK    2  A    between atoms: C4_4  and  O8_8 
REMARK    3  A    between atoms: C5_5  and  S9_9 
REMARK    4  A    between atoms: C6_6  and  S9_9 
ROOT
HETATM    1  C1  UNL     1     -34.142   6.974   3.890  1.00 20.00     0.074 C 
HETATM    2  C2  UNL     1     -33.937   4.517   3.789  1.00 20.00     0.037 C 
HETATM    3  C6  UNL     1     -34.108   5.808   2.995  1.00 20.00     0.150 C 
HETATM    4  N7  UNL     1     -34.171   7.896   4.592  1.00 20.00    -0.196 NA
ENDROOT
BRANCH   3   5
HETATM    5  S9  UNL     1     -32.769   5.952   1.790  1.00 20.00    -0.148 SA
BRANCH   5   6
HETATM    6  C5  UNL     1     -32.237   7.644   2.193  1.00 20.00     0.101 C 
BRANCH   6   7
HETATM    7  C4  UNL     1     -31.786   8.396   0.950  1.00 20.00     0.177 C 
BRANCH   7   8
HETATM    8  O8  UNL     1     -32.437   9.658   0.880  1.00 20.00    -0.395 OA
HETATM    9  C3  UNL     1     -32.691  10.041  -0.465  1.00 20.00     0.201 C 
ENDBRANCH   7   8
ENDBRANCH   6   7
ENDBRANCH   5   6
ENDBRANCH   3   5
TORSDOF 4
ENDMDL
MODEL 5
REMARK VINA RESULT:      -0.6      3.519      5.089
REMARK  4 active torsions:
REMARK  status: ('A' for Active; 'I' for Inactive)
REMARK    1  A    between atoms: C4_4  and  C5_5 
REMARK    2  A    between atoms: C4_4  and  O8_8 
REMARK    3  A    between atoms: C5_5  and  S9_9 
REMARK    4  A    between atoms: C6_6  and  S9_9 
ROOT
HETATM    1  C1  UNL     1     -33.899   4.665   3.569  1.00 20.00     0.074 C 
HETATM    2  C2  UNL     1     -32.745   5.470   1.542  1.00 20.00     0.037 C 
HETATM    3  C6  UNL     1     -33.809   5.762   2.594  1.00 20.00     0.150 C 
HETATM    4  N7  UNL     1     -33.975   3.802   4.339  1.00 20.00    -0.196 NA
ENDROOT
BRANCH   3   5
HETATM    5  S9  UNL     1     -33.430   7.328   3.411  1.00 20.00    -0.148 SA
BRANCH   5   6
HETATM    6  C5  UNL     1     -32.076   7.869   2.324  1.00 20.00     0.101 C 
BRANCH   6   7
HETATM    7  C4  UNL     1     -32.402   9.190   1.644  1.00 20.00     0.177 C 
BRANCH   7   8
HETATM    8  O8  UNL     1     -32.006   9.148   0.280  1.00 20.00    -0.395 OA
HETATM    9  C3  UNL     1     -32.719  10.097  -0.501  1.00 20.00     0.201 C 
ENDBRANCH   7   8
ENDBRANCH   6   7
ENDBRANCH   5   6
ENDBRANCH   3   5
TORSDOF 4
ENDMDL
MODEL 6
REMARK VINA RESULT:      -0.5      1.409      1.613
REMARK  4 active torsions:
REMARK  status: ('A' for Active; 'I' for Inactive)
REMARK    1  A    between atoms: C4_4  and  C5_5 
REMARK    2  A    between atoms: C4_4  and  O8_8 
REMARK    3  A    between atoms: C5_5  and  S9_9 
REMARK    4  A    between atoms: C6_6  and  S9_9 
ROOT
HETATM    1  C1  UNL     1     -32.396   9.115   0.796  1.00 20.00     0.074 C 
HETATM    2  C2  UNL     1     -31.093   8.496   2.798  1.00 20.00     0.037 C 
HETATM    3  C6  UNL     1     -32.330   8.210   1.953  1.00 20.00     0.150 C 
HETATM    4  N7  UNL     1     -32.454   9.829  -0.116  1.00 20.00    -0.196 NA
ENDROOT
BRANCH   3   5
HETATM    5  S9  UNL     1     -32.306   6.482   1.424  1.00 20.00    -0.148 SA
BRANCH   5   6
HETATM    6  C5  UNL     1     -33.447   5.812   2.673  1.00 20.00     0.101 C 
BRANCH   6   7
HETATM    7  C4  UNL     1     -34.179   6.923   3.410  1.00 20.00     0.177 C 
BRANCH   7   8
HETATM    8  O8  UNL     1     -35.286   6.388   4.123  1.00 20.00    -0.395 OA
HETATM    9  C3  UNL     1     -35.103   5.009   4.414  1.00 20.00     0.201 C 
ENDBRANCH   7   8
ENDBRANCH   6   7
ENDBRANCH   5   6
ENDBRANCH   3   5
TORSDOF 4
ENDMDL
MODEL 7
REMARK VINA RESULT:      -0.2      1.563      1.901
REMARK  4 active torsions:
REMARK  status: ('A' for Active; 'I' for Inactive)
REMARK    1  A    between atoms: C4_4  and  C5_5 
REMARK    2  A    between atoms: C4_4  and  O8_8 
REMARK    3  A    between atoms: C5_5  and  S9_9 
REMARK    4  A    between atoms: C6_6  and  S9_9 
ROOT
HETATM    1  C1  UNL     1     -32.245   8.144   1.966  1.00 20.00     0.074 C 
HETATM    2  C2  UNL     1     -33.000   8.019   4.311  1.00 20.00     0.037 C 
HETATM    3  C6  UNL     1     -33.355   7.763   2.851  1.00 20.00     0.150 C 
HETATM    4  N7  UNL     1     -31.372   8.445   1.264  1.00 20.00    -0.196 NA
ENDROOT
BRANCH   3   5
HETATM    5  S9  UNL     1     -33.788   6.021   2.637  1.00 20.00    -0.148 SA
BRANCH   5   6
HETATM    6  C5  UNL     1     -35.013   5.891   3.975  1.00 20.00     0.101 C 
BRANCH   6   7
HETATM    7  C4  UNL     1     -34.858   4.589   4.746  1.00 20.00     0.177 C 
BRANCH   7   8
HETATM    8  O8  UNL     1     -34.047   3.682   4.012  1.00 20.00    -0.395 OA
HETATM    9  C3  UNL     1     -33.166   2.963   4.864  1.00 20.00     0.201 C 
ENDBRANCH   7   8
ENDBRANCH   6   7
ENDBRANCH   5   6
ENDBRANCH   3   5
TORSDOF 4
ENDMDL
MODEL 8
REMARK VINA RESULT:      -0.2      2.996      4.766
REMARK  4 active torsions:
REMARK  status: ('A' for Active; 'I' for Inactive)
REMARK    1  A    between atoms: C4_4  and  C5_5 
REMARK    2  A    between atoms: C4_4  and  O8_8 
REMARK    3  A    between atoms: C5_5  and  S9_9 
REMARK    4  A    between atoms: C6_6  and  S9_9 
ROOT
HETATM    1  C1  UNL     1     -33.317   5.711   2.170  1.00 20.00     0.074 C 
HETATM    2  C2  UNL     1     -35.120   6.258   3.762  1.00 20.00     0.037 C 
HETATM    3  C6  UNL     1     -33.650   6.441   3.402  1.00 20.00     0.150 C 
HETATM    4  N7  UNL     1     -33.048   5.134   1.200  1.00 20.00    -0.196 NA
ENDROOT
BRANCH   3   5
HETATM    5  S9  UNL     1     -33.291   8.203   3.229  1.00 20.00    -0.148 SA
BRANCH   5   6
HETATM    6  C5  UNL     1     -31.717   8.062   2.330  1.00 20.00     0.101 C 
BRANCH   6   7
HETATM    7  C4  UNL     1     -31.845   8.568   0.901  1.00 20.00     0.177 C 
BRANCH   7   8
HETATM    8  O8  UNL     1     -32.526   9.816   0.885  1.00 20.00    -0.395 OA
HETATM    9  C3  UNL     1     -32.788  10.250  -0.442  1.00 20.00     0.201 C 
ENDBRANCH   7   8
ENDBRANCH   6   7
ENDBRANCH   5   6
ENDBRANCH   3   5
TORSDOF 4
ENDMDL
MODEL 9
REMARK VINA RESULT:       0.0      3.121      4.480
REMARK  4 active torsions:
REMARK  status: ('A' for Active; 'I' for Inactive)
REMARK    1  A    between atoms: C4_4  and  C5_5 
REMARK    2  A    between atoms: C4_4  and  O8_8 
REMARK    3  A    between atoms: C5_5  and  S9_9 
REMARK    4  A    between atoms: C6_6  and  S9_9 
ROOT
HETATM    1  C1  UNL     1     -34.522   4.917   4.209  1.00 20.00     0.074 C 
HETATM    2  C2  UNL     1     -36.081   6.517   3.161  1.00 20.00     0.037 C 
HETATM    3  C6  UNL     1     -35.105   6.263   4.305  1.00 20.00     0.150 C 
HETATM    4  N7  UNL     1     -34.061   3.855   4.140  1.00 20.00    -0.196 NA
ENDROOT
BRANCH   3   5
HETATM    5  S9  UNL     1     -33.818   7.532   4.287  1.00 20.00    -0.148 SA
BRANCH   5   6
HETATM    6  C5  UNL     1     -33.559   7.614   2.488  1.00 20.00     0.101 C 
BRANCH   6   7
HETATM    7  C4  UNL     1     -32.096   7.856   2.148  1.00 20.00     0.177 C 
BRANCH   7   8
HETATM    8  O8  UNL     1     -31.542   6.703   1.529  1.00 20.00    -0.395 OA
HETATM    9  C3  UNL     1     -32.536   5.723   1.265  1.00 20.00     0.201 C 
ENDBRANCH   7   8
ENDBRANCH   6   7
ENDBRANCH   5   6
ENDBRANCH   3   5
TORSDOF 4
ENDMDL
