MODEL 1
REMARK VINA RESULT:      -2.4      0.000      0.000
REMARK  2 active torsions:
REMARK  status: ('A' for Active; 'I' for Inactive)
REMARK    1  A    between atoms: C3_3  and  C8_8 
REMARK    2  A    between atoms: C7_7  and  C8_8 
ROOT
HETATM    1  C1  UNL     1     -32.311   8.411   1.543  1.00 20.00     0.088 C 
HETATM    2  C2  UNL     1     -32.954   7.728   2.611  1.00 20.00     0.096 C 
HETATM    3  C3  UNL     1     -33.239   6.411   2.612  1.00 20.00    -0.070 C 
HETATM    4  C4  UNL     1     -32.860   5.580   1.409  1.00 20.00     0.044 C 
HETATM    5  N9  UNL     1     -31.786   8.976   0.676  1.00 20.00    -0.192 NA
ENDROOT
BRANCH   3   6
HETATM    6  C8  UNL     1     -33.931   5.687   3.767  1.00 20.00     0.010 C 
HETATM    7  C6  UNL     1     -35.338   6.247   4.009  1.00 20.00     0.015 C 
BRANCH   6   8
HETATM    8  C7  UNL     1     -34.016   4.157   3.585  1.00 20.00     0.004 C 
HETATM    9  C5  UNL     1     -33.391   3.376   4.734  1.00 20.00     0.006 C 
ENDBRANCH   6   8
ENDBRANCH   3   6
TORSDOF 2
ENDMDL
MODEL 2
REMARK VINA RESULT:      -2.1      2.565      4.766
REMARK  2 active torsions:
REMARK  status: ('A' for Active; 'I' for Inactive)
REMARK    1  A    between atoms: C3_3  and  C8_8 
REMARK    2  A    between atoms: C7_7  and  C8_8 
ROOT
HETATM    1  C1  UNL     1     -34.749   6.463   3.921  1.00 20.00     0.088 C 
HETATM    2  C2  UNL     1     -33.875   7.454   3.398  1.00 20.00     0.096 C 
HETATM    3  C3  UNL     1     -33.017   7.254   2.378  1.00 20.00    -0.070 C 
HETATM    4  C4  UNL     1     -32.960   5.892   1.728  1.00 20.00     0.044 C 
HETATM    5  N9  UNL     1     -35.467   5.660   4.353  1.00 20.00    -0.192 NA
ENDROOT
BRANCH   3   6
HETATM    6  C8  UNL     1     -32.081   8.328   1.824  1.00 20.00     0.010 C 
HETATM    7  C6  UNL     1     -31.203   7.771   0.696  1.00 20.00     0.015 C 
BRANCH   6   8
HETATM    8  C7  UNL     1     -32.808   9.595   1.327  1.00 20.00     0.004 C 
HETATM    9  C5  UNL     1     -32.467   9.962  -0.112  1.00 20.00     0.006 C 
ENDBRANCH   6   8
ENDBRANCH   3   6
TORSDOF 2
ENDMDL
MODEL 3
REMARK VINA RESULT:      -1.6      2.846      4.511
REMARK  2 active torsions:
REMARK  status: ('A' for Active; 'I' for Inactive)
REMARK    1  A    between atoms: C3_3  and  C8_8 
REMARK    2  A    between atoms: C7_7  and  C8_8 
ROOT
HETATM    1  C1  UNL     1     -33.423   3.214   4.271  1.00 20.00     0.088 C 
HETATM    2  C2  UNL     1     -33.280   4.469   3.619  1.00 20.00     0.096 C 
HETATM    3  C3  UNL     1     -34.175   5.473   3.693  1.00 20.00    -0.070 C 
HETATM    4  C4  UNL     1     -35.426   5.279   4.517  1.00 20.00     0.044 C 
HETATM    5  N9  UNL     1     -33.531   2.187   4.801  1.00 20.00    -0.192 NA
ENDROOT
BRANCH   3   6
HETATM    6  C8  UNL     1     -34.011   6.819   2.986  1.00 20.00     0.010 C 
HETATM    7  C6  UNL     1     -33.714   7.940   3.991  1.00 20.00     0.015 C 
BRANCH   6   8
HETATM    8  C7  UNL     1     -32.929   6.820   1.886  1.00 20.00     0.004 C 
HETATM    9  C5  UNL     1     -32.043   8.059   1.910  1.00 20.00     0.006 C 
ENDBRANCH   6   8
ENDBRANCH   3   6
TORSDOF 2
ENDMDL
MODEL 4
REMARK VINA RESULT:      -1.6      1.270      1.695
REMARK  2 active torsions:
REMARK  status: ('A' for Active; 'I' for Inactive)
REMARK    1  A    between atoms: C3_3  and  C8_8 
REMARK    2  A    between atoms: C7_7  and  C8_8 
ROOT
HETATM    1  C1  UNL     1     -32.060   8.880   0.896  1.00 20.00     0.088 C 
HETATM    2  C2  UNL     1     -32.638   8.548   2.151  1.00 20.00     0.096 C 
HETATM    3  C3  UNL     1     -33.010   7.305   2.515  1.00 20.00    -0.070 C 
HETATM    4  C4  UNL     1     -32.810   6.168   1.541  1.00 20.00     0.044 C 
HETATM    5  N9  UNL     1     -31.587   9.160  -0.127  1.00 20.00    -0.192 NA
ENDROOT
BRANCH   3   6
HETATM    6  C8  UNL     1     -33.631   6.960   3.869  1.00 20.00     0.010 C 
HETATM    7  C6  UNL     1     -33.579   8.159   4.824  1.00 20.00     0.015 C 
BRANCH   6   8
HETATM    8  C7  UNL     1     -35.082   6.443   3.777  1.00 20.00     0.004 C 
HETATM    9  C5  UNL     1     -35.293   5.107   4.479  1.00 20.00     0.006 C 
ENDBRANCH   6   8
ENDBRANCH   3   6
TORSDOF 2
ENDMDL
MODEL 5
REMARK VINA RESULT:      -1.5      2.607      4.823
REMARK  2 active torsions:
REMARK  status: ('A' for Active; 'I' for Inactive)
REMARK    1  A    between atoms: C3_3  and  C8_8 
REMARK    2  A    between atoms: C7_7  and  C8_8 
ROOT
HETATM    1  C1  UNL     1     -34.733   5.555   3.892  1.00 20.00     0.088 C 
HETATM    2  C2  UNL     1     -33.803   6.173   3.012  1.00 20.00     0.096 C 
HETATM    3  C3  UNL     1     -33.252   7.386   3.215  1.00 20.00    -0.070 C 
HETATM    4  C4  UNL     1     -33.629   8.163   4.453  1.00 20.00     0.044 C 
HETATM    5  N9  UNL     1     -35.492   5.043   4.605  1.00 20.00    -0.192 NA
ENDROOT
BRANCH   3   6
HETATM    6  C8  UNL     1     -32.253   8.041   2.261  1.00 20.00     0.010 C 
HETATM    7  C6  UNL     1     -31.782   7.053   1.186  1.00 20.00     0.015 C 
BRANCH   6   8
HETATM    8  C7  UNL     1     -32.785   9.320   1.580  1.00 20.00     0.004 C 
HETATM    9  C5  UNL     1     -32.242   9.525   0.171  1.00 20.00     0.006 C 
ENDBRANCH   6   8
ENDBRANCH   3   6
TORSDOF 2
ENDMDL
MODEL 6
REMARK VINA RESULT:      -1.2      2.625      4.370
REMARK  2 active torsions:
REMARK  status: ('A' for Active; 'I' for Inactive)
REMARK    1  A    between atoms: C3_3  and  C8_8 
REMARK    2  A    between atoms: C7_7  and  C8_8 
ROOT
HETATM    1  C1  UNL     1     -33.721   3.823   4.074  1.00 20.00     0.088 C 
HETATM    2  C2  UNL     1     -33.815   5.232   3.914  1.00 20.00     0.096 C 
HETATM    3  C3  UNL     1     -33.342   5.912   2.851  1.00 20.00    -0.070 C 
HETATM    4  C4  UNL     1     -32.662   5.149   1.739  1.00 20.00     0.044 C 
HETATM    5  N9  UNL     1     -33.649   2.673   4.213  1.00 20.00    -0.192 NA
ENDROOT
BRANCH   3   6
HETATM    6  C8  UNL     1     -33.449   7.428   2.689  1.00 20.00     0.010 C 
HETATM    7  C6  UNL     1     -33.886   8.096   3.999  1.00 20.00     0.015 C 
BRANCH   6   8
HETATM    8  C7  UNL     1     -32.153   8.096   2.184  1.00 20.00     0.004 C 
HETATM    9  C5  UNL     1     -32.354   8.932   0.926  1.00 20.00     0.006 C 
ENDBRANCH   6   8
ENDBRANCH   3   6
TORSDOF 2
ENDMDL
MODEL 7
REMARK VINA RESULT:      -1.0      1.539      2.765
REMARK  2 active torsions:
REMARK  status: ('A' for Active; 'I' for Inactive)
REMARK    1  A    between atoms: C3_3  and  C8_8 
REMARK    2  A    between atoms: C7_7  and  C8_8 
ROOT
HETATM    1  C1  UNL     1     -32.437   9.858   0.357  1.00 20.00     0.088 C 
HETATM    2  C2  UNL     1     -32.874   8.519   0.545  1.00 20.00     0.096 C 
HETATM    3  C3  UNL     1     -32.557   7.755   1.609  1.00 20.00    -0.070 C 
HETATM    4  C4  UNL     1     -31.679   8.338   2.691  1.00 20.00     0.044 C 
HETATM    5  N9  UNL     1     -32.085  10.952   0.196  1.00 20.00    -0.192 NA
ENDROOT
BRANCH   3   6
HETATM    6  C8  UNL     1     -33.033   6.315   1.801  1.00 20.00     0.010 C 
HETATM    7  C6  UNL     1     -31.960   5.313   1.357  1.00 20.00     0.015 C 
BRANCH   6   8
HETATM    8  C7  UNL     1     -33.472   5.988   3.243  1.00 20.00     0.004 C 
HETATM    9  C5  UNL     1     -34.744   6.711   3.668  1.00 20.00     0.006 C 
ENDBRANCH   6   8
ENDBRANCH   3   6
TORSDOF 2
ENDMDL
MODEL 8
REMARK VINA RESULT:      -0.8      0.859      1.933
REMARK  2 active torsions:
REMARK  status: ('A' for Active; 'I' for Inactive)
REMARK    1  A    between atoms: C3_3  and  C8_8 
REMARK    2  A    between atoms: C7_7  and  C8_8 
ROOT
HETATM    1  C1  UNL     1     -31.990   8.251   1.306  1.00 20.00     0.088 C 
HETATM    2  C2  UNL     1     -32.965   7.632   2.134  1.00 20.00     0.096 C 
HETATM    3  C3  UNL     1     -33.200   6.306   2.175  1.00 20.00    -0.070 C 
HETATM    4  C4  UNL     1     -32.385   5.391   1.292  1.00 20.00     0.044 C 
HETATM    5  N9  UNL     1     -31.195   8.765   0.634  1.00 20.00    -0.192 NA
ENDROOT
BRANCH   3   6
HETATM    6  C8  UNL     1     -34.253   5.651   3.070  1.00 20.00     0.010 C 
HETATM    7  C6  UNL     1     -33.649   4.502   3.888  1.00 20.00     0.015 C 
BRANCH   6   8
HETATM    8  C7  UNL     1     -34.964   6.636   4.022  1.00 20.00     0.004 C 
HETATM    9  C5  UNL     1     -34.018   7.640   4.670  1.00 20.00     0.006 C 
ENDBRANCH   6   8
ENDBRANCH   3   6
TORSDOF 2
ENDMDL
MODEL 9
REMARK VINA RESULT:      -0.6      1.823      2.593
REMARK  2 active torsions:
REMARK  status: ('A' for Active; 'I' for Inactive)
REMARK    1  A    between atoms: C3_3  and  C8_8 
REMARK    2  A    between atoms: C7_7  and  C8_8 
ROOT
HETATM    1  C1  UNL     1     -32.425   9.780   0.369  1.00 20.00     0.088 C 
HETATM    2  C2  UNL     1     -32.853   8.532   0.896  1.00 20.00     0.096 C 
HETATM    3  C3  UNL     1     -32.398   7.993   2.045  1.00 20.00    -0.070 C 
HETATM    4  C4  UNL     1     -31.363   8.746   2.846  1.00 20.00     0.044 C 
HETATM    5  N9  UNL     1     -32.083  10.800  -0.068  1.00 20.00    -0.192 NA
ENDROOT
BRANCH   3   6
HETATM    6  C8  UNL     1     -32.865   6.648   2.602  1.00 20.00     0.010 C 
HETATM    7  C6  UNL     1     -34.126   6.811   3.459  1.00 20.00     0.015 C 
BRANCH   6   8
HETATM    8  C7  UNL     1     -33.117   5.577   1.521  1.00 20.00     0.004 C 
HETATM    9  C5  UNL     1     -31.836   4.973   0.957  1.00 20.00     0.006 C 
ENDBRANCH   6   8
ENDBRANCH   3   6
TORSDOF 2
ENDMDL
