MODEL 1
REMARK VINA RESULT:      -0.7      0.000      0.000
REMARK  0 active torsions:
REMARK  status: ('A' for Active; 'I' for Inactive)
ROOT
HETATM    1  C1  UNL     1     -32.222   9.701   0.491  1.00 20.00     0.088 C 
HETATM    2  C2  UNL     1     -32.280   7.568   1.606  1.00 20.00    -0.060 C 
HETATM    3  C3  UNL     1     -31.920   8.318   0.558  1.00 20.00     0.097 C 
HETATM    4  C4  UNL     1     -31.986   6.101   1.727  1.00 20.00     0.046 C 
HETATM    5  C5  UNL     1     -33.105   8.080   2.746  1.00 20.00     0.108 C 
HETATM    6  C6  UNL     1     -33.264   5.453   2.236  1.00 20.00     0.078 C 
HETATM    7  N7  UNL     1     -32.466  10.834   0.431  1.00 20.00    -0.192 NA
HETATM    8  S8  UNL     1     -33.943   6.623   3.444  1.00 20.00    -0.165 SA
ENDROOT
TORSDOF 0
ENDMDL
MODEL 2
REMARK VINA RESULT:      -0.4      3.226      4.299
REMARK  0 active torsions:
REMARK  status: ('A' for Active; 'I' for Inactive)
ROOT
HETATM    1  C1  UNL     1     -35.082   6.115   4.237  1.00 20.00     0.088 C 
HETATM    2  C2  UNL     1     -33.247   7.212   3.128  1.00 20.00    -0.060 C 
HETATM    3  C3  UNL     1     -34.286   7.258   3.970  1.00 20.00     0.097 C 
HETATM    4  C4  UNL     1     -32.372   8.391   2.811  1.00 20.00     0.046 C 
HETATM    5  C5  UNL     1     -32.885   6.001   2.325  1.00 20.00     0.108 C 
HETATM    6  C6  UNL     1     -32.170   8.375   1.305  1.00 20.00     0.078 C 
HETATM    7  N7  UNL     1     -35.736   5.183   4.458  1.00 20.00    -0.192 NA
HETATM    8  S8  UNL     1     -31.994   6.624   0.865  1.00 20.00    -0.165 SA
ENDROOT
TORSDOF 0
ENDMDL
MODEL 3
REMARK VINA RESULT:      -0.2      2.231      3.058
REMARK  0 active torsions:
REMARK  status: ('A' for Active; 'I' for Inactive)
ROOT
HETATM    1  C1  UNL     1     -32.373   7.919   2.284  1.00 20.00     0.088 C 
HETATM    2  C2  UNL     1     -34.072   6.474   3.191  1.00 20.00    -0.060 C 
HETATM    3  C3  UNL     1     -33.587   7.704   2.984  1.00 20.00     0.097 C 
HETATM    4  C4  UNL     1     -35.351   6.191   3.925  1.00 20.00     0.046 C 
HETATM    5  C5  UNL     1     -33.350   5.222   2.798  1.00 20.00     0.108 C 
HETATM    6  C6  UNL     1     -35.054   5.028   4.859  1.00 20.00     0.078 C 
HETATM    7  N7  UNL     1     -31.380   8.101   1.711  1.00 20.00    -0.192 NA
HETATM    8  S8  UNL     1     -33.965   3.925   3.917  1.00 20.00    -0.165 SA
ENDROOT
TORSDOF 0
ENDMDL
MODEL 4
REMARK VINA RESULT:       0.9      3.323      4.407
REMARK  0 active torsions:
REMARK  status: ('A' for Active; 'I' for Inactive)
ROOT
HETATM    1  C1  UNL     1     -33.919   4.244   3.836  1.00 20.00     0.088 C 
HETATM    2  C2  UNL     1     -33.200   6.069   2.440  1.00 20.00    -0.060 C 
HETATM    3  C3  UNL     1     -33.317   4.754   2.658  1.00 20.00     0.097 C 
HETATM    4  C4  UNL     1     -32.571   6.662   1.212  1.00 20.00     0.046 C 
HETATM    5  C5  UNL     1     -33.598   7.113   3.438  1.00 20.00     0.108 C 
HETATM    6  C6  UNL     1     -31.672   7.788   1.698  1.00 20.00     0.078 C 
HETATM    7  N7  UNL     1     -34.412   3.821   4.797  1.00 20.00    -0.192 NA
HETATM    8  S8  UNL     1     -32.585   8.575   3.053  1.00 20.00    -0.165 SA
ENDROOT
TORSDOF 0
ENDMDL
MODEL 5
REMARK VINA RESULT:       1.2      2.763      3.413
REMARK  0 active torsions:
REMARK  status: ('A' for Active; 'I' for Inactive)
ROOT
HETATM    1  C1  UNL     1     -31.795   5.423   0.980  1.00 20.00     0.088 C 
HETATM    2  C2  UNL     1     -33.118   6.846   2.402  1.00 20.00    -0.060 C 
HETATM    3  C3  UNL     1     -32.010   6.636   1.683  1.00 20.00     0.097 C 
HETATM    4  C4  UNL     1     -33.396   8.110   3.164  1.00 20.00     0.046 C 
HETATM    5  C5  UNL     1     -34.178   5.809   2.613  1.00 20.00     0.108 C 
HETATM    6  C6  UNL     1     -33.932   7.678   4.519  1.00 20.00     0.078 C 
HETATM    7  N7  UNL     1     -31.614   4.433   0.403  1.00 20.00    -0.192 NA
HETATM    8  S8  UNL     1     -34.997   6.250   4.178  1.00 20.00    -0.165 SA
ENDROOT
TORSDOF 0
ENDMDL
MODEL 6
REMARK VINA RESULT:       1.7      2.718      3.503
REMARK  0 active torsions:
REMARK  status: ('A' for Active; 'I' for Inactive)
ROOT
HETATM    1  C1  UNL     1     -34.076   7.599   4.629  1.00 20.00     0.088 C 
HETATM    2  C2  UNL     1     -33.386   6.698   2.505  1.00 20.00    -0.060 C 
HETATM    3  C3  UNL     1     -34.054   6.567   3.657  1.00 20.00     0.097 C 
HETATM    4  C4  UNL     1     -33.330   5.638   1.443  1.00 20.00     0.046 C 
HETATM    5  C5  UNL     1     -32.533   7.884   2.173  1.00 20.00     0.108 C 
HETATM    6  C6  UNL     1     -31.880   5.567   0.992  1.00 20.00     0.078 C 
HETATM    7  N7  UNL     1     -34.098   8.440   5.428  1.00 20.00    -0.192 NA
HETATM    8  S8  UNL     1     -31.301   7.286   0.974  1.00 20.00    -0.165 SA
ENDROOT
TORSDOF 0
ENDMDL
MODEL 7
REMARK VINA RESULT:       2.1      3.003      4.169
REMARK  0 active torsions:
REMARK  status: ('A' for Active; 'I' for Inactive)
ROOT
HETATM    1  C1  UNL     1     -32.478   6.081   1.657  1.00 20.00     0.088 C 
HETATM    2  C2  UNL     1     -32.254   8.470   1.461  1.00 20.00    -0.060 C 
HETATM    3  C3  UNL     1     -32.614   7.395   2.171  1.00 20.00     0.097 C 
HETATM    4  C4  UNL     1     -32.376   9.882   1.957  1.00 20.00     0.046 C 
HETATM    5  C5  UNL     1     -31.771   8.403   0.044  1.00 20.00     0.108 C 
HETATM    6  C6  UNL     1     -32.951  10.688   0.803  1.00 20.00     0.078 C 
HETATM    7  N7  UNL     1     -32.368   5.003   1.241  1.00 20.00    -0.192 NA
HETATM    8  S8  UNL     1     -32.154  10.026  -0.685  1.00 20.00    -0.165 SA
ENDROOT
TORSDOF 0
ENDMDL
