MODEL 1
REMARK VINA RESULT:      -0.5      0.000      0.000
REMARK  3 active torsions:
REMARK  status: ('A' for Active; 'I' for Inactive)
REMARK    1  A    between atoms: C2_2  and  C9_9 
REMARK    2  A    between atoms: C6_6  and  C9_9 
REMARK    3  A    between atoms: C7_7  and  O10_10 
ROOT
HETATM    1  C3  UNL     1     -31.921   5.902   1.169  1.00 20.00     0.003 C 
HETATM    2  C4  UNL     1     -33.394   6.296   1.283  1.00 20.00     0.007 C 
HETATM    3  C5  UNL     1     -31.110   7.093   1.689  1.00 20.00     0.032 C 
HETATM    4  C6  UNL     1     -33.430   7.466   2.269  1.00 20.00     0.018 C 
HETATM    5  C7  UNL     1     -32.123   8.200   1.960  1.00 20.00     0.122 C 
ENDROOT
BRANCH   4   6
HETATM    6  C9  UNL     1     -33.497   6.985   3.718  1.00 20.00     0.040 C 
BRANCH   6   7
HETATM    7  C2  UNL     1     -34.534   5.910   3.930  1.00 20.00    -0.093 C 
HETATM    8  C1  UNL     1     -35.845   6.196   3.958  1.00 20.00     0.014 C 
HETATM    9  C8  UNL     1     -34.035   4.510   4.143  1.00 20.00     0.042 C 
ENDBRANCH   6   7
ENDBRANCH   4   6
BRANCH   5  10
HETATM   10  O10 UNL     1     -32.274   8.976   0.773  1.00 20.00    -0.395 OA
HETATM   11  H26 UNL     1     -31.560   9.637   0.772  1.00 20.00     0.210 HD
ENDBRANCH   5  10
TORSDOF 3
ENDMDL
MODEL 2
REMARK VINA RESULT:       0.0      1.744      4.090
REMARK  3 active torsions:
REMARK  status: ('A' for Active; 'I' for Inactive)
REMARK    1  A    between atoms: C2_2  and  C9_9 
REMARK    2  A    between atoms: C6_6  and  C9_9 
REMARK    3  A    between atoms: C7_7  and  O10_10 
ROOT
HETATM    1  C3  UNL     1     -35.495   5.135   4.329  1.00 20.00     0.003 C 
HETATM    2  C4  UNL     1     -33.992   4.861   4.286  1.00 20.00     0.007 C 
HETATM    3  C5  UNL     1     -35.688   6.588   3.886  1.00 20.00     0.032 C 
HETATM    4  C6  UNL     1     -33.402   5.960   3.399  1.00 20.00     0.018 C 
HETATM    5  C7  UNL     1     -34.284   7.166   3.732  1.00 20.00     0.122 C 
ENDROOT
BRANCH   4   6
HETATM    6  C9  UNL     1     -33.463   5.588   1.918  1.00 20.00     0.040 C 
BRANCH   6   7
HETATM    7  C2  UNL     1     -32.168   5.863   1.192  1.00 20.00    -0.093 C 
HETATM    8  C1  UNL     1     -31.507   4.890   0.548  1.00 20.00     0.014 C 
HETATM    9  C8  UNL     1     -31.635   7.265   1.251  1.00 20.00     0.042 C 
ENDBRANCH   6   7
ENDBRANCH   4   6
BRANCH   5  10
HETATM   10  O10 UNL     1     -33.886   7.726   4.981  1.00 20.00    -0.395 OA
HETATM   11  H26 UNL     1     -33.725   6.984   5.588  1.00 20.00     0.210 HD
ENDBRANCH   5  10
TORSDOF 3
ENDMDL
MODEL 3
REMARK VINA RESULT:       0.1      1.551      2.090
REMARK  3 active torsions:
REMARK  status: ('A' for Active; 'I' for Inactive)
REMARK    1  A    between atoms: C2_2  and  C9_9 
REMARK    2  A    between atoms: C6_6  and  C9_9 
REMARK    3  A    between atoms: C7_7  and  O10_10 
ROOT
HETATM    1  C3  UNL     1     -31.986   7.684   1.855  1.00 20.00     0.003 C 
HETATM    2  C4  UNL     1     -33.144   6.793   1.406  1.00 20.00     0.007 C 
HETATM    3  C5  UNL     1     -32.235   8.013   3.330  1.00 20.00     0.032 C 
HETATM    4  C6  UNL     1     -33.765   6.248   2.695  1.00 20.00     0.018 C 
HETATM    5  C7  UNL     1     -33.601   7.421   3.664  1.00 20.00     0.122 C 
ENDROOT
BRANCH   4   6
HETATM    6  C9  UNL     1     -33.048   4.989   3.182  1.00 20.00     0.040 C 
BRANCH   6   7
HETATM    7  C2  UNL     1     -33.869   4.192   4.165  1.00 20.00    -0.093 C 
HETATM    8  C1  UNL     1     -35.067   4.623   4.589  1.00 20.00     0.014 C 
HETATM    9  C8  UNL     1     -33.273   2.913   4.676  1.00 20.00     0.042 C 
ENDBRANCH   6   7
ENDBRANCH   4   6
BRANCH   5  10
HETATM   10  O10 UNL     1     -34.597   8.407   3.401  1.00 20.00    -0.395 OA
HETATM   11  H26 UNL     1     -34.353   9.201   3.907  1.00 20.00     0.210 HD
ENDBRANCH   5  10
TORSDOF 3
ENDMDL
MODEL 4
REMARK VINA RESULT:       0.1      2.047      4.298
REMARK  3 active torsions:
REMARK  status: ('A' for Active; 'I' for Inactive)
REMARK    1  A    between atoms: C2_2  and  C9_9 
REMARK    2  A    between atoms: C6_6  and  C9_9 
REMARK    3  A    between atoms: C7_7  and  O10_10 
ROOT
HETATM    1  C3  UNL     1     -34.307   5.957   3.341  1.00 20.00     0.003 C 
HETATM    2  C4  UNL     1     -32.897   6.117   2.772  1.00 20.00     0.007 C 
HETATM    3  C5  UNL     1     -34.679   7.303   3.970  1.00 20.00     0.032 C 
HETATM    4  C6  UNL     1     -32.670   7.627   2.661  1.00 20.00     0.018 C 
HETATM    5  C7  UNL     1     -33.426   8.167   3.876  1.00 20.00     0.122 C 
ENDROOT
BRANCH   4   6
HETATM    6  C9  UNL     1     -33.211   8.186   1.346  1.00 20.00     0.040 C 
BRANCH   6   7
HETATM    7  C2  UNL     1     -32.229   9.094   0.647  1.00 20.00    -0.093 C 
HETATM    8  C1  UNL     1     -31.007   8.667   0.295  1.00 20.00     0.014 C 
HETATM    9  C8  UNL     1     -32.665  10.508   0.394  1.00 20.00     0.042 C 
ENDBRANCH   6   7
ENDBRANCH   4   6
BRANCH   5  10
HETATM   10  O10 UNL     1     -32.650   7.968   5.056  1.00 20.00    -0.395 OA
HETATM   11  H26 UNL     1     -32.767   7.040   5.321  1.00 20.00     0.210 HD
ENDBRANCH   5  10
TORSDOF 3
ENDMDL
MODEL 5
REMARK VINA RESULT:       0.1      1.550      2.364
REMARK  3 active torsions:
REMARK  status: ('A' for Active; 'I' for Inactive)
REMARK    1  A    between atoms: C2_2  and  C9_9 
REMARK    2  A    between atoms: C6_6  and  C9_9 
REMARK    3  A    between atoms: C7_7  and  O10_10 
ROOT
HETATM    1  C3  UNL     1     -32.002   7.671   1.836  1.00 20.00     0.003 C 
HETATM    2  C4  UNL     1     -33.153   6.754   1.423  1.00 20.00     0.007 C 
HETATM    3  C5  UNL     1     -32.223   8.012   3.312  1.00 20.00     0.032 C 
HETATM    4  C6  UNL     1     -33.735   6.214   2.731  1.00 20.00     0.018 C 
HETATM    5  C7  UNL     1     -33.570   7.400   3.683  1.00 20.00     0.122 C 
ENDROOT
BRANCH   4   6
HETATM    6  C9  UNL     1     -32.985   4.973   3.216  1.00 20.00     0.040 C 
BRANCH   6   7
HETATM    7  C2  UNL     1     -33.790   4.145   4.187  1.00 20.00    -0.093 C 
HETATM    8  C1  UNL     1     -33.342   2.964   4.639  1.00 20.00     0.014 C 
HETATM    9  C8  UNL     1     -35.129   4.683   4.598  1.00 20.00     0.042 C 
ENDBRANCH   6   7
ENDBRANCH   4   6
BRANCH   5  10
HETATM   10  O10 UNL     1     -34.589   8.365   3.433  1.00 20.00    -0.395 OA
HETATM   11  H26 UNL     1     -34.372   8.797   2.590  1.00 20.00     0.210 HD
ENDBRANCH   5  10
TORSDOF 3
ENDMDL
MODEL 6
REMARK VINA RESULT:       0.2      2.109      4.184
REMARK  3 active torsions:
REMARK  status: ('A' for Active; 'I' for Inactive)
REMARK    1  A    between atoms: C2_2  and  C9_9 
REMARK    2  A    between atoms: C6_6  and  C9_9 
REMARK    3  A    between atoms: C7_7  and  O10_10 
ROOT
HETATM    1  C3  UNL     1     -33.843   5.839   2.930  1.00 20.00     0.003 C 
HETATM    2  C4  UNL     1     -32.488   6.294   2.390  1.00 20.00     0.007 C 
HETATM    3  C5  UNL     1     -34.439   7.035   3.679  1.00 20.00     0.032 C 
HETATM    4  C6  UNL     1     -32.528   7.823   2.420  1.00 20.00     0.018 C 
HETATM    5  C7  UNL     1     -33.356   8.109   3.675  1.00 20.00     0.122 C 
ENDROOT
BRANCH   4   6
HETATM    6  C9  UNL     1     -33.170   8.399   1.158  1.00 20.00     0.040 C 
BRANCH   6   7
HETATM    7  C2  UNL     1     -32.283   9.395   0.453  1.00 20.00    -0.093 C 
HETATM    8  C1  UNL     1     -32.645  10.679   0.311  1.00 20.00     0.014 C 
HETATM    9  C8  UNL     1     -30.992   8.880  -0.115  1.00 20.00     0.042 C 
ENDBRANCH   6   7
ENDBRANCH   4   6
BRANCH   5  10
HETATM   10  O10 UNL     1     -32.547   7.940   4.837  1.00 20.00    -0.395 OA
HETATM   11  H26 UNL     1     -32.731   8.692   5.425  1.00 20.00     0.210 HD
ENDBRANCH   5  10
TORSDOF 3
ENDMDL
MODEL 7
REMARK VINA RESULT:       0.3      1.469      2.036
REMARK  3 active torsions:
REMARK  status: ('A' for Active; 'I' for Inactive)
REMARK    1  A    between atoms: C2_2  and  C9_9 
REMARK    2  A    between atoms: C6_6  and  C9_9 
REMARK    3  A    between atoms: C7_7  and  O10_10 
ROOT
HETATM    1  C3  UNL     1     -32.296   8.514   1.189  1.00 20.00     0.003 C 
HETATM    2  C4  UNL     1     -31.777   8.123   2.572  1.00 20.00     0.007 C 
HETATM    3  C5  UNL     1     -33.115   7.325   0.677  1.00 20.00     0.032 C 
HETATM    4  C6  UNL     1     -32.659   6.957   3.025  1.00 20.00     0.018 C 
HETATM    5  C7  UNL     1     -32.936   6.220   1.713  1.00 20.00     0.122 C 
ENDROOT
BRANCH   4   6
HETATM    6  C9  UNL     1     -33.942   7.444   3.698  1.00 20.00     0.040 C 
BRANCH   6   7
HETATM    7  C2  UNL     1     -35.026   6.395   3.719  1.00 20.00    -0.093 C 
HETATM    8  C1  UNL     1     -36.249   6.641   3.226  1.00 20.00     0.014 C 
HETATM    9  C8  UNL     1     -34.689   5.074   4.348  1.00 20.00     0.042 C 
ENDBRANCH   6   7
ENDBRANCH   4   6
BRANCH   5  10
HETATM   10  O10 UNL     1     -31.800   5.439   1.348  1.00 20.00    -0.395 OA
HETATM   11  H26 UNL     1     -31.740   5.458   0.378  1.00 20.00     0.210 HD
ENDBRANCH   5  10
TORSDOF 3
ENDMDL
MODEL 8
REMARK VINA RESULT:       0.8      0.885      1.303
REMARK  3 active torsions:
REMARK  status: ('A' for Active; 'I' for Inactive)
REMARK    1  A    between atoms: C2_2  and  C9_9 
REMARK    2  A    between atoms: C6_6  and  C9_9 
REMARK    3  A    between atoms: C7_7  and  O10_10 
ROOT
HETATM    1  C3  UNL     1     -31.516   5.489   0.747  1.00 20.00     0.003 C 
HETATM    2  C4  UNL     1     -33.035   5.655   0.711  1.00 20.00     0.007 C 
HETATM    3  C5  UNL     1     -30.965   6.683   1.531  1.00 20.00     0.032 C 
HETATM    4  C6  UNL     1     -33.366   6.641   1.834  1.00 20.00     0.018 C 
HETATM    5  C7  UNL     1     -32.163   7.586   1.810  1.00 20.00     0.122 C 
ENDROOT
BRANCH   4   6
HETATM    6  C9  UNL     1     -33.523   5.936   3.180  1.00 20.00     0.040 C 
BRANCH   6   7
HETATM    7  C2  UNL     1     -34.526   6.614   4.082  1.00 20.00    -0.093 C 
HETATM    8  C1  UNL     1     -35.749   6.101   4.280  1.00 20.00     0.014 C 
HETATM    9  C8  UNL     1     -34.106   7.905   4.721  1.00 20.00     0.042 C 
ENDBRANCH   6   7
ENDBRANCH   4   6
BRANCH   5  10
HETATM   10  O10 UNL     1     -32.294   8.510   0.732  1.00 20.00    -0.395 OA
HETATM   11  H26 UNL     1     -31.395   8.766   0.465  1.00 20.00     0.210 HD
ENDBRANCH   5  10
TORSDOF 3
ENDMDL
MODEL 9
REMARK VINA RESULT:       0.9      2.080      4.171
REMARK  3 active torsions:
REMARK  status: ('A' for Active; 'I' for Inactive)
REMARK    1  A    between atoms: C2_2  and  C9_9 
REMARK    2  A    between atoms: C6_6  and  C9_9 
REMARK    3  A    between atoms: C7_7  and  O10_10 
ROOT
HETATM    1  C3  UNL     1     -32.273   5.555   1.453  1.00 20.00     0.003 C 
HETATM    2  C4  UNL     1     -31.228   6.559   1.939  1.00 20.00     0.007 C 
HETATM    3  C5  UNL     1     -33.627   6.269   1.514  1.00 20.00     0.032 C 
HETATM    4  C6  UNL     1     -31.895   7.931   1.824  1.00 20.00     0.018 C 
HETATM    5  C7  UNL     1     -33.355   7.621   2.166  1.00 20.00     0.122 C 
ENDROOT
BRANCH   4   6
HETATM    6  C9  UNL     1     -31.741   8.522   0.423  1.00 20.00     0.040 C 
BRANCH   6   7
HETATM    7  C2  UNL     1     -32.483   9.825   0.252  1.00 20.00    -0.093 C 
HETATM    8  C1  UNL     1     -33.006  10.184  -0.931  1.00 20.00     0.014 C 
HETATM    9  C8  UNL     1     -32.581  10.719   1.454  1.00 20.00     0.042 C 
ENDBRANCH   6   7
ENDBRANCH   4   6
BRANCH   5  10
HETATM   10  O10 UNL     1     -33.501   7.481   3.577  1.00 20.00    -0.395 OA
HETATM   11  H26 UNL     1     -34.413   7.738   3.796  1.00 20.00     0.210 HD
ENDBRANCH   5  10
TORSDOF 3
ENDMDL
