MODEL 1
REMARK VINA RESULT:       2.3      0.000      0.000
REMARK  2 active torsions:
REMARK  status: ('A' for Active; 'I' for Inactive)
REMARK    1  A    between atoms: C4_4  and  C10_10 
REMARK    2  A    between atoms: C8_8  and  C10_10 
ROOT
HETATM    1  C5  UNL     1     -34.617   5.149   4.664  1.00 20.00     0.002 C 
HETATM    2  C6  UNL     1     -35.206   6.306   3.853  1.00 20.00     0.006 C 
HETATM    3  C7  UNL     1     -33.652   4.417   3.729  1.00 20.00     0.016 C 
HETATM    4  C8  UNL     1     -34.217   6.534   2.703  1.00 20.00     0.004 C 
HETATM    5  C9  UNL     1     -33.829   5.093   2.377  1.00 20.00     0.062 C 
HETATM    6 BR12 UNL     1     -32.269   4.905   1.258  1.00 20.00    -0.091 Br
ENDROOT
BRANCH   4   7
HETATM    7  C10 UNL     1     -33.077   7.453   3.151  1.00 20.00     0.045 C 
BRANCH   7   8
HETATM    8  C4  UNL     1     -32.580   8.320   2.024  1.00 20.00    -0.051 A 
HETATM    9  C1  UNL     1     -31.417   8.031   1.253  1.00 20.00     0.014 A 
HETATM   10  C2  UNL     1     -31.187   8.986   0.287  1.00 20.00     0.050 A 
HETATM   11  S11 UNL     1     -32.370  10.223   0.312  1.00 20.00    -0.113 SA
HETATM   12  C3  UNL     1     -33.194   9.484   1.618  1.00 20.00     0.056 A 
ENDBRANCH   7   8
ENDBRANCH   4   7
TORSDOF 2
ENDMDL
MODEL 2
REMARK VINA RESULT:       2.6      2.371      4.833
REMARK  2 active torsions:
REMARK  status: ('A' for Active; 'I' for Inactive)
REMARK    1  A    between atoms: C4_4  and  C10_10 
REMARK    2  A    between atoms: C8_8  and  C10_10 
ROOT
HETATM    1  C5  UNL     1     -32.215   9.630   0.872  1.00 20.00     0.002 C 
HETATM    2  C6  UNL     1     -32.147   9.334   2.373  1.00 20.00     0.006 C 
HETATM    3  C7  UNL     1     -31.948   8.300   0.162  1.00 20.00     0.016 C 
HETATM    4  C8  UNL     1     -32.372   7.823   2.495  1.00 20.00     0.004 C 
HETATM    5  C9  UNL     1     -31.599   7.324   1.276  1.00 20.00     0.062 C 
HETATM    6 BR12 UNL     1     -31.953   5.494   0.780  1.00 20.00    -0.091 Br
ENDROOT
BRANCH   4   7
HETATM    7  C10 UNL     1     -33.869   7.503   2.519  1.00 20.00     0.045 C 
BRANCH   7   8
HETATM    8  C4  UNL     1     -34.168   6.274   3.336  1.00 20.00    -0.051 A 
HETATM    9  C1  UNL     1     -35.329   6.121   4.148  1.00 20.00     0.014 A 
HETATM   10  C2  UNL     1     -35.356   4.901   4.788  1.00 20.00     0.050 A 
HETATM   11  S11 UNL     1     -33.985   3.947   4.411  1.00 20.00    -0.113 SA
HETATM   12  C3  UNL     1     -33.351   5.165   3.388  1.00 20.00     0.056 A 
ENDBRANCH   7   8
ENDBRANCH   4   7
TORSDOF 2
ENDMDL
MODEL 3
REMARK VINA RESULT:       3.9      2.892      4.916
REMARK  2 active torsions:
REMARK  status: ('A' for Active; 'I' for Inactive)
REMARK    1  A    between atoms: C4_4  and  C10_10 
REMARK    2  A    between atoms: C8_8  and  C10_10 
ROOT
HETATM    1  C5  UNL     1     -30.921   6.885   1.450  1.00 20.00     0.002 C 
HETATM    2  C6  UNL     1     -32.342   6.375   1.197  1.00 20.00     0.006 C 
HETATM    3  C7  UNL     1     -30.970   8.403   1.254  1.00 20.00     0.016 C 
HETATM    4  C8  UNL     1     -33.248   7.598   1.385  1.00 20.00     0.004 C 
HETATM    5  C9  UNL     1     -32.380   8.688   0.758  1.00 20.00     0.062 C 
HETATM    6 BR12 UNL     1     -32.938  10.494   1.145  1.00 20.00    -0.091 Br
ENDROOT
BRANCH   4   7
HETATM    7  C10 UNL     1     -33.599   7.784   2.863  1.00 20.00     0.045 C 
BRANCH   7   8
HETATM    8  C4  UNL     1     -34.068   6.500   3.495  1.00 20.00    -0.051 A 
HETATM    9  C1  UNL     1     -35.334   6.342   4.131  1.00 20.00     0.014 A 
HETATM   10  C2  UNL     1     -35.510   5.068   4.624  1.00 20.00     0.050 A 
HETATM   11  S11 UNL     1     -34.153   4.069   4.321  1.00 20.00    -0.113 SA
HETATM   12  C3  UNL     1     -33.325   5.340   3.527  1.00 20.00     0.056 A 
ENDBRANCH   7   8
ENDBRANCH   4   7
TORSDOF 2
ENDMDL
MODEL 4
REMARK VINA RESULT:       3.9      1.138      1.411
REMARK  2 active torsions:
REMARK  status: ('A' for Active; 'I' for Inactive)
REMARK    1  A    between atoms: C4_4  and  C10_10 
REMARK    2  A    between atoms: C8_8  and  C10_10 
ROOT
HETATM    1  C5  UNL     1     -35.682   6.415   4.117  1.00 20.00     0.002 C 
HETATM    2  C6  UNL     1     -35.183   6.505   2.672  1.00 20.00     0.006 C 
HETATM    3  C7  UNL     1     -34.974   5.209   4.740  1.00 20.00     0.016 C 
HETATM    4  C8  UNL     1     -33.862   5.727   2.654  1.00 20.00     0.004 C 
HETATM    5  C9  UNL     1     -34.205   4.571   3.592  1.00 20.00     0.062 C 
HETATM    6 BR12 UNL     1     -32.690   3.547   4.209  1.00 20.00    -0.091 Br
ENDROOT
BRANCH   4   7
HETATM    7  C10 UNL     1     -32.703   6.626   3.091  1.00 20.00     0.045 C 
BRANCH   7   8
HETATM    8  C4  UNL     1     -32.394   7.683   2.064  1.00 20.00    -0.051 A 
HETATM    9  C1  UNL     1     -31.466   7.507   0.996  1.00 20.00     0.014 A 
HETATM   10  C2  UNL     1     -31.373   8.629   0.202  1.00 20.00     0.050 A 
HETATM   11  S11 UNL     1     -32.400   9.887   0.744  1.00 20.00    -0.113 SA
HETATM   12  C3  UNL     1     -32.974   8.933   2.045  1.00 20.00     0.056 A 
ENDBRANCH   7   8
ENDBRANCH   4   7
TORSDOF 2
ENDMDL
MODEL 5
REMARK VINA RESULT:       4.3      2.746      4.744
REMARK  2 active torsions:
REMARK  status: ('A' for Active; 'I' for Inactive)
REMARK    1  A    between atoms: C4_4  and  C10_10 
REMARK    2  A    between atoms: C8_8  and  C10_10 
ROOT
HETATM    1  C5  UNL     1     -32.082   8.768   3.424  1.00 20.00     0.002 C 
HETATM    2  C6  UNL     1     -31.556   7.442   2.868  1.00 20.00     0.006 C 
HETATM    3  C7  UNL     1     -32.318   9.676   2.214  1.00 20.00     0.016 C 
HETATM    4  C8  UNL     1     -31.990   7.422   1.398  1.00 20.00     0.004 C 
HETATM    5  C9  UNL     1     -31.786   8.890   1.025  1.00 20.00     0.062 C 
HETATM    6 BR12 UNL     1     -32.610   9.430  -0.634  1.00 20.00    -0.091 Br
ENDROOT
BRANCH   4   7
HETATM    7  C10 UNL     1     -33.419   6.887   1.267  1.00 20.00     0.045 C 
BRANCH   7   8
HETATM    8  C4  UNL     1     -33.824   6.072   2.466  1.00 20.00    -0.051 A 
HETATM    9  C1  UNL     1     -34.796   6.490   3.421  1.00 20.00     0.014 A 
HETATM   10  C2  UNL     1     -34.977   5.556   4.417  1.00 20.00     0.050 A 
HETATM   11  S11 UNL     1     -33.979   4.183   4.201  1.00 20.00    -0.113 SA
HETATM   12  C3  UNL     1     -33.300   4.834   2.770  1.00 20.00     0.056 A 
ENDBRANCH   7   8
ENDBRANCH   4   7
TORSDOF 2
ENDMDL
MODEL 6
REMARK VINA RESULT:       4.7      2.440      4.727
REMARK  2 active torsions:
REMARK  status: ('A' for Active; 'I' for Inactive)
REMARK    1  A    between atoms: C4_4  and  C10_10 
REMARK    2  A    between atoms: C8_8  and  C10_10 
ROOT
HETATM    1  C5  UNL     1     -32.552   9.898   1.085  1.00 20.00     0.002 C 
HETATM    2  C6  UNL     1     -32.397   9.383   2.518  1.00 20.00     0.006 C 
HETATM    3  C7  UNL     1     -32.327   8.692   0.170  1.00 20.00     0.016 C 
HETATM    4  C8  UNL     1     -32.615   7.868   2.426  1.00 20.00     0.004 C 
HETATM    5  C9  UNL     1     -31.913   7.564   1.104  1.00 20.00     0.062 C 
HETATM    6 BR12 UNL     1     -32.296   5.825   0.361  1.00 20.00    -0.091 Br
ENDROOT
BRANCH   4   7
HETATM    7  C10 UNL     1     -34.108   7.536   2.488  1.00 20.00     0.045 C 
BRANCH   7   8
HETATM    8  C4  UNL     1     -34.385   6.359   3.386  1.00 20.00    -0.051 A 
HETATM    9  C1  UNL     1     -33.584   5.181   3.423  1.00 20.00     0.014 A 
HETATM   10  C2  UNL     1     -34.059   4.261   4.332  1.00 20.00     0.050 A 
HETATM   11  S11 UNL     1     -35.464   4.818   5.136  1.00 20.00    -0.113 SA
HETATM   12  C3  UNL     1     -35.441   6.294   4.268  1.00 20.00     0.056 A 
ENDBRANCH   7   8
ENDBRANCH   4   7
TORSDOF 2
ENDMDL
MODEL 7
REMARK VINA RESULT:       4.8      2.580      4.783
REMARK  2 active torsions:
REMARK  status: ('A' for Active; 'I' for Inactive)
REMARK    1  A    between atoms: C4_4  and  C10_10 
REMARK    2  A    between atoms: C8_8  and  C10_10 
ROOT
HETATM    1  C5  UNL     1     -33.328   9.776   2.027  1.00 20.00     0.002 C 
HETATM    2  C6  UNL     1     -32.546   8.763   2.866  1.00 20.00     0.006 C 
HETATM    3  C7  UNL     1     -32.628   9.838   0.667  1.00 20.00     0.016 C 
HETATM    4  C8  UNL     1     -31.781   7.905   1.850  1.00 20.00     0.004 C 
HETATM    5  C9  UNL     1     -31.390   8.967   0.825  1.00 20.00     0.062 C 
HETATM    6 BR12 UNL     1     -30.764   8.276  -0.864  1.00 20.00    -0.091 Br
ENDROOT
BRANCH   4   7
HETATM    7  C10 UNL     1     -32.666   6.767   1.335  1.00 20.00     0.045 C 
BRANCH   7   8
HETATM    8  C4  UNL     1     -33.397   6.073   2.455  1.00 20.00    -0.051 A 
HETATM    9  C1  UNL     1     -34.470   6.659   3.187  1.00 20.00     0.014 A 
HETATM   10  C2  UNL     1     -34.959   5.811   4.155  1.00 20.00     0.050 A 
HETATM   11  S11 UNL     1     -34.127   4.315   4.180  1.00 20.00    -0.113 SA
HETATM   12  C3  UNL     1     -33.107   4.799   2.892  1.00 20.00     0.056 A 
ENDBRANCH   7   8
ENDBRANCH   4   7
TORSDOF 2
ENDMDL
MODEL 8
REMARK VINA RESULT:       4.9      1.772      2.159
REMARK  2 active torsions:
REMARK  status: ('A' for Active; 'I' for Inactive)
REMARK    1  A    between atoms: C4_4  and  C10_10 
REMARK    2  A    between atoms: C8_8  and  C10_10 
ROOT
HETATM    1  C5  UNL     1     -34.995   4.509   4.082  1.00 20.00     0.002 C 
HETATM    2  C6  UNL     1     -33.477   4.514   3.882  1.00 20.00     0.006 C 
HETATM    3  C7  UNL     1     -35.413   5.974   4.226  1.00 20.00     0.016 C 
HETATM    4  C8  UNL     1     -33.141   5.929   3.397  1.00 20.00     0.004 C 
HETATM    5  C9  UNL     1     -34.106   6.754   4.246  1.00 20.00     0.062 C 
HETATM    6 BR12 UNL     1     -34.338   8.581   3.672  1.00 20.00    -0.091 Br
ENDROOT
BRANCH   4   7
HETATM    7  C10 UNL     1     -33.321   6.034   1.880  1.00 20.00     0.045 C 
BRANCH   7   8
HETATM    8  C4  UNL     1     -32.693   7.285   1.325  1.00 20.00    -0.051 A 
HETATM    9  C1  UNL     1     -31.475   7.844   1.807  1.00 20.00     0.014 A 
HETATM   10  C2  UNL     1     -31.125   8.988   1.124  1.00 20.00     0.050 A 
HETATM   11  S11 UNL     1     -32.262   9.383  -0.093  1.00 20.00    -0.113 SA
HETATM   12  C3  UNL     1     -33.227   8.023   0.291  1.00 20.00     0.056 A 
ENDBRANCH   7   8
ENDBRANCH   4   7
TORSDOF 2
ENDMDL
MODEL 9
REMARK VINA RESULT:       5.2      2.687      4.920
REMARK  2 active torsions:
REMARK  status: ('A' for Active; 'I' for Inactive)
REMARK    1  A    between atoms: C4_4  and  C10_10 
REMARK    2  A    between atoms: C8_8  and  C10_10 
ROOT
HETATM    1  C5  UNL     1     -31.163   8.587   0.682  1.00 20.00     0.002 C 
HETATM    2  C6  UNL     1     -32.591   8.149   0.345  1.00 20.00     0.006 C 
HETATM    3  C7  UNL     1     -31.129   8.804   2.197  1.00 20.00     0.016 C 
HETATM    4  C8  UNL     1     -33.172   7.624   1.663  1.00 20.00     0.004 C 
HETATM    5  C9  UNL     1     -32.569   8.620   2.652  1.00 20.00     0.062 C 
HETATM    6 BR12 UNL     1     -32.688   8.099   4.505  1.00 20.00    -0.091 Br
ENDROOT
BRANCH   4   7
HETATM    7  C10 UNL     1     -32.791   6.156   1.870  1.00 20.00     0.045 C 
BRANCH   7   8
HETATM    8  C4  UNL     1     -33.603   5.514   2.965  1.00 20.00    -0.051 A 
HETATM    9  C1  UNL     1     -33.268   4.274   3.581  1.00 20.00     0.014 A 
HETATM   10  C2  UNL     1     -34.178   3.916   4.551  1.00 20.00     0.050 A 
HETATM   11  S11 UNL     1     -35.429   5.072   4.716  1.00 20.00    -0.113 SA
HETATM   12  C3  UNL     1     -34.756   6.057   3.488  1.00 20.00     0.056 A 
ENDBRANCH   7   8
ENDBRANCH   4   7
TORSDOF 2
ENDMDL
