MODEL 1
REMARK VINA RESULT:      -1.1      0.000      0.000
REMARK  3 active torsions:
REMARK  status: ('A' for Active; 'I' for Inactive)
REMARK    1  A    between atoms: C5_5  and  C9_9 
REMARK    2  A    between atoms: C6_6  and  C10_10 
REMARK    3  A    between atoms: C10_10  and  C11_11 
ROOT
HETATM    1  C1  UNL     1     -35.028   5.194   4.268  1.00 20.00     0.131 C 
HETATM    2  C2  UNL     1     -35.458   6.595   3.888  1.00 20.00     0.079 C 
HETATM    3  C3  UNL     1     -34.243   7.480   3.648  1.00 20.00     0.012 C 
HETATM    4  C4  UNL     1     -32.832   5.462   3.110  1.00 20.00     0.016 C 
HETATM    5  C5  UNL     1     -34.026   4.528   3.333  1.00 20.00     0.055 C 
HETATM    6  C6  UNL     1     -33.276   6.854   2.633  1.00 20.00    -0.013 C 
HETATM    7  O12 UNL     1     -35.539   4.613   5.224  1.00 20.00    -0.298 OA
ENDROOT
BRANCH   6   8
HETATM    8  C10 UNL     1     -32.065   7.760   2.416  1.00 20.00     0.004 C 
BRANCH   8   9
HETATM    9  C11 UNL     1     -31.878   8.087   0.938  1.00 20.00    -0.004 C 
HETATM   10  C8  UNL     1     -32.350   9.497   0.622  1.00 20.00     0.005 C 
ENDBRANCH   8   9
ENDBRANCH   6   8
BRANCH   5  11
HETATM   11  C9  UNL     1     -33.561   3.179   3.874  1.00 20.00     0.007 C 
HETATM   12  C7  UNL     1     -32.696   3.336   5.083  1.00 20.00     0.006 C 
ENDBRANCH   5  11
TORSDOF 3
ENDMDL
MODEL 2
REMARK VINA RESULT:      -0.2      1.750      3.018
REMARK  3 active torsions:
REMARK  status: ('A' for Active; 'I' for Inactive)
REMARK    1  A    between atoms: C5_5  and  C9_9 
REMARK    2  A    between atoms: C6_6  and  C10_10 
REMARK    3  A    between atoms: C10_10  and  C11_11 
ROOT
HETATM    1  C1  UNL     1     -33.944   6.089   3.287  1.00 20.00     0.131 C 
HETATM    2  C2  UNL     1     -33.266   5.316   2.176  1.00 20.00     0.079 C 
HETATM    3  C3  UNL     1     -32.823   6.256   1.064  1.00 20.00     0.012 C 
HETATM    4  C4  UNL     1     -32.733   8.187   2.682  1.00 20.00     0.016 C 
HETATM    5  C5  UNL     1     -33.170   7.281   3.837  1.00 20.00     0.055 C 
HETATM    6  C6  UNL     1     -31.962   7.408   1.604  1.00 20.00    -0.013 C 
HETATM    7  O12 UNL     1     -35.010   5.706   3.764  1.00 20.00    -0.298 OA
ENDROOT
BRANCH   6   8
HETATM    8  C10 UNL     1     -31.537   8.338   0.469  1.00 20.00     0.004 C 
BRANCH   8   9
HETATM    9  C11 UNL     1     -32.169   9.718   0.619  1.00 20.00    -0.004 C 
HETATM   10  C8  UNL     1     -32.859  10.150  -0.664  1.00 20.00     0.005 C 
ENDBRANCH   8   9
ENDBRANCH   6   8
BRANCH   5  11
HETATM   11  C9  UNL     1     -33.993   8.066   4.855  1.00 20.00     0.007 C 
HETATM   12  C7  UNL     1     -33.130   8.666   5.919  1.00 20.00     0.006 C 
ENDBRANCH   5  11
TORSDOF 3
ENDMDL
MODEL 3
REMARK VINA RESULT:       0.0      1.714      2.353
REMARK  3 active torsions:
REMARK  status: ('A' for Active; 'I' for Inactive)
REMARK    1  A    between atoms: C5_5  and  C9_9 
REMARK    2  A    between atoms: C6_6  and  C10_10 
REMARK    3  A    between atoms: C10_10  and  C11_11 
ROOT
HETATM    1  C1  UNL     1     -33.735   5.605   3.110  1.00 20.00     0.131 C 
HETATM    2  C2  UNL     1     -34.272   6.883   3.719  1.00 20.00     0.079 C 
HETATM    3  C3  UNL     1     -33.305   8.034   3.482  1.00 20.00     0.012 C 
HETATM    4  C4  UNL     1     -32.355   6.871   1.458  1.00 20.00     0.016 C 
HETATM    5  C5  UNL     1     -33.313   5.689   1.648  1.00 20.00     0.055 C 
HETATM    6  C6  UNL     1     -32.951   8.182   1.995  1.00 20.00    -0.013 C 
HETATM    7  O12 UNL     1     -33.736   4.553   3.745  1.00 20.00    -0.298 OA
ENDROOT
BRANCH   6   8
HETATM    8  C10 UNL     1     -31.976   9.340   1.788  1.00 20.00     0.004 C 
BRANCH   8   9
HETATM    9  C11 UNL     1     -32.560  10.391   0.848  1.00 20.00    -0.004 C 
HETATM   10  C8  UNL     1     -32.635   9.872  -0.578  1.00 20.00     0.005 C 
ENDBRANCH   8   9
ENDBRANCH   6   8
BRANCH   5  11
HETATM   11  C9  UNL     1     -32.667   4.391   1.171  1.00 20.00     0.007 C 
HETATM   12  C7  UNL     1     -31.282   4.618   0.658  1.00 20.00     0.006 C 
ENDBRANCH   5  11
TORSDOF 3
ENDMDL
MODEL 4
REMARK VINA RESULT:       0.1      2.489      4.515
REMARK  3 active torsions:
REMARK  status: ('A' for Active; 'I' for Inactive)
REMARK    1  A    between atoms: C5_5  and  C9_9 
REMARK    2  A    between atoms: C6_6  and  C10_10 
REMARK    3  A    between atoms: C10_10  and  C11_11 
ROOT
HETATM    1  C1  UNL     1     -32.004   7.777   1.832  1.00 20.00     0.131 C 
HETATM    2  C2  UNL     1     -32.373   8.444   3.139  1.00 20.00     0.079 C 
HETATM    3  C3  UNL     1     -33.766   8.017   3.582  1.00 20.00     0.012 C 
HETATM    4  C4  UNL     1     -33.576   5.883   2.255  1.00 20.00     0.016 C 
HETATM    5  C5  UNL     1     -32.167   6.262   1.787  1.00 20.00     0.055 C 
HETATM    6  C6  UNL     1     -33.904   6.489   3.629  1.00 20.00    -0.013 C 
HETATM    7  O12 UNL     1     -31.517   8.424   0.907  1.00 20.00    -0.298 OA
ENDROOT
BRANCH   6   8
HETATM    8  C10 UNL     1     -35.311   6.091   4.070  1.00 20.00     0.004 C 
BRANCH   8   9
HETATM    9  C11 UNL     1     -35.302   4.754   4.805  1.00 20.00    -0.004 C 
HETATM   10  C8  UNL     1     -34.062   3.945   4.460  1.00 20.00     0.005 C 
ENDBRANCH   8   9
ENDBRANCH   6   8
BRANCH   5  11
HETATM   11  C9  UNL     1     -31.896   5.707   0.391  1.00 20.00     0.007 C 
HETATM   12  C7  UNL     1     -31.432   4.286   0.442  1.00 20.00     0.006 C 
ENDBRANCH   5  11
TORSDOF 3
ENDMDL
MODEL 5
REMARK VINA RESULT:       0.1      1.543      2.997
REMARK  3 active torsions:
REMARK  status: ('A' for Active; 'I' for Inactive)
REMARK    1  A    between atoms: C5_5  and  C9_9 
REMARK    2  A    between atoms: C6_6  and  C10_10 
REMARK    3  A    between atoms: C10_10  and  C11_11 
ROOT
HETATM    1  C1  UNL     1     -33.218   5.489   3.017  1.00 20.00     0.131 C 
HETATM    2  C2  UNL     1     -32.079   5.121   2.091  1.00 20.00     0.079 C 
HETATM    3  C3  UNL     1     -31.941   6.151   0.978  1.00 20.00     0.012 C 
HETATM    4  C4  UNL     1     -33.040   7.906   2.415  1.00 20.00     0.016 C 
HETATM    5  C5  UNL     1     -33.196   6.909   3.568  1.00 20.00     0.055 C 
HETATM    6  C6  UNL     1     -31.824   7.577   1.535  1.00 20.00    -0.013 C 
HETATM    7  O12 UNL     1     -34.047   4.650   3.364  1.00 20.00    -0.298 OA
ENDROOT
BRANCH   6   8
HETATM    8  C10 UNL     1     -31.693   8.588   0.398  1.00 20.00     0.004 C 
BRANCH   8   9
HETATM    9  C11 UNL     1     -32.394   9.898   0.741  1.00 20.00    -0.004 C 
HETATM   10  C8  UNL     1     -33.034  10.519  -0.491  1.00 20.00     0.005 C 
ENDBRANCH   8   9
ENDBRANCH   6   8
BRANCH   5  11
HETATM   11  C9  UNL     1     -34.450   7.218   4.381  1.00 20.00     0.007 C 
HETATM   12  C7  UNL     1     -35.660   6.556   3.804  1.00 20.00     0.006 C 
ENDBRANCH   5  11
TORSDOF 3
ENDMDL
MODEL 6
REMARK VINA RESULT:       0.4      2.196      3.101
REMARK  3 active torsions:
REMARK  status: ('A' for Active; 'I' for Inactive)
REMARK    1  A    between atoms: C5_5  and  C9_9 
REMARK    2  A    between atoms: C6_6  and  C10_10 
REMARK    3  A    between atoms: C10_10  and  C11_11 
ROOT
HETATM    1  C1  UNL     1     -33.824   7.542   3.831  1.00 20.00     0.131 C 
HETATM    2  C2  UNL     1     -33.084   8.443   2.866  1.00 20.00     0.079 C 
HETATM    3  C3  UNL     1     -32.000   7.665   2.133  1.00 20.00     0.012 C 
HETATM    4  C4  UNL     1     -33.245   5.506   2.506  1.00 20.00     0.016 C 
HETATM    5  C5  UNL     1     -34.366   6.242   3.246  1.00 20.00     0.055 C 
HETATM    6  C6  UNL     1     -32.562   6.404   1.462  1.00 20.00    -0.013 C 
HETATM    7  O12 UNL     1     -34.044   7.897   4.986  1.00 20.00    -0.298 OA
ENDROOT
BRANCH   6   8
HETATM    8  C10 UNL     1     -31.454   5.641   0.739  1.00 20.00     0.004 C 
BRANCH   8   9
HETATM    9  C11 UNL     1     -31.931   4.262   0.294  1.00 20.00    -0.004 C 
HETATM   10  C8  UNL     1     -30.835   3.512  -0.444  1.00 20.00     0.005 C 
ENDBRANCH   8   9
ENDBRANCH   6   8
BRANCH   5  11
HETATM   11  C9  UNL     1     -34.977   5.351   4.323  1.00 20.00     0.007 C 
HETATM   12  C7  UNL     1     -34.193   4.091   4.509  1.00 20.00     0.006 C 
ENDBRANCH   5  11
TORSDOF 3
ENDMDL
MODEL 7
REMARK VINA RESULT:       0.5      2.127      4.833
REMARK  3 active torsions:
REMARK  status: ('A' for Active; 'I' for Inactive)
REMARK    1  A    between atoms: C5_5  and  C9_9 
REMARK    2  A    between atoms: C6_6  and  C10_10 
REMARK    3  A    between atoms: C10_10  and  C11_11 
ROOT
HETATM    1  C1  UNL     1     -32.768   7.095   2.257  1.00 20.00     0.131 C 
HETATM    2  C2  UNL     1     -32.672   5.782   1.511  1.00 20.00     0.079 C 
HETATM    3  C3  UNL     1     -32.804   4.610   2.473  1.00 20.00     0.012 C 
HETATM    4  C4  UNL     1     -34.075   6.046   4.108  1.00 20.00     0.016 C 
HETATM    5  C5  UNL     1     -33.976   7.255   3.172  1.00 20.00     0.055 C 
HETATM    6  C6  UNL     1     -34.073   4.720   3.331  1.00 20.00    -0.013 C 
HETATM    7  O12 UNL     1     -31.961   7.999   2.053  1.00 20.00    -0.298 OA
ENDROOT
BRANCH   6   8
HETATM    8  C10 UNL     1     -34.176   3.535   4.290  1.00 20.00     0.004 C 
BRANCH   8   9
HETATM    9  C11 UNL     1     -32.795   2.996   4.652  1.00 20.00    -0.004 C 
HETATM   10  C8  UNL     1     -32.510   3.167   6.136  1.00 20.00     0.005 C 
ENDBRANCH   8   9
ENDBRANCH   6   8
BRANCH   5  11
HETATM   11  C9  UNL     1     -33.910   8.552   3.974  1.00 20.00     0.007 C 
HETATM   12  C7  UNL     1     -33.211   8.360   5.281  1.00 20.00     0.006 C 
ENDBRANCH   5  11
TORSDOF 3
ENDMDL
MODEL 8
REMARK VINA RESULT:       1.1      2.308      5.365
REMARK  3 active torsions:
REMARK  status: ('A' for Active; 'I' for Inactive)
REMARK    1  A    between atoms: C5_5  and  C9_9 
REMARK    2  A    between atoms: C6_6  and  C10_10 
REMARK    3  A    between atoms: C10_10  and  C11_11 
ROOT
HETATM    1  C1  UNL     1     -31.928   7.281   1.178  1.00 20.00     0.131 C 
HETATM    2  C2  UNL     1     -32.369   5.837   1.273  1.00 20.00     0.079 C 
HETATM    3  C3  UNL     1     -32.978   5.553   2.639  1.00 20.00     0.012 C 
HETATM    4  C4  UNL     1     -33.570   7.986   2.922  1.00 20.00     0.016 C 
HETATM    5  C5  UNL     1     -32.976   8.324   1.551  1.00 20.00     0.055 C 
HETATM    6  C6  UNL     1     -34.100   6.545   2.977  1.00 20.00    -0.013 C 
HETATM    7  O12 UNL     1     -30.820   7.577   0.736  1.00 20.00    -0.298 OA
ENDROOT
BRANCH   6   8
HETATM    8  C10 UNL     1     -34.689   6.240   4.354  1.00 20.00     0.004 C 
BRANCH   8   9
HETATM    9  C11 UNL     1     -35.154   4.791   4.446  1.00 20.00    -0.004 C 
HETATM   10  C8  UNL     1     -33.978   3.845   4.627  1.00 20.00     0.005 C 
ENDBRANCH   8   9
ENDBRANCH   6   8
BRANCH   5  11
HETATM   11  C9  UNL     1     -32.394   9.734   1.548  1.00 20.00     0.007 C 
HETATM   12  C7  UNL     1     -32.584  10.409   0.228  1.00 20.00     0.006 C 
ENDBRANCH   5  11
TORSDOF 3
ENDMDL
MODEL 9
REMARK VINA RESULT:       1.3      2.042      5.004
REMARK  3 active torsions:
REMARK  status: ('A' for Active; 'I' for Inactive)
REMARK    1  A    between atoms: C5_5  and  C9_9 
REMARK    2  A    between atoms: C6_6  and  C10_10 
REMARK    3  A    between atoms: C10_10  and  C11_11 
ROOT
HETATM    1  C1  UNL     1     -33.127   8.620   2.481  1.00 20.00     0.131 C 
HETATM    2  C2  UNL     1     -33.732   8.196   3.802  1.00 20.00     0.079 C 
HETATM    3  C3  UNL     1     -34.291   6.783   3.703  1.00 20.00     0.012 C 
HETATM    4  C4  UNL     1     -32.715   6.251   1.810  1.00 20.00     0.016 C 
HETATM    5  C5  UNL     1     -32.113   7.658   1.872  1.00 20.00     0.055 C 
HETATM    6  C6  UNL     1     -33.241   5.793   3.179  1.00 20.00    -0.013 C 
HETATM    7  O12 UNL     1     -33.380   9.720   1.994  1.00 20.00    -0.298 OA
ENDROOT
BRANCH   6   8
HETATM    8  C10 UNL     1     -33.831   4.386   3.086  1.00 20.00     0.004 C 
BRANCH   8   9
HETATM    9  C11 UNL     1     -34.056   3.789   4.471  1.00 20.00    -0.004 C 
HETATM   10  C8  UNL     1     -32.967   2.788   4.822  1.00 20.00     0.005 C 
ENDBRANCH   8   9
ENDBRANCH   6   8
BRANCH   5  11
HETATM   11  C9  UNL     1     -31.665   8.114   0.487  1.00 20.00     0.007 C 
HETATM   12  C7  UNL     1     -32.170   9.483   0.164  1.00 20.00     0.006 C 
ENDBRANCH   5  11
TORSDOF 3
ENDMDL
