MODEL 1
REMARK VINA RESULT:      -2.6      0.000      0.000
REMARK  5 active torsions:
REMARK  status: ('A' for Active; 'I' for Inactive)
REMARK    1  A    between atoms: C3_3  and  C7_7 
REMARK    2  A    between atoms: C4_4  and  C5_5 
REMARK    3  A    between atoms: C4_4  and  C6_6 
REMARK    4  A    between atoms: C5_5  and  C7_7 
REMARK    5  A    between atoms: C6_6  and  O8_8 
ROOT
HETATM    1  C5  UNL     1     -33.486   6.965   3.472  1.00 20.00     0.022 C 
ENDROOT
BRANCH   1   2
HETATM    2  C4  UNL     1     -34.908   6.421   3.673  1.00 20.00     0.028 C 
BRANCH   2   3
HETATM    3  C6  UNL     1     -34.913   5.095   4.426  1.00 20.00     0.167 C 
BRANCH   3   4
HETATM    4  O8  UNL     1     -34.039   4.172   3.793  1.00 20.00    -0.396 OA
HETATM    5  C2  UNL     1     -33.459   3.274   4.730  1.00 20.00     0.201 C 
ENDBRANCH   3   4
ENDBRANCH   2   3
ENDBRANCH   1   2
BRANCH   1   6
HETATM    6  C7  UNL     1     -33.082   7.086   1.992  1.00 20.00     0.082 C 
HETATM    7 CL9  UNL     1     -32.544   5.497   1.360  1.00 20.00    -0.125 Cl
BRANCH   6   8
HETATM    8  C3  UNL     1     -31.971   8.132   1.819  1.00 20.00     0.016 C 
HETATM    9  C1  UNL     1     -32.287   9.188   0.767  1.00 20.00     0.006 C 
ENDBRANCH   6   8
ENDBRANCH   1   6
TORSDOF 5
ENDMDL
MODEL 2
REMARK VINA RESULT:      -2.4      2.689      4.986
REMARK  5 active torsions:
REMARK  status: ('A' for Active; 'I' for Inactive)
REMARK    1  A    between atoms: C3_3  and  C7_7 
REMARK    2  A    between atoms: C4_4  and  C5_5 
REMARK    3  A    between atoms: C4_4  and  C6_6 
REMARK    4  A    between atoms: C5_5  and  C7_7 
REMARK    5  A    between atoms: C6_6  and  O8_8 
ROOT
HETATM    1  C5  UNL     1     -33.125   6.258   2.831  1.00 20.00     0.022 C 
ENDROOT
BRANCH   1   2
HETATM    2  C4  UNL     1     -32.620   6.853   1.508  1.00 20.00     0.028 C 
BRANCH   2   3
HETATM    3  C6  UNL     1     -32.004   8.235   1.700  1.00 20.00     0.167 C 
BRANCH   3   4
HETATM    4  O8  UNL     1     -31.789   8.851   0.439  1.00 20.00    -0.396 OA
HETATM    5  C2  UNL     1     -32.541  10.050   0.308  1.00 20.00     0.201 C 
ENDBRANCH   3   4
ENDBRANCH   2   3
ENDBRANCH   1   2
BRANCH   1   6
HETATM    6  C7  UNL     1     -34.203   7.116   3.515  1.00 20.00     0.082 C 
HETATM    7 CL9  UNL     1     -33.489   8.060   4.861  1.00 20.00    -0.125 Cl
BRANCH   6   8
HETATM    8  C3  UNL     1     -35.350   6.235   4.032  1.00 20.00     0.016 C 
HETATM    9  C1  UNL     1     -34.915   4.820   4.392  1.00 20.00     0.006 C 
ENDBRANCH   6   8
ENDBRANCH   1   6
TORSDOF 5
ENDMDL
MODEL 3
REMARK VINA RESULT:      -2.4      2.618      4.585
REMARK  5 active torsions:
REMARK  status: ('A' for Active; 'I' for Inactive)
REMARK    1  A    between atoms: C3_3  and  C7_7 
REMARK    2  A    between atoms: C4_4  and  C5_5 
REMARK    3  A    between atoms: C4_4  and  C6_6 
REMARK    4  A    between atoms: C5_5  and  C7_7 
REMARK    5  A    between atoms: C6_6  and  O8_8 
ROOT
HETATM    1  C5  UNL     1     -33.269   5.775   1.855  1.00 20.00     0.022 C 
ENDROOT
BRANCH   1   2
HETATM    2  C4  UNL     1     -31.972   6.518   1.502  1.00 20.00     0.028 C 
BRANCH   2   3
HETATM    3  C6  UNL     1     -32.099   8.023   1.709  1.00 20.00     0.167 C 
BRANCH   3   4
HETATM    4  O8  UNL     1     -31.704   8.712   0.531  1.00 20.00    -0.396 OA
HETATM    5  C2  UNL     1     -32.487   9.879   0.321  1.00 20.00     0.201 C 
ENDBRANCH   3   4
ENDBRANCH   2   3
ENDBRANCH   1   2
BRANCH   1   6
HETATM    6  C7  UNL     1     -33.529   5.686   3.369  1.00 20.00     0.082 C 
HETATM    7 CL9  UNL     1     -33.908   3.997   3.838  1.00 20.00    -0.125 Cl
BRANCH   6   8
HETATM    8  C3  UNL     1     -34.676   6.622   3.777  1.00 20.00     0.016 C 
HETATM    9  C1  UNL     1     -34.208   7.873   4.510  1.00 20.00     0.006 C 
ENDBRANCH   6   8
ENDBRANCH   1   6
TORSDOF 5
ENDMDL
MODEL 4
REMARK VINA RESULT:      -2.3      0.907      1.055
REMARK  5 active torsions:
REMARK  status: ('A' for Active; 'I' for Inactive)
REMARK    1  A    between atoms: C3_3  and  C7_7 
REMARK    2  A    between atoms: C4_4  and  C5_5 
REMARK    3  A    between atoms: C4_4  and  C6_6 
REMARK    4  A    between atoms: C5_5  and  C7_7 
REMARK    5  A    between atoms: C6_6  and  O8_8 
ROOT
HETATM    1  C5  UNL     1     -32.897   7.527   3.527  1.00 20.00     0.022 C 
ENDROOT
BRANCH   1   2
HETATM    2  C4  UNL     1     -34.305   7.464   4.136  1.00 20.00     0.028 C 
BRANCH   2   3
HETATM    3  C6  UNL     1     -35.124   6.311   3.569  1.00 20.00     0.167 C 
BRANCH   3   4
HETATM    4  O8  UNL     1     -35.190   5.250   4.511  1.00 20.00    -0.396 OA
HETATM    5  C2  UNL     1     -34.214   4.251   4.244  1.00 20.00     0.201 C 
ENDBRANCH   3   4
ENDBRANCH   2   3
ENDBRANCH   1   2
BRANCH   1   6
HETATM    6  C7  UNL     1     -32.892   7.436   1.990  1.00 20.00     0.082 C 
HETATM    7 CL9  UNL     1     -32.576   5.750   1.466  1.00 20.00    -0.125 Cl
BRANCH   6   8
HETATM    8  C3  UNL     1     -31.841   8.384   1.396  1.00 20.00     0.016 C 
HETATM    9  C1  UNL     1     -32.439   9.501   0.550  1.00 20.00     0.006 C 
ENDBRANCH   6   8
ENDBRANCH   1   6
TORSDOF 5
ENDMDL
MODEL 5
REMARK VINA RESULT:      -1.9      1.664      2.128
REMARK  5 active torsions:
REMARK  status: ('A' for Active; 'I' for Inactive)
REMARK    1  A    between atoms: C3_3  and  C7_7 
REMARK    2  A    between atoms: C4_4  and  C5_5 
REMARK    3  A    between atoms: C4_4  and  C6_6 
REMARK    4  A    between atoms: C5_5  and  C7_7 
REMARK    5  A    between atoms: C6_6  and  O8_8 
ROOT
HETATM    1  C5  UNL     1     -33.669   7.873   3.149  1.00 20.00     0.022 C 
ENDROOT
BRANCH   1   2
HETATM    2  C4  UNL     1     -33.970   6.803   4.209  1.00 20.00     0.028 C 
BRANCH   2   3
HETATM    3  C6  UNL     1     -35.330   6.147   3.991  1.00 20.00     0.167 C 
BRANCH   3   4
HETATM    4  O8  UNL     1     -35.317   4.820   4.496  1.00 20.00    -0.396 OA
HETATM    5  C2  UNL     1     -34.094   4.159   4.200  1.00 20.00     0.201 C 
ENDBRANCH   3   4
ENDBRANCH   2   3
ENDBRANCH   1   2
BRANCH   1   6
HETATM    6  C7  UNL     1     -32.527   7.484   2.195  1.00 20.00     0.082 C 
HETATM    7 CL9  UNL     1     -32.148   8.842   1.087  1.00 20.00    -0.125 Cl
BRANCH   6   8
HETATM    8  C3  UNL     1     -32.896   6.229   1.392  1.00 20.00     0.016 C 
HETATM    9  C1  UNL     1     -31.771   5.205   1.309  1.00 20.00     0.006 C 
ENDBRANCH   6   8
ENDBRANCH   1   6
TORSDOF 5
ENDMDL
MODEL 6
REMARK VINA RESULT:      -1.9      1.548      1.941
REMARK  5 active torsions:
REMARK  status: ('A' for Active; 'I' for Inactive)
REMARK    1  A    between atoms: C3_3  and  C7_7 
REMARK    2  A    between atoms: C4_4  and  C5_5 
REMARK    3  A    between atoms: C4_4  and  C6_6 
REMARK    4  A    between atoms: C5_5  and  C7_7 
REMARK    5  A    between atoms: C6_6  and  O8_8 
ROOT
HETATM    1  C5  UNL     1     -33.815   7.255   3.663  1.00 20.00     0.022 C 
ENDROOT
BRANCH   1   2
HETATM    2  C4  UNL     1     -34.952   6.227   3.561  1.00 20.00     0.028 C 
BRANCH   2   3
HETATM    3  C6  UNL     1     -34.783   5.085   4.556  1.00 20.00     0.167 C 
BRANCH   3   4
HETATM    4  O8  UNL     1     -34.237   3.947   3.904  1.00 20.00    -0.396 OA
HETATM    5  C2  UNL     1     -33.356   3.228   4.757  1.00 20.00     0.201 C 
ENDBRANCH   3   4
ENDBRANCH   2   3
ENDBRANCH   1   2
BRANCH   1   6
HETATM    6  C7  UNL     1     -32.701   7.038   2.624  1.00 20.00     0.082 C 
HETATM    7 CL9  UNL     1     -32.240   8.597   1.868  1.00 20.00    -0.125 Cl
BRANCH   6   8
HETATM    8  C3  UNL     1     -33.150   6.037   1.550  1.00 20.00     0.016 C 
HETATM    9  C1  UNL     1     -32.052   5.073   1.118  1.00 20.00     0.006 C 
ENDBRANCH   6   8
ENDBRANCH   1   6
TORSDOF 5
ENDMDL
MODEL 7
REMARK VINA RESULT:      -1.9      2.711      5.217
REMARK  5 active torsions:
REMARK  status: ('A' for Active; 'I' for Inactive)
REMARK    1  A    between atoms: C3_3  and  C7_7 
REMARK    2  A    between atoms: C4_4  and  C5_5 
REMARK    3  A    between atoms: C4_4  and  C6_6 
REMARK    4  A    between atoms: C5_5  and  C7_7 
REMARK    5  A    between atoms: C6_6  and  O8_8 
ROOT
HETATM    1  C5  UNL     1     -32.714   6.503   1.935  1.00 20.00     0.022 C 
ENDROOT
BRANCH   1   2
HETATM    2  C4  UNL     1     -32.025   7.860   2.137  1.00 20.00     0.028 C 
BRANCH   2   3
HETATM    3  C6  UNL     1     -31.748   8.565   0.814  1.00 20.00     0.167 C 
BRANCH   3   4
HETATM    4  O8  UNL     1     -32.420   9.816   0.778  1.00 20.00    -0.396 OA
HETATM    5  C2  UNL     1     -32.798  10.169  -0.546  1.00 20.00     0.201 C 
ENDBRANCH   3   4
ENDBRANCH   2   3
ENDBRANCH   1   2
BRANCH   1   6
HETATM    6  C7  UNL     1     -33.943   6.301   2.840  1.00 20.00     0.082 C 
HETATM    7 CL9  UNL     1     -34.038   7.608   4.064  1.00 20.00    -0.125 Cl
BRANCH   6   8
HETATM    8  C3  UNL     1     -33.889   4.929   3.528  1.00 20.00     0.016 C 
HETATM    9  C1  UNL     1     -34.982   4.727   4.569  1.00 20.00     0.006 C 
ENDBRANCH   6   8
ENDBRANCH   1   6
TORSDOF 5
ENDMDL
MODEL 8
REMARK VINA RESULT:      -1.8      2.445      4.975
REMARK  5 active torsions:
REMARK  status: ('A' for Active; 'I' for Inactive)
REMARK    1  A    between atoms: C3_3  and  C7_7 
REMARK    2  A    between atoms: C4_4  and  C5_5 
REMARK    3  A    between atoms: C4_4  and  C6_6 
REMARK    4  A    between atoms: C5_5  and  C7_7 
REMARK    5  A    between atoms: C6_6  and  O8_8 
ROOT
HETATM    1  C5  UNL     1     -32.930   5.468   2.787  1.00 20.00     0.022 C 
ENDROOT
BRANCH   1   2
HETATM    2  C4  UNL     1     -32.957   6.494   1.645  1.00 20.00     0.028 C 
BRANCH   2   3
HETATM    3  C6  UNL     1     -32.230   7.783   2.016  1.00 20.00     0.167 C 
BRANCH   3   4
HETATM    4  O8  UNL     1     -31.700   8.396   0.850  1.00 20.00    -0.396 OA
HETATM    5  C2  UNL     1     -32.397   9.592   0.525  1.00 20.00     0.201 C 
ENDBRANCH   3   4
ENDBRANCH   2   3
ENDBRANCH   1   2
BRANCH   1   6
HETATM    6  C7  UNL     1     -34.315   5.208   3.407  1.00 20.00     0.082 C 
HETATM    7 CL9  UNL     1     -35.074   6.753   3.908  1.00 20.00    -0.125 Cl
BRANCH   6   8
HETATM    8  C3  UNL     1     -34.200   4.257   4.608  1.00 20.00     0.016 C 
HETATM    9  C1  UNL     1     -33.320   3.043   4.340  1.00 20.00     0.006 C 
ENDBRANCH   6   8
ENDBRANCH   1   6
TORSDOF 5
ENDMDL
MODEL 9
REMARK VINA RESULT:      -1.8      2.631      5.060
REMARK  5 active torsions:
REMARK  status: ('A' for Active; 'I' for Inactive)
REMARK    1  A    between atoms: C3_3  and  C7_7 
REMARK    2  A    between atoms: C4_4  and  C5_5 
REMARK    3  A    between atoms: C4_4  and  C6_6 
REMARK    4  A    between atoms: C5_5  and  C7_7 
REMARK    5  A    between atoms: C6_6  and  O8_8 
ROOT
HETATM    1  C5  UNL     1     -33.311   7.218   2.870  1.00 20.00     0.022 C 
ENDROOT
BRANCH   1   2
HETATM    2  C4  UNL     1     -32.248   7.095   1.768  1.00 20.00     0.028 C 
BRANCH   2   3
HETATM    3  C6  UNL     1     -31.637   8.445   1.408  1.00 20.00     0.167 C 
BRANCH   3   4
HETATM    4  O8  UNL     1     -32.664   9.382   1.115  1.00 20.00    -0.396 OA
HETATM    5  C2  UNL     1     -32.470   9.989  -0.155  1.00 20.00     0.201 C 
ENDBRANCH   3   4
ENDBRANCH   2   3
ENDBRANCH   1   2
BRANCH   1   6
HETATM    6  C7  UNL     1     -34.165   5.949   3.038  1.00 20.00     0.082 C 
HETATM    7 CL9  UNL     1     -35.414   6.199   4.300  1.00 20.00    -0.125 Cl
BRANCH   6   8
HETATM    8  C3  UNL     1     -33.280   4.745   3.396  1.00 20.00     0.016 C 
HETATM    9  C1  UNL     1     -33.929   3.786   4.386  1.00 20.00     0.006 C 
ENDBRANCH   6   8
ENDBRANCH   1   6
TORSDOF 5
ENDMDL
