MODEL 1
REMARK VINA RESULT:      -2.5      0.000      0.000
REMARK  4 active torsions:
REMARK  status: ('A' for Active; 'I' for Inactive)
REMARK    1  A    between atoms: C4_4  and  C5_5 
REMARK    2  A    between atoms: C4_4  and  C6_6 
REMARK    3  A    between atoms: C5_5  and  O8_8 
REMARK    4  A    between atoms: C6_6  and  C7_7 
ROOT
HETATM    1  C1  UNL     1     -33.655   8.135   4.394  1.00 20.00     0.011 C 
HETATM    2  C6  UNL     1     -33.647   6.822   3.597  1.00 20.00     0.001 C 
ENDROOT
BRANCH   2   3
HETATM    3  C4  UNL     1     -35.025   6.140   3.744  1.00 20.00     0.032 C 
BRANCH   3   4
HETATM    4  C5  UNL     1     -34.997   4.839   4.537  1.00 20.00     0.167 C 
BRANCH   4   5
HETATM    5  O8  UNL     1     -34.150   3.915   3.866  1.00 20.00    -0.396 OA
HETATM    6  C3  UNL     1     -33.337   3.192   4.781  1.00 20.00     0.201 C 
ENDBRANCH   4   5
ENDBRANCH   3   4
ENDBRANCH   2   3
BRANCH   2   7
HETATM    7  C7  UNL     1     -33.197   6.996   2.124  1.00 20.00     0.082 C 
HETATM    8  C2  UNL     1     -32.117   8.062   1.946  1.00 20.00     0.027 C 
HETATM    9 CL9  UNL     1     -32.617   5.462   1.402  1.00 20.00    -0.125 Cl
ENDBRANCH   2   7
TORSDOF 4
ENDMDL
MODEL 2
REMARK VINA RESULT:      -2.1      3.102      5.029
REMARK  4 active torsions:
REMARK  status: ('A' for Active; 'I' for Inactive)
REMARK    1  A    between atoms: C4_4  and  C5_5 
REMARK    2  A    between atoms: C4_4  and  C6_6 
REMARK    3  A    between atoms: C5_5  and  O8_8 
REMARK    4  A    between atoms: C6_6  and  C7_7 
ROOT
HETATM    1  C1  UNL     1     -33.175   6.015   1.561  1.00 20.00     0.011 C 
HETATM    2  C6  UNL     1     -32.869   6.856   2.808  1.00 20.00     0.001 C 
ENDROOT
BRANCH   2   3
HETATM    3  C4  UNL     1     -31.953   8.033   2.405  1.00 20.00     0.032 C 
BRANCH   3   4
HETATM    4  C5  UNL     1     -31.993   8.375   0.921  1.00 20.00     0.167 C 
BRANCH   4   5
HETATM    5  O8  UNL     1     -32.335   9.748   0.778  1.00 20.00    -0.396 OA
HETATM    6  C3  UNL     1     -32.756  10.046  -0.546  1.00 20.00     0.201 C 
ENDBRANCH   4   5
ENDBRANCH   3   4
ENDBRANCH   2   3
BRANCH   2   7
HETATM    7  C7  UNL     1     -34.137   7.297   3.584  1.00 20.00     0.082 C 
HETATM    8  C2  UNL     1     -35.078   6.138   3.907  1.00 20.00     0.027 C 
HETATM    9 CL9  UNL     1     -33.743   8.160   5.103  1.00 20.00    -0.125 Cl
ENDBRANCH   2   7
TORSDOF 4
ENDMDL
MODEL 3
REMARK VINA RESULT:      -2.0      2.850      4.846
REMARK  4 active torsions:
REMARK  status: ('A' for Active; 'I' for Inactive)
REMARK    1  A    between atoms: C4_4  and  C5_5 
REMARK    2  A    between atoms: C4_4  and  C6_6 
REMARK    3  A    between atoms: C5_5  and  O8_8 
REMARK    4  A    between atoms: C6_6  and  C7_7 
ROOT
HETATM    1  C1  UNL     1     -32.624   5.535   1.124  1.00 20.00     0.011 C 
HETATM    2  C6  UNL     1     -32.901   6.049   2.544  1.00 20.00     0.001 C 
ENDROOT
BRANCH   2   3
HETATM    3  C4  UNL     1     -32.840   7.593   2.537  1.00 20.00     0.032 C 
BRANCH   3   4
HETATM    4  C5  UNL     1     -31.982   8.179   1.423  1.00 20.00     0.167 C 
BRANCH   4   5
HETATM    5  O8  UNL     1     -32.420   9.506   1.161  1.00 20.00    -0.396 OA
HETATM    6  C3  UNL     1     -32.517   9.758  -0.234  1.00 20.00     0.201 C 
ENDBRANCH   4   5
ENDBRANCH   3   4
ENDBRANCH   2   3
BRANCH   2   7
HETATM    7  C7  UNL     1     -34.206   5.485   3.162  1.00 20.00     0.082 C 
HETATM    8  C2  UNL     1     -33.974   4.257   4.040  1.00 20.00     0.027 C 
HETATM    9 CL9  UNL     1     -35.097   6.714   4.114  1.00 20.00    -0.125 Cl
ENDBRANCH   2   7
TORSDOF 4
ENDMDL
MODEL 4
REMARK VINA RESULT:      -1.7      1.726      2.442
REMARK  4 active torsions:
REMARK  status: ('A' for Active; 'I' for Inactive)
REMARK    1  A    between atoms: C4_4  and  C5_5 
REMARK    2  A    between atoms: C4_4  and  C6_6 
REMARK    3  A    between atoms: C5_5  and  O8_8 
REMARK    4  A    between atoms: C6_6  and  C7_7 
ROOT
HETATM    1  C1  UNL     1     -32.723   5.573   1.255  1.00 20.00     0.011 C 
HETATM    2  C6  UNL     1     -33.086   6.891   1.956  1.00 20.00     0.001 C 
ENDROOT
BRANCH   2   3
HETATM    3  C4  UNL     1     -33.517   6.582   3.408  1.00 20.00     0.032 C 
BRANCH   3   4
HETATM    4  C5  UNL     1     -35.026   6.524   3.612  1.00 20.00     0.167 C 
BRANCH   4   5
HETATM    5  O8  UNL     1     -35.334   5.384   4.406  1.00 20.00    -0.396 OA
HETATM    6  C3  UNL     1     -34.332   4.383   4.293  1.00 20.00     0.201 C 
ENDBRANCH   4   5
ENDBRANCH   3   4
ENDBRANCH   2   3
BRANCH   2   7
HETATM    7  C7  UNL     1     -31.978   7.970   1.857  1.00 20.00     0.082 C 
HETATM    8  C2  UNL     1     -32.296   9.068   0.844  1.00 20.00     0.027 C 
HETATM    9 CL9  UNL     1     -31.623   8.731   3.439  1.00 20.00    -0.125 Cl
ENDBRANCH   2   7
TORSDOF 4
ENDMDL
MODEL 5
REMARK VINA RESULT:      -1.6      2.952      4.562
REMARK  4 active torsions:
REMARK  status: ('A' for Active; 'I' for Inactive)
REMARK    1  A    between atoms: C4_4  and  C5_5 
REMARK    2  A    between atoms: C4_4  and  C6_6 
REMARK    3  A    between atoms: C5_5  and  O8_8 
REMARK    4  A    between atoms: C6_6  and  C7_7 
ROOT
HETATM    1  C1  UNL     1     -33.955   7.564   4.014  1.00 20.00     0.011 C 
HETATM    2  C6  UNL     1     -33.440   7.280   2.595  1.00 20.00     0.001 C 
ENDROOT
BRANCH   2   3
HETATM    3  C4  UNL     1     -32.032   7.898   2.442  1.00 20.00     0.032 C 
BRANCH   3   4
HETATM    4  C5  UNL     1     -31.778   8.542   1.084  1.00 20.00     0.167 C 
BRANCH   4   5
HETATM    5  O8  UNL     1     -32.582   9.710   0.977  1.00 20.00    -0.396 OA
HETATM    6  C3  UNL     1     -32.715  10.130  -0.374  1.00 20.00     0.201 C 
ENDBRANCH   4   5
ENDBRANCH   3   4
ENDBRANCH   2   3
BRANCH   2   7
HETATM    7  C7  UNL     1     -33.503   5.781   2.203  1.00 20.00     0.082 C 
HETATM    8  C2  UNL     1     -32.257   5.300   1.463  1.00 20.00     0.027 C 
HETATM    9 CL9  UNL     1     -33.782   4.717   3.617  1.00 20.00    -0.125 Cl
ENDBRANCH   2   7
TORSDOF 4
ENDMDL
MODEL 6
REMARK VINA RESULT:      -1.4      2.962      4.600
REMARK  4 active torsions:
REMARK  status: ('A' for Active; 'I' for Inactive)
REMARK    1  A    between atoms: C4_4  and  C5_5 
REMARK    2  A    between atoms: C4_4  and  C6_6 
REMARK    3  A    between atoms: C5_5  and  O8_8 
REMARK    4  A    between atoms: C6_6  and  C7_7 
ROOT
HETATM    1  C1  UNL     1     -33.376   8.075   4.847  1.00 20.00     0.011 C 
HETATM    2  C6  UNL     1     -33.507   7.799   3.342  1.00 20.00     0.001 C 
ENDROOT
BRANCH   2   3
HETATM    3  C4  UNL     1     -32.118   7.951   2.683  1.00 20.00     0.032 C 
BRANCH   3   4
HETATM    4  C5  UNL     1     -32.165   8.263   1.192  1.00 20.00     0.167 C 
BRANCH   4   5
HETATM    5  O8  UNL     1     -32.387   9.658   1.025  1.00 20.00    -0.396 OA
HETATM    6  C3  UNL     1     -32.631   9.988  -0.336  1.00 20.00     0.201 C 
ENDBRANCH   4   5
ENDBRANCH   3   4
ENDBRANCH   2   3
BRANCH   2   7
HETATM    7  C7  UNL     1     -34.200   6.450   3.019  1.00 20.00     0.082 C 
HETATM    8  C2  UNL     1     -33.221   5.282   2.909  1.00 20.00     0.027 C 
HETATM    9 CL9  UNL     1     -35.466   6.030   4.215  1.00 20.00    -0.125 Cl
ENDBRANCH   2   7
TORSDOF 4
ENDMDL
MODEL 7
REMARK VINA RESULT:      -1.4      2.655      4.552
REMARK  4 active torsions:
REMARK  status: ('A' for Active; 'I' for Inactive)
REMARK    1  A    between atoms: C4_4  and  C5_5 
REMARK    2  A    between atoms: C4_4  and  C6_6 
REMARK    3  A    between atoms: C5_5  and  O8_8 
REMARK    4  A    between atoms: C6_6  and  C7_7 
ROOT
HETATM    1  C1  UNL     1     -34.294   7.485   4.112  1.00 20.00     0.011 C 
HETATM    2  C6  UNL     1     -33.515   7.172   2.826  1.00 20.00     0.001 C 
ENDROOT
BRANCH   2   3
HETATM    3  C4  UNL     1     -32.352   8.179   2.688  1.00 20.00     0.032 C 
BRANCH   3   4
HETATM    4  C5  UNL     1     -31.959   8.485   1.247  1.00 20.00     0.167 C 
BRANCH   4   5
HETATM    5  O8  UNL     1     -32.393   9.801   0.927  1.00 20.00    -0.396 OA
HETATM    6  C3  UNL     1     -32.675   9.934  -0.460  1.00 20.00     0.201 C 
ENDBRANCH   4   5
ENDBRANCH   3   4
ENDBRANCH   2   3
BRANCH   2   7
HETATM    7  C7  UNL     1     -33.066   5.691   2.721  1.00 20.00     0.082 C 
HETATM    8  C2  UNL     1     -33.955   4.735   3.513  1.00 20.00     0.027 C 
HETATM    9 CL9  UNL     1     -32.979   5.124   1.024  1.00 20.00    -0.125 Cl
ENDBRANCH   2   7
TORSDOF 4
ENDMDL
MODEL 8
REMARK VINA RESULT:      -1.4      2.651      4.541
REMARK  4 active torsions:
REMARK  status: ('A' for Active; 'I' for Inactive)
REMARK    1  A    between atoms: C4_4  and  C5_5 
REMARK    2  A    between atoms: C4_4  and  C6_6 
REMARK    3  A    between atoms: C5_5  and  O8_8 
REMARK    4  A    between atoms: C6_6  and  C7_7 
ROOT
HETATM    1  C1  UNL     1     -33.146   8.418   4.811  1.00 20.00     0.011 C 
HETATM    2  C6  UNL     1     -33.287   7.794   3.415  1.00 20.00     0.001 C 
ENDROOT
BRANCH   2   3
HETATM    3  C4  UNL     1     -31.964   7.994   2.643  1.00 20.00     0.032 C 
BRANCH   3   4
HETATM    4  C5  UNL     1     -32.146   8.316   1.164  1.00 20.00     0.167 C 
BRANCH   4   5
HETATM    5  O8  UNL     1     -32.445   9.700   1.033  1.00 20.00    -0.396 OA
HETATM    6  C3  UNL     1     -32.652  10.063  -0.325  1.00 20.00     0.201 C 
ENDBRANCH   4   5
ENDBRANCH   3   4
ENDBRANCH   2   3
BRANCH   2   7
HETATM    7  C7  UNL     1     -33.771   6.321   3.441  1.00 20.00     0.082 C 
HETATM    8  C2  UNL     1     -35.255   6.182   3.773  1.00 20.00     0.027 C 
HETATM    9 CL9  UNL     1     -33.443   5.468   1.900  1.00 20.00    -0.125 Cl
ENDBRANCH   2   7
TORSDOF 4
ENDMDL
MODEL 9
REMARK VINA RESULT:      -1.2      2.141      4.083
REMARK  4 active torsions:
REMARK  status: ('A' for Active; 'I' for Inactive)
REMARK    1  A    between atoms: C4_4  and  C5_5 
REMARK    2  A    between atoms: C4_4  and  C6_6 
REMARK    3  A    between atoms: C5_5  and  O8_8 
REMARK    4  A    between atoms: C6_6  and  C7_7 
ROOT
HETATM    1  C1  UNL     1     -35.220   6.560   4.059  1.00 20.00     0.011 C 
HETATM    2  C6  UNL     1     -34.045   6.657   3.075  1.00 20.00     0.001 C 
ENDROOT
BRANCH   2   3
HETATM    3  C4  UNL     1     -33.247   7.945   3.374  1.00 20.00     0.032 C 
BRANCH   3   4
HETATM    4  C5  UNL     1     -32.051   8.166   2.456  1.00 20.00     0.167 C 
BRANCH   4   5
HETATM    5  O8  UNL     1     -32.521   8.304   1.121  1.00 20.00    -0.396 OA
HETATM    6  C3  UNL     1     -32.300   9.616   0.622  1.00 20.00     0.201 C 
ENDBRANCH   4   5
ENDBRANCH   3   4
ENDBRANCH   2   3
BRANCH   2   7
HETATM    7  C7  UNL     1     -33.165   5.380   3.034  1.00 20.00     0.082 C 
HETATM    8  C2  UNL     1     -33.834   4.169   3.681  1.00 20.00     0.027 C 
HETATM    9 CL9  UNL     1     -32.671   4.945   1.368  1.00 20.00    -0.125 Cl
ENDBRANCH   2   7
TORSDOF 4
ENDMDL
