MODEL 1
REMARK VINA RESULT:      -1.4      0.000      0.000
REMARK  3 active torsions:
REMARK  status: ('A' for Active; 'I' for Inactive)
REMARK    1  A    between atoms: C5_5  and  C9_9 
REMARK    2  A    between atoms: C6_6  and  C10_10 
REMARK    3  A    between atoms: C9_9  and  C11_11 
ROOT
HETATM    1  C1  UNL     1     -34.316   7.259   3.668  1.00 20.00     0.131 C 
HETATM    2  C2  UNL     1     -35.438   6.324   4.061  1.00 20.00     0.079 C 
HETATM    3  C3  UNL     1     -34.882   4.971   4.487  1.00 20.00     0.012 C 
HETATM    4  C4  UNL     1     -32.803   5.351   3.115  1.00 20.00     0.016 C 
HETATM    5  C5  UNL     1     -33.321   6.716   2.649  1.00 20.00     0.055 C 
HETATM    6  C6  UNL     1     -33.952   4.378   3.420  1.00 20.00    -0.014 C 
HETATM    7  O12 UNL     1     -34.279   8.415   4.088  1.00 20.00    -0.298 OA
ENDROOT
BRANCH   5   8
HETATM    8  C9  UNL     1     -32.162   7.682   2.420  1.00 20.00     0.012 C 
BRANCH   8   9
HETATM    9  C11 UNL     1     -31.996   8.007   0.939  1.00 20.00    -0.004 C 
HETATM   10  C8  UNL     1     -32.364   9.453   0.646  1.00 20.00     0.005 C 
ENDBRANCH   8   9
ENDBRANCH   5   8
BRANCH   6  11
HETATM   11  C10 UNL     1     -33.405   3.026   3.878  1.00 20.00     0.000 C 
HETATM   12  C7  UNL     1     -32.981   3.060   5.310  1.00 20.00     0.005 C 
ENDBRANCH   6  11
TORSDOF 3
ENDMDL
MODEL 2
REMARK VINA RESULT:      -1.3      1.080      4.721
REMARK  3 active torsions:
REMARK  status: ('A' for Active; 'I' for Inactive)
REMARK    1  A    between atoms: C5_5  and  C9_9 
REMARK    2  A    between atoms: C6_6  and  C10_10 
REMARK    3  A    between atoms: C9_9  and  C11_11 
ROOT
HETATM    1  C1  UNL     1     -34.397   6.608   3.825  1.00 20.00     0.131 C 
HETATM    2  C2  UNL     1     -34.026   8.070   3.938  1.00 20.00     0.079 C 
HETATM    3  C3  UNL     1     -33.449   8.578   2.622  1.00 20.00     0.012 C 
HETATM    4  C4  UNL     1     -32.751   6.243   1.984  1.00 20.00     0.016 C 
HETATM    5  C5  UNL     1     -33.307   5.682   3.297  1.00 20.00     0.055 C 
HETATM    6  C6  UNL     1     -32.288   7.700   2.136  1.00 20.00    -0.014 C 
HETATM    7  O12 UNL     1     -35.485   6.198   4.227  1.00 20.00    -0.298 OA
ENDROOT
BRANCH   5   8
HETATM    8  C9  UNL     1     -33.822   4.259   3.100  1.00 20.00     0.012 C 
BRANCH   8   9
HETATM    9  C11 UNL     1     -33.983   3.539   4.435  1.00 20.00    -0.004 C 
HETATM   10  C8  UNL     1     -32.700   2.828   4.837  1.00 20.00     0.005 C 
ENDBRANCH   8   9
ENDBRANCH   5   8
BRANCH   6  11
HETATM   11  C10 UNL     1     -31.735   8.230   0.813  1.00 20.00     0.000 C 
HETATM   12  C7  UNL     1     -32.341   9.546   0.450  1.00 20.00     0.005 C 
ENDBRANCH   6  11
TORSDOF 3
ENDMDL
MODEL 3
REMARK VINA RESULT:      -0.1      1.041      4.762
REMARK  3 active torsions:
REMARK  status: ('A' for Active; 'I' for Inactive)
REMARK    1  A    between atoms: C5_5  and  C9_9 
REMARK    2  A    between atoms: C6_6  and  C10_10 
REMARK    3  A    between atoms: C9_9  and  C11_11 
ROOT
HETATM    1  C1  UNL     1     -33.387   7.882   4.421  1.00 20.00     0.131 C 
HETATM    2  C2  UNL     1     -32.053   8.573   4.254  1.00 20.00     0.079 C 
HETATM    3  C3  UNL     1     -31.842   8.984   2.802  1.00 20.00     0.012 C 
HETATM    4  C4  UNL     1     -33.425   7.185   2.024  1.00 20.00     0.016 C 
HETATM    5  C5  UNL     1     -33.665   6.727   3.466  1.00 20.00     0.055 C 
HETATM    6  C6  UNL     1     -32.029   7.800   1.844  1.00 20.00    -0.014 C 
HETATM    7  O12 UNL     1     -34.149   8.189   5.337  1.00 20.00    -0.298 OA
ENDROOT
BRANCH   5   8
HETATM    8  C9  UNL     1     -35.082   6.186   3.631  1.00 20.00     0.012 C 
BRANCH   8   9
HETATM    9  C11 UNL     1     -35.099   4.931   4.499  1.00 20.00    -0.004 C 
HETATM   10  C8  UNL     1     -33.929   4.017   4.169  1.00 20.00     0.005 C 
ENDBRANCH   8   9
ENDBRANCH   5   8
BRANCH   6  11
HETATM   11  C10 UNL     1     -31.818   8.243   0.396  1.00 20.00     0.000 C 
HETATM   12  C7  UNL     1     -32.318   9.632   0.168  1.00 20.00     0.005 C 
ENDBRANCH   6  11
TORSDOF 3
ENDMDL
MODEL 4
REMARK VINA RESULT:       0.0      1.365      2.189
REMARK  3 active torsions:
REMARK  status: ('A' for Active; 'I' for Inactive)
REMARK    1  A    between atoms: C5_5  and  C9_9 
REMARK    2  A    between atoms: C6_6  and  C10_10 
REMARK    3  A    between atoms: C9_9  and  C11_11 
ROOT
HETATM    1  C1  UNL     1     -32.272   8.439   3.481  1.00 20.00     0.131 C 
HETATM    2  C2  UNL     1     -33.253   8.597   4.621  1.00 20.00     0.079 C 
HETATM    3  C3  UNL     1     -33.925   7.266   4.936  1.00 20.00     0.012 C 
HETATM    4  C4  UNL     1     -33.491   6.450   2.592  1.00 20.00     0.016 C 
HETATM    5  C5  UNL     1     -32.814   7.774   2.221  1.00 20.00     0.055 C 
HETATM    6  C6  UNL     1     -34.555   6.639   3.685  1.00 20.00    -0.014 C 
HETATM    7  O12 UNL     1     -31.137   8.908   3.553  1.00 20.00    -0.298 OA
ENDROOT
BRANCH   5   8
HETATM    8  C9  UNL     1     -31.716   7.546   1.186  1.00 20.00     0.012 C 
BRANCH   8   9
HETATM    9  C11 UNL     1     -31.408   8.826   0.415  1.00 20.00    -0.004 C 
HETATM   10  C8  UNL     1     -32.635   9.720   0.316  1.00 20.00     0.005 C 
ENDBRANCH   8   9
ENDBRANCH   5   8
BRANCH   6  11
HETATM   11  C10 UNL     1     -35.215   5.304   4.029  1.00 20.00     0.000 C 
HETATM   12  C7  UNL     1     -34.202   4.223   4.221  1.00 20.00     0.005 C 
ENDBRANCH   6  11
TORSDOF 3
ENDMDL
MODEL 5
REMARK VINA RESULT:       0.2      1.874      2.733
REMARK  3 active torsions:
REMARK  status: ('A' for Active; 'I' for Inactive)
REMARK    1  A    between atoms: C5_5  and  C9_9 
REMARK    2  A    between atoms: C6_6  and  C10_10 
REMARK    3  A    between atoms: C9_9  and  C11_11 
ROOT
HETATM    1  C1  UNL     1     -32.678   7.792   2.465  1.00 20.00     0.131 C 
HETATM    2  C2  UNL     1     -33.723   8.265   3.449  1.00 20.00     0.079 C 
HETATM    3  C3  UNL     1     -34.136   7.130   4.378  1.00 20.00     0.012 C 
HETATM    4  C4  UNL     1     -33.439   5.423   2.661  1.00 20.00     0.016 C 
HETATM    5  C5  UNL     1     -33.018   6.526   1.686  1.00 20.00     0.055 C 
HETATM    6  C6  UNL     1     -34.569   5.884   3.594  1.00 20.00    -0.014 C 
HETATM    7  O12 UNL     1     -31.662   8.453   2.254  1.00 20.00    -0.298 OA
ENDROOT
BRANCH   5   8
HETATM    8  C9  UNL     1     -31.849   6.065   0.820  1.00 20.00     0.012 C 
BRANCH   8   9
HETATM    9  C11 UNL     1     -31.448   4.630   1.151  1.00 20.00    -0.004 C 
HETATM   10  C8  UNL     1     -31.087   3.855  -0.106  1.00 20.00     0.005 C 
ENDBRANCH   8   9
ENDBRANCH   5   8
BRANCH   6  11
HETATM   11  C10 UNL     1     -34.969   4.762   4.551  1.00 20.00     0.000 C 
HETATM   12  C7  UNL     1     -33.956   3.664   4.567  1.00 20.00     0.005 C 
ENDBRANCH   6  11
TORSDOF 3
ENDMDL
MODEL 6
REMARK VINA RESULT:       0.6      2.118      3.184
REMARK  3 active torsions:
REMARK  status: ('A' for Active; 'I' for Inactive)
REMARK    1  A    between atoms: C5_5  and  C9_9 
REMARK    2  A    between atoms: C6_6  and  C10_10 
REMARK    3  A    between atoms: C9_9  and  C11_11 
ROOT
HETATM    1  C1  UNL     1     -31.926   5.775   1.320  1.00 20.00     0.131 C 
HETATM    2  C2  UNL     1     -32.343   4.782   2.381  1.00 20.00     0.079 C 
HETATM    3  C3  UNL     1     -33.651   5.213   3.033  1.00 20.00     0.012 C 
HETATM    4  C4  UNL     1     -33.210   7.616   2.415  1.00 20.00     0.016 C 
HETATM    5  C5  UNL     1     -31.880   7.236   1.755  1.00 20.00     0.055 C 
HETATM    6  C6  UNL     1     -33.576   6.653   3.556  1.00 20.00    -0.014 C 
HETATM    7  O12 UNL     1     -31.561   5.398   0.208  1.00 20.00    -0.298 OA
ENDROOT
BRANCH   5   8
HETATM    8  C9  UNL     1     -31.576   8.165   0.583  1.00 20.00     0.012 C 
BRANCH   8   9
HETATM    9  C11 UNL     1     -32.247   9.522   0.763  1.00 20.00    -0.004 C 
HETATM   10  C8  UNL     1     -32.722  10.084  -0.568  1.00 20.00     0.005 C 
ENDBRANCH   8   9
ENDBRANCH   5   8
BRANCH   6  11
HETATM   11  C10 UNL     1     -34.903   7.060   4.197  1.00 20.00     0.000 C 
HETATM   12  C7  UNL     1     -35.820   5.891   4.353  1.00 20.00     0.005 C 
ENDBRANCH   6  11
TORSDOF 3
ENDMDL
MODEL 7
REMARK VINA RESULT:       0.6      2.119      3.093
REMARK  3 active torsions:
REMARK  status: ('A' for Active; 'I' for Inactive)
REMARK    1  A    between atoms: C5_5  and  C9_9 
REMARK    2  A    between atoms: C6_6  and  C10_10 
REMARK    3  A    between atoms: C9_9  and  C11_11 
ROOT
HETATM    1  C1  UNL     1     -31.794   7.059   1.283  1.00 20.00     0.131 C 
HETATM    2  C2  UNL     1     -32.123   5.640   1.691  1.00 20.00     0.079 C 
HETATM    3  C3  UNL     1     -33.536   5.561   2.256  1.00 20.00     0.012 C 
HETATM    4  C4  UNL     1     -33.460   7.999   2.887  1.00 20.00     0.016 C 
HETATM    5  C5  UNL     1     -32.035   8.131   2.340  1.00 20.00     0.055 C 
HETATM    6  C6  UNL     1     -33.752   6.576   3.387  1.00 20.00    -0.014 C 
HETATM    7  O12 UNL     1     -31.278   7.301   0.193  1.00 20.00    -0.298 OA
ENDROOT
BRANCH   5   8
HETATM    8  C9  UNL     1     -31.796   9.533   1.788  1.00 20.00     0.012 C 
BRANCH   8   9
HETATM    9  C11 UNL     1     -33.004  10.031   1.000  1.00 20.00    -0.004 C 
HETATM   10  C8  UNL     1     -32.675  10.181  -0.477  1.00 20.00     0.005 C 
ENDBRANCH   8   9
ENDBRANCH   5   8
BRANCH   6  11
HETATM   11  C10 UNL     1     -35.178   6.478   3.929  1.00 20.00     0.000 C 
HETATM   12  C7  UNL     1     -35.434   5.152   4.567  1.00 20.00     0.005 C 
ENDBRANCH   6  11
TORSDOF 3
ENDMDL
MODEL 8
REMARK VINA RESULT:       0.7      1.933      4.667
REMARK  3 active torsions:
REMARK  status: ('A' for Active; 'I' for Inactive)
REMARK    1  A    between atoms: C5_5  and  C9_9 
REMARK    2  A    between atoms: C6_6  and  C10_10 
REMARK    3  A    between atoms: C9_9  and  C11_11 
ROOT
HETATM    1  C1  UNL     1     -33.401   5.338   2.785  1.00 20.00     0.131 C 
HETATM    2  C2  UNL     1     -32.699   5.084   1.469  1.00 20.00     0.079 C 
HETATM    3  C3  UNL     1     -31.783   6.249   1.118  1.00 20.00     0.012 C 
HETATM    4  C4  UNL     1     -33.166   7.811   2.531  1.00 20.00     0.016 C 
HETATM    5  C5  UNL     1     -34.123   6.676   2.909  1.00 20.00     0.055 C 
HETATM    6  C6  UNL     1     -32.531   7.589   1.150  1.00 20.00    -0.014 C 
HETATM    7  O12 UNL     1     -33.451   4.469   3.654  1.00 20.00    -0.298 OA
ENDROOT
BRANCH   5   8
HETATM    8  C9  UNL     1     -34.684   6.887   4.312  1.00 20.00     0.012 C 
BRANCH   8   9
HETATM    9  C11 UNL     1     -34.257   8.236   4.882  1.00 20.00    -0.004 C 
HETATM   10  C8  UNL     1     -32.916   8.136   5.592  1.00 20.00     0.005 C 
ENDBRANCH   8   9
ENDBRANCH   5   8
BRANCH   6  11
HETATM   11  C10 UNL     1     -31.586   8.738   0.800  1.00 20.00     0.000 C 
HETATM   12  C7  UNL     1     -32.317   9.879   0.171  1.00 20.00     0.005 C 
ENDBRANCH   6  11
TORSDOF 3
ENDMDL
MODEL 9
REMARK VINA RESULT:       0.7      1.933      4.683
REMARK  3 active torsions:
REMARK  status: ('A' for Active; 'I' for Inactive)
REMARK    1  A    between atoms: C5_5  and  C9_9 
REMARK    2  A    between atoms: C6_6  and  C10_10 
REMARK    3  A    between atoms: C9_9  and  C11_11 
ROOT
HETATM    1  C1  UNL     1     -32.398   5.782   1.708  1.00 20.00     0.131 C 
HETATM    2  C2  UNL     1     -32.278   7.255   1.390  1.00 20.00     0.079 C 
HETATM    3  C3  UNL     1     -32.504   8.093   2.642  1.00 20.00     0.012 C 
HETATM    4  C4  UNL     1     -33.854   6.239   3.684  1.00 20.00     0.016 C 
HETATM    5  C5  UNL     1     -33.665   5.359   2.444  1.00 20.00     0.055 C 
HETATM    6  C6  UNL     1     -33.826   7.735   3.334  1.00 20.00    -0.014 C 
HETATM    7  O12 UNL     1     -31.558   4.977   1.308  1.00 20.00    -0.298 OA
ENDROOT
BRANCH   5   8
HETATM    8  C9  UNL     1     -33.627   3.883   2.830  1.00 20.00     0.012 C 
BRANCH   8   9
HETATM    9  C11 UNL     1     -33.914   3.692   4.316  1.00 20.00    -0.004 C 
HETATM   10  C8  UNL     1     -32.875   2.792   4.968  1.00 20.00     0.005 C 
ENDBRANCH   8   9
ENDBRANCH   5   8
BRANCH   6  11
HETATM   11  C10 UNL     1     -34.022   8.585   4.589  1.00 20.00     0.000 C 
HETATM   12  C7  UNL     1     -32.896   8.408   5.555  1.00 20.00     0.005 C 
ENDBRANCH   6  11
TORSDOF 3
ENDMDL
