MODEL 1
REMARK VINA RESULT:      -2.9      0.000      0.000
REMARK  4 active torsions:
REMARK  status: ('A' for Active; 'I' for Inactive)
REMARK    1  A    between atoms: C5_5  and  C6_6 
REMARK    2  A    between atoms: C6_6  and  C8_8 
REMARK    3  A    between atoms: C7_7  and  C8_8 
REMARK    4  A    between atoms: C8_8  and  O9_9 
ROOT
HETATM    1  C1  UNL     1     -33.465   3.367   4.351  1.00 20.00     0.012 C 
HETATM    2  C2  UNL     1     -34.311   4.215   4.418  1.00 20.00    -0.117 C 
HETATM    3  C5  UNL     1     -35.351   5.251   4.506  1.00 20.00     0.095 C 
ENDROOT
BRANCH   3   4
HETATM    4  C6  UNL     1     -35.024   6.477   3.654  1.00 20.00     0.044 C 
BRANCH   4   5
HETATM    5  C8  UNL     1     -33.525   6.770   3.454  1.00 20.00     0.122 C 
BRANCH   5   6
HETATM    6  C7  UNL     1     -33.062   6.897   1.986  1.00 20.00     0.006 C 
HETATM    7  C3  UNL     1     -31.990   7.985   1.850  1.00 20.00     0.012 C 
HETATM    8  C4  UNL     1     -32.522   5.585   1.412  1.00 20.00     0.012 C 
ENDBRANCH   5   6
BRANCH   5   9
HETATM    9  O9  UNL     1     -33.219   7.987   4.140  1.00 20.00    -0.395 OA
HETATM   10  H23 UNL     1     -33.855   8.645   3.824  1.00 20.00     0.210 HD
ENDBRANCH   5   9
ENDBRANCH   4   5
ENDBRANCH   3   4
TORSDOF 4
ENDMDL
MODEL 2
REMARK VINA RESULT:      -2.8      1.899      4.768
REMARK  4 active torsions:
REMARK  status: ('A' for Active; 'I' for Inactive)
REMARK    1  A    between atoms: C5_5  and  C6_6 
REMARK    2  A    between atoms: C6_6  and  C8_8 
REMARK    3  A    between atoms: C7_7  and  C8_8 
REMARK    4  A    between atoms: C8_8  and  O9_9 
ROOT
HETATM    1  C1  UNL     1     -32.637  10.168  -0.063  1.00 20.00     0.012 C 
HETATM    2  C2  UNL     1     -32.246   9.307   0.676  1.00 20.00    -0.117 C 
HETATM    3  C5  UNL     1     -31.762   8.257   1.583  1.00 20.00     0.095 C 
ENDROOT
BRANCH   3   4
HETATM    4  C6  UNL     1     -32.616   6.991   1.516  1.00 20.00     0.044 C 
BRANCH   4   5
HETATM    5  C8  UNL     1     -33.077   6.425   2.872  1.00 20.00     0.122 C 
BRANCH   5   6
HETATM    6  C7  UNL     1     -34.217   7.203   3.566  1.00 20.00     0.006 C 
HETATM    7  C3  UNL     1     -35.313   6.242   4.044  1.00 20.00     0.012 C 
HETATM    8  C4  UNL     1     -33.735   8.044   4.750  1.00 20.00     0.012 C 
ENDBRANCH   5   6
BRANCH   5   9
HETATM    9  O9  UNL     1     -33.502   5.075   2.663  1.00 20.00    -0.395 OA
HETATM   10  H23 UNL     1     -34.437   5.119   2.415  1.00 20.00     0.210 HD
ENDBRANCH   5   9
ENDBRANCH   4   5
ENDBRANCH   3   4
TORSDOF 4
ENDMDL
MODEL 3
REMARK VINA RESULT:      -2.8      1.814      4.771
REMARK  4 active torsions:
REMARK  status: ('A' for Active; 'I' for Inactive)
REMARK    1  A    between atoms: C5_5  and  C6_6 
REMARK    2  A    between atoms: C6_6  and  C8_8 
REMARK    3  A    between atoms: C7_7  and  C8_8 
REMARK    4  A    between atoms: C8_8  and  O9_9 
ROOT
HETATM    1  C1  UNL     1     -32.595  10.234   0.023  1.00 20.00     0.012 C 
HETATM    2  C2  UNL     1     -32.250   9.316   0.714  1.00 20.00    -0.117 C 
HETATM    3  C5  UNL     1     -31.820   8.192   1.558  1.00 20.00     0.095 C 
ENDROOT
BRANCH   3   4
HETATM    4  C6  UNL     1     -32.943   7.678   2.457  1.00 20.00     0.044 C 
BRANCH   4   5
HETATM    5  C8  UNL     1     -33.002   6.150   2.644  1.00 20.00     0.122 C 
BRANCH   5   6
HETATM    6  C7  UNL     1     -34.324   5.602   3.227  1.00 20.00     0.006 C 
HETATM    7  C3  UNL     1     -34.066   4.326   4.039  1.00 20.00     0.012 C 
HETATM    8  C4  UNL     1     -35.059   6.617   4.106  1.00 20.00     0.012 C 
ENDBRANCH   5   6
BRANCH   5   9
HETATM    9  O9  UNL     1     -32.774   5.541   1.370  1.00 20.00    -0.395 OA
HETATM   10  H23 UNL     1     -31.833   5.665   1.174  1.00 20.00     0.210 HD
ENDBRANCH   5   9
ENDBRANCH   4   5
ENDBRANCH   3   4
TORSDOF 4
ENDMDL
MODEL 4
REMARK VINA RESULT:      -2.1      1.805      4.232
REMARK  4 active torsions:
REMARK  status: ('A' for Active; 'I' for Inactive)
REMARK    1  A    between atoms: C5_5  and  C6_6 
REMARK    2  A    between atoms: C6_6  and  C8_8 
REMARK    3  A    between atoms: C7_7  and  C8_8 
REMARK    4  A    between atoms: C8_8  and  O9_9 
ROOT
HETATM    1  C1  UNL     1     -31.989   8.850   1.325  1.00 20.00     0.012 C 
HETATM    2  C2  UNL     1     -31.909   7.654   1.288  1.00 20.00    -0.117 C 
HETATM    3  C5  UNL     1     -31.803   6.188   1.241  1.00 20.00     0.095 C 
ENDROOT
BRANCH   3   4
HETATM    4  C6  UNL     1     -33.084   5.498   1.708  1.00 20.00     0.044 C 
BRANCH   4   5
HETATM    5  C8  UNL     1     -33.395   5.615   3.211  1.00 20.00     0.122 C 
BRANCH   5   6
HETATM    6  C7  UNL     1     -34.497   6.631   3.586  1.00 20.00     0.006 C 
HETATM    7  C3  UNL     1     -35.618   5.945   4.377  1.00 20.00     0.012 C 
HETATM    8  C4  UNL     1     -33.967   7.820   4.393  1.00 20.00     0.012 C 
ENDBRANCH   5   6
BRANCH   5   9
HETATM    9  O9  UNL     1     -33.783   4.321   3.683  1.00 20.00    -0.395 OA
HETATM   10  H23 UNL     1     -33.131   4.069   4.353  1.00 20.00     0.210 HD
ENDBRANCH   5   9
ENDBRANCH   4   5
ENDBRANCH   3   4
TORSDOF 4
ENDMDL
MODEL 5
REMARK VINA RESULT:      -2.0      1.256      4.430
REMARK  4 active torsions:
REMARK  status: ('A' for Active; 'I' for Inactive)
REMARK    1  A    between atoms: C5_5  and  C6_6 
REMARK    2  A    between atoms: C6_6  and  C8_8 
REMARK    3  A    between atoms: C7_7  and  C8_8 
REMARK    4  A    between atoms: C8_8  and  O9_9 
ROOT
HETATM    1  C1  UNL     1     -32.640   9.948  -0.007  1.00 20.00     0.012 C 
HETATM    2  C2  UNL     1     -32.224   9.101   0.735  1.00 20.00    -0.117 C 
HETATM    3  C5  UNL     1     -31.708   8.068   1.644  1.00 20.00     0.095 C 
ENDROOT
BRANCH   3   4
HETATM    4  C6  UNL     1     -32.778   7.048   2.031  1.00 20.00     0.044 C 
BRANCH   4   5
HETATM    5  C8  UNL     1     -33.595   7.384   3.292  1.00 20.00     0.122 C 
BRANCH   5   6
HETATM    6  C7  UNL     1     -34.276   6.182   3.984  1.00 20.00     0.006 C 
HETATM    7  C3  UNL     1     -35.801   6.272   3.844  1.00 20.00     0.012 C 
HETATM    8  C4  UNL     1     -33.800   4.831   3.444  1.00 20.00     0.012 C 
ENDBRANCH   5   6
BRANCH   5   9
HETATM    9  O9  UNL     1     -32.719   8.019   4.229  1.00 20.00    -0.395 OA
HETATM   10  H23 UNL     1     -33.287   8.464   4.874  1.00 20.00     0.210 HD
ENDBRANCH   5   9
ENDBRANCH   4   5
ENDBRANCH   3   4
TORSDOF 4
ENDMDL
MODEL 6
REMARK VINA RESULT:      -2.0      1.441      4.454
REMARK  4 active torsions:
REMARK  status: ('A' for Active; 'I' for Inactive)
REMARK    1  A    between atoms: C5_5  and  C6_6 
REMARK    2  A    between atoms: C6_6  and  C8_8 
REMARK    3  A    between atoms: C7_7  and  C8_8 
REMARK    4  A    between atoms: C8_8  and  O9_9 
ROOT
HETATM    1  C1  UNL     1     -32.605  10.274   0.221  1.00 20.00     0.012 C 
HETATM    2  C2  UNL     1     -32.335   9.214   0.714  1.00 20.00    -0.117 C 
HETATM    3  C5  UNL     1     -32.001   7.913   1.310  1.00 20.00     0.095 C 
ENDROOT
BRANCH   3   4
HETATM    4  C6  UNL     1     -32.107   7.928   2.835  1.00 20.00     0.044 C 
BRANCH   4   5
HETATM    5  C8  UNL     1     -33.533   7.826   3.406  1.00 20.00     0.122 C 
BRANCH   5   6
HETATM    6  C7  UNL     1     -34.272   6.500   3.120  1.00 20.00     0.006 C 
HETATM    7  C3  UNL     1     -33.278   5.332   3.058  1.00 20.00     0.012 C 
HETATM    8  C4  UNL     1     -35.357   6.182   4.152  1.00 20.00     0.012 C 
ENDBRANCH   5   6
BRANCH   5   9
HETATM    9  O9  UNL     1     -33.455   8.013   4.822  1.00 20.00    -0.395 OA
HETATM   10  H23 UNL     1     -33.591   8.959   4.979  1.00 20.00     0.210 HD
ENDBRANCH   5   9
ENDBRANCH   4   5
ENDBRANCH   3   4
TORSDOF 4
ENDMDL
MODEL 7
REMARK VINA RESULT:      -2.0      1.394      2.005
REMARK  4 active torsions:
REMARK  status: ('A' for Active; 'I' for Inactive)
REMARK    1  A    between atoms: C5_5  and  C6_6 
REMARK    2  A    between atoms: C6_6  and  C8_8 
REMARK    3  A    between atoms: C7_7  and  C8_8 
REMARK    4  A    between atoms: C8_8  and  O9_9 
ROOT
HETATM    1  C1  UNL     1     -33.788   3.520   4.447  1.00 20.00     0.012 C 
HETATM    2  C2  UNL     1     -34.224   4.587   4.115  1.00 20.00    -0.117 C 
HETATM    3  C5  UNL     1     -34.766   5.892   3.708  1.00 20.00     0.095 C 
ENDROOT
BRANCH   3   4
HETATM    4  C6  UNL     1     -33.668   6.924   3.457  1.00 20.00     0.044 C 
BRANCH   4   5
HETATM    5  C8  UNL     1     -33.172   7.031   2.004  1.00 20.00     0.122 C 
BRANCH   5   6
HETATM    6  C7  UNL     1     -31.977   7.984   1.777  1.00 20.00     0.006 C 
HETATM    7  C3  UNL     1     -32.339   9.071   0.756  1.00 20.00     0.012 C 
HETATM    8  C4  UNL     1     -31.486   8.649   3.066  1.00 20.00     0.012 C 
ENDBRANCH   5   6
BRANCH   5   9
HETATM    9  O9  UNL     1     -32.805   5.720   1.565  1.00 20.00    -0.395 OA
HETATM   10  H23 UNL     1     -33.255   5.580   0.720  1.00 20.00     0.210 HD
ENDBRANCH   5   9
ENDBRANCH   4   5
ENDBRANCH   3   4
TORSDOF 4
ENDMDL
MODEL 8
REMARK VINA RESULT:      -1.6      1.382      1.932
REMARK  4 active torsions:
REMARK  status: ('A' for Active; 'I' for Inactive)
REMARK    1  A    between atoms: C5_5  and  C6_6 
REMARK    2  A    between atoms: C6_6  and  C8_8 
REMARK    3  A    between atoms: C7_7  and  C8_8 
REMARK    4  A    between atoms: C8_8  and  O9_9 
ROOT
HETATM    1  C1  UNL     1     -33.887   3.721   4.387  1.00 20.00     0.012 C 
HETATM    2  C2  UNL     1     -34.367   4.799   4.168  1.00 20.00    -0.117 C 
HETATM    3  C5  UNL     1     -34.962   6.116   3.900  1.00 20.00     0.095 C 
ENDROOT
BRANCH   3   4
HETATM    4  C6  UNL     1     -33.906   7.188   3.635  1.00 20.00     0.044 C 
BRANCH   4   5
HETATM    5  C8  UNL     1     -33.434   7.314   2.174  1.00 20.00     0.122 C 
BRANCH   5   6
HETATM    6  C7  UNL     1     -32.282   8.314   1.931  1.00 20.00     0.006 C 
HETATM    7  C3  UNL     1     -30.984   7.569   1.592  1.00 20.00     0.012 C 
HETATM    8  C4  UNL     1     -32.588   9.322   0.819  1.00 20.00     0.012 C 
ENDBRANCH   5   6
BRANCH   5   9
HETATM    9  O9  UNL     1     -33.020   6.018   1.732  1.00 20.00    -0.395 OA
HETATM   10  H23 UNL     1     -33.577   5.799   0.971  1.00 20.00     0.210 HD
ENDBRANCH   5   9
ENDBRANCH   4   5
ENDBRANCH   3   4
TORSDOF 4
ENDMDL
MODEL 9
REMARK VINA RESULT:      -1.4      1.833      2.976
REMARK  4 active torsions:
REMARK  status: ('A' for Active; 'I' for Inactive)
REMARK    1  A    between atoms: C5_5  and  C6_6 
REMARK    2  A    between atoms: C6_6  and  C8_8 
REMARK    3  A    between atoms: C7_7  and  C8_8 
REMARK    4  A    between atoms: C8_8  and  O9_9 
ROOT
HETATM    1  C1  UNL     1     -35.157   5.588   4.070  1.00 20.00     0.012 C 
HETATM    2  C2  UNL     1     -34.638   6.669   4.053  1.00 20.00    -0.117 C 
HETATM    3  C5  UNL     1     -34.007   7.997   4.036  1.00 20.00     0.095 C 
ENDROOT
BRANCH   3   4
HETATM    4  C6  UNL     1     -32.629   7.977   3.376  1.00 20.00     0.044 C 
BRANCH   4   5
HETATM    5  C8  UNL     1     -32.626   7.872   1.840  1.00 20.00     0.122 C 
BRANCH   5   6
HETATM    6  C7  UNL     1     -31.886   9.007   1.097  1.00 20.00     0.006 C 
HETATM    7  C3  UNL     1     -31.167   8.461  -0.143  1.00 20.00     0.012 C 
HETATM    8  C4  UNL     1     -32.812  10.152   0.677  1.00 20.00     0.012 C 
ENDBRANCH   5   6
BRANCH   5   9
HETATM    9  O9  UNL     1     -32.027   6.623   1.485  1.00 20.00    -0.395 OA
HETATM   10  H23 UNL     1     -32.740   6.069   1.136  1.00 20.00     0.210 HD
ENDBRANCH   5   9
ENDBRANCH   4   5
ENDBRANCH   3   4
TORSDOF 4
ENDMDL
