MODEL 1
REMARK VINA RESULT:      -2.4      0.000      0.000
REMARK  5 active torsions:
REMARK  status: ('A' for Active; 'I' for Inactive)
REMARK    1  A    between atoms: C3_3  and  C4_4 
REMARK    2  A    between atoms: C3_3  and  C5_5 
REMARK    3  A    between atoms: C4_4  and  C6_6 
REMARK    4  A    between atoms: C5_5  and  C7_7 
REMARK    5  A    between atoms: C6_6  and  O8_8 
ROOT
HETATM    1  C3  UNL     1     -34.460   7.377   4.124  1.00 20.00     0.004 C 
ENDROOT
BRANCH   1   2
HETATM    2  C4  UNL     1     -35.278   6.131   3.778  1.00 20.00     0.026 C 
BRANCH   2   3
HETATM    3  C6  UNL     1     -34.949   4.923   4.645  1.00 20.00     0.167 C 
BRANCH   3   4
HETATM    4  O8  UNL     1     -34.169   4.012   3.883  1.00 20.00    -0.396 OA
HETATM    5  C2  UNL     1     -33.401   3.157   4.717  1.00 20.00     0.201 C 
ENDBRANCH   3   4
ENDBRANCH   2   3
ENDBRANCH   1   2
BRANCH   1   6
HETATM    6  C5  UNL     1     -33.027   7.328   3.581  1.00 20.00     0.020 C 
BRANCH   6   7
HETATM    7  C7  UNL     1     -32.962   7.298   2.047  1.00 20.00     0.078 C 
HETATM    8  C1  UNL     1     -31.912   8.270   1.523  1.00 20.00     0.026 C 
HETATM    9 CL9  UNL     1     -32.576   5.655   1.452  1.00 20.00    -0.125 Cl
ENDBRANCH   6   7
ENDBRANCH   1   6
TORSDOF 5
ENDMDL
MODEL 2
REMARK VINA RESULT:      -2.3      2.928      5.045
REMARK  5 active torsions:
REMARK  status: ('A' for Active; 'I' for Inactive)
REMARK    1  A    between atoms: C3_3  and  C4_4 
REMARK    2  A    between atoms: C3_3  and  C5_5 
REMARK    3  A    between atoms: C4_4  and  C6_6 
REMARK    4  A    between atoms: C5_5  and  C7_7 
REMARK    5  A    between atoms: C6_6  and  O8_8 
ROOT
HETATM    1  C3  UNL     1     -32.945   6.118   1.535  1.00 20.00     0.004 C 
ENDROOT
BRANCH   1   2
HETATM    2  C4  UNL     1     -31.749   7.072   1.550  1.00 20.00     0.026 C 
BRANCH   2   3
HETATM    3  C6  UNL     1     -32.141   8.544   1.535  1.00 20.00     0.167 C 
BRANCH   3   4
HETATM    4  O8  UNL     1     -31.805   9.094   0.269  1.00 20.00    -0.396 OA
HETATM    5  C2  UNL     1     -32.647  10.188  -0.066  1.00 20.00     0.201 C 
ENDBRANCH   3   4
ENDBRANCH   2   3
ENDBRANCH   1   2
BRANCH   1   6
HETATM    6  C5  UNL     1     -33.365   5.655   2.936  1.00 20.00     0.020 C 
BRANCH   6   7
HETATM    7  C7  UNL     1     -34.515   6.483   3.527  1.00 20.00     0.078 C 
HETATM    8  C1  UNL     1     -35.438   5.614   4.373  1.00 20.00     0.026 C 
HETATM    9 CL9  UNL     1     -33.890   7.819   4.540  1.00 20.00    -0.125 Cl
ENDBRANCH   6   7
ENDBRANCH   1   6
TORSDOF 5
ENDMDL
MODEL 3
REMARK VINA RESULT:      -2.1      2.878      5.079
REMARK  5 active torsions:
REMARK  status: ('A' for Active; 'I' for Inactive)
REMARK    1  A    between atoms: C3_3  and  C4_4 
REMARK    2  A    between atoms: C3_3  and  C5_5 
REMARK    3  A    between atoms: C4_4  and  C6_6 
REMARK    4  A    between atoms: C5_5  and  C7_7 
REMARK    5  A    between atoms: C6_6  and  O8_8 
ROOT
HETATM    1  C3  UNL     1     -32.218   6.285   1.637  1.00 20.00     0.004 C 
ENDROOT
BRANCH   1   2
HETATM    2  C4  UNL     1     -32.136   7.762   2.027  1.00 20.00     0.026 C 
BRANCH   2   3
HETATM    3  C6  UNL     1     -31.687   8.670   0.889  1.00 20.00     0.167 C 
BRANCH   3   4
HETATM    4  O8  UNL     1     -32.580   9.772   0.804  1.00 20.00    -0.396 OA
HETATM    5  C2  UNL     1     -32.764  10.193  -0.539  1.00 20.00     0.201 C 
ENDBRANCH   3   4
ENDBRANCH   2   3
ENDBRANCH   1   2
BRANCH   1   6
HETATM    6  C5  UNL     1     -33.554   5.634   2.016  1.00 20.00     0.020 C 
BRANCH   6   7
HETATM    7  C7  UNL     1     -33.811   5.619   3.529  1.00 20.00     0.078 C 
HETATM    8  C1  UNL     1     -35.088   6.375   3.876  1.00 20.00     0.026 C 
HETATM    9 CL9  UNL     1     -33.949   3.942   4.140  1.00 20.00    -0.125 Cl
ENDBRANCH   6   7
ENDBRANCH   1   6
TORSDOF 5
ENDMDL
MODEL 4
REMARK VINA RESULT:      -2.1      1.335      1.425
REMARK  5 active torsions:
REMARK  status: ('A' for Active; 'I' for Inactive)
REMARK    1  A    between atoms: C3_3  and  C4_4 
REMARK    2  A    between atoms: C3_3  and  C5_5 
REMARK    3  A    between atoms: C4_4  and  C6_6 
REMARK    4  A    between atoms: C5_5  and  C7_7 
REMARK    5  A    between atoms: C6_6  and  O8_8 
ROOT
HETATM    1  C3  UNL     1     -33.847   7.149   4.027  1.00 20.00     0.004 C 
ENDROOT
BRANCH   1   2
HETATM    2  C4  UNL     1     -35.129   6.326   3.885  1.00 20.00     0.026 C 
BRANCH   2   3
HETATM    3  C6  UNL     1     -35.014   4.914   4.446  1.00 20.00     0.167 C 
BRANCH   3   4
HETATM    4  O8  UNL     1     -33.884   4.281   3.862  1.00 20.00    -0.396 OA
HETATM    5  C2  UNL     1     -33.441   3.180   4.642  1.00 20.00     0.201 C 
ENDBRANCH   3   4
ENDBRANCH   2   3
ENDBRANCH   1   2
BRANCH   1   6
HETATM    6  C5  UNL     1     -33.600   8.090   2.842  1.00 20.00     0.020 C 
BRANCH   6   7
HETATM    7  C7  UNL     1     -32.303   7.776   2.082  1.00 20.00     0.078 C 
HETATM    8  C1  UNL     1     -32.339   6.372   1.491  1.00 20.00     0.026 C 
HETATM    9 CL9  UNL     1     -32.033   8.952   0.760  1.00 20.00    -0.125 Cl
ENDBRANCH   6   7
ENDBRANCH   1   6
TORSDOF 5
ENDMDL
MODEL 5
REMARK VINA RESULT:      -1.9      1.494      1.621
REMARK  5 active torsions:
REMARK  status: ('A' for Active; 'I' for Inactive)
REMARK    1  A    between atoms: C3_3  and  C4_4 
REMARK    2  A    between atoms: C3_3  and  C5_5 
REMARK    3  A    between atoms: C4_4  and  C6_6 
REMARK    4  A    between atoms: C5_5  and  C7_7 
REMARK    5  A    between atoms: C6_6  and  O8_8 
ROOT
HETATM    1  C3  UNL     1     -33.884   7.283   3.395  1.00 20.00     0.004 C 
ENDROOT
BRANCH   1   2
HETATM    2  C4  UNL     1     -34.639   6.069   3.941  1.00 20.00     0.026 C 
BRANCH   2   3
HETATM    3  C6  UNL     1     -34.035   4.735   3.522  1.00 20.00     0.167 C 
BRANCH   3   4
HETATM    4  O8  UNL     1     -34.289   3.778   4.541  1.00 20.00    -0.396 OA
HETATM    5  C2  UNL     1     -33.171   2.928   4.750  1.00 20.00     0.201 C 
ENDBRANCH   3   4
ENDBRANCH   2   3
ENDBRANCH   1   2
BRANCH   1   6
HETATM    6  C5  UNL     1     -33.110   6.983   2.106  1.00 20.00     0.020 C 
BRANCH   6   7
HETATM    7  C7  UNL     1     -31.933   7.940   1.871  1.00 20.00     0.078 C 
HETATM    8  C1  UNL     1     -32.285   8.999   0.833  1.00 20.00     0.026 C 
HETATM    9 CL9  UNL     1     -31.457   8.758   3.391  1.00 20.00    -0.125 Cl
ENDBRANCH   6   7
ENDBRANCH   1   6
TORSDOF 5
ENDMDL
MODEL 6
REMARK VINA RESULT:      -1.4      2.840      5.005
REMARK  5 active torsions:
REMARK  status: ('A' for Active; 'I' for Inactive)
REMARK    1  A    between atoms: C3_3  and  C4_4 
REMARK    2  A    between atoms: C3_3  and  C5_5 
REMARK    3  A    between atoms: C4_4  and  C6_6 
REMARK    4  A    between atoms: C5_5  and  C7_7 
REMARK    5  A    between atoms: C6_6  and  O8_8 
ROOT
HETATM    1  C3  UNL     1     -33.168   7.091   2.350  1.00 20.00     0.004 C 
ENDROOT
BRANCH   1   2
HETATM    2  C4  UNL     1     -31.829   7.791   2.108  1.00 20.00     0.026 C 
BRANCH   2   3
HETATM    3  C6  UNL     1     -31.744   8.499   0.762  1.00 20.00     0.167 C 
BRANCH   3   4
HETATM    4  O8  UNL     1     -32.464   9.723   0.843  1.00 20.00    -0.396 OA
HETATM    5  C2  UNL     1     -32.791  10.222  -0.445  1.00 20.00     0.201 C 
ENDBRANCH   3   4
ENDBRANCH   2   3
ENDBRANCH   1   2
BRANCH   1   6
HETATM    6  C5  UNL     1     -33.762   7.385   3.733  1.00 20.00     0.020 C 
BRANCH   6   7
HETATM    7  C7  UNL     1     -34.845   6.381   4.151  1.00 20.00     0.078 C 
HETATM    8  C1  UNL     1     -36.094   6.531   3.291  1.00 20.00     0.026 C 
HETATM    9 CL9  UNL     1     -34.250   4.699   4.015  1.00 20.00    -0.125 Cl
ENDBRANCH   6   7
ENDBRANCH   1   6
TORSDOF 5
ENDMDL
MODEL 7
REMARK VINA RESULT:      -1.4      2.019      2.840
REMARK  5 active torsions:
REMARK  status: ('A' for Active; 'I' for Inactive)
REMARK    1  A    between atoms: C3_3  and  C4_4 
REMARK    2  A    between atoms: C3_3  and  C5_5 
REMARK    3  A    between atoms: C4_4  and  C6_6 
REMARK    4  A    between atoms: C5_5  and  C7_7 
REMARK    5  A    between atoms: C6_6  and  O8_8 
ROOT
HETATM    1  C3  UNL     1     -32.210   6.815   1.742  1.00 20.00     0.004 C 
ENDROOT
BRANCH   1   2
HETATM    2  C4  UNL     1     -33.451   6.256   2.441  1.00 20.00     0.026 C 
BRANCH   2   3
HETATM    3  C6  UNL     1     -33.985   7.154   3.549  1.00 20.00     0.167 C 
BRANCH   3   4
HETATM    4  O8  UNL     1     -35.163   6.567   4.086  1.00 20.00    -0.396 OA
HETATM    5  C2  UNL     1     -35.007   5.168   4.279  1.00 20.00     0.201 C 
ENDBRANCH   3   4
ENDBRANCH   2   3
ENDBRANCH   1   2
BRANCH   1   6
HETATM    6  C5  UNL     1     -32.124   8.345   1.797  1.00 20.00     0.020 C 
BRANCH   6   7
HETATM    7  C7  UNL     1     -32.310   9.011   0.426  1.00 20.00     0.078 C 
HETATM    8  C1  UNL     1     -32.673  10.483   0.576  1.00 20.00     0.026 C 
HETATM    9 CL9  UNL     1     -30.821   8.880  -0.559  1.00 20.00    -0.125 Cl
ENDBRANCH   6   7
ENDBRANCH   1   6
TORSDOF 5
ENDMDL
MODEL 8
REMARK VINA RESULT:      -1.3      1.612      1.963
REMARK  5 active torsions:
REMARK  status: ('A' for Active; 'I' for Inactive)
REMARK    1  A    between atoms: C3_3  and  C4_4 
REMARK    2  A    between atoms: C3_3  and  C5_5 
REMARK    3  A    between atoms: C4_4  and  C6_6 
REMARK    4  A    between atoms: C5_5  and  C7_7 
REMARK    5  A    between atoms: C6_6  and  O8_8 
ROOT
HETATM    1  C3  UNL     1     -33.207   5.710   1.978  1.00 20.00     0.004 C 
ENDROOT
BRANCH   1   2
HETATM    2  C4  UNL     1     -33.938   6.218   3.223  1.00 20.00     0.026 C 
BRANCH   2   3
HETATM    3  C6  UNL     1     -34.479   5.105   4.111  1.00 20.00     0.167 C 
BRANCH   3   4
HETATM    4  O8  UNL     1     -33.882   3.876   3.718  1.00 20.00    -0.396 OA
HETATM    5  C2  UNL     1     -33.323   3.189   4.828  1.00 20.00     0.201 C 
ENDBRANCH   3   4
ENDBRANCH   2   3
ENDBRANCH   1   2
BRANCH   1   6
HETATM    6  C5  UNL     1     -32.129   6.677   1.475  1.00 20.00     0.020 C 
BRANCH   6   7
HETATM    7  C7  UNL     1     -32.375   8.132   1.901  1.00 20.00     0.078 C 
HETATM    8  C1  UNL     1     -31.350   8.581   2.936  1.00 20.00     0.026 C 
HETATM    9 CL9  UNL     1     -32.296   9.235   0.494  1.00 20.00    -0.125 Cl
ENDBRANCH   6   7
ENDBRANCH   1   6
TORSDOF 5
ENDMDL
MODEL 9
REMARK VINA RESULT:      -1.1      2.260      3.843
REMARK  5 active torsions:
REMARK  status: ('A' for Active; 'I' for Inactive)
REMARK    1  A    between atoms: C3_3  and  C4_4 
REMARK    2  A    between atoms: C3_3  and  C5_5 
REMARK    3  A    between atoms: C4_4  and  C6_6 
REMARK    4  A    between atoms: C5_5  and  C7_7 
REMARK    5  A    between atoms: C6_6  and  O8_8 
ROOT
HETATM    1  C3  UNL     1     -34.900   6.416   3.721  1.00 20.00     0.004 C 
ENDROOT
BRANCH   1   2
HETATM    2  C4  UNL     1     -34.194   7.555   4.459  1.00 20.00     0.026 C 
BRANCH   2   3
HETATM    3  C6  UNL     1     -32.921   8.031   3.772  1.00 20.00     0.167 C 
BRANCH   3   4
HETATM    4  O8  UNL     1     -33.002   7.715   2.388  1.00 20.00    -0.396 OA
HETATM    5  C2  UNL     1     -31.788   8.012   1.713  1.00 20.00     0.201 C 
ENDBRANCH   3   4
ENDBRANCH   2   3
ENDBRANCH   1   2
BRANCH   1   6
HETATM    6  C5  UNL     1     -34.891   5.095   4.501  1.00 20.00     0.020 C 
BRANCH   6   7
HETATM    7  C7  UNL     1     -34.077   3.992   3.811  1.00 20.00     0.078 C 
HETATM    8  C1  UNL     1     -33.130   4.577   2.771  1.00 20.00     0.026 C 
HETATM    9 CL9  UNL     1     -33.120   3.060   5.003  1.00 20.00    -0.125 Cl
ENDBRANCH   6   7
ENDBRANCH   1   6
TORSDOF 5
ENDMDL
