MODEL 1
REMARK VINA RESULT:      -0.4      0.000      0.000
REMARK  3 active torsions:
REMARK  status: ('A' for Active; 'I' for Inactive)
REMARK    1  A    between atoms: C5_5  and  C9_9 
REMARK    2  A    between atoms: C6_6  and  C10_10 
REMARK    3  A    between atoms: C9_9  and  C11_11 
ROOT
HETATM    1  C1  UNL     1     -31.888   7.325   1.829  1.00 20.00     0.131 C 
HETATM    2  C2  UNL     1     -32.740   6.168   1.356  1.00 20.00     0.079 C 
HETATM    3  C3  UNL     1     -33.584   5.612   2.493  1.00 20.00     0.012 C 
HETATM    4  C4  UNL     1     -33.475   7.813   3.707  1.00 20.00     0.016 C 
HETATM    5  C5  UNL     1     -32.582   8.422   2.620  1.00 20.00     0.055 C 
HETATM    6  C6  UNL     1     -34.405   6.709   3.183  1.00 20.00    -0.014 C 
HETATM    7  O12 UNL     1     -30.705   7.422   1.505  1.00 20.00    -0.298 OA
ENDROOT
BRANCH   5   8
HETATM    8  C9  UNL     1     -33.343   9.343   1.672  1.00 20.00     0.012 C 
BRANCH   8   9
HETATM    9  C11 UNL     1     -32.388  10.139   0.790  1.00 20.00    -0.004 C 
HETATM   10  C8  UNL     1     -32.726   9.968  -0.683  1.00 20.00     0.005 C 
ENDBRANCH   8   9
ENDBRANCH   5   8
BRANCH   6  11
HETATM   11  C10 UNL     1     -35.234   6.121   4.324  1.00 20.00     0.000 C 
HETATM   12  C7  UNL     1     -34.921   4.678   4.543  1.00 20.00     0.005 C 
ENDBRANCH   6  11
TORSDOF 3
ENDMDL
MODEL 2
REMARK VINA RESULT:      -0.4      1.250      1.870
REMARK  3 active torsions:
REMARK  status: ('A' for Active; 'I' for Inactive)
REMARK    1  A    between atoms: C5_5  and  C9_9 
REMARK    2  A    between atoms: C6_6  and  C10_10 
REMARK    3  A    between atoms: C9_9  and  C11_11 
ROOT
HETATM    1  C1  UNL     1     -32.118   5.909   1.440  1.00 20.00     0.131 C 
HETATM    2  C2  UNL     1     -33.524   5.446   1.754  1.00 20.00     0.079 C 
HETATM    3  C3  UNL     1     -33.964   5.932   3.127  1.00 20.00     0.012 C 
HETATM    4  C4  UNL     1     -32.331   7.843   3.021  1.00 20.00     0.016 C 
HETATM    5  C5  UNL     1     -31.807   7.381   1.657  1.00 20.00     0.055 C 
HETATM    6  C6  UNL     1     -33.793   7.449   3.276  1.00 20.00    -0.014 C 
HETATM    7  O12 UNL     1     -31.292   5.147   0.940  1.00 20.00    -0.298 OA
ENDROOT
BRANCH   5   8
HETATM    8  C9  UNL     1     -32.359   8.204   0.498  1.00 20.00     0.012 C 
BRANCH   8   9
HETATM    9  C11 UNL     1     -32.330   9.695   0.815  1.00 20.00    -0.004 C 
HETATM   10  C8  UNL     1     -32.798  10.521  -0.372  1.00 20.00     0.005 C 
ENDBRANCH   8   9
ENDBRANCH   5   8
BRANCH   6  11
HETATM   11  C10 UNL     1     -34.235   7.904   4.666  1.00 20.00     0.000 C 
HETATM   12  C7  UNL     1     -33.082   8.401   5.474  1.00 20.00     0.005 C 
ENDBRANCH   6  11
TORSDOF 3
ENDMDL
MODEL 3
REMARK VINA RESULT:       0.7      1.428      3.191
REMARK  3 active torsions:
REMARK  status: ('A' for Active; 'I' for Inactive)
REMARK    1  A    between atoms: C5_5  and  C9_9 
REMARK    2  A    between atoms: C6_6  and  C10_10 
REMARK    3  A    between atoms: C9_9  and  C11_11 
ROOT
HETATM    1  C1  UNL     1     -32.186   8.095   1.721  1.00 20.00     0.131 C 
HETATM    2  C2  UNL     1     -32.162   8.315   3.217  1.00 20.00     0.079 C 
HETATM    3  C3  UNL     1     -33.498   7.947   3.844  1.00 20.00     0.012 C 
HETATM    4  C4  UNL     1     -34.017   6.396   1.932  1.00 20.00     0.016 C 
HETATM    5  C5  UNL     1     -32.707   6.757   1.222  1.00 20.00     0.055 C 
HETATM    6  C6  UNL     1     -33.938   6.529   3.460  1.00 20.00    -0.014 C 
HETATM    7  O12 UNL     1     -31.714   8.926   0.946  1.00 20.00    -0.298 OA
ENDROOT
BRANCH   5   8
HETATM    8  C9  UNL     1     -31.630   5.689   1.382  1.00 20.00     0.012 C 
BRANCH   8   9
HETATM    9  C11 UNL     1     -32.026   4.395   0.680  1.00 20.00    -0.004 C 
HETATM   10  C8  UNL     1     -30.853   3.799  -0.082  1.00 20.00     0.005 C 
ENDBRANCH   8   9
ENDBRANCH   5   8
BRANCH   6  11
HETATM   11  C10 UNL     1     -35.286   6.193   4.097  1.00 20.00     0.000 C 
HETATM   12  C7  UNL     1     -35.283   4.828   4.701  1.00 20.00     0.005 C 
ENDBRANCH   6  11
TORSDOF 3
ENDMDL
MODEL 4
REMARK VINA RESULT:       1.1      2.174      4.637
REMARK  3 active torsions:
REMARK  status: ('A' for Active; 'I' for Inactive)
REMARK    1  A    between atoms: C5_5  and  C9_9 
REMARK    2  A    between atoms: C6_6  and  C10_10 
REMARK    3  A    between atoms: C9_9  and  C11_11 
ROOT
HETATM    1  C1  UNL     1     -33.517   5.363   2.985  1.00 20.00     0.131 C 
HETATM    2  C2  UNL     1     -34.226   6.635   3.395  1.00 20.00     0.079 C 
HETATM    3  C3  UNL     1     -33.340   7.850   3.168  1.00 20.00     0.012 C 
HETATM    4  C4  UNL     1     -32.031   6.621   1.406  1.00 20.00     0.016 C 
HETATM    5  C5  UNL     1     -32.855   5.346   1.617  1.00 20.00     0.055 C 
HETATM    6  C6  UNL     1     -32.805   7.907   1.732  1.00 20.00    -0.014 C 
HETATM    7  O12 UNL     1     -33.558   4.354   3.688  1.00 20.00    -0.298 OA
ENDROOT
BRANCH   5   8
HETATM    8  C9  UNL     1     -33.907   5.132   0.534  1.00 20.00     0.012 C 
BRANCH   8   9
HETATM    9  C11 UNL     1     -33.513   3.998  -0.405  1.00 20.00    -0.004 C 
HETATM   10  C8  UNL     1     -34.709   3.124  -0.748  1.00 20.00     0.005 C 
ENDBRANCH   8   9
ENDBRANCH   5   8
BRANCH   6  11
HETATM   11  C10 UNL     1     -31.913   9.132   1.539  1.00 20.00     0.000 C 
HETATM   12  C7  UNL     1     -32.324   9.929   0.346  1.00 20.00     0.005 C 
ENDBRANCH   6  11
TORSDOF 3
ENDMDL
MODEL 5
REMARK VINA RESULT:       1.1      1.940      4.536
REMARK  3 active torsions:
REMARK  status: ('A' for Active; 'I' for Inactive)
REMARK    1  A    between atoms: C5_5  and  C9_9 
REMARK    2  A    between atoms: C6_6  and  C10_10 
REMARK    3  A    between atoms: C9_9  and  C11_11 
ROOT
HETATM    1  C1  UNL     1     -33.052   5.661   1.322  1.00 20.00     0.131 C 
HETATM    2  C2  UNL     1     -32.002   6.714   1.602  1.00 20.00     0.079 C 
HETATM    3  C3  UNL     1     -32.571   7.837   2.456  1.00 20.00     0.012 C 
HETATM    4  C4  UNL     1     -34.338   6.300   3.376  1.00 20.00     0.016 C 
HETATM    5  C5  UNL     1     -33.846   5.137   2.508  1.00 20.00     0.055 C 
HETATM    6  C6  UNL     1     -33.232   7.303   3.734  1.00 20.00    -0.014 C 
HETATM    7  O12 UNL     1     -33.189   5.180   0.198  1.00 20.00    -0.298 OA
ENDROOT
BRANCH   5   8
HETATM    8  C9  UNL     1     -33.010   4.126   3.285  1.00 20.00     0.012 C 
BRANCH   8   9
HETATM    9  C11 UNL     1     -33.777   3.580   4.484  1.00 20.00    -0.004 C 
HETATM   10  C8  UNL     1     -32.861   2.808   5.420  1.00 20.00     0.005 C 
ENDBRANCH   8   9
ENDBRANCH   5   8
BRANCH   6  11
HETATM   11  C10 UNL     1     -33.801   8.453   4.564  1.00 20.00     0.000 C 
HETATM   12  C7  UNL     1     -33.084   8.598   5.865  1.00 20.00     0.005 C 
ENDBRANCH   6  11
TORSDOF 3
ENDMDL
MODEL 6
REMARK VINA RESULT:       1.5      1.217      4.549
REMARK  3 active torsions:
REMARK  status: ('A' for Active; 'I' for Inactive)
REMARK    1  A    between atoms: C5_5  and  C9_9 
REMARK    2  A    between atoms: C6_6  and  C10_10 
REMARK    3  A    between atoms: C9_9  and  C11_11 
ROOT
HETATM    1  C1  UNL     1     -32.502   6.133   1.682  1.00 20.00     0.131 C 
HETATM    2  C2  UNL     1     -31.159   6.828   1.695  1.00 20.00     0.079 C 
HETATM    3  C3  UNL     1     -31.228   8.159   0.962  1.00 20.00     0.012 C 
HETATM    4  C4  UNL     1     -33.704   8.311   1.380  1.00 20.00     0.016 C 
HETATM    5  C5  UNL     1     -33.715   6.953   2.090  1.00 20.00     0.055 C 
HETATM    6  C6  UNL     1     -32.361   9.046   1.494  1.00 20.00    -0.014 C 
HETATM    7  O12 UNL     1     -32.595   4.929   1.444  1.00 20.00    -0.298 OA
ENDROOT
BRANCH   5   8
HETATM    8  C9  UNL     1     -33.772   7.076   3.609  1.00 20.00     0.012 C 
BRANCH   8   9
HETATM    9  C11 UNL     1     -35.050   6.461   4.167  1.00 20.00    -0.004 C 
HETATM   10  C8  UNL     1     -34.912   4.956   4.333  1.00 20.00     0.005 C 
ENDBRANCH   8   9
ENDBRANCH   5   8
BRANCH   6  11
HETATM   11  C10 UNL     1     -32.409  10.370   0.732  1.00 20.00     0.000 C 
HETATM   12  C7  UNL     1     -32.778  10.166  -0.700  1.00 20.00     0.005 C 
ENDBRANCH   6  11
TORSDOF 3
ENDMDL
MODEL 7
REMARK VINA RESULT:       1.6      2.177      3.327
REMARK  3 active torsions:
REMARK  status: ('A' for Active; 'I' for Inactive)
REMARK    1  A    between atoms: C5_5  and  C9_9 
REMARK    2  A    between atoms: C6_6  and  C10_10 
REMARK    3  A    between atoms: C9_9  and  C11_11 
ROOT
HETATM    1  C1  UNL     1     -35.345   6.601   3.260  1.00 20.00     0.131 C 
HETATM    2  C2  UNL     1     -35.360   5.965   4.632  1.00 20.00     0.079 C 
HETATM    3  C3  UNL     1     -34.763   4.566   4.590  1.00 20.00     0.012 C 
HETATM    4  C4  UNL     1     -33.438   5.146   2.531  1.00 20.00     0.016 C 
HETATM    5  C5  UNL     1     -34.037   6.556   2.486  1.00 20.00     0.055 C 
HETATM    6  C6  UNL     1     -33.370   4.559   3.949  1.00 20.00    -0.014 C 
HETATM    7  O12 UNL     1     -36.322   7.213   2.829  1.00 20.00    -0.298 OA
ENDROOT
BRANCH   5   8
HETATM    8  C9  UNL     1     -33.085   7.624   3.014  1.00 20.00     0.012 C 
BRANCH   8   9
HETATM    9  C11 UNL     1     -31.928   7.859   2.048  1.00 20.00    -0.004 C 
HETATM   10  C8  UNL     1     -32.268   8.938   1.033  1.00 20.00     0.005 C 
ENDBRANCH   8   9
ENDBRANCH   5   8
BRANCH   6  11
HETATM   11  C10 UNL     1     -32.802   3.141   3.914  1.00 20.00     0.000 C 
HETATM   12  C7  UNL     1     -33.059   2.415   5.194  1.00 20.00     0.005 C 
ENDBRANCH   6  11
TORSDOF 3
ENDMDL
MODEL 8
REMARK VINA RESULT:       1.6      1.599      4.002
REMARK  3 active torsions:
REMARK  status: ('A' for Active; 'I' for Inactive)
REMARK    1  A    between atoms: C5_5  and  C9_9 
REMARK    2  A    between atoms: C6_6  and  C10_10 
REMARK    3  A    between atoms: C9_9  and  C11_11 
ROOT
HETATM    1  C1  UNL     1     -32.333   8.158   3.386  1.00 20.00     0.131 C 
HETATM    2  C2  UNL     1     -32.199   8.488   1.916  1.00 20.00     0.079 C 
HETATM    3  C3  UNL     1     -31.945   7.232   1.097  1.00 20.00     0.012 C 
HETATM    4  C4  UNL     1     -33.029   5.807   2.865  1.00 20.00     0.016 C 
HETATM    5  C5  UNL     1     -33.274   7.025   3.762  1.00 20.00     0.055 C 
HETATM    6  C6  UNL     1     -32.999   6.150   1.368  1.00 20.00    -0.014 C 
HETATM    7  O12 UNL     1     -31.777   8.840   4.247  1.00 20.00    -0.298 OA
ENDROOT
BRANCH   5   8
HETATM    8  C9  UNL     1     -34.718   7.514   3.720  1.00 20.00     0.012 C 
BRANCH   8   9
HETATM    9  C11 UNL     1     -35.696   6.346   3.663  1.00 20.00    -0.004 C 
HETATM   10  C8  UNL     1     -35.304   5.249   4.640  1.00 20.00     0.005 C 
ENDBRANCH   8   9
ENDBRANCH   5   8
BRANCH   6  11
HETATM   11  C10 UNL     1     -32.711   4.900   0.537  1.00 20.00     0.000 C 
HETATM   12  C7  UNL     1     -31.290   4.466   0.673  1.00 20.00     0.005 C 
ENDBRANCH   6  11
TORSDOF 3
ENDMDL
MODEL 9
REMARK VINA RESULT:       1.7      1.827      2.682
REMARK  3 active torsions:
REMARK  status: ('A' for Active; 'I' for Inactive)
REMARK    1  A    between atoms: C5_5  and  C9_9 
REMARK    2  A    between atoms: C6_6  and  C10_10 
REMARK    3  A    between atoms: C9_9  and  C11_11 
ROOT
HETATM    1  C1  UNL     1     -34.202   7.940   3.137  1.00 20.00     0.131 C 
HETATM    2  C2  UNL     1     -34.189   7.353   4.532  1.00 20.00     0.079 C 
HETATM    3  C3  UNL     1     -34.427   5.851   4.493  1.00 20.00     0.012 C 
HETATM    4  C4  UNL     1     -33.573   5.733   2.129  1.00 20.00     0.016 C 
HETATM    5  C5  UNL     1     -33.352   7.249   2.083  1.00 20.00     0.055 C 
HETATM    6  C6  UNL     1     -33.454   5.143   3.542  1.00 20.00    -0.014 C 
HETATM    7  O12 UNL     1     -34.799   8.988   2.891  1.00 20.00    -0.298 OA
ENDROOT
BRANCH   5   8
HETATM    8  C9  UNL     1     -31.889   7.642   2.256  1.00 20.00     0.012 C 
BRANCH   8   9
HETATM    9  C11 UNL     1     -31.351   8.336   1.010  1.00 20.00    -0.004 C 
HETATM   10  C8  UNL     1     -32.274   9.457   0.561  1.00 20.00     0.005 C 
ENDBRANCH   8   9
ENDBRANCH   5   8
BRANCH   6  11
HETATM   11  C10 UNL     1     -33.725   3.639   3.519  1.00 20.00     0.000 C 
HETATM   12  C7  UNL     1     -33.189   2.967   4.739  1.00 20.00     0.005 C 
ENDBRANCH   6  11
TORSDOF 3
ENDMDL
