MODEL 1
REMARK VINA RESULT:      -0.9      0.000      0.000
REMARK  1 active torsions:
REMARK  status: ('A' for Active; 'I' for Inactive)
REMARK    1  A    between atoms: C6_6  and  O10_10 
ROOT
HETATM    1  C1  UNL     1     -32.589   5.706   1.207  1.00 20.00     0.003 C 
HETATM    2  C2  UNL     1     -33.795   5.705   2.162  1.00 20.00     0.032 C 
HETATM    3  C3  UNL     1     -31.508   6.734   1.554  1.00 20.00     0.010 C 
HETATM    4  C4  UNL     1     -31.939   8.629   3.289  1.00 20.00     0.017 A 
HETATM    5  C5  UNL     1     -33.255   8.011   2.898  1.00 20.00     0.023 A 
HETATM    6  C6  UNL     1     -33.637   6.637   3.367  1.00 20.00     0.125 C 
HETATM    7  C7  UNL     1     -32.124   8.074   1.894  1.00 20.00    -0.038 A 
HETATM    8  C8  UNL     1     -32.248   9.039   0.749  1.00 20.00     0.015 C 
ENDROOT
BRANCH   6   9
HETATM    9  O10 UNL     1     -34.864   6.708   4.084  1.00 20.00    -0.390 OA
HETATM   10  C9  UNL     1     -35.363   5.415   4.379  1.00 20.00     0.202 C 
ENDBRANCH   6   9
TORSDOF 1
ENDMDL
MODEL 2
REMARK VINA RESULT:      -0.3      0.853      2.512
REMARK  1 active torsions:
REMARK  status: ('A' for Active; 'I' for Inactive)
REMARK    1  A    between atoms: C6_6  and  O10_10 
ROOT
HETATM    1  C1  UNL     1     -32.136   8.177   2.921  1.00 20.00     0.003 C 
HETATM    2  C2  UNL     1     -33.273   7.705   3.843  1.00 20.00     0.032 C 
HETATM    3  C3  UNL     1     -32.177   7.582   1.510  1.00 20.00     0.010 C 
HETATM    4  C4  UNL     1     -33.734   5.577   0.924  1.00 20.00     0.017 A 
HETATM    5  C5  UNL     1     -33.642   5.707   2.420  1.00 20.00     0.023 A 
HETATM    6  C6  UNL     1     -34.321   6.833   3.145  1.00 20.00     0.125 C 
HETATM    7  C7  UNL     1     -32.462   6.097   1.556  1.00 20.00    -0.038 A 
HETATM    8  C8  UNL     1     -31.252   5.206   1.569  1.00 20.00     0.015 C 
ENDROOT
BRANCH   6   9
HETATM    9  O10 UNL     1     -35.221   6.298   4.109  1.00 20.00    -0.390 OA
HETATM   10  C9  UNL     1     -34.937   4.935   4.376  1.00 20.00     0.202 C 
ENDBRANCH   6   9
TORSDOF 1
ENDMDL
MODEL 3
REMARK VINA RESULT:       0.1      1.919      3.212
REMARK  1 active torsions:
REMARK  status: ('A' for Active; 'I' for Inactive)
REMARK    1  A    between atoms: C6_6  and  O10_10 
ROOT
HETATM    1  C1  UNL     1     -35.316   6.301   4.336  1.00 20.00     0.003 C 
HETATM    2  C2  UNL     1     -34.764   4.890   4.601  1.00 20.00     0.032 C 
HETATM    3  C3  UNL     1     -34.906   6.898   2.986  1.00 20.00     0.010 C 
HETATM    4  C4  UNL     1     -33.034   5.813   1.533  1.00 20.00     0.017 A 
HETATM    5  C5  UNL     1     -32.973   5.239   2.922  1.00 20.00     0.023 A 
HETATM    6  C6  UNL     1     -34.017   4.278   3.412  1.00 20.00     0.125 C 
HETATM    7  C7  UNL     1     -33.435   6.666   2.717  1.00 20.00    -0.038 A 
HETATM    8  C8  UNL     1     -32.516   7.775   3.144  1.00 20.00     0.015 C 
ENDROOT
BRANCH   6   9
HETATM    9  O10 UNL     1     -33.391   3.064   3.811  1.00 20.00    -0.390 OA
HETATM   10  C9  UNL     1     -33.033   3.097   5.183  1.00 20.00     0.202 C 
ENDBRANCH   6   9
TORSDOF 1
ENDMDL
MODEL 4
REMARK VINA RESULT:       0.1      1.622      3.572
REMARK  1 active torsions:
REMARK  status: ('A' for Active; 'I' for Inactive)
REMARK    1  A    between atoms: C6_6  and  O10_10 
ROOT
HETATM    1  C1  UNL     1     -34.324   6.488   3.466  1.00 20.00     0.003 C 
HETATM    2  C2  UNL     1     -33.682   7.851   3.158  1.00 20.00     0.032 C 
HETATM    3  C3  UNL     1     -33.526   5.283   2.957  1.00 20.00     0.010 C 
HETATM    4  C4  UNL     1     -31.546   5.571   1.288  1.00 20.00     0.017 A 
HETATM    5  C5  UNL     1     -32.345   6.846   1.328  1.00 20.00     0.023 A 
HETATM    6  C6  UNL     1     -32.293   7.757   2.520  1.00 20.00     0.125 C 
HETATM    7  C7  UNL     1     -33.036   5.516   1.544  1.00 20.00    -0.038 A 
HETATM    8  C8  UNL     1     -33.932   5.000   0.454  1.00 20.00     0.015 C 
ENDROOT
BRANCH   6   9
HETATM    9  O10 UNL     1     -31.866   9.050   2.106  1.00 20.00    -0.390 OA
HETATM   10  C9  UNL     1     -32.233   9.306   0.760  1.00 20.00     0.202 C 
ENDBRANCH   6   9
TORSDOF 1
ENDMDL
MODEL 5
REMARK VINA RESULT:       0.3      1.807      3.646
REMARK  1 active torsions:
REMARK  status: ('A' for Active; 'I' for Inactive)
REMARK    1  A    between atoms: C6_6  and  O10_10 
ROOT
HETATM    1  C1  UNL     1     -32.769   8.308   2.917  1.00 20.00     0.003 C 
HETATM    2  C2  UNL     1     -32.241   7.464   1.745  1.00 20.00     0.032 C 
HETATM    3  C3  UNL     1     -33.360   7.490   4.071  1.00 20.00     0.010 C 
HETATM    4  C4  UNL     1     -33.873   4.949   3.812  1.00 20.00     0.017 A 
HETATM    5  C5  UNL     1     -33.647   5.546   2.450  1.00 20.00     0.023 A 
HETATM    6  C6  UNL     1     -32.274   5.954   1.999  1.00 20.00     0.125 C 
HETATM    7  C7  UNL     1     -34.257   6.389   3.550  1.00 20.00    -0.038 A 
HETATM    8  C8  UNL     1     -35.715   6.735   3.449  1.00 20.00     0.015 C 
ENDROOT
BRANCH   6   9
HETATM    9  O10 UNL     1     -31.945   5.258   0.802  1.00 20.00    -0.390 OA
HETATM   10  C9  UNL     1     -33.085   4.622   0.248  1.00 20.00     0.202 C 
ENDBRANCH   6   9
TORSDOF 1
ENDMDL
MODEL 6
REMARK VINA RESULT:       0.4      1.920      3.389
REMARK  1 active torsions:
REMARK  status: ('A' for Active; 'I' for Inactive)
REMARK    1  A    between atoms: C6_6  and  O10_10 
ROOT
HETATM    1  C1  UNL     1     -34.661   5.106   4.131  1.00 20.00     0.003 C 
HETATM    2  C2  UNL     1     -33.507   4.731   3.187  1.00 20.00     0.032 C 
HETATM    3  C3  UNL     1     -35.152   6.551   3.988  1.00 20.00     0.010 C 
HETATM    4  C4  UNL     1     -33.798   8.318   2.634  1.00 20.00     0.017 A 
HETATM    5  C5  UNL     1     -32.923   7.123   2.896  1.00 20.00     0.023 A 
HETATM    6  C6  UNL     1     -33.146   5.824   2.177  1.00 20.00     0.125 C 
HETATM    7  C7  UNL     1     -33.986   7.512   3.900  1.00 20.00    -0.038 A 
HETATM    8  C8  UNL     1     -33.542   8.112   5.204  1.00 20.00     0.015 C 
ENDROOT
BRANCH   6   9
HETATM    9  O10 UNL     1     -31.960   5.461   1.479  1.00 20.00    -0.390 OA
HETATM   10  C9  UNL     1     -32.243   4.574   0.410  1.00 20.00     0.202 C 
ENDBRANCH   6   9
TORSDOF 1
ENDMDL
MODEL 7
REMARK VINA RESULT:       1.0      1.761      3.973
REMARK  1 active torsions:
REMARK  status: ('A' for Active; 'I' for Inactive)
REMARK    1  A    between atoms: C6_6  and  O10_10 
ROOT
HETATM    1  C1  UNL     1     -32.904   8.456   4.494  1.00 20.00     0.003 C 
HETATM    2  C2  UNL     1     -32.321   8.820   3.119  1.00 20.00     0.032 C 
HETATM    3  C3  UNL     1     -33.304   6.984   4.643  1.00 20.00     0.010 C 
HETATM    4  C4  UNL     1     -33.449   5.400   2.579  1.00 20.00     0.017 A 
HETATM    5  C5  UNL     1     -33.387   6.826   2.102  1.00 20.00     0.023 A 
HETATM    6  C6  UNL     1     -32.116   7.620   2.190  1.00 20.00     0.125 C 
HETATM    7  C7  UNL     1     -34.055   6.502   3.421  1.00 20.00    -0.038 A 
HETATM    8  C8  UNL     1     -35.552   6.602   3.499  1.00 20.00     0.015 C 
ENDROOT
BRANCH   6   9
HETATM    9  O10 UNL     1     -31.753   8.074   0.891  1.00 20.00    -0.390 OA
HETATM   10  C9  UNL     1     -32.285   9.362   0.629  1.00 20.00     0.202 C 
ENDBRANCH   6   9
TORSDOF 1
ENDMDL
MODEL 8
REMARK VINA RESULT:       1.0      1.535      2.072
REMARK  1 active torsions:
REMARK  status: ('A' for Active; 'I' for Inactive)
REMARK    1  A    between atoms: C6_6  and  O10_10 
ROOT
HETATM    1  C1  UNL     1     -32.423   6.815   1.489  1.00 20.00     0.003 C 
HETATM    2  C2  UNL     1     -33.138   5.527   1.930  1.00 20.00     0.032 C 
HETATM    3  C3  UNL     1     -32.280   7.869   2.591  1.00 20.00     0.010 C 
HETATM    4  C4  UNL     1     -33.589   7.675   4.836  1.00 20.00     0.017 A 
HETATM    5  C5  UNL     1     -34.184   6.721   3.836  1.00 20.00     0.023 A 
HETATM    6  C6  UNL     1     -33.458   5.472   3.427  1.00 20.00     0.125 C 
HETATM    7  C7  UNL     1     -33.573   8.023   3.363  1.00 20.00    -0.038 A 
HETATM    8  C8  UNL     1     -34.497   9.101   2.871  1.00 20.00     0.015 C 
ENDROOT
BRANCH   6   9
HETATM    9  O10 UNL     1     -34.275   4.340   3.703  1.00 20.00    -0.390 OA
HETATM   10  C9  UNL     1     -33.577   3.379   4.477  1.00 20.00     0.202 C 
ENDBRANCH   6   9
TORSDOF 1
ENDMDL
MODEL 9
REMARK VINA RESULT:       1.0      1.544      3.320
REMARK  1 active torsions:
REMARK  status: ('A' for Active; 'I' for Inactive)
REMARK    1  A    between atoms: C6_6  and  O10_10 
ROOT
HETATM    1  C1  UNL     1     -32.440   5.650   1.247  1.00 20.00     0.003 C 
HETATM    2  C2  UNL     1     -31.871   6.913   1.917  1.00 20.00     0.032 C 
HETATM    3  C3  UNL     1     -33.881   5.317   1.646  1.00 20.00     0.010 C 
HETATM    4  C4  UNL     1     -35.043   6.501   3.656  1.00 20.00     0.017 A 
HETATM    5  C5  UNL     1     -33.562   6.758   3.723  1.00 20.00     0.023 A 
HETATM    6  C6  UNL     1     -32.891   7.688   2.755  1.00 20.00     0.125 C 
HETATM    7  C7  UNL     1     -34.075   5.458   3.140  1.00 20.00    -0.038 A 
HETATM    8  C8  UNL     1     -33.884   4.200   3.940  1.00 20.00     0.015 C 
ENDROOT
BRANCH   6   9
HETATM    9  O10 UNL     1     -32.232   8.724   3.477  1.00 20.00    -0.390 OA
HETATM   10  C9  UNL     1     -32.496   8.629   4.866  1.00 20.00     0.202 C 
ENDBRANCH   6   9
TORSDOF 1
ENDMDL
