MODEL 1
REMARK VINA RESULT:      -2.4      0.000      0.000
REMARK  1 active torsions:
REMARK  status: ('A' for Active; 'I' for Inactive)
REMARK    1  A    between atoms: C6_6  and  O8_8 
ROOT
HETATM    1  C1  UNL     1     -33.467   7.960   3.956  1.00 20.00    -0.023 C 
HETATM    2  C2  UNL     1     -34.508   7.303   4.501  1.00 20.00     0.001 C 
HETATM    3  C3  UNL     1     -32.063   6.862   1.897  1.00 20.00     0.009 C 
HETATM    4  C4  UNL     1     -33.042   5.701   1.440  1.00 20.00     0.009 C 
HETATM    5  C5  UNL     1     -33.293   7.397   2.617  1.00 20.00     0.015 C 
HETATM    6  C6  UNL     1     -34.944   6.139   3.620  1.00 20.00     0.145 C 
HETATM    7  C7  UNL     1     -33.646   5.873   2.865  1.00 20.00     0.026 C 
ENDROOT
BRANCH   6   8
HETATM    8  O8  UNL     1     -35.279   5.018   4.419  1.00 20.00    -0.391 OA
HETATM    9  H18 UNL     1     -36.248   4.933   4.399  1.00 20.00     0.210 HD
ENDBRANCH   6   8
TORSDOF 1
ENDMDL
MODEL 2
REMARK VINA RESULT:      -2.3      1.721      2.937
REMARK  1 active torsions:
REMARK  status: ('A' for Active; 'I' for Inactive)
REMARK    1  A    between atoms: C6_6  and  O8_8 
ROOT
HETATM    1  C1  UNL     1     -32.321   8.133   2.360  1.00 20.00    -0.023 C 
HETATM    2  C2  UNL     1     -31.960   7.202   1.457  1.00 20.00     0.001 C 
HETATM    3  C3  UNL     1     -34.398   7.675   4.062  1.00 20.00     0.009 C 
HETATM    4  C4  UNL     1     -34.589   6.110   3.901  1.00 20.00     0.009 C 
HETATM    5  C5  UNL     1     -33.048   7.415   3.407  1.00 20.00     0.015 C 
HETATM    6  C6  UNL     1     -32.601   5.856   1.769  1.00 20.00     0.145 C 
HETATM    7  C7  UNL     1     -33.818   6.317   2.564  1.00 20.00     0.026 C 
ENDROOT
BRANCH   6   8
HETATM    8  O8  UNL     1     -33.016   5.222   0.572  1.00 20.00    -0.391 OA
HETATM    9  H18 UNL     1     -33.805   5.696   0.257  1.00 20.00     0.210 HD
ENDBRANCH   6   8
TORSDOF 1
ENDMDL
MODEL 3
REMARK VINA RESULT:      -2.1      2.126      3.538
REMARK  1 active torsions:
REMARK  status: ('A' for Active; 'I' for Inactive)
REMARK    1  A    between atoms: C6_6  and  O8_8 
ROOT
HETATM    1  C1  UNL     1     -32.934   5.652   1.705  1.00 20.00    -0.023 C 
HETATM    2  C2  UNL     1     -32.051   6.609   1.366  1.00 20.00     0.001 C 
HETATM    3  C3  UNL     1     -34.570   5.981   3.858  1.00 20.00     0.009 C 
HETATM    4  C4  UNL     1     -34.416   7.535   4.128  1.00 20.00     0.009 C 
HETATM    5  C5  UNL     1     -33.962   6.319   2.504  1.00 20.00     0.015 C 
HETATM    6  C6  UNL     1     -32.353   7.916   2.088  1.00 20.00     0.145 C 
HETATM    7  C7  UNL     1     -33.104   7.382   3.304  1.00 20.00     0.026 C 
ENDROOT
BRANCH   6   8
HETATM    8  O8  UNL     1     -31.148   8.539   2.498  1.00 20.00    -0.391 OA
HETATM    9  H18 UNL     1     -30.421   8.083   2.040  1.00 20.00     0.210 HD
ENDBRANCH   6   8
TORSDOF 1
ENDMDL
MODEL 4
REMARK VINA RESULT:      -1.2      1.087      2.379
REMARK  1 active torsions:
REMARK  status: ('A' for Active; 'I' for Inactive)
REMARK    1  A    between atoms: C6_6  and  O8_8 
ROOT
HETATM    1  C1  UNL     1     -32.839   5.661   1.335  1.00 20.00    -0.023 C 
HETATM    2  C2  UNL     1     -33.713   5.313   2.298  1.00 20.00     0.001 C 
HETATM    3  C3  UNL     1     -31.799   8.178   1.256  1.00 20.00     0.009 C 
HETATM    4  C4  UNL     1     -32.175   8.712   2.700  1.00 20.00     0.009 C 
HETATM    5  C5  UNL     1     -32.103   6.813   1.858  1.00 20.00     0.015 C 
HETATM    6  C6  UNL     1     -33.729   6.341   3.423  1.00 20.00     0.145 C 
HETATM    7  C7  UNL     1     -33.233   7.570   2.669  1.00 20.00     0.026 C 
ENDROOT
BRANCH   6   8
HETATM    8  O8  UNL     1     -35.054   6.552   3.875  1.00 20.00    -0.391 OA
HETATM    9  H18 UNL     1     -35.295   7.463   3.636  1.00 20.00     0.210 HD
ENDBRANCH   6   8
TORSDOF 1
ENDMDL
MODEL 5
REMARK VINA RESULT:      -0.8      1.433      2.154
REMARK  1 active torsions:
REMARK  status: ('A' for Active; 'I' for Inactive)
REMARK    1  A    between atoms: C6_6  and  O8_8 
ROOT
HETATM    1  C1  UNL     1     -34.299   5.248   3.300  1.00 20.00    -0.023 C 
HETATM    2  C2  UNL     1     -34.687   6.247   4.115  1.00 20.00     0.001 C 
HETATM    3  C3  UNL     1     -32.577   5.730   1.246  1.00 20.00     0.009 C 
HETATM    4  C4  UNL     1     -32.018   7.160   1.641  1.00 20.00     0.009 C 
HETATM    5  C5  UNL     1     -33.043   5.689   2.695  1.00 20.00     0.015 C 
HETATM    6  C6  UNL     1     -33.805   7.475   3.936  1.00 20.00     0.145 C 
HETATM    7  C7  UNL     1     -33.304   7.241   2.515  1.00 20.00     0.026 C 
ENDROOT
BRANCH   6   8
HETATM    8  O8  UNL     1     -34.590   8.654   3.985  1.00 20.00    -0.391 OA
HETATM    9  H18 UNL     1     -35.518   8.382   3.876  1.00 20.00     0.210 HD
ENDBRANCH   6   8
TORSDOF 1
ENDMDL
MODEL 6
REMARK VINA RESULT:      -0.5      1.853      2.609
REMARK  1 active torsions:
REMARK  status: ('A' for Active; 'I' for Inactive)
REMARK    1  A    between atoms: C6_6  and  O8_8 
ROOT
HETATM    1  C1  UNL     1     -33.753   6.703   3.582  1.00 20.00    -0.023 C 
HETATM    2  C2  UNL     1     -33.793   5.603   2.806  1.00 20.00     0.001 C 
HETATM    3  C3  UNL     1     -32.104   8.777   2.953  1.00 20.00     0.009 C 
HETATM    4  C4  UNL     1     -31.723   8.426   1.455  1.00 20.00     0.009 C 
HETATM    5  C5  UNL     1     -33.227   7.772   2.734  1.00 20.00     0.015 C 
HETATM    6  C6  UNL     1     -33.111   5.850   1.467  1.00 20.00     0.145 C 
HETATM    7  C7  UNL     1     -32.171   6.988   1.851  1.00 20.00     0.026 C 
ENDROOT
BRANCH   6   8
HETATM    8  O8  UNL     1     -32.361   4.712   1.082  1.00 20.00    -0.391 OA
HETATM    9  H18 UNL     1     -31.717   5.007   0.416  1.00 20.00     0.210 HD
ENDBRANCH   6   8
TORSDOF 1
ENDMDL
MODEL 7
REMARK VINA RESULT:      -0.4      0.909      2.302
REMARK  1 active torsions:
REMARK  status: ('A' for Active; 'I' for Inactive)
REMARK    1  A    between atoms: C6_6  and  O8_8 
ROOT
HETATM    1  C1  UNL     1     -33.225   5.416   2.221  1.00 20.00    -0.023 C 
HETATM    2  C2  UNL     1     -33.913   4.556   2.995  1.00 20.00     0.001 C 
HETATM    3  C3  UNL     1     -33.297   8.091   2.726  1.00 20.00     0.009 C 
HETATM    4  C4  UNL     1     -33.905   8.113   4.189  1.00 20.00     0.009 C 
HETATM    5  C5  UNL     1     -33.039   6.621   3.028  1.00 20.00     0.015 C 
HETATM    6  C6  UNL     1     -34.383   5.228   4.280  1.00 20.00     0.145 C 
HETATM    7  C7  UNL     1     -34.406   6.684   3.827  1.00 20.00     0.026 C 
ENDROOT
BRANCH   6   8
HETATM    8  O8  UNL     1     -35.694   4.801   4.605  1.00 20.00    -0.391 OA
HETATM    9  H18 UNL     1     -36.217   5.601   4.787  1.00 20.00     0.210 HD
ENDBRANCH   6   8
TORSDOF 1
ENDMDL
MODEL 8
REMARK VINA RESULT:      -0.4      2.261      2.852
REMARK  1 active torsions:
REMARK  status: ('A' for Active; 'I' for Inactive)
REMARK    1  A    between atoms: C6_6  and  O8_8 
ROOT
HETATM    1  C1  UNL     1     -34.018   6.806   3.412  1.00 20.00    -0.023 C 
HETATM    2  C2  UNL     1     -33.479   8.031   3.263  1.00 20.00     0.001 C 
HETATM    3  C3  UNL     1     -33.321   4.777   1.734  1.00 20.00     0.009 C 
HETATM    4  C4  UNL     1     -32.022   5.374   1.050  1.00 20.00     0.009 C 
HETATM    5  C5  UNL     1     -33.093   5.880   2.759  1.00 20.00     0.015 C 
HETATM    6  C6  UNL     1     -32.272   7.991   2.334  1.00 20.00     0.145 C 
HETATM    7  C7  UNL     1     -32.598   6.740   1.525  1.00 20.00     0.026 C 
ENDROOT
BRANCH   6   8
HETATM    8  O8  UNL     1     -32.267   9.128   1.489  1.00 20.00    -0.391 OA
HETATM    9  H18 UNL     1     -31.792   9.833   1.961  1.00 20.00     0.210 HD
ENDBRANCH   6   8
TORSDOF 1
ENDMDL
MODEL 9
REMARK VINA RESULT:      -0.2      1.733      2.878
REMARK  1 active torsions:
REMARK  status: ('A' for Active; 'I' for Inactive)
REMARK    1  A    between atoms: C6_6  and  O8_8 
ROOT
HETATM    1  C1  UNL     1     -32.803   5.906   2.213  1.00 20.00    -0.023 C 
HETATM    2  C2  UNL     1     -33.030   7.202   2.498  1.00 20.00     0.001 C 
HETATM    3  C3  UNL     1     -33.902   3.941   3.747  1.00 20.00     0.009 C 
HETATM    4  C4  UNL     1     -34.997   4.755   4.553  1.00 20.00     0.009 C 
HETATM    5  C5  UNL     1     -33.897   5.161   2.836  1.00 20.00     0.015 C 
HETATM    6  C6  UNL     1     -34.179   7.354   3.487  1.00 20.00     0.145 C 
HETATM    7  C7  UNL     1     -34.130   5.989   4.165  1.00 20.00     0.026 C 
ENDROOT
BRANCH   6   8
HETATM    8  O8  UNL     1     -33.885   8.373   4.427  1.00 20.00    -0.391 OA
HETATM    9  H18 UNL     1     -34.735   8.713   4.753  1.00 20.00     0.210 HD
ENDBRANCH   6   8
TORSDOF 1
ENDMDL
