MODEL 1
REMARK VINA RESULT:      -1.3      0.000      0.000
REMARK  1 active torsions:
REMARK  status: ('A' for Active; 'I' for Inactive)
REMARK    1  A    between atoms: C6_6  and  O10_10 
ROOT
HETATM    1  C1  UNL     1     -33.801   7.906   4.155  1.00 20.00     0.003 C 
HETATM    2  C2  UNL     1     -34.705   6.760   3.667  1.00 20.00     0.032 C 
HETATM    3  C3  UNL     1     -32.408   7.962   3.526  1.00 20.00     0.010 C 
HETATM    4  C4  UNL     1     -31.723   6.353   1.612  1.00 20.00     0.017 A 
HETATM    5  C5  UNL     1     -33.228   6.361   1.698  1.00 20.00     0.023 A 
HETATM    6  C6  UNL     1     -34.010   5.707   2.799  1.00 20.00     0.125 C 
HETATM    7  C7  UNL     1     -32.443   7.607   2.058  1.00 20.00    -0.038 A 
HETATM    8  C8  UNL     1     -32.507   8.773   1.113  1.00 20.00     0.015 C 
ENDROOT
BRANCH   6   9
HETATM    9  O10 UNL     1     -33.201   4.842   3.590  1.00 20.00    -0.390 OA
HETATM   10  C9  UNL     1     -33.990   3.886   4.284  1.00 20.00     0.202 C 
ENDBRANCH   6   9
TORSDOF 1
ENDMDL
MODEL 2
REMARK VINA RESULT:      -0.8      1.575      3.559
REMARK  1 active torsions:
REMARK  status: ('A' for Active; 'I' for Inactive)
REMARK    1  A    between atoms: C6_6  and  O10_10 
ROOT
HETATM    1  C1  UNL     1     -33.692   7.878   4.013  1.00 20.00     0.003 C 
HETATM    2  C2  UNL     1     -32.347   8.317   3.408  1.00 20.00     0.032 C 
HETATM    3  C3  UNL     1     -34.445   6.798   3.235  1.00 20.00     0.010 C 
HETATM    4  C4  UNL     1     -33.402   5.651   1.158  1.00 20.00     0.017 A 
HETATM    5  C5  UNL     1     -32.289   6.303   1.938  1.00 20.00     0.023 A 
HETATM    6  C6  UNL     1     -32.062   7.786   2.000  1.00 20.00     0.125 C 
HETATM    7  C7  UNL     1     -33.506   5.762   2.663  1.00 20.00    -0.038 A 
HETATM    8  C8  UNL     1     -33.334   4.519   3.489  1.00 20.00     0.015 C 
ENDROOT
BRANCH   6   9
HETATM    9  O10 UNL     1     -32.825   8.485   1.022  1.00 20.00    -0.390 OA
HETATM   10  C9  UNL     1     -32.110   9.598   0.505  1.00 20.00     0.202 C 
ENDBRANCH   6   9
TORSDOF 1
ENDMDL
MODEL 3
REMARK VINA RESULT:       0.9      1.408      2.999
REMARK  1 active torsions:
REMARK  status: ('A' for Active; 'I' for Inactive)
REMARK    1  A    between atoms: C6_6  and  O10_10 
ROOT
HETATM    1  C1  UNL     1     -32.050   8.149   1.852  1.00 20.00     0.003 C 
HETATM    2  C2  UNL     1     -31.722   6.656   1.673  1.00 20.00     0.032 C 
HETATM    3  C3  UNL     1     -33.403   8.455   2.495  1.00 20.00     0.010 C 
HETATM    4  C4  UNL     1     -34.926   6.566   3.406  1.00 20.00     0.017 A 
HETATM    5  C5  UNL     1     -33.532   6.012   3.263  1.00 20.00     0.023 A 
HETATM    6  C6  UNL     1     -32.884   5.697   1.946  1.00 20.00     0.125 C 
HETATM    7  C7  UNL     1     -33.734   7.477   3.597  1.00 20.00    -0.038 A 
HETATM    8  C8  UNL     1     -33.392   7.932   4.988  1.00 20.00     0.015 C 
ENDROOT
BRANCH   6   9
HETATM    9  O10 UNL     1     -33.821   5.705   0.873  1.00 20.00    -0.390 OA
HETATM   10  C9  UNL     1     -33.610   4.611  -0.007  1.00 20.00     0.202 C 
ENDBRANCH   6   9
TORSDOF 1
ENDMDL
MODEL 4
REMARK VINA RESULT:       1.0      1.564      3.741
REMARK  1 active torsions:
REMARK  status: ('A' for Active; 'I' for Inactive)
REMARK    1  A    between atoms: C6_6  and  O10_10 
ROOT
HETATM    1  C1  UNL     1     -33.007   4.737   2.260  1.00 20.00     0.003 C 
HETATM    2  C2  UNL     1     -33.105   5.808   1.159  1.00 20.00     0.032 C 
HETATM    3  C3  UNL     1     -33.189   5.244   3.692  1.00 20.00     0.010 C 
HETATM    4  C4  UNL     1     -33.831   7.706   4.184  1.00 20.00     0.017 A 
HETATM    5  C5  UNL     1     -34.164   7.417   2.743  1.00 20.00     0.023 A 
HETATM    6  C6  UNL     1     -33.138   7.255   1.659  1.00 20.00     0.125 C 
HETATM    7  C7  UNL     1     -34.254   6.312   3.777  1.00 20.00    -0.038 A 
HETATM    8  C8  UNL     1     -35.622   5.831   4.172  1.00 20.00     0.015 C 
ENDROOT
BRANCH   6   9
HETATM    9  O10 UNL     1     -31.846   7.684   2.077  1.00 20.00    -0.390 OA
HETATM   10  C9  UNL     1     -31.395   8.791   1.311  1.00 20.00     0.202 C 
ENDBRANCH   6   9
TORSDOF 1
ENDMDL
