MODEL 1
REMARK VINA RESULT:       4.3      0.000      0.000
REMARK  0 active torsions:
REMARK  status: ('A' for Active; 'I' for Inactive)
ROOT
HETATM    1  C1  UNL     1     -32.477   5.807   1.592  1.00 20.00    -0.082 C 
HETATM    2  C2  UNL     1     -32.111   4.927   0.647  1.00 20.00     0.015 C 
HETATM    3  C3  UNL     1     -31.555   6.917   2.045  1.00 20.00     0.038 C 
HETATM    4  C4  UNL     1     -34.518   7.124   2.009  1.00 20.00     0.018 C 
HETATM    5  C5  UNL     1     -33.677   7.829   4.233  1.00 20.00     0.173 C 
HETATM    6  C6  UNL     1     -33.855   5.765   2.240  1.00 20.00     0.043 C 
HETATM    7  C7  UNL     1     -33.697   8.191   2.738  1.00 20.00     0.014 C 
HETATM    8  C8  UNL     1     -32.265   8.285   2.137  1.00 20.00    -0.009 C 
HETATM    9  C9  UNL     1     -33.751   5.457   3.752  1.00 20.00     0.125 C 
HETATM   10  C10 UNL     1     -32.289   8.965   0.760  1.00 20.00     0.011 C 
HETATM   11  C11 UNL     1     -35.095   5.089   4.380  1.00 20.00     0.040 C 
HETATM   12  O12 UNL     1     -33.146   6.530   4.487  1.00 20.00    -0.385 OA
ENDROOT
TORSDOF 0
ENDMDL
MODEL 2
REMARK VINA RESULT:       4.4      1.179      2.702
REMARK  0 active torsions:
REMARK  status: ('A' for Active; 'I' for Inactive)
ROOT
HETATM    1  C1  UNL     1     -33.482   4.927   3.508  1.00 20.00    -0.082 C 
HETATM    2  C2  UNL     1     -33.921   3.834   4.153  1.00 20.00     0.015 C 
HETATM    3  C3  UNL     1     -32.286   4.877   2.584  1.00 20.00     0.038 C 
HETATM    4  C4  UNL     1     -34.586   6.724   2.234  1.00 20.00     0.018 C 
HETATM    5  C5  UNL     1     -32.475   8.019   2.122  1.00 20.00     0.173 C 
HETATM    6  C6  UNL     1     -34.183   6.273   3.638  1.00 20.00     0.043 C 
HETATM    7  C7  UNL     1     -33.313   6.942   1.413  1.00 20.00     0.014 C 
HETATM    8  C8  UNL     1     -32.533   5.607   1.246  1.00 20.00    -0.009 C 
HETATM    9  C9  UNL     1     -33.258   7.319   4.304  1.00 20.00     0.125 C 
HETATM   10  C10 UNL     1     -33.245   4.673   0.256  1.00 20.00     0.011 C 
HETATM   11  C11 UNL     1     -34.004   8.578   4.747  1.00 20.00     0.040 C 
HETATM   12  O12 UNL     1     -32.149   7.678   3.469  1.00 20.00    -0.385 OA
ENDROOT
TORSDOF 0
ENDMDL
MODEL 3
REMARK VINA RESULT:       4.7      1.272      2.964
REMARK  0 active torsions:
REMARK  status: ('A' for Active; 'I' for Inactive)
ROOT
HETATM    1  C1  UNL     1     -32.368   7.960   1.750  1.00 20.00    -0.082 C 
HETATM    2  C2  UNL     1     -32.037   9.055   1.047  1.00 20.00     0.015 C 
HETATM    3  C3  UNL     1     -32.103   7.860   3.236  1.00 20.00     0.038 C 
HETATM    4  C4  UNL     1     -34.374   6.533   1.856  1.00 20.00     0.018 C 
HETATM    5  C5  UNL     1     -33.186   4.868   3.258  1.00 20.00     0.173 C 
HETATM    6  C6  UNL     1     -33.064   6.769   1.105  1.00 20.00     0.043 C 
HETATM    7  C7  UNL     1     -34.040   6.146   3.300  1.00 20.00     0.014 C 
HETATM    8  C8  UNL     1     -33.313   7.315   4.025  1.00 20.00    -0.009 C 
HETATM    9  C9  UNL     1     -32.170   5.508   1.155  1.00 20.00     0.125 C 
HETATM   10  C10 UNL     1     -34.291   8.454   4.350  1.00 20.00     0.011 C 
HETATM   11  C11 UNL     1     -32.674   4.383   0.251  1.00 20.00     0.040 C 
HETATM   12  O12 UNL     1     -31.992   5.017   2.491  1.00 20.00    -0.385 OA
ENDROOT
TORSDOF 0
ENDMDL
MODEL 4
REMARK VINA RESULT:       5.1      1.473      3.331
REMARK  0 active torsions:
REMARK  status: ('A' for Active; 'I' for Inactive)
ROOT
HETATM    1  C1  UNL     1     -34.060   5.327   3.622  1.00 20.00    -0.082 C 
HETATM    2  C2  UNL     1     -34.426   4.312   4.421  1.00 20.00     0.015 C 
HETATM    3  C3  UNL     1     -34.856   6.610   3.553  1.00 20.00     0.038 C 
HETATM    4  C4  UNL     1     -31.918   6.449   3.148  1.00 20.00     0.018 C 
HETATM    5  C5  UNL     1     -32.931   7.717   1.274  1.00 20.00     0.173 C 
HETATM    6  C6  UNL     1     -32.803   5.262   2.765  1.00 20.00     0.043 C 
HETATM    7  C7  UNL     1     -32.658   7.740   2.787  1.00 20.00     0.014 C 
HETATM    8  C8  UNL     1     -33.967   7.871   3.618  1.00 20.00    -0.009 C 
HETATM    9  C9  UNL     1     -33.152   5.306   1.259  1.00 20.00     0.125 C 
HETATM   10  C10 UNL     1     -33.657   8.226   5.080  1.00 20.00     0.011 C 
HETATM   11  C11 UNL     1     -31.975   4.926   0.361  1.00 20.00     0.040 C 
HETATM   12  O12 UNL     1     -33.681   6.578   0.857  1.00 20.00    -0.385 OA
ENDROOT
TORSDOF 0
ENDMDL
MODEL 5
REMARK VINA RESULT:       5.4      1.128      2.944
REMARK  0 active torsions:
REMARK  status: ('A' for Active; 'I' for Inactive)
ROOT
HETATM    1  C1  UNL     1     -32.679   7.923   1.462  1.00 20.00    -0.082 C 
HETATM    2  C2  UNL     1     -32.051   8.908   0.801  1.00 20.00     0.015 C 
HETATM    3  C3  UNL     1     -33.498   6.877   0.740  1.00 20.00     0.038 C 
HETATM    4  C4  UNL     1     -32.020   6.382   3.269  1.00 20.00     0.018 C 
HETATM    5  C5  UNL     1     -34.356   5.587   3.519  1.00 20.00     0.173 C 
HETATM    6  C6  UNL     1     -32.574   7.776   2.974  1.00 20.00     0.043 C 
HETATM    7  C7  UNL     1     -33.033   5.346   2.772  1.00 20.00     0.014 C 
HETATM    8  C8  UNL     1     -33.203   5.442   1.229  1.00 20.00    -0.009 C 
HETATM    9  C9  UNL     1     -33.952   7.971   3.650  1.00 20.00     0.125 C 
HETATM   10  C10 UNL     1     -31.974   4.877   0.503  1.00 20.00     0.011 C 
HETATM   11  C11 UNL     1     -33.854   8.152   5.164  1.00 20.00     0.040 C 
HETATM   12  O12 UNL     1     -34.865   6.908   3.343  1.00 20.00    -0.385 OA
ENDROOT
TORSDOF 0
ENDMDL
MODEL 6
REMARK VINA RESULT:       5.4      1.180      3.957
REMARK  0 active torsions:
REMARK  status: ('A' for Active; 'I' for Inactive)
ROOT
HETATM    1  C1  UNL     1     -33.485   7.555   3.951  1.00 20.00    -0.082 C 
HETATM    2  C2  UNL     1     -34.035   8.338   4.893  1.00 20.00     0.015 C 
HETATM    3  C3  UNL     1     -32.804   6.251   4.300  1.00 20.00     0.038 C 
HETATM    4  C4  UNL     1     -34.226   6.754   1.741  1.00 20.00     0.018 C 
HETATM    5  C5  UNL     1     -31.974   5.834   1.257  1.00 20.00     0.173 C 
HETATM    6  C6  UNL     1     -33.546   7.912   2.472  1.00 20.00     0.043 C 
HETATM    7  C7  UNL     1     -33.342   5.511   1.881  1.00 20.00     0.014 C 
HETATM    8  C8  UNL     1     -33.223   5.089   3.373  1.00 20.00    -0.009 C 
HETATM    9  C9  UNL     1     -32.130   8.163   1.901  1.00 20.00     0.125 C 
HETATM   10  C10 UNL     1     -34.530   4.456   3.873  1.00 20.00     0.011 C 
HETATM   11  C11 UNL     1     -32.151   8.830   0.526  1.00 20.00     0.040 C 
HETATM   12  O12 UNL     1     -31.341   6.966   1.852  1.00 20.00    -0.385 OA
ENDROOT
TORSDOF 0
ENDMDL
MODEL 7
REMARK VINA RESULT:       5.7      1.839      3.771
REMARK  0 active torsions:
REMARK  status: ('A' for Active; 'I' for Inactive)
ROOT
HETATM    1  C1  UNL     1     -32.508   6.363   1.551  1.00 20.00    -0.082 C 
HETATM    2  C2  UNL     1     -32.237   5.054   1.424  1.00 20.00     0.015 C 
HETATM    3  C3  UNL     1     -33.879   6.855   1.958  1.00 20.00     0.038 C 
HETATM    4  C4  UNL     1     -31.344   8.259   2.610  1.00 20.00     0.018 C 
HETATM    5  C5  UNL     1     -32.935   9.872   1.602  1.00 20.00     0.173 C 
HETATM    6  C6  UNL     1     -31.444   7.430   1.330  1.00 20.00     0.043 C 
HETATM    7  C7  UNL     1     -32.680   8.977   2.826  1.00 20.00     0.014 C 
HETATM    8  C8  UNL     1     -33.825   7.946   3.049  1.00 20.00    -0.009 C 
HETATM    9  C9  UNL     1     -31.799   8.329   0.122  1.00 20.00     0.125 C 
HETATM   10  C10 UNL     1     -33.723   7.302   4.439  1.00 20.00     0.011 C 
HETATM   11  C11 UNL     1     -30.630   9.198  -0.339  1.00 20.00     0.040 C 
HETATM   12  O12 UNL     1     -32.949   9.150   0.372  1.00 20.00    -0.385 OA
ENDROOT
TORSDOF 0
ENDMDL
MODEL 8
REMARK VINA RESULT:       7.3      1.547      3.432
REMARK  0 active torsions:
REMARK  status: ('A' for Active; 'I' for Inactive)
ROOT
HETATM    1  C1  UNL     1     -32.832   9.729   1.156  1.00 20.00    -0.082 C 
HETATM    2  C2  UNL     1     -33.081  11.047   1.117  1.00 20.00     0.015 C 
HETATM    3  C3  UNL     1     -32.654   8.916  -0.106  1.00 20.00     0.038 C 
HETATM    4  C4  UNL     1     -31.302   8.312   2.468  1.00 20.00     0.018 C 
HETATM    5  C5  UNL     1     -32.383   6.251   1.611  1.00 20.00     0.173 C 
HETATM    6  C6  UNL     1     -32.678   8.978   2.472  1.00 20.00     0.043 C 
HETATM    7  C7  UNL     1     -31.270   7.277   1.340  1.00 20.00     0.014 C 
HETATM    8  C8  UNL     1     -31.434   7.971  -0.043  1.00 20.00    -0.009 C 
HETATM    9  C9  UNL     1     -33.796   7.923   2.646  1.00 20.00     0.125 C 
HETATM   10  C10 UNL     1     -30.156   8.727  -0.436  1.00 20.00     0.011 C 
HETATM   11  C11 UNL     1     -33.880   7.372   4.070  1.00 20.00     0.040 C 
HETATM   12  O12 UNL     1     -33.677   6.843   1.710  1.00 20.00    -0.385 OA
ENDROOT
TORSDOF 0
ENDMDL
