MODEL 1
REMARK VINA RESULT:       4.0      0.000      0.000
REMARK  0 active torsions:
REMARK  status: ('A' for Active; 'I' for Inactive)
ROOT
HETATM    1  C1  UNL     1     -34.209   7.215   4.054  1.00 20.00    -0.030 C 
HETATM    2  C2  UNL     1     -34.713   6.629   2.963  1.00 20.00    -0.030 C 
HETATM    3  C3  UNL     1     -32.549   9.119   0.533  1.00 20.00     0.128 C 
HETATM    4  C4  UNL     1     -32.898   7.934   4.079  1.00 20.00     0.037 C 
HETATM    5  C5  UNL     1     -34.029   6.643   1.634  1.00 20.00     0.037 C 
HETATM    6  C6  UNL     1     -32.835   9.425   1.986  1.00 20.00     0.088 C 
HETATM    7  C7  UNL     1     -32.149   7.677   0.314  1.00 20.00     0.088 C 
HETATM    8  C8  UNL     1     -32.242   8.189   2.702  1.00 20.00    -0.026 C 
HETATM    9  C9  UNL     1     -32.518   7.038   1.672  1.00 20.00    -0.026 C 
HETATM   10  C10 UNL     1     -30.736   8.456   2.952  1.00 20.00     0.016 C 
HETATM   11  C11 UNL     1     -31.676   5.778   1.924  1.00 20.00     0.016 C 
HETATM   12  O12 UNL     1     -32.634   9.946  -0.368  1.00 20.00    -0.298 OA
ENDROOT
TORSDOF 0
ENDMDL
MODEL 2
REMARK VINA RESULT:       4.3      2.812      4.243
REMARK  0 active torsions:
REMARK  status: ('A' for Active; 'I' for Inactive)
ROOT
HETATM    1  C1  UNL     1     -32.287   8.201   2.569  1.00 20.00    -0.030 C 
HETATM    2  C2  UNL     1     -31.550   7.281   1.940  1.00 20.00    -0.030 C 
HETATM    3  C3  UNL     1     -33.496   4.261   3.910  1.00 20.00     0.128 C 
HETATM    4  C4  UNL     1     -33.646   7.932   3.132  1.00 20.00     0.037 C 
HETATM    5  C5  UNL     1     -31.994   5.868   1.743  1.00 20.00     0.037 C 
HETATM    6  C6  UNL     1     -33.494   5.695   4.390  1.00 20.00     0.088 C 
HETATM    7  C7  UNL     1     -33.711   4.152   2.417  1.00 20.00     0.088 C 
HETATM    8  C8  UNL     1     -34.079   6.447   3.171  1.00 20.00    -0.026 C 
HETATM    9  C9  UNL     1     -33.520   5.617   1.963  1.00 20.00    -0.026 C 
HETATM   10  C10 UNL     1     -35.624   6.421   3.287  1.00 20.00     0.016 C 
HETATM   11  C11 UNL     1     -34.267   5.878   0.646  1.00 20.00     0.016 C 
HETATM   12  O12 UNL     1     -33.338   3.295   4.647  1.00 20.00    -0.298 OA
ENDROOT
TORSDOF 0
ENDMDL
MODEL 3
REMARK VINA RESULT:       4.8      1.760      3.707
REMARK  0 active torsions:
REMARK  status: ('A' for Active; 'I' for Inactive)
ROOT
HETATM    1  C1  UNL     1     -32.325   9.040  -0.176  1.00 20.00    -0.030 C 
HETATM    2  C2  UNL     1     -32.720   9.919   0.750  1.00 20.00    -0.030 C 
HETATM    3  C3  UNL     1     -34.171   6.900   3.111  1.00 20.00     0.128 C 
HETATM    4  C4  UNL     1     -32.011   7.608   0.120  1.00 20.00     0.037 C 
HETATM    5  C5  UNL     1     -32.912   9.565   2.190  1.00 20.00     0.037 C 
HETATM    6  C6  UNL     1     -33.901   6.736   1.632  1.00 20.00     0.088 C 
HETATM    7  C7  UNL     1     -33.066   7.651   3.820  1.00 20.00     0.088 C 
HETATM    8  C8  UNL     1     -32.402   7.109   1.532  1.00 20.00    -0.026 C 
HETATM    9  C9  UNL     1     -32.256   8.217   2.632  1.00 20.00    -0.026 C 
HETATM   10  C10 UNL     1     -31.570   5.833   1.816  1.00 20.00     0.016 C 
HETATM   11  C11 UNL     1     -30.800   8.479   3.046  1.00 20.00     0.016 C 
HETATM   12  O12 UNL     1     -35.174   6.474   3.671  1.00 20.00    -0.298 OA
ENDROOT
TORSDOF 0
ENDMDL
MODEL 4
REMARK VINA RESULT:       5.0      1.897      3.328
REMARK  0 active torsions:
REMARK  status: ('A' for Active; 'I' for Inactive)
ROOT
HETATM    1  C1  UNL     1     -34.123   7.696   4.320  1.00 20.00    -0.030 C 
HETATM    2  C2  UNL     1     -32.872   8.157   4.412  1.00 20.00    -0.030 C 
HETATM    3  C3  UNL     1     -31.584   5.449   1.619  1.00 20.00     0.128 C 
HETATM    4  C4  UNL     1     -34.663   6.998   3.112  1.00 20.00     0.037 C 
HETATM    5  C5  UNL     1     -31.860   8.010   3.321  1.00 20.00     0.037 C 
HETATM    6  C6  UNL     1     -32.878   5.295   2.386  1.00 20.00     0.088 C 
HETATM    7  C7  UNL     1     -31.366   6.864   1.133  1.00 20.00     0.088 C 
HETATM    8  C8  UNL     1     -33.621   6.607   2.037  1.00 20.00    -0.026 C 
HETATM    9  C9  UNL     1     -32.446   7.638   1.921  1.00 20.00    -0.026 C 
HETATM   10  C10 UNL     1     -34.391   6.384   0.710  1.00 20.00     0.016 C 
HETATM   11  C11 UNL     1     -32.836   8.928   1.182  1.00 20.00     0.016 C 
HETATM   12  O12 UNL     1     -30.798   4.531   1.417  1.00 20.00    -0.298 OA
ENDROOT
TORSDOF 0
ENDMDL
MODEL 5
REMARK VINA RESULT:       5.9      2.070      3.535
REMARK  0 active torsions:
REMARK  status: ('A' for Active; 'I' for Inactive)
ROOT
HETATM    1  C1  UNL     1     -32.442   5.291   1.565  1.00 20.00    -0.030 C 
HETATM    2  C2  UNL     1     -33.008   4.733   2.640  1.00 20.00    -0.030 C 
HETATM    3  C3  UNL     1     -32.746   8.263   4.704  1.00 20.00     0.128 C 
HETATM    4  C4  UNL     1     -32.479   6.757   1.274  1.00 20.00     0.037 C 
HETATM    5  C5  UNL     1     -33.729   5.518   3.688  1.00 20.00     0.037 C 
HETATM    6  C6  UNL     1     -31.917   7.960   3.477  1.00 20.00     0.088 C 
HETATM    7  C7  UNL     1     -34.190   7.842   4.546  1.00 20.00     0.088 C 
HETATM    8  C8  UNL     1     -33.004   7.659   2.417  1.00 20.00    -0.026 C 
HETATM    9  C9  UNL     1     -34.125   6.971   3.271  1.00 20.00    -0.026 C 
HETATM   10  C10 UNL     1     -33.438   9.003   1.780  1.00 20.00     0.016 C 
HETATM   11  C11 UNL     1     -35.492   6.937   2.569  1.00 20.00     0.016 C 
HETATM   12  O12 UNL     1     -32.297   8.789   5.717  1.00 20.00    -0.298 OA
ENDROOT
TORSDOF 0
ENDMDL
MODEL 6
REMARK VINA RESULT:       6.4      2.139      3.887
REMARK  0 active torsions:
REMARK  status: ('A' for Active; 'I' for Inactive)
ROOT
HETATM    1  C1  UNL     1     -31.758   7.222   1.246  1.00 20.00    -0.030 C 
HETATM    2  C2  UNL     1     -32.248   8.430   1.538  1.00 20.00    -0.030 C 
HETATM    3  C3  UNL     1     -35.677   6.760   3.038  1.00 20.00     0.128 C 
HETATM    4  C4  UNL     1     -32.172   5.967   1.945  1.00 20.00     0.037 C 
HETATM    5  C5  UNL     1     -33.286   8.662   2.588  1.00 20.00     0.037 C 
HETATM    6  C6  UNL     1     -34.738   6.026   2.108  1.00 20.00     0.088 C 
HETATM    7  C7  UNL     1     -34.941   7.529   4.113  1.00 20.00     0.088 C 
HETATM    8  C8  UNL     1     -33.399   6.089   2.881  1.00 20.00    -0.026 C 
HETATM    9  C9  UNL     1     -33.486   7.483   3.593  1.00 20.00    -0.026 C 
HETATM   10  C10 UNL     1     -33.353   4.888   3.859  1.00 20.00     0.016 C 
HETATM   11  C11 UNL     1     -32.491   7.639   4.754  1.00 20.00     0.016 C 
HETATM   12  O12 UNL     1     -36.897   6.738   2.932  1.00 20.00    -0.298 OA
ENDROOT
TORSDOF 0
ENDMDL
MODEL 7
REMARK VINA RESULT:       6.6      1.920      3.425
REMARK  0 active torsions:
REMARK  status: ('A' for Active; 'I' for Inactive)
ROOT
HETATM    1  C1  UNL     1     -33.656   3.701   3.555  1.00 20.00    -0.030 C 
HETATM    2  C2  UNL     1     -33.701   4.506   4.621  1.00 20.00    -0.030 C 
HETATM    3  C3  UNL     1     -32.197   7.624   2.429  1.00 20.00     0.128 C 
HETATM    4  C4  UNL     1     -33.695   4.192   2.143  1.00 20.00     0.037 C 
HETATM    5  C5  UNL     1     -33.778   5.995   4.522  1.00 20.00     0.037 C 
HETATM    6  C6  UNL     1     -32.067   6.178   2.007  1.00 20.00     0.088 C 
HETATM    7  C7  UNL     1     -33.579   7.953   2.949  1.00 20.00     0.088 C 
HETATM    8  C8  UNL     1     -33.545   5.720   1.955  1.00 20.00    -0.026 C 
HETATM    9  C9  UNL     1     -34.194   6.545   3.120  1.00 20.00    -0.026 C 
HETATM   10  C10 UNL     1     -34.106   6.069   0.553  1.00 20.00     0.016 C 
HETATM   11  C11 UNL     1     -35.727   6.611   3.041  1.00 20.00     0.016 C 
HETATM   12  O12 UNL     1     -31.284   8.439   2.361  1.00 20.00    -0.298 OA
ENDROOT
TORSDOF 0
ENDMDL
