MODEL 1
REMARK VINA RESULT:      -0.4      0.000      0.000
REMARK  1 active torsions:
REMARK  status: ('A' for Active; 'I' for Inactive)
REMARK    1  A    between atoms: C8_8  and  O10_10 
ROOT
HETATM    1  C1  UNL     1     -33.697   8.115   2.960  1.00 20.00    -0.023 C 
HETATM    2  C2  UNL     1     -33.675   7.299   4.028  1.00 20.00     0.001 C 
HETATM    3  C3  UNL     1     -32.532   5.238   2.258  1.00 20.00     0.003 C 
HETATM    4  C4  UNL     1     -34.020   5.185   2.697  1.00 20.00     0.036 C 
HETATM    5  C5  UNL     1     -32.211   6.283   1.166  1.00 20.00     0.005 C 
HETATM    6  C6  UNL     1     -32.180   8.861   0.980  1.00 20.00     0.014 A 
HETATM    7  C7  UNL     1     -32.443   8.657   2.441  1.00 20.00     0.012 A 
HETATM    8  C8  UNL     1     -34.384   5.981   3.975  1.00 20.00     0.140 C 
HETATM    9  C9  UNL     1     -31.652   7.613   1.644  1.00 20.00    -0.006 A 
ENDROOT
BRANCH   8  10
HETATM   10  O10 UNL     1     -35.792   6.149   4.084  1.00 20.00    -0.392 OA
HETATM   11  H24 UNL     1     -36.194   5.295   3.857  1.00 20.00     0.210 HD
ENDBRANCH   8  10
TORSDOF 1
ENDMDL
MODEL 2
REMARK VINA RESULT:      -0.1      1.432      2.672
REMARK  1 active torsions:
REMARK  status: ('A' for Active; 'I' for Inactive)
REMARK    1  A    between atoms: C8_8  and  O10_10 
ROOT
HETATM    1  C1  UNL     1     -32.438   5.460   2.429  1.00 20.00    -0.023 C 
HETATM    2  C2  UNL     1     -33.509   4.651   2.374  1.00 20.00     0.001 C 
HETATM    3  C3  UNL     1     -34.977   6.721   3.873  1.00 20.00     0.003 C 
HETATM    4  C4  UNL     1     -34.482   5.424   4.569  1.00 20.00     0.036 C 
HETATM    5  C5  UNL     1     -33.880   7.772   3.594  1.00 20.00     0.005 C 
HETATM    6  C6  UNL     1     -31.796   7.958   2.076  1.00 20.00     0.014 A 
HETATM    7  C7  UNL     1     -32.406   6.671   1.612  1.00 20.00     0.012 A 
HETATM    8  C8  UNL     1     -34.186   4.221   3.640  1.00 20.00     0.140 C 
HETATM    9  C9  UNL     1     -33.289   7.780   2.194  1.00 20.00    -0.006 A 
ENDROOT
BRANCH   8  10
HETATM   10  O10 UNL     1     -33.425   3.231   4.320  1.00 20.00    -0.392 OA
HETATM   11  H24 UNL     1     -34.007   2.463   4.437  1.00 20.00     0.210 HD
ENDBRANCH   8  10
TORSDOF 1
ENDMDL
MODEL 3
REMARK VINA RESULT:       0.4      2.077      4.037
REMARK  1 active torsions:
REMARK  status: ('A' for Active; 'I' for Inactive)
REMARK    1  A    between atoms: C8_8  and  O10_10 
ROOT
HETATM    1  C1  UNL     1     -33.647   6.432   1.991  1.00 20.00    -0.023 C 
HETATM    2  C2  UNL     1     -32.310   6.530   1.900  1.00 20.00     0.001 C 
HETATM    3  C3  UNL     1     -32.429   8.402   4.174  1.00 20.00     0.003 C 
HETATM    4  C4  UNL     1     -32.205   8.911   2.724  1.00 20.00     0.036 C 
HETATM    5  C5  UNL     1     -33.881   7.987   4.503  1.00 20.00     0.005 C 
HETATM    6  C6  UNL     1     -35.514   6.120   3.778  1.00 20.00     0.014 A 
HETATM    7  C7  UNL     1     -34.243   5.700   3.106  1.00 20.00     0.012 A 
HETATM    8  C8  UNL     1     -31.670   7.871   1.709  1.00 20.00     0.140 C 
HETATM    9  C9  UNL     1     -34.199   6.504   4.410  1.00 20.00    -0.006 A 
ENDROOT
BRANCH   8  10
HETATM   10  O10 UNL     1     -31.833   8.334   0.375  1.00 20.00    -0.392 OA
HETATM   11  H24 UNL     1     -31.502   9.246   0.353  1.00 20.00     0.210 HD
ENDBRANCH   8  10
TORSDOF 1
ENDMDL
MODEL 4
REMARK VINA RESULT:       0.5      1.942      3.535
REMARK  1 active torsions:
REMARK  status: ('A' for Active; 'I' for Inactive)
REMARK    1  A    between atoms: C8_8  and  O10_10 
ROOT
HETATM    1  C1  UNL     1     -33.630   7.593   3.841  1.00 20.00    -0.023 C 
HETATM    2  C2  UNL     1     -33.362   8.260   2.706  1.00 20.00     0.001 C 
HETATM    3  C3  UNL     1     -32.997   5.637   1.411  1.00 20.00     0.003 C 
HETATM    4  C4  UNL     1     -31.779   6.521   1.795  1.00 20.00     0.036 C 
HETATM    5  C5  UNL     1     -33.670   4.905   2.594  1.00 20.00     0.005 C 
HETATM    6  C6  UNL     1     -35.030   5.569   4.690  1.00 20.00     0.014 A 
HETATM    7  C7  UNL     1     -34.898   6.879   3.976  1.00 20.00     0.012 A 
HETATM    8  C8  UNL     1     -32.065   8.030   1.992  1.00 20.00     0.140 C 
HETATM    9  C9  UNL     1     -34.904   5.565   3.186  1.00 20.00    -0.006 A 
ENDROOT
BRANCH   8  10
HETATM   10  O10 UNL     1     -30.987   8.667   2.666  1.00 20.00    -0.392 OA
HETATM   11  H24 UNL     1     -30.408   7.961   2.996  1.00 20.00     0.210 HD
ENDBRANCH   8  10
TORSDOF 1
ENDMDL
MODEL 5
REMARK VINA RESULT:       0.6      1.334      2.864
REMARK  1 active torsions:
REMARK  status: ('A' for Active; 'I' for Inactive)
REMARK    1  A    between atoms: C8_8  and  O10_10 
ROOT
HETATM    1  C1  UNL     1     -33.492   5.920   3.210  1.00 20.00    -0.023 C 
HETATM    2  C2  UNL     1     -34.249   7.006   3.443  1.00 20.00     0.001 C 
HETATM    3  C3  UNL     1     -32.228   8.563   1.968  1.00 20.00     0.003 C 
HETATM    4  C4  UNL     1     -32.310   8.616   3.518  1.00 20.00     0.036 C 
HETATM    5  C5  UNL     1     -31.588   7.281   1.392  1.00 20.00     0.005 C 
HETATM    6  C6  UNL     1     -32.186   4.769   1.274  1.00 20.00     0.014 A 
HETATM    7  C7  UNL     1     -33.431   5.359   1.862  1.00 20.00     0.012 A 
HETATM    8  C8  UNL     1     -33.660   8.191   4.145  1.00 20.00     0.140 C 
HETATM    9  C9  UNL     1     -32.544   6.193   0.932  1.00 20.00    -0.006 A 
ENDROOT
BRANCH   8  10
HETATM   10  O10 UNL     1     -33.516   7.944   5.539  1.00 20.00    -0.392 OA
HETATM   11  H24 UNL     1     -34.096   7.195   5.751  1.00 20.00     0.210 HD
ENDBRANCH   8  10
TORSDOF 1
ENDMDL
MODEL 6
REMARK VINA RESULT:       0.7      1.921      3.760
REMARK  1 active torsions:
REMARK  status: ('A' for Active; 'I' for Inactive)
REMARK    1  A    between atoms: C8_8  and  O10_10 
ROOT
HETATM    1  C1  UNL     1     -33.843   5.150   2.690  1.00 20.00    -0.023 C 
HETATM    2  C2  UNL     1     -32.514   4.968   2.613  1.00 20.00     0.001 C 
HETATM    3  C3  UNL     1     -32.253   7.903   2.552  1.00 20.00     0.003 C 
HETATM    4  C4  UNL     1     -32.083   7.054   1.263  1.00 20.00     0.036 C 
HETATM    5  C5  UNL     1     -33.713   8.093   3.021  1.00 20.00     0.005 C 
HETATM    6  C6  UNL     1     -35.594   6.593   3.966  1.00 20.00     0.014 A 
HETATM    7  C7  UNL     1     -34.431   5.649   3.932  1.00 20.00     0.012 A 
HETATM    8  C8  UNL     1     -31.744   5.558   1.471  1.00 20.00     0.140 C 
HETATM    9  C9  UNL     1     -34.201   7.154   4.112  1.00 20.00    -0.006 A 
ENDROOT
BRANCH   8  10
HETATM   10  O10 UNL     1     -31.954   4.819   0.274  1.00 20.00    -0.392 OA
HETATM   11  H24 UNL     1     -32.777   5.152  -0.119  1.00 20.00     0.210 HD
ENDBRANCH   8  10
TORSDOF 1
ENDMDL
MODEL 7
REMARK VINA RESULT:       1.4      1.642      3.593
REMARK  1 active torsions:
REMARK  status: ('A' for Active; 'I' for Inactive)
REMARK    1  A    between atoms: C8_8  and  O10_10 
ROOT
HETATM    1  C1  UNL     1     -34.377   5.503   4.642  1.00 20.00    -0.023 C 
HETATM    2  C2  UNL     1     -35.010   6.450   3.928  1.00 20.00     0.001 C 
HETATM    3  C3  UNL     1     -32.956   6.061   1.850  1.00 20.00     0.003 C 
HETATM    4  C4  UNL     1     -32.925   7.297   2.789  1.00 20.00     0.036 C 
HETATM    5  C5  UNL     1     -32.482   4.740   2.495  1.00 20.00     0.005 C 
HETATM    6  C6  UNL     1     -33.323   3.141   4.344  1.00 20.00     0.014 A 
HETATM    7  C7  UNL     1     -34.463   4.106   4.223  1.00 20.00     0.012 A 
HETATM    8  C8  UNL     1     -34.264   7.667   3.475  1.00 20.00     0.140 C 
HETATM    9  C9  UNL     1     -33.567   3.812   3.015  1.00 20.00    -0.006 A 
ENDROOT
BRANCH   8  10
HETATM   10  O10 UNL     1     -34.048   8.570   4.553  1.00 20.00    -0.392 OA
HETATM   11  H24 UNL     1     -33.118   8.477   4.813  1.00 20.00     0.210 HD
ENDBRANCH   8  10
TORSDOF 1
ENDMDL
MODEL 8
REMARK VINA RESULT:       1.6      1.991      3.193
REMARK  1 active torsions:
REMARK  status: ('A' for Active; 'I' for Inactive)
REMARK    1  A    between atoms: C8_8  and  O10_10 
ROOT
HETATM    1  C1  UNL     1     -32.167   7.559   2.768  1.00 20.00    -0.023 C 
HETATM    2  C2  UNL     1     -32.610   7.138   1.571  1.00 20.00     0.001 C 
HETATM    3  C3  UNL     1     -34.659   5.597   3.025  1.00 20.00     0.003 C 
HETATM    4  C4  UNL     1     -33.416   4.900   2.409  1.00 20.00     0.036 C 
HETATM    5  C5  UNL     1     -34.389   6.376   4.332  1.00 20.00     0.005 C 
HETATM    6  C6  UNL     1     -33.073   8.491   5.024  1.00 20.00     0.014 A 
HETATM    7  C7  UNL     1     -32.955   8.525   3.531  1.00 20.00     0.012 A 
HETATM    8  C8  UNL     1     -32.691   5.671   1.278  1.00 20.00     0.140 C 
HETATM    9  C9  UNL     1     -34.173   7.874   4.196  1.00 20.00    -0.006 A 
ENDROOT
BRANCH   8  10
HETATM   10  O10 UNL     1     -31.401   5.123   1.037  1.00 20.00    -0.392 OA
HETATM   11  H24 UNL     1     -31.359   4.916   0.089  1.00 20.00     0.210 HD
ENDBRANCH   8  10
TORSDOF 1
ENDMDL
MODEL 9
REMARK VINA RESULT:       1.7      1.933      3.914
REMARK  1 active torsions:
REMARK  status: ('A' for Active; 'I' for Inactive)
REMARK    1  A    between atoms: C8_8  and  O10_10 
ROOT
HETATM    1  C1  UNL     1     -32.586   6.233   1.520  1.00 20.00    -0.023 C 
HETATM    2  C2  UNL     1     -31.765   7.242   1.858  1.00 20.00     0.001 C 
HETATM    3  C3  UNL     1     -33.728   7.961   3.936  1.00 20.00     0.003 C 
HETATM    4  C4  UNL     1     -33.610   8.782   2.623  1.00 20.00     0.036 C 
HETATM    5  C5  UNL     1     -34.450   6.603   3.794  1.00 20.00     0.005 C 
HETATM    6  C6  UNL     1     -33.994   4.343   2.625  1.00 20.00     0.014 A 
HETATM    7  C7  UNL     1     -32.706   5.075   2.402  1.00 20.00     0.012 A 
HETATM    8  C8  UNL     1     -32.272   8.652   1.853  1.00 20.00     0.140 C 
HETATM    9  C9  UNL     1     -33.565   5.378   3.635  1.00 20.00    -0.006 A 
ENDROOT
BRANCH   8  10
HETATM   10  O10 UNL     1     -32.400   9.149   0.527  1.00 20.00    -0.392 OA
HETATM   11  H24 UNL     1     -31.791   9.900   0.451  1.00 20.00     0.210 HD
ENDBRANCH   8  10
TORSDOF 1
ENDMDL
