MODEL 1
REMARK VINA RESULT:       0.0      0.000      0.000
REMARK  0 active torsions:
REMARK  status: ('A' for Active; 'I' for Inactive)
ROOT
HETATM    1  C1  UNL     1     -32.214   8.112   2.661  1.00 20.00    -0.029 C 
HETATM    2  C2  UNL     1     -32.119   7.202   1.678  1.00 20.00    -0.014 C 
HETATM    3  C3  UNL     1     -33.527   5.366   2.775  1.00 20.00     0.143 C 
HETATM    4  C4  UNL     1     -33.042   8.041   3.908  1.00 20.00     0.032 C 
HETATM    5  C5  UNL     1     -34.985   6.477   4.623  1.00 20.00     0.018 A 
HETATM    6  C6  UNL     1     -34.704   6.180   3.173  1.00 20.00     0.061 A 
HETATM    7  C7  UNL     1     -34.448   7.558   3.727  1.00 20.00     0.001 A 
HETATM    8  C8  UNL     1     -32.764   5.836   1.523  1.00 20.00     0.031 C 
HETATM    9  C9  UNL     1     -33.725   5.864   0.323  1.00 20.00     0.027 C 
HETATM   10  C10 UNL     1     -31.646   4.815   1.227  1.00 20.00     0.027 C 
HETATM   11  O11 UNL     1     -33.219   4.381   3.438  1.00 20.00    -0.296 OA
ENDROOT
TORSDOF 0
ENDMDL
MODEL 2
REMARK VINA RESULT:       1.5      1.443      1.894
REMARK  0 active torsions:
REMARK  status: ('A' for Active; 'I' for Inactive)
ROOT
HETATM    1  C1  UNL     1     -32.316   8.600   4.497  1.00 20.00    -0.029 C 
HETATM    2  C2  UNL     1     -31.862   8.693   3.237  1.00 20.00    -0.014 C 
HETATM    3  C3  UNL     1     -33.177   6.729   2.254  1.00 20.00     0.143 C 
HETATM    4  C4  UNL     1     -33.382   7.691   5.030  1.00 20.00     0.032 C 
HETATM    5  C5  UNL     1     -35.169   6.224   3.852  1.00 20.00     0.018 A 
HETATM    6  C6  UNL     1     -34.526   7.064   2.780  1.00 20.00     0.061 A 
HETATM    7  C7  UNL     1     -34.619   7.581   4.192  1.00 20.00     0.001 A 
HETATM    8  C8  UNL     1     -32.235   7.918   1.987  1.00 20.00     0.031 C 
HETATM    9  C9  UNL     1     -32.893   8.872   0.977  1.00 20.00     0.027 C 
HETATM   10  C10 UNL     1     -30.935   7.371   1.363  1.00 20.00     0.027 C 
HETATM   11  O11 UNL     1     -32.877   5.557   2.057  1.00 20.00    -0.296 OA
ENDROOT
TORSDOF 0
ENDMDL
MODEL 3
REMARK VINA RESULT:       1.8      1.763      3.080
REMARK  0 active torsions:
REMARK  status: ('A' for Active; 'I' for Inactive)
ROOT
HETATM    1  C1  UNL     1     -32.579   5.666   1.358  1.00 20.00    -0.029 C 
HETATM    2  C2  UNL     1     -31.900   6.823   1.321  1.00 20.00    -0.014 C 
HETATM    3  C3  UNL     1     -33.507   8.210   2.753  1.00 20.00     0.143 C 
HETATM    4  C4  UNL     1     -33.810   5.342   2.150  1.00 20.00     0.032 C 
HETATM    5  C5  UNL     1     -34.982   6.558   4.121  1.00 20.00     0.018 A 
HETATM    6  C6  UNL     1     -33.675   7.270   3.891  1.00 20.00     0.061 A 
HETATM    7  C7  UNL     1     -33.802   5.802   3.576  1.00 20.00     0.001 A 
HETATM    8  C8  UNL     1     -32.158   8.150   2.013  1.00 20.00     0.031 C 
HETATM    9  C9  UNL     1     -31.019   8.432   3.007  1.00 20.00     0.027 C 
HETATM   10  C10 UNL     1     -32.149   9.255   0.937  1.00 20.00     0.027 C 
HETATM   11  O11 UNL     1     -34.420   8.973   2.457  1.00 20.00    -0.296 OA
ENDROOT
TORSDOF 0
ENDMDL
MODEL 4
REMARK VINA RESULT:       2.0      1.402      3.325
REMARK  0 active torsions:
REMARK  status: ('A' for Active; 'I' for Inactive)
ROOT
HETATM    1  C1  UNL     1     -32.780   5.421   1.649  1.00 20.00    -0.029 C 
HETATM    2  C2  UNL     1     -33.918   5.381   2.359  1.00 20.00    -0.014 C 
HETATM    3  C3  UNL     1     -33.489   7.446   3.810  1.00 20.00     0.143 C 
HETATM    4  C4  UNL     1     -31.718   6.478   1.665  1.00 20.00     0.032 C 
HETATM    5  C5  UNL     1     -31.674   8.888   2.626  1.00 20.00     0.018 A 
HETATM    6  C6  UNL     1     -33.095   8.402   2.744  1.00 20.00     0.061 A 
HETATM    7  C7  UNL     1     -32.211   7.892   1.636  1.00 20.00     0.001 A 
HETATM    8  C8  UNL     1     -34.474   6.336   3.400  1.00 20.00     0.031 C 
HETATM    9  C9  UNL     1     -35.765   6.974   2.863  1.00 20.00     0.027 C 
HETATM   10  C10 UNL     1     -34.825   5.514   4.657  1.00 20.00     0.027 C 
HETATM   11  O11 UNL     1     -33.030   7.575   4.940  1.00 20.00    -0.296 OA
ENDROOT
TORSDOF 0
ENDMDL
MODEL 5
REMARK VINA RESULT:       2.1      1.418      3.304
REMARK  0 active torsions:
REMARK  status: ('A' for Active; 'I' for Inactive)
ROOT
HETATM    1  C1  UNL     1     -32.416   6.692   1.684  1.00 20.00    -0.029 C 
HETATM    2  C2  UNL     1     -32.793   7.710   2.474  1.00 20.00    -0.014 C 
HETATM    3  C3  UNL     1     -34.547   6.446   3.846  1.00 20.00     0.143 C 
HETATM    4  C4  UNL     1     -32.838   5.257   1.763  1.00 20.00     0.032 C 
HETATM    5  C5  UNL     1     -34.063   3.900   3.604  1.00 20.00     0.018 A 
HETATM    6  C6  UNL     1     -33.745   5.246   4.200  1.00 20.00     0.061 A 
HETATM    7  C7  UNL     1     -32.853   4.659   3.137  1.00 20.00     0.001 A 
HETATM    8  C8  UNL     1     -33.761   7.754   3.643  1.00 20.00     0.031 C 
HETATM    9  C9  UNL     1     -32.987   8.088   4.929  1.00 20.00     0.027 C 
HETATM   10  C10 UNL     1     -34.773   8.888   3.377  1.00 20.00     0.027 C 
HETATM   11  O11 UNL     1     -35.764   6.351   3.735  1.00 20.00    -0.296 OA
ENDROOT
TORSDOF 0
ENDMDL
MODEL 6
REMARK VINA RESULT:       2.2      1.592      3.812
REMARK  0 active torsions:
REMARK  status: ('A' for Active; 'I' for Inactive)
ROOT
HETATM    1  C1  UNL     1     -33.861   4.303   4.013  1.00 20.00    -0.029 C 
HETATM    2  C2  UNL     1     -34.553   5.414   4.309  1.00 20.00    -0.014 C 
HETATM    3  C3  UNL     1     -33.246   7.038   2.823  1.00 20.00     0.143 C 
HETATM    4  C4  UNL     1     -32.774   4.135   2.994  1.00 20.00     0.032 C 
HETATM    5  C5  UNL     1     -31.982   5.635   1.031  1.00 20.00     0.018 A 
HETATM    6  C6  UNL     1     -33.249   6.253   1.561  1.00 20.00     0.061 A 
HETATM    7  C7  UNL     1     -33.033   4.765   1.660  1.00 20.00     0.001 A 
HETATM    8  C8  UNL     1     -34.448   6.826   3.760  1.00 20.00     0.031 C 
HETATM    9  C9  UNL     1     -35.745   7.174   3.012  1.00 20.00     0.027 C 
HETATM   10  C10 UNL     1     -34.304   7.789   4.956  1.00 20.00     0.027 C 
HETATM   11  O11 UNL     1     -32.315   7.801   3.060  1.00 20.00    -0.296 OA
ENDROOT
TORSDOF 0
ENDMDL
MODEL 7
REMARK VINA RESULT:       2.4      1.596      2.909
REMARK  0 active torsions:
REMARK  status: ('A' for Active; 'I' for Inactive)
ROOT
HETATM    1  C1  UNL     1     -34.445   6.411   3.693  1.00 20.00    -0.029 C 
HETATM    2  C2  UNL     1     -33.999   5.725   2.629  1.00 20.00    -0.014 C 
HETATM    3  C3  UNL     1     -32.422   7.516   1.703  1.00 20.00     0.143 C 
HETATM    4  C4  UNL     1     -33.985   7.749   4.188  1.00 20.00     0.032 C 
HETATM    5  C5  UNL     1     -31.903   9.192   3.626  1.00 20.00     0.018 A 
HETATM    6  C6  UNL     1     -31.698   7.860   2.954  1.00 20.00     0.061 A 
HETATM    7  C7  UNL     1     -32.501   7.951   4.226  1.00 20.00     0.001 A 
HETATM    8  C8  UNL     1     -32.946   6.073   1.593  1.00 20.00     0.031 C 
HETATM    9  C9  UNL     1     -31.768   5.093   1.720  1.00 20.00     0.027 C 
HETATM   10  C10 UNL     1     -33.577   5.894   0.197  1.00 20.00     0.027 C 
HETATM   11  O11 UNL     1     -32.567   8.368   0.833  1.00 20.00    -0.296 OA
ENDROOT
TORSDOF 0
ENDMDL
