MODEL 1
REMARK VINA RESULT:       4.0      0.000      0.000
REMARK  0 active torsions:
REMARK  status: ('A' for Active; 'I' for Inactive)
ROOT
HETATM    1  C1  UNL     1     -33.591   5.311   3.336  1.00 20.00    -0.082 C 
HETATM    2  C2  UNL     1     -34.277   4.374   4.010  1.00 20.00     0.015 C 
HETATM    3  C3  UNL     1     -32.176   5.072   2.860  1.00 20.00     0.038 C 
HETATM    4  C4  UNL     1     -34.135   6.803   1.451  1.00 20.00     0.018 C 
HETATM    5  C5  UNL     1     -32.008   8.046   1.753  1.00 20.00     0.173 C 
HETATM    6  C6  UNL     1     -34.209   6.652   2.972  1.00 20.00     0.043 C 
HETATM    7  C7  UNL     1     -32.659   6.846   1.041  1.00 20.00     0.014 C 
HETATM    8  C8  UNL     1     -31.956   5.504   1.394  1.00 20.00    -0.009 C 
HETATM    9  C9  UNL     1     -33.498   7.865   3.618  1.00 20.00     0.125 C 
HETATM   10  C10 UNL     1     -32.394   4.385   0.438  1.00 20.00     0.011 C 
HETATM   11  C11 UNL     1     -33.484   7.805   5.142  1.00 20.00     0.040 C 
HETATM   12  O12 UNL     1     -32.141   7.984   3.172  1.00 20.00    -0.385 OA
ENDROOT
TORSDOF 0
ENDMDL
MODEL 2
REMARK VINA RESULT:       4.2      1.289      3.940
REMARK  0 active torsions:
REMARK  status: ('A' for Active; 'I' for Inactive)
ROOT
HETATM    1  C1  UNL     1     -32.571   7.728   2.139  1.00 20.00    -0.082 C 
HETATM    2  C2  UNL     1     -32.035   8.696   1.379  1.00 20.00     0.015 C 
HETATM    3  C3  UNL     1     -32.242   7.598   3.609  1.00 20.00     0.038 C 
HETATM    4  C4  UNL     1     -34.853   6.836   2.415  1.00 20.00     0.018 C 
HETATM    5  C5  UNL     1     -34.009   4.963   3.808  1.00 20.00     0.173 C 
HETATM    6  C6  UNL     1     -33.574   6.730   1.580  1.00 20.00     0.043 C 
HETATM    7  C7  UNL     1     -34.528   6.411   3.851  1.00 20.00     0.014 C 
HETATM    8  C8  UNL     1     -33.494   7.385   4.487  1.00 20.00    -0.009 C 
HETATM    9  C9  UNL     1     -33.086   5.262   1.619  1.00 20.00     0.125 C 
HETATM   10  C10 UNL     1     -34.145   8.735   4.822  1.00 20.00     0.011 C 
HETATM   11  C11 UNL     1     -31.793   5.045   0.840  1.00 20.00     0.040 C 
HETATM   12  O12 UNL     1     -32.870   4.810   2.962  1.00 20.00    -0.385 OA
ENDROOT
TORSDOF 0
ENDMDL
MODEL 3
REMARK VINA RESULT:       4.3      1.206      2.821
REMARK  0 active torsions:
REMARK  status: ('A' for Active; 'I' for Inactive)
ROOT
HETATM    1  C1  UNL     1     -33.076   5.762   1.630  1.00 20.00    -0.082 C 
HETATM    2  C2  UNL     1     -33.071   4.950   0.561  1.00 20.00     0.015 C 
HETATM    3  C3  UNL     1     -31.855   6.560   2.029  1.00 20.00     0.038 C 
HETATM    4  C4  UNL     1     -34.650   7.459   2.482  1.00 20.00     0.018 C 
HETATM    5  C5  UNL     1     -33.369   7.661   4.598  1.00 20.00     0.173 C 
HETATM    6  C6  UNL     1     -34.322   5.963   2.480  1.00 20.00     0.043 C 
HETATM    7  C7  UNL     1     -33.498   8.204   3.164  1.00 20.00     0.014 C 
HETATM    8  C8  UNL     1     -32.181   8.034   2.352  1.00 20.00    -0.009 C 
HETATM    9  C9  UNL     1     -34.161   5.497   3.947  1.00 20.00     0.125 C 
HETATM   10  C10 UNL     1     -32.220   8.866   1.061  1.00 20.00     0.011 C 
HETATM   11  C11 UNL     1     -33.801   4.020   4.066  1.00 20.00     0.040 C 
HETATM   12  O12 UNL     1     -33.155   6.250   4.636  1.00 20.00    -0.385 OA
ENDROOT
TORSDOF 0
ENDMDL
MODEL 4
REMARK VINA RESULT:       4.7      1.207      3.281
REMARK  0 active torsions:
REMARK  status: ('A' for Active; 'I' for Inactive)
ROOT
HETATM    1  C1  UNL     1     -32.587   6.373   1.783  1.00 20.00    -0.082 C 
HETATM    2  C2  UNL     1     -31.801   5.489   1.148  1.00 20.00     0.015 C 
HETATM    3  C3  UNL     1     -34.082   6.174   1.891  1.00 20.00     0.038 C 
HETATM    4  C4  UNL     1     -32.435   7.554   3.942  1.00 20.00     0.018 C 
HETATM    5  C5  UNL     1     -34.384   8.976   3.360  1.00 20.00     0.173 C 
HETATM    6  C6  UNL     1     -32.017   7.605   2.469  1.00 20.00     0.043 C 
HETATM    7  C7  UNL     1     -33.962   7.648   4.013  1.00 20.00     0.014 C 
HETATM    8  C8  UNL     1     -34.618   6.419   3.318  1.00 20.00    -0.009 C 
HETATM    9  C9  UNL     1     -32.512   8.942   1.867  1.00 20.00     0.125 C 
HETATM   10  C10 UNL     1     -34.456   5.153   4.172  1.00 20.00     0.011 C 
HETATM   11  C11 UNL     1     -32.176   9.088   0.387  1.00 20.00     0.040 C 
HETATM   12  O12 UNL     1     -33.930   9.097   2.012  1.00 20.00    -0.385 OA
ENDROOT
TORSDOF 0
ENDMDL
MODEL 5
REMARK VINA RESULT:       4.7      1.279      3.306
REMARK  0 active torsions:
REMARK  status: ('A' for Active; 'I' for Inactive)
ROOT
HETATM    1  C1  UNL     1     -33.631   5.442   3.095  1.00 20.00    -0.082 C 
HETATM    2  C2  UNL     1     -33.890   4.312   3.771  1.00 20.00     0.015 C 
HETATM    3  C3  UNL     1     -34.449   6.697   3.302  1.00 20.00     0.038 C 
HETATM    4  C4  UNL     1     -31.569   6.689   2.572  1.00 20.00     0.018 C 
HETATM    5  C5  UNL     1     -32.805   8.186   1.025  1.00 20.00     0.173 C 
HETATM    6  C6  UNL     1     -32.475   5.543   2.112  1.00 20.00     0.043 C 
HETATM    7  C7  UNL     1     -32.365   7.995   2.487  1.00 20.00     0.014 C 
HETATM    8  C8  UNL     1     -33.576   7.961   3.464  1.00 20.00    -0.009 C 
HETATM    9  C9  UNL     1     -32.914   5.823   0.655  1.00 20.00     0.125 C 
HETATM   10  C10 UNL     1     -33.112   8.104   4.921  1.00 20.00     0.011 C 
HETATM   11  C11 UNL     1     -33.850   4.754   0.100  1.00 20.00     0.040 C 
HETATM   12  O12 UNL     1     -33.574   7.089   0.533  1.00 20.00    -0.385 OA
ENDROOT
TORSDOF 0
ENDMDL
MODEL 6
REMARK VINA RESULT:       6.4      1.074      2.825
REMARK  0 active torsions:
REMARK  status: ('A' for Active; 'I' for Inactive)
ROOT
HETATM    1  C1  UNL     1     -33.433   7.482   4.002  1.00 20.00    -0.082 C 
HETATM    2  C2  UNL     1     -33.761   8.418   4.906  1.00 20.00     0.015 C 
HETATM    3  C3  UNL     1     -32.939   6.115   4.416  1.00 20.00     0.038 C 
HETATM    4  C4  UNL     1     -34.505   6.639   1.947  1.00 20.00     0.018 C 
HETATM    5  C5  UNL     1     -32.484   5.317   1.374  1.00 20.00     0.173 C 
HETATM    6  C6  UNL     1     -33.580   7.723   2.507  1.00 20.00     0.043 C 
HETATM    7  C7  UNL     1     -33.822   5.280   2.133  1.00 20.00     0.014 C 
HETATM    8  C8  UNL     1     -33.629   4.968   3.646  1.00 20.00    -0.009 C 
HETATM    9  C9  UNL     1     -32.242   7.672   1.730  1.00 20.00     0.125 C 
HETATM   10  C10 UNL     1     -34.967   4.611   4.309  1.00 20.00     0.011 C 
HETATM   11  C11 UNL     1     -31.227   8.696   2.227  1.00 20.00     0.040 C 
HETATM   12  O12 UNL     1     -31.633   6.377   1.807  1.00 20.00    -0.385 OA
ENDROOT
TORSDOF 0
ENDMDL
