MODEL 1
REMARK VINA RESULT:      -0.5      0.000      0.000
REMARK  4 active torsions:
REMARK  status: ('A' for Active; 'I' for Inactive)
REMARK    1  A    between atoms: C1_1  and  C7_7 
REMARK    2  A    between atoms: C7_7  and  N10_10 
REMARK    3  A    between atoms: C8_8  and  C9_9 
REMARK    4  A    between atoms: C8_8  and  N10_10 
ROOT
HETATM    1  C2  UNL     1     -32.758   5.705   1.463  1.00 20.00     0.043 C 
HETATM    2  C8  UNL     1     -33.426   6.924   2.103  1.00 20.00     0.226 C 
ENDROOT
BRANCH   2   3
HETATM    3  C9  UNL     1     -34.131   6.651   3.472  1.00 20.00    -0.021 C 
HETATM    4  C3  UNL     1     -33.646   7.609   4.576  1.00 20.00     0.016 C 
HETATM    5  C4  UNL     1     -35.659   6.804   3.330  1.00 20.00     0.016 C 
HETATM    6  C5  UNL     1     -33.848   5.201   3.925  1.00 20.00     0.016 C 
ENDBRANCH   2   3
BRANCH   2   7
HETATM    7  N10 UNL     1     -32.453   7.991   2.210  1.00 20.00     0.095 N 
HETATM    8  C6  UNL     1     -31.188   7.615   1.567  1.00 20.00     0.310 C 
BRANCH   7   9
HETATM    9  C7  UNL     1     -32.965   9.231   1.617  1.00 20.00     0.341 C 
BRANCH   9  10
HETATM   10  C1  UNL     1     -32.272   9.449   0.302  1.00 20.00     0.261 C 
HETATM   11  O11 UNL     1     -32.868   9.816  -0.708  1.00 20.00    -0.305 OA
ENDBRANCH   9  10
ENDBRANCH   7   9
ENDBRANCH   2   7
TORSDOF 4
ENDMDL
MODEL 2
REMARK VINA RESULT:      -0.4      0.037      1.299
REMARK  4 active torsions:
REMARK  status: ('A' for Active; 'I' for Inactive)
REMARK    1  A    between atoms: C1_1  and  C7_7 
REMARK    2  A    between atoms: C7_7  and  N10_10 
REMARK    3  A    between atoms: C8_8  and  C9_9 
REMARK    4  A    between atoms: C8_8  and  N10_10 
ROOT
HETATM    1  C2  UNL     1     -32.720   5.684   1.460  1.00 20.00     0.043 C 
HETATM    2  C8  UNL     1     -33.415   6.893   2.089  1.00 20.00     0.226 C 
ENDROOT
BRANCH   2   3
HETATM    3  C9  UNL     1     -34.133   6.611   3.450  1.00 20.00    -0.021 C 
HETATM    4  C3  UNL     1     -35.658   6.797   3.351  1.00 20.00     0.016 C 
HETATM    5  C4  UNL     1     -33.846   5.171   3.921  1.00 20.00     0.016 C 
HETATM    6  C5  UNL     1     -33.593   7.572   4.533  1.00 20.00     0.016 C 
ENDBRANCH   2   3
BRANCH   2   7
HETATM    7  N10 UNL     1     -32.460   7.976   2.208  1.00 20.00     0.095 N 
HETATM    8  C6  UNL     1     -31.182   7.619   1.581  1.00 20.00     0.310 C 
BRANCH   7   9
HETATM    9  C7  UNL     1     -32.984   9.207   1.606  1.00 20.00     0.341 C 
BRANCH   9  10
HETATM   10  C1  UNL     1     -32.268   9.441   0.306  1.00 20.00     0.261 C 
HETATM   11  O11 UNL     1     -32.850   9.803  -0.714  1.00 20.00    -0.305 OA
ENDBRANCH   9  10
ENDBRANCH   7   9
ENDBRANCH   2   7
TORSDOF 4
ENDMDL
MODEL 3
REMARK VINA RESULT:       1.2      2.347      3.898
REMARK  4 active torsions:
REMARK  status: ('A' for Active; 'I' for Inactive)
REMARK    1  A    between atoms: C1_1  and  C7_7 
REMARK    2  A    between atoms: C7_7  and  N10_10 
REMARK    3  A    between atoms: C8_8  and  C9_9 
REMARK    4  A    between atoms: C8_8  and  N10_10 
ROOT
HETATM    1  C2  UNL     1     -33.539   4.365   3.570  1.00 20.00     0.043 C 
HETATM    2  C8  UNL     1     -33.358   5.826   3.149  1.00 20.00     0.226 C 
ENDROOT
BRANCH   2   3
HETATM    3  C9  UNL     1     -32.766   6.034   1.717  1.00 20.00    -0.021 C 
HETATM    4  C3  UNL     1     -33.851   5.979   0.626  1.00 20.00     0.016 C 
HETATM    5  C4  UNL     1     -32.050   7.397   1.625  1.00 20.00     0.016 C 
HETATM    6  C5  UNL     1     -31.719   4.937   1.421  1.00 20.00     0.016 C 
ENDBRANCH   2   3
BRANCH   2   7
HETATM    7  N10 UNL     1     -34.619   6.520   3.308  1.00 20.00     0.095 N 
HETATM    8  C6  UNL     1     -35.491   5.815   4.255  1.00 20.00     0.310 C 
BRANCH   7   9
HETATM    9  C7  UNL     1     -34.406   7.900   3.760  1.00 20.00     0.341 C 
BRANCH   9  10
HETATM   10  C1  UNL     1     -33.556   7.867   4.998  1.00 20.00     0.261 C 
HETATM   11  O11 UNL     1     -32.501   8.490   5.094  1.00 20.00    -0.305 OA
ENDBRANCH   9  10
ENDBRANCH   7   9
ENDBRANCH   2   7
TORSDOF 4
ENDMDL
MODEL 4
REMARK VINA RESULT:       1.5      2.668      4.160
REMARK  4 active torsions:
REMARK  status: ('A' for Active; 'I' for Inactive)
REMARK    1  A    between atoms: C1_1  and  C7_7 
REMARK    2  A    between atoms: C7_7  and  N10_10 
REMARK    3  A    between atoms: C8_8  and  C9_9 
REMARK    4  A    between atoms: C8_8  and  N10_10 
ROOT
HETATM    1  C2  UNL     1     -32.098   8.021   2.063  1.00 20.00     0.043 C 
HETATM    2  C8  UNL     1     -33.186   6.946   2.119  1.00 20.00     0.226 C 
ENDROOT
BRANCH   2   3
HETATM    3  C9  UNL     1     -32.763   5.546   1.567  1.00 20.00    -0.021 C 
HETATM    4  C3  UNL     1     -32.843   4.448   2.644  1.00 20.00     0.016 C 
HETATM    5  C4  UNL     1     -33.667   5.138   0.386  1.00 20.00     0.016 C 
HETATM    6  C5  UNL     1     -31.311   5.609   1.041  1.00 20.00     0.016 C 
ENDBRANCH   2   3
BRANCH   2   7
HETATM    7  N10 UNL     1     -33.685   6.853   3.476  1.00 20.00     0.095 N 
HETATM    8  C6  UNL     1     -33.239   7.998   4.279  1.00 20.00     0.310 C 
BRANCH   7   9
HETATM    9  C7  UNL     1     -35.149   6.771   3.493  1.00 20.00     0.341 C 
BRANCH   9  10
HETATM   10  C1  UNL     1     -35.558   5.788   4.552  1.00 20.00     0.261 C 
HETATM   11  O11 UNL     1     -35.197   4.614   4.540  1.00 20.00    -0.305 OA
ENDBRANCH   9  10
ENDBRANCH   7   9
ENDBRANCH   2   7
TORSDOF 4
ENDMDL
MODEL 5
REMARK VINA RESULT:       1.5      2.677      4.258
REMARK  4 active torsions:
REMARK  status: ('A' for Active; 'I' for Inactive)
REMARK    1  A    between atoms: C1_1  and  C7_7 
REMARK    2  A    between atoms: C7_7  and  N10_10 
REMARK    3  A    between atoms: C8_8  and  C9_9 
REMARK    4  A    between atoms: C8_8  and  N10_10 
ROOT
HETATM    1  C2  UNL     1     -32.069   8.006   2.007  1.00 20.00     0.043 C 
HETATM    2  C8  UNL     1     -33.168   6.942   2.060  1.00 20.00     0.226 C 
ENDROOT
BRANCH   2   3
HETATM    3  C9  UNL     1     -32.762   5.541   1.496  1.00 20.00    -0.021 C 
HETATM    4  C3  UNL     1     -33.684   5.086   0.349  1.00 20.00     0.016 C 
HETATM    5  C4  UNL     1     -31.312   5.571   0.973  1.00 20.00     0.016 C 
HETATM    6  C5  UNL     1     -32.829   4.486   2.623  1.00 20.00     0.016 C 
ENDBRANCH   2   3
BRANCH   2   7
HETATM    7  N10 UNL     1     -33.663   6.844   3.417  1.00 20.00     0.095 N 
HETATM    8  C6  UNL     1     -33.258   8.012   4.209  1.00 20.00     0.310 C 
BRANCH   7   9
HETATM    9  C7  UNL     1     -35.124   6.712   3.436  1.00 20.00     0.341 C 
BRANCH   9  10
HETATM   10  C1  UNL     1     -35.506   5.820   4.582  1.00 20.00     0.261 C 
HETATM   11  O11 UNL     1     -35.291   4.610   4.580  1.00 20.00    -0.305 OA
ENDBRANCH   9  10
ENDBRANCH   7   9
ENDBRANCH   2   7
TORSDOF 4
ENDMDL
MODEL 6
REMARK VINA RESULT:       1.5      2.675      4.212
REMARK  4 active torsions:
REMARK  status: ('A' for Active; 'I' for Inactive)
REMARK    1  A    between atoms: C1_1  and  C7_7 
REMARK    2  A    between atoms: C7_7  and  N10_10 
REMARK    3  A    between atoms: C8_8  and  C9_9 
REMARK    4  A    between atoms: C8_8  and  N10_10 
ROOT
HETATM    1  C2  UNL     1     -32.071   8.013   2.010  1.00 20.00     0.043 C 
HETATM    2  C8  UNL     1     -33.161   6.940   2.065  1.00 20.00     0.226 C 
ENDROOT
BRANCH   2   3
HETATM    3  C9  UNL     1     -32.740   5.539   1.511  1.00 20.00    -0.021 C 
HETATM    4  C3  UNL     1     -31.296   5.536   0.976  1.00 20.00     0.016 C 
HETATM    5  C4  UNL     1     -32.854   4.468   2.614  1.00 20.00     0.016 C 
HETATM    6  C5  UNL     1     -33.687   5.127   0.361  1.00 20.00     0.016 C 
ENDBRANCH   2   3
BRANCH   2   7
HETATM    7  N10 UNL     1     -33.659   6.845   3.422  1.00 20.00     0.095 N 
HETATM    8  C6  UNL     1     -33.250   8.011   4.214  1.00 20.00     0.310 C 
BRANCH   7   9
HETATM    9  C7  UNL     1     -35.121   6.721   3.436  1.00 20.00     0.341 C 
BRANCH   9  10
HETATM   10  C1  UNL     1     -35.509   5.823   4.577  1.00 20.00     0.261 C 
HETATM   11  O11 UNL     1     -35.292   4.614   4.572  1.00 20.00    -0.305 OA
ENDBRANCH   9  10
ENDBRANCH   7   9
ENDBRANCH   2   7
TORSDOF 4
ENDMDL
MODEL 7
REMARK VINA RESULT:       1.5      3.043      4.289
REMARK  4 active torsions:
REMARK  status: ('A' for Active; 'I' for Inactive)
REMARK    1  A    between atoms: C1_1  and  C7_7 
REMARK    2  A    between atoms: C7_7  and  N10_10 
REMARK    3  A    between atoms: C8_8  and  C9_9 
REMARK    4  A    between atoms: C8_8  and  N10_10 
ROOT
HETATM    1  C2  UNL     1     -32.283   7.622   1.837  1.00 20.00     0.043 C 
HETATM    2  C8  UNL     1     -32.885   6.799   2.979  1.00 20.00     0.226 C 
ENDROOT
BRANCH   2   3
HETATM    3  C9  UNL     1     -34.014   7.516   3.789  1.00 20.00    -0.021 C 
HETATM    4  C3  UNL     1     -35.258   6.625   3.966  1.00 20.00     0.016 C 
HETATM    5  C4  UNL     1     -33.501   7.920   5.185  1.00 20.00     0.016 C 
HETATM    6  C5  UNL     1     -34.441   8.809   3.057  1.00 20.00     0.016 C 
ENDBRANCH   2   3
BRANCH   2   7
HETATM    7  N10 UNL     1     -33.335   5.526   2.454  1.00 20.00     0.095 N 
HETATM    8  C6  UNL     1     -33.088   5.437   1.010  1.00 20.00     0.310 C 
BRANCH   7   9
HETATM    9  C7  UNL     1     -32.675   4.412   3.143  1.00 20.00     0.341 C 
BRANCH   9  10
HETATM   10  C1  UNL     1     -33.675   3.757   4.053  1.00 20.00     0.261 C 
HETATM   11  O11 UNL     1     -33.370   2.864   4.839  1.00 20.00    -0.305 OA
ENDBRANCH   9  10
ENDBRANCH   7   9
ENDBRANCH   2   7
TORSDOF 4
ENDMDL
MODEL 8
REMARK VINA RESULT:       1.8      1.210      1.970
REMARK  4 active torsions:
REMARK  status: ('A' for Active; 'I' for Inactive)
REMARK    1  A    between atoms: C1_1  and  C7_7 
REMARK    2  A    between atoms: C7_7  and  N10_10 
REMARK    3  A    between atoms: C8_8  and  C9_9 
REMARK    4  A    between atoms: C8_8  and  N10_10 
ROOT
HETATM    1  C2  UNL     1     -33.417   4.201   3.240  1.00 20.00     0.043 C 
HETATM    2  C8  UNL     1     -33.914   5.553   2.722  1.00 20.00     0.226 C 
ENDROOT
BRANCH   2   3
HETATM    3  C9  UNL     1     -34.824   6.349   3.713  1.00 20.00    -0.021 C 
HETATM    4  C3  UNL     1     -36.018   7.011   3.001  1.00 20.00     0.016 C 
HETATM    5  C4  UNL     1     -35.368   5.415   4.812  1.00 20.00     0.016 C 
HETATM    6  C5  UNL     1     -33.997   7.454   4.408  1.00 20.00     0.016 C 
ENDBRANCH   2   3
BRANCH   2   7
HETATM    7  N10 UNL     1     -32.775   6.341   2.297  1.00 20.00     0.095 N 
HETATM    8  C6  UNL     1     -31.744   5.490   1.693  1.00 20.00     0.310 C 
BRANCH   7   9
HETATM    9  C7  UNL     1     -33.182   7.382   1.347  1.00 20.00     0.341 C 
BRANCH   9  10
HETATM   10  C1  UNL     1     -32.117   8.441   1.319  1.00 20.00     0.261 C 
HETATM   11  O11 UNL     1     -32.231   9.478   0.671  1.00 20.00    -0.305 OA
ENDBRANCH   9  10
ENDBRANCH   7   9
ENDBRANCH   2   7
TORSDOF 4
ENDMDL
MODEL 9
REMARK VINA RESULT:       2.1      2.719      4.518
REMARK  4 active torsions:
REMARK  status: ('A' for Active; 'I' for Inactive)
REMARK    1  A    between atoms: C1_1  and  C7_7 
REMARK    2  A    between atoms: C7_7  and  N10_10 
REMARK    3  A    between atoms: C8_8  and  C9_9 
REMARK    4  A    between atoms: C8_8  and  N10_10 
ROOT
HETATM    1  C2  UNL     1     -34.260   9.174   2.877  1.00 20.00     0.043 C 
HETATM    2  C8  UNL     1     -33.670   7.799   2.556  1.00 20.00     0.226 C 
ENDROOT
BRANCH   2   3
HETATM    3  C9  UNL     1     -32.282   7.825   1.835  1.00 20.00    -0.021 C 
HETATM    4  C3  UNL     1     -31.883   6.440   1.294  1.00 20.00     0.016 C 
HETATM    5  C4  UNL     1     -32.307   8.820   0.658  1.00 20.00     0.016 C 
HETATM    6  C5  UNL     1     -31.191   8.297   2.822  1.00 20.00     0.016 C 
ENDBRANCH   2   3
BRANCH   2   7
HETATM    7  N10 UNL     1     -33.622   7.013   3.772  1.00 20.00     0.095 N 
HETATM    8  C6  UNL     1     -33.796   7.864   4.955  1.00 20.00     0.310 C 
BRANCH   7   9
HETATM    9  C7  UNL     1     -34.646   5.962   3.758  1.00 20.00     0.341 C 
BRANCH   9  10
HETATM   10  C1  UNL     1     -33.957   4.630   3.667  1.00 20.00     0.261 C 
HETATM   11  O11 UNL     1     -34.182   3.714   4.454  1.00 20.00    -0.305 OA
ENDBRANCH   9  10
ENDBRANCH   7   9
ENDBRANCH   2   7
TORSDOF 4
ENDMDL
