MODEL 1
REMARK VINA RESULT:      -2.7      0.000      0.000
REMARK  4 active torsions:
REMARK  status: ('A' for Active; 'I' for Inactive)
REMARK    1  A    between atoms: C1_1  and  C3_3 
REMARK    2  A    between atoms: C3_3  and  N6_6 
REMARK    3  A    between atoms: C4_4  and  C5_5 
REMARK    4  A    between atoms: C4_4  and  N6_6 
ROOT
HETATM    1  C4  UNL     1     -33.811   5.738   3.347  1.00 20.00     0.389 C 
ENDROOT
BRANCH   1   2
HETATM    2  C5  UNL     1     -35.050   6.322   3.976  1.00 20.00     0.413 C 
HETATM    3  F8  UNL     1     -35.679   5.394   4.731  1.00 20.00    -0.169 F 
HETATM    4  F9  UNL     1     -34.751   7.366   4.777  1.00 20.00    -0.169 F 
HETATM    5  F10 UNL     1     -35.924   6.749   3.040  1.00 20.00    -0.169 F 
ENDBRANCH   1   2
BRANCH   1   6
HETATM    6  N6  UNL     1     -33.385   6.508   2.179  1.00 20.00     0.099 N 
HETATM    7  C2  UNL     1     -32.574   5.678   1.287  1.00 20.00     0.310 C 
BRANCH   6   8
HETATM    8  C3  UNL     1     -32.636   7.694   2.594  1.00 20.00     0.341 C 
BRANCH   8   9
HETATM    9  C1  UNL     1     -31.873   8.212   1.408  1.00 20.00     0.261 C 
HETATM   10  O7  UNL     1     -32.250   9.178   0.749  1.00 20.00    -0.305 OA
ENDBRANCH   8   9
ENDBRANCH   6   8
ENDBRANCH   1   6
TORSDOF 4
ENDMDL
MODEL 2
REMARK VINA RESULT:      -2.7      0.039      1.200
REMARK  4 active torsions:
REMARK  status: ('A' for Active; 'I' for Inactive)
REMARK    1  A    between atoms: C1_1  and  C3_3 
REMARK    2  A    between atoms: C3_3  and  N6_6 
REMARK    3  A    between atoms: C4_4  and  C5_5 
REMARK    4  A    between atoms: C4_4  and  N6_6 
ROOT
HETATM    1  C4  UNL     1     -33.784   5.749   3.334  1.00 20.00     0.389 C 
ENDROOT
BRANCH   1   2
HETATM    2  C5  UNL     1     -35.022   6.334   3.965  1.00 20.00     0.413 C 
HETATM    3  F8  UNL     1     -34.701   7.392   4.742  1.00 20.00    -0.169 F 
HETATM    4  F9  UNL     1     -35.897   6.762   3.031  1.00 20.00    -0.169 F 
HETATM    5  F10 UNL     1     -35.651   5.430   4.746  1.00 20.00    -0.169 F 
ENDBRANCH   1   2
BRANCH   1   6
HETATM    6  N6  UNL     1     -33.361   6.517   2.163  1.00 20.00     0.099 N 
HETATM    7  C2  UNL     1     -32.557   5.684   1.268  1.00 20.00     0.310 C 
BRANCH   6   8
HETATM    8  C3  UNL     1     -32.607   7.701   2.573  1.00 20.00     0.341 C 
BRANCH   8   9
HETATM    9  C1  UNL     1     -31.869   8.231   1.377  1.00 20.00     0.261 C 
HETATM   10  O7  UNL     1     -32.252   9.214   0.747  1.00 20.00    -0.305 OA
ENDBRANCH   8   9
ENDBRANCH   6   8
ENDBRANCH   1   6
TORSDOF 4
ENDMDL
MODEL 3
REMARK VINA RESULT:      -2.7      0.039      1.192
REMARK  4 active torsions:
REMARK  status: ('A' for Active; 'I' for Inactive)
REMARK    1  A    between atoms: C1_1  and  C3_3 
REMARK    2  A    between atoms: C3_3  and  N6_6 
REMARK    3  A    between atoms: C4_4  and  C5_5 
REMARK    4  A    between atoms: C4_4  and  N6_6 
ROOT
HETATM    1  C4  UNL     1     -33.780   5.743   3.334  1.00 20.00     0.389 C 
ENDROOT
BRANCH   1   2
HETATM    2  C5  UNL     1     -35.014   6.331   3.970  1.00 20.00     0.413 C 
HETATM    3  F8  UNL     1     -35.881   6.751   3.021  1.00 20.00    -0.169 F 
HETATM    4  F9  UNL     1     -35.655   5.423   4.736  1.00 20.00    -0.169 F 
HETATM    5  F10 UNL     1     -34.710   7.394   4.745  1.00 20.00    -0.169 F 
ENDBRANCH   1   2
BRANCH   1   6
HETATM    6  N6  UNL     1     -33.358   6.512   2.163  1.00 20.00     0.099 N 
HETATM    7  C2  UNL     1     -32.548   5.682   1.272  1.00 20.00     0.310 C 
BRANCH   6   8
HETATM    8  C3  UNL     1     -32.613   7.701   2.574  1.00 20.00     0.341 C 
BRANCH   8   9
HETATM    9  C1  UNL     1     -31.872   8.232   1.380  1.00 20.00     0.261 C 
HETATM   10  O7  UNL     1     -32.258   9.210   0.744  1.00 20.00    -0.305 OA
ENDBRANCH   8   9
ENDBRANCH   6   8
ENDBRANCH   1   6
TORSDOF 4
ENDMDL
MODEL 4
REMARK VINA RESULT:      -2.2      1.002      1.030
REMARK  4 active torsions:
REMARK  status: ('A' for Active; 'I' for Inactive)
REMARK    1  A    between atoms: C1_1  and  C3_3 
REMARK    2  A    between atoms: C3_3  and  N6_6 
REMARK    3  A    between atoms: C4_4  and  C5_5 
REMARK    4  A    between atoms: C4_4  and  N6_6 
ROOT
HETATM    1  C4  UNL     1     -33.321   6.400   3.316  1.00 20.00     0.389 C 
ENDROOT
BRANCH   1   2
HETATM    2  C5  UNL     1     -34.351   7.282   3.976  1.00 20.00     0.413 C 
HETATM    3  F8  UNL     1     -35.408   6.546   4.387  1.00 20.00    -0.169 F 
HETATM    4  F9  UNL     1     -33.843   7.909   5.057  1.00 20.00    -0.169 F 
HETATM    5  F10 UNL     1     -34.813   8.221   3.124  1.00 20.00    -0.169 F 
ENDBRANCH   1   2
BRANCH   1   6
HETATM    6  N6  UNL     1     -32.996   6.865   1.968  1.00 20.00     0.099 N 
HETATM    7  C2  UNL     1     -32.506   5.757   1.148  1.00 20.00     0.310 C 
BRANCH   6   8
HETATM    8  C3  UNL     1     -32.005   7.938   2.022  1.00 20.00     0.341 C 
BRANCH   8   9
HETATM    9  C1  UNL     1     -32.062   8.703   0.731  1.00 20.00     0.261 C 
HETATM   10  O7  UNL     1     -32.493   9.852   0.661  1.00 20.00    -0.305 OA
ENDBRANCH   8   9
ENDBRANCH   6   8
ENDBRANCH   1   6
TORSDOF 4
ENDMDL
MODEL 5
REMARK VINA RESULT:      -1.9      3.454      4.377
REMARK  4 active torsions:
REMARK  status: ('A' for Active; 'I' for Inactive)
REMARK    1  A    between atoms: C1_1  and  C3_3 
REMARK    2  A    between atoms: C3_3  and  N6_6 
REMARK    3  A    between atoms: C4_4  and  C5_5 
REMARK    4  A    between atoms: C4_4  and  N6_6 
ROOT
HETATM    1  C4  UNL     1     -33.108   7.511   3.212  1.00 20.00     0.389 C 
ENDROOT
BRANCH   1   2
HETATM    2  C5  UNL     1     -32.327   7.765   1.947  1.00 20.00     0.413 C 
HETATM    3  F8  UNL     1     -32.619   6.830   1.016  1.00 20.00    -0.169 F 
HETATM    4  F9  UNL     1     -32.622   8.972   1.421  1.00 20.00    -0.169 F 
HETATM    5  F10 UNL     1     -30.997   7.719   2.172  1.00 20.00    -0.169 F 
ENDBRANCH   1   2
BRANCH   1   6
HETATM    6  N6  UNL     1     -34.035   6.390   3.058  1.00 20.00     0.099 N 
HETATM    7  C2  UNL     1     -35.138   6.504   4.013  1.00 20.00     0.310 C 
BRANCH   6   8
HETATM    8  C3  UNL     1     -33.336   5.119   3.233  1.00 20.00     0.341 C 
BRANCH   8   9
HETATM    9  C1  UNL     1     -34.143   4.257   4.161  1.00 20.00     0.261 C 
HETATM   10  O7  UNL     1     -33.742   3.170   4.571  1.00 20.00    -0.305 OA
ENDBRANCH   8   9
ENDBRANCH   6   8
ENDBRANCH   1   6
TORSDOF 4
ENDMDL
MODEL 6
REMARK VINA RESULT:      -1.9      3.455      4.431
REMARK  4 active torsions:
REMARK  status: ('A' for Active; 'I' for Inactive)
REMARK    1  A    between atoms: C1_1  and  C3_3 
REMARK    2  A    between atoms: C3_3  and  N6_6 
REMARK    3  A    between atoms: C4_4  and  C5_5 
REMARK    4  A    between atoms: C4_4  and  N6_6 
ROOT
HETATM    1  C4  UNL     1     -32.899   5.783   3.039  1.00 20.00     0.389 C 
ENDROOT
BRANCH   1   2
HETATM    2  C5  UNL     1     -32.662   6.098   1.584  1.00 20.00     0.413 C 
HETATM    3  F8  UNL     1     -32.373   7.409   1.425  1.00 20.00    -0.169 F 
HETATM    4  F9  UNL     1     -31.627   5.387   1.088  1.00 20.00    -0.169 F 
HETATM    5  F10 UNL     1     -33.753   5.826   0.837  1.00 20.00    -0.169 F 
ENDBRANCH   1   2
BRANCH   1   6
HETATM    6  N6  UNL     1     -34.311   5.917   3.396  1.00 20.00     0.099 N 
HETATM    7  C2  UNL     1     -34.557   7.210   4.035  1.00 20.00     0.310 C 
BRANCH   6   8
HETATM    8  C3  UNL     1     -34.721   4.825   4.278  1.00 20.00     0.341 C 
BRANCH   8   9
HETATM    9  C1  UNL     1     -33.759   3.685   4.100  1.00 20.00     0.261 C 
HETATM   10  O7  UNL     1     -33.297   3.056   5.048  1.00 20.00    -0.305 OA
ENDBRANCH   8   9
ENDBRANCH   6   8
ENDBRANCH   1   6
TORSDOF 4
ENDMDL
MODEL 7
REMARK VINA RESULT:      -1.8      3.429      4.381
REMARK  4 active torsions:
REMARK  status: ('A' for Active; 'I' for Inactive)
REMARK    1  A    between atoms: C1_1  and  C3_3 
REMARK    2  A    between atoms: C3_3  and  N6_6 
REMARK    3  A    between atoms: C4_4  and  C5_5 
REMARK    4  A    between atoms: C4_4  and  N6_6 
ROOT
HETATM    1  C4  UNL     1     -32.991   6.881   2.696  1.00 20.00     0.389 C 
ENDROOT
BRANCH   1   2
HETATM    2  C5  UNL     1     -32.133   7.964   2.091  1.00 20.00     0.413 C 
HETATM    3  F8  UNL     1     -31.355   7.456   1.109  1.00 20.00    -0.169 F 
HETATM    4  F9  UNL     1     -32.885   8.945   1.552  1.00 20.00    -0.169 F 
HETATM    5  F10 UNL     1     -31.317   8.519   3.013  1.00 20.00    -0.169 F 
ENDBRANCH   1   2
BRANCH   1   6
HETATM    6  N6  UNL     1     -34.042   7.439   3.547  1.00 20.00     0.099 N 
HETATM    7  C2  UNL     1     -33.467   7.996   4.771  1.00 20.00     0.310 C 
BRANCH   6   8
HETATM    8  C3  UNL     1     -35.036   6.416   3.868  1.00 20.00     0.341 C 
BRANCH   8   9
HETATM    9  C1  UNL     1     -34.372   5.071   3.800  1.00 20.00     0.261 C 
HETATM   10  O7  UNL     1     -34.666   4.149   4.558  1.00 20.00    -0.305 OA
ENDBRANCH   8   9
ENDBRANCH   6   8
ENDBRANCH   1   6
TORSDOF 4
ENDMDL
MODEL 8
REMARK VINA RESULT:      -1.7      3.958      4.647
REMARK  4 active torsions:
REMARK  status: ('A' for Active; 'I' for Inactive)
REMARK    1  A    between atoms: C1_1  and  C3_3 
REMARK    2  A    between atoms: C3_3  and  N6_6 
REMARK    3  A    between atoms: C4_4  and  C5_5 
REMARK    4  A    between atoms: C4_4  and  N6_6 
ROOT
HETATM    1  C4  UNL     1     -33.092   8.590   1.063  1.00 20.00     0.389 C 
ENDROOT
BRANCH   1   2
HETATM    2  C5  UNL     1     -32.282   9.580   0.264  1.00 20.00     0.413 C 
HETATM    3  F8  UNL     1     -32.791   9.710  -0.982  1.00 20.00    -0.169 F 
HETATM    4  F9  UNL     1     -32.288  10.801   0.838  1.00 20.00    -0.169 F 
HETATM    5  F10 UNL     1     -30.998   9.180   0.141  1.00 20.00    -0.169 F 
ENDBRANCH   1   2
BRANCH   1   6
HETATM    6  N6  UNL     1     -32.258   7.851   2.010  1.00 20.00     0.099 N 
HETATM    7  C2  UNL     1     -32.018   6.491   1.527  1.00 20.00     0.310 C 
BRANCH   6   8
HETATM    8  C3  UNL     1     -32.886   7.822   3.330  1.00 20.00     0.341 C 
BRANCH   8   9
HETATM    9  C1  UNL     1     -33.895   6.709   3.351  1.00 20.00     0.261 C 
HETATM   10  O7  UNL     1     -34.938   6.774   3.997  1.00 20.00    -0.305 OA
ENDBRANCH   8   9
ENDBRANCH   6   8
ENDBRANCH   1   6
TORSDOF 4
ENDMDL
MODEL 9
REMARK VINA RESULT:      -1.5      2.610      3.266
REMARK  4 active torsions:
REMARK  status: ('A' for Active; 'I' for Inactive)
REMARK    1  A    between atoms: C1_1  and  C3_3 
REMARK    2  A    between atoms: C3_3  and  N6_6 
REMARK    3  A    between atoms: C4_4  and  C5_5 
REMARK    4  A    between atoms: C4_4  and  N6_6 
ROOT
HETATM    1  C4  UNL     1     -32.986   7.073   1.453  1.00 20.00     0.389 C 
ENDROOT
BRANCH   1   2
HETATM    2  C5  UNL     1     -32.742   5.585   1.450  1.00 20.00     0.413 C 
HETATM    3  F8  UNL     1     -31.418   5.324   1.370  1.00 20.00    -0.169 F 
HETATM    4  F9  UNL     1     -33.206   5.006   2.577  1.00 20.00    -0.169 F 
HETATM    5  F10 UNL     1     -33.340   4.990   0.396  1.00 20.00    -0.169 F 
ENDBRANCH   1   2
BRANCH   1   6
HETATM    6  N6  UNL     1     -31.765   7.819   1.755  1.00 20.00     0.099 N 
HETATM    7  C2  UNL     1     -31.932   8.597   2.983  1.00 20.00     0.310 C 
BRANCH   6   8
HETATM    8  C3  UNL     1     -31.412   8.696   0.639  1.00 20.00     0.341 C 
BRANCH   8   9
HETATM    9  C1  UNL     1     -32.545   9.657   0.415  1.00 20.00     0.261 C 
HETATM   10  O7  UNL     1     -32.971   9.927  -0.705  1.00 20.00    -0.305 OA
ENDBRANCH   8   9
ENDBRANCH   6   8
ENDBRANCH   1   6
TORSDOF 4
ENDMDL
