MODEL 1
REMARK VINA RESULT:      -0.1      0.000      0.000
REMARK  2 active torsions:
REMARK  status: ('A' for Active; 'I' for Inactive)
REMARK    1  A    between atoms: C2_2  and  C8_8 
REMARK    2  A    between atoms: C8_8  and  O9_9 
ROOT
HETATM    1  C3  UNL     1     -33.991   7.440   4.427  1.00 20.00     0.012 C 
HETATM    2  C4  UNL     1     -35.534   6.549   3.344  1.00 20.00     0.012 C 
HETATM    3  C5  UNL     1     -33.373   5.374   3.250  1.00 20.00     0.047 C 
HETATM    4  C6  UNL     1     -34.403   5.946   4.233  1.00 20.00    -0.010 C 
HETATM    5  C7  UNL     1     -34.345   7.468   2.900  1.00 20.00     0.024 C 
HETATM    6  C8  UNL     1     -33.349   6.520   2.222  1.00 20.00     0.079 C 
ENDROOT
BRANCH   6   7
HETATM    7  C2  UNL     1     -32.030   7.191   2.039  1.00 20.00     0.001 C 
HETATM    8  C1  UNL     1     -31.865   8.355   1.402  1.00 20.00     0.010 C 
ENDBRANCH   6   7
BRANCH   6   9
HETATM    9  O9  UNL     1     -33.835   6.123   0.947  1.00 20.00    -0.385 OA
HETATM   10  H21 UNL     1     -33.120   6.285   0.310  1.00 20.00     0.211 HD
ENDBRANCH   6   9
TORSDOF 2
ENDMDL
MODEL 2
REMARK VINA RESULT:       0.0      1.932      2.951
REMARK  2 active torsions:
REMARK  status: ('A' for Active; 'I' for Inactive)
REMARK    1  A    between atoms: C2_2  and  C8_8 
REMARK    2  A    between atoms: C8_8  and  O9_9 
ROOT
HETATM    1  C3  UNL     1     -33.445   6.195   0.744  1.00 20.00     0.012 C 
HETATM    2  C4  UNL     1     -31.836   5.579   1.918  1.00 20.00     0.012 C 
HETATM    3  C5  UNL     1     -33.243   7.340   2.908  1.00 20.00     0.047 C 
HETATM    4  C6  UNL     1     -33.309   5.943   2.279  1.00 20.00    -0.010 C 
HETATM    5  C7  UNL     1     -32.028   6.821   0.983  1.00 20.00     0.024 C 
HETATM    6  C8  UNL     1     -32.247   8.001   1.937  1.00 20.00     0.079 C 
ENDROOT
BRANCH   6   7
HETATM    7  C2  UNL     1     -32.765   9.186   1.194  1.00 20.00     0.001 C 
HETATM    8  C1  UNL     1     -32.219   9.660   0.069  1.00 20.00     0.010 C 
ENDBRANCH   6   7
BRANCH   6   9
HETATM    9  O9  UNL     1     -31.025   8.360   2.566  1.00 20.00    -0.385 OA
HETATM   10  H21 UNL     1     -30.364   7.702   2.293  1.00 20.00     0.211 HD
ENDBRANCH   6   9
TORSDOF 2
ENDMDL
MODEL 3
REMARK VINA RESULT:       0.3      1.604      3.344
REMARK  2 active torsions:
REMARK  status: ('A' for Active; 'I' for Inactive)
REMARK    1  A    between atoms: C2_2  and  C8_8 
REMARK    2  A    between atoms: C8_8  and  O9_9 
ROOT
HETATM    1  C3  UNL     1     -33.529   6.328   0.896  1.00 20.00     0.012 C 
HETATM    2  C4  UNL     1     -31.772   7.206   1.596  1.00 20.00     0.012 C 
HETATM    3  C5  UNL     1     -32.777   5.532   3.095  1.00 20.00     0.047 C 
HETATM    4  C6  UNL     1     -32.297   5.738   1.653  1.00 20.00    -0.010 C 
HETATM    5  C7  UNL     1     -33.279   7.487   1.921  1.00 20.00     0.024 C 
HETATM    6  C8  UNL     1     -33.502   6.874   3.309  1.00 20.00     0.079 C 
ENDROOT
BRANCH   6   7
HETATM    7  C2  UNL     1     -34.958   6.776   3.610  1.00 20.00     0.001 C 
HETATM    8  C1  UNL     1     -35.523   5.746   4.250  1.00 20.00     0.010 C 
ENDBRANCH   6   7
BRANCH   6   9
HETATM    9  O9  UNL     1     -32.886   7.676   4.307  1.00 20.00    -0.385 OA
HETATM   10  H21 UNL     1     -32.935   7.177   5.139  1.00 20.00     0.211 HD
ENDBRANCH   6   9
TORSDOF 2
ENDMDL
MODEL 4
REMARK VINA RESULT:       0.5      1.469      3.415
REMARK  2 active torsions:
REMARK  status: ('A' for Active; 'I' for Inactive)
REMARK    1  A    between atoms: C2_2  and  C8_8 
REMARK    2  A    between atoms: C8_8  and  O9_9 
ROOT
HETATM    1  C3  UNL     1     -31.882   6.636   1.588  1.00 20.00     0.012 C 
HETATM    2  C4  UNL     1     -32.532   8.580   1.204  1.00 20.00     0.012 C 
HETATM    3  C5  UNL     1     -32.262   8.016   3.585  1.00 20.00     0.047 C 
HETATM    4  C6  UNL     1     -31.520   8.007   2.243  1.00 20.00    -0.010 C 
HETATM    5  C7  UNL     1     -33.308   7.286   1.629  1.00 20.00     0.024 C 
HETATM    6  C8  UNL     1     -33.632   7.493   3.114  1.00 20.00     0.079 C 
ENDROOT
BRANCH   6   7
HETATM    7  C2  UNL     1     -34.079   6.214   3.735  1.00 20.00     0.001 C 
HETATM    8  C1  UNL     1     -35.329   5.979   4.148  1.00 20.00     0.010 C 
ENDBRANCH   6   7
BRANCH   6   9
HETATM    9  O9  UNL     1     -34.667   8.455   3.263  1.00 20.00    -0.385 OA
HETATM   10  H21 UNL     1     -34.467   9.181   2.650  1.00 20.00     0.211 HD
ENDBRANCH   6   9
TORSDOF 2
ENDMDL
MODEL 5
REMARK VINA RESULT:       0.5      1.434      2.104
REMARK  2 active torsions:
REMARK  status: ('A' for Active; 'I' for Inactive)
REMARK    1  A    between atoms: C2_2  and  C8_8 
REMARK    2  A    between atoms: C8_8  and  O9_9 
ROOT
HETATM    1  C3  UNL     1     -34.720   7.559   3.007  1.00 20.00     0.012 C 
HETATM    2  C4  UNL     1     -33.390   5.964   3.191  1.00 20.00     0.012 C 
HETATM    3  C5  UNL     1     -32.436   8.184   3.658  1.00 20.00     0.047 C 
HETATM    4  C6  UNL     1     -33.593   7.254   4.044  1.00 20.00    -0.010 C 
HETATM    5  C7  UNL     1     -33.625   6.998   2.037  1.00 20.00     0.024 C 
HETATM    6  C8  UNL     1     -32.442   7.968   2.134  1.00 20.00     0.079 C 
ENDROOT
BRANCH   6   7
HETATM    7  C2  UNL     1     -32.697   9.187   1.314  1.00 20.00     0.001 C 
HETATM    8  C1  UNL     1     -32.213   9.375   0.081  1.00 20.00     0.010 C 
ENDBRANCH   6   7
BRANCH   6   9
HETATM    9  O9  UNL     1     -31.254   7.347   1.663  1.00 20.00    -0.385 OA
HETATM   10  H21 UNL     1     -31.007   6.677   2.322  1.00 20.00     0.211 HD
ENDBRANCH   6   9
TORSDOF 2
ENDMDL
MODEL 6
REMARK VINA RESULT:       0.7      1.471      3.286
REMARK  2 active torsions:
REMARK  status: ('A' for Active; 'I' for Inactive)
REMARK    1  A    between atoms: C2_2  and  C8_8 
REMARK    2  A    between atoms: C8_8  and  O9_9 
ROOT
HETATM    1  C3  UNL     1     -31.909   5.857   1.838  1.00 20.00     0.012 C 
HETATM    2  C4  UNL     1     -33.425   7.000   0.975  1.00 20.00     0.012 C 
HETATM    3  C5  UNL     1     -33.019   7.428   3.366  1.00 20.00     0.047 C 
HETATM    4  C6  UNL     1     -32.310   7.357   2.007  1.00 20.00    -0.010 C 
HETATM    5  C7  UNL     1     -33.468   5.704   1.856  1.00 20.00     0.024 C 
HETATM    6  C8  UNL     1     -33.921   6.186   3.240  1.00 20.00     0.079 C 
ENDROOT
BRANCH   6   7
HETATM    7  C2  UNL     1     -33.697   5.124   4.262  1.00 20.00     0.001 C 
HETATM    8  C1  UNL     1     -33.920   3.822   4.050  1.00 20.00     0.010 C 
ENDBRANCH   6   7
BRANCH   6   9
HETATM    9  O9  UNL     1     -35.303   6.512   3.221  1.00 20.00    -0.385 OA
HETATM   10  H21 UNL     1     -35.397   7.364   3.677  1.00 20.00     0.211 HD
ENDBRANCH   6   9
TORSDOF 2
ENDMDL
MODEL 7
REMARK VINA RESULT:       1.0      1.396      2.085
REMARK  2 active torsions:
REMARK  status: ('A' for Active; 'I' for Inactive)
REMARK    1  A    between atoms: C2_2  and  C8_8 
REMARK    2  A    between atoms: C8_8  and  O9_9 
ROOT
HETATM    1  C3  UNL     1     -34.622   5.350   4.158  1.00 20.00     0.012 C 
HETATM    2  C4  UNL     1     -34.147   7.309   4.689  1.00 20.00     0.012 C 
HETATM    3  C5  UNL     1     -34.947   7.013   2.380  1.00 20.00     0.047 C 
HETATM    4  C6  UNL     1     -35.312   6.714   3.840  1.00 20.00    -0.010 C 
HETATM    5  C7  UNL     1     -33.350   6.224   3.888  1.00 20.00     0.024 C 
HETATM    6  C8  UNL     1     -33.448   6.666   2.424  1.00 20.00     0.079 C 
ENDROOT
BRANCH   6   7
HETATM    7  C2  UNL     1     -33.017   5.566   1.515  1.00 20.00     0.001 C 
HETATM    8  C1  UNL     1     -31.747   5.342   1.160  1.00 20.00     0.010 C 
ENDBRANCH   6   7
BRANCH   6   9
HETATM    9  O9  UNL     1     -32.617   7.795   2.192  1.00 20.00    -0.385 OA
HETATM   10  H21 UNL     1     -31.708   7.522   2.397  1.00 20.00     0.211 HD
ENDBRANCH   6   9
TORSDOF 2
ENDMDL
MODEL 8
REMARK VINA RESULT:       1.0      1.297      2.945
REMARK  2 active torsions:
REMARK  status: ('A' for Active; 'I' for Inactive)
REMARK    1  A    between atoms: C2_2  and  C8_8 
REMARK    2  A    between atoms: C8_8  and  O9_9 
ROOT
HETATM    1  C3  UNL     1     -33.826   7.672   4.930  1.00 20.00     0.012 C 
HETATM    2  C4  UNL     1     -33.236   8.021   2.961  1.00 20.00     0.012 C 
HETATM    3  C5  UNL     1     -35.286   6.683   3.220  1.00 20.00     0.047 C 
HETATM    4  C6  UNL     1     -34.640   8.009   3.641  1.00 20.00    -0.010 C 
HETATM    5  C7  UNL     1     -33.055   6.778   3.900  1.00 20.00     0.024 C 
HETATM    6  C8  UNL     1     -34.073   5.751   3.391  1.00 20.00     0.079 C 
ENDROOT
BRANCH   6   7
HETATM    7  C2  UNL     1     -34.243   4.649   4.381  1.00 20.00     0.001 C 
HETATM    8  C1  UNL     1     -33.591   3.483   4.323  1.00 20.00     0.010 C 
ENDBRANCH   6   7
BRANCH   6   9
HETATM    9  O9  UNL     1     -33.635   5.190   2.161  1.00 20.00    -0.385 OA
HETATM   10  H21 UNL     1     -33.483   5.931   1.552  1.00 20.00     0.211 HD
ENDBRANCH   6   9
TORSDOF 2
ENDMDL
MODEL 9
REMARK VINA RESULT:       1.1      1.249      3.326
REMARK  2 active torsions:
REMARK  status: ('A' for Active; 'I' for Inactive)
REMARK    1  A    between atoms: C2_2  and  C8_8 
REMARK    2  A    between atoms: C8_8  and  O9_9 
ROOT
HETATM    1  C3  UNL     1     -32.667   8.765   1.965  1.00 20.00     0.012 C 
HETATM    2  C4  UNL     1     -31.254   7.241   1.794  1.00 20.00     0.012 C 
HETATM    3  C5  UNL     1     -33.547   6.622   1.148  1.00 20.00     0.047 C 
HETATM    4  C6  UNL     1     -32.449   7.660   0.883  1.00 20.00    -0.010 C 
HETATM    5  C7  UNL     1     -32.319   7.556   2.900  1.00 20.00     0.024 C 
HETATM    6  C8  UNL     1     -33.430   6.523   2.680  1.00 20.00     0.079 C 
ENDROOT
BRANCH   6   7
HETATM    7  C2  UNL     1     -34.654   6.901   3.443  1.00 20.00     0.001 C 
HETATM    8  C1  UNL     1     -35.365   6.047   4.189  1.00 20.00     0.010 C 
ENDBRANCH   6   7
BRANCH   6   9
HETATM    9  O9  UNL     1     -33.004   5.239   3.115  1.00 20.00    -0.385 OA
HETATM   10  H21 UNL     1     -33.778   4.806   3.511  1.00 20.00     0.211 HD
ENDBRANCH   6   9
TORSDOF 2
ENDMDL
